data_PCOD8195650
_publ_section_title
;
Structure prediction by ZEFSAII (Michael W. Deem and Ramdas Pophale) SiO2 
 PCOD8195650
Probable space group: P M M M
;
_chemical_formula_sum "Si O2"
_cell_formula_units_Z 52
_cell_length_a 14.178849
_cell_length_b 27.063932
_cell_length_c 7.905639
_cell_angle_alpha 90.000000
_cell_angle_beta 90.000000
_cell_angle_gamma 90.000000
_cell_volume 3033.673585
_symmetry_space_group_name_H-M "P M M M"
_symmetry_group_IT_number 47
_symmetry_cell_setting 'orthorhombic'
loop_
_space_group_symop_operation_xyz
x,y,z
-x,-y,z
x,-y,-z
-x,y,-z
-x,-y,-z
x,y,-z
-x,y,z
x,-y,z
loop_
_atom_site_type_symbol
_atom_site_label
_atom_site_fract_x
_atom_site_fract_y
_atom_site_fract_z
Si Si1 0.268011 0.688752 0.809355
Si Si2 0.387982 0.500000 0.190163
Si Si3 0.388159 0.118012 0.814244
Si Si4 0.612726 0.944091 0.500000
Si Si5 0.608227 0.604189 0.693102
Si Si6 0.605918 0.777146 0.305915
Si Si7 0.891342 0.624927 0.691935
Si Si8 0.888631 0.444566 0.000000
O O1 0.334770 0.640873 0.811773
O O2 0.320491 0.733089 0.715846
O O3 0.170226 0.674719 0.715963
O O4 0.245898 0.704780 0.000000
O O5 0.500000 0.500000 0.194642
O O6 0.351008 0.548868 0.284901
O O7 0.348939 0.500000 0.000000
O O8 0.500000 0.116216 0.800408
O O9 0.346113 0.082861 0.667729
O O10 0.356258 0.174908 0.793239
O O11 0.354354 0.099528 0.000000
O O12 0.500000 0.942937 0.500000
O O13 0.650509 0.000000 0.500000
O O14 0.621296 0.621089 0.500000
O O15 0.500000 0.606472 0.750295
O O16 0.600895 0.792675 0.500000
O O17 0.500000 0.761429 0.244275
O O18 0.876748 0.604546 0.500000
O O19 0.856768 0.584261 0.829367
O O20 0.000000 0.639252 0.723181
O O21 0.844350 0.500000 0.000000
O O22 0.000000 0.449219 0.000000
#
# Coordination Sequence:
#
# PCOD8195650 Si02
#       8
#     8   4   8   4   8   8   8   4
#     4  12  23  34  50  73  96 120 158 198 234 285
#     4   9  17  31  49  65  84 113 144 179 229 279
#     4   9  16  27  42  61  88 123 163 205 251 291
#     4   9  16  26  40  60  88 124 167 210 250 289
#     4  10  20  34  49  66  90 118 149 186 227 277
#     4  10  19  32  49  69  97 130 164 207 250 290
#     4  10  21  39  59  77 101 127 152 190 237 289
#     4   9  18  36  60  82 101 121 149 187 235 290
#
# _framework density 17.140934000000001
#
# number of rings (size 3 to 8) (size 9 to 14) (size 15 to 20)
#    0.000    2.077    1.538    3.000    0.000    5.231 
#    1.385    3.077    0.000    0.000    0.000    0.000 
#    0.000    0.000    0.000    0.000    0.000    1.538 
#
# Total GULP energy -644633.635270 kJ/mol
# GULP energy per Si atom -12396.800678 kJ/mol
# Density = 1.710192 g / cm^3
# Si number density = 17.140934 Si / 1000 Ang^3
#
#
#
# Elastic Constant Matrix: (Units=GPa)
#
#
# Indices 1 2 3 4 5 6 
#
# 1 51.6825 30.1032 19.6602 0.0000 0.0000 0.0000
# 2 30.1032 103.7714 43.9283 0.0000 0.0000 0.0000
# 3 19.6602 43.9283 115.6974 0.0000 0.0000 0.0000
# 4 0.0000 0.0000 0.0000 22.2106 0.0000 0.0000
# 5 0.0000 0.0000 0.0000 0.0000 15.8840 0.0000
# 6 0.0000 0.0000 0.0000 0.0000 0.0000 1.9074
#
#
#
# Elastic Compliance Matrix: (Units=1/GPa)
#
#
# Indices 1 2 3 4 5 6 
#
# 1 0.023553 -0.006122 -0.001678 0.000000 0.000000 0.000000
# 2 -0.006122 0.013073 -0.003923 0.000000 0.000000 0.000000
# 3 -0.001678 -0.003923 0.010418 0.000000 0.000000 0.000000
# 4 0.000000 0.000000 0.000000 0.045024 0.000000 0.000000
# 5 0.000000 0.000000 0.000000 0.000000 0.062956 0.000000
# 6 0.000000 0.000000 0.000000 0.000000 0.000000 0.524267
#
#
# Mechanical properties :
#
#
# Convention : Reuss Voigt Hill
#
# Bulk Modulus (GPa) = 42.37728 50.94832 46.66280
# Shear Modulus (GPa) = 7.03626 19.83104 13.43365
#
# Velocity S-wave (km/s) = 2.02826 3.40507 2.80253
# Velocity P-wave (km/s) = 5.50106 6.72659 6.14446
#
# Compressibility (1/GPa) = 0.02359755
#
# Stress axis : x y z
#
# Youngs Moduli (GPa) = 42.45707 76.49087 95.98783
#
# Poissons Ratio (x) = 0.46830 0.16105
# Poissons Ratio (y) = 0.25994 0.37660
# Poissons Ratio (z) = 0.07123 0.30010
#
# Static dielectric constant tensor:
#      x y z
#    x 2.889790 0.000000 0.000000 
#    y 0.000000 3.132030 0.000000 
#    z 0.000000 0.000000 3.412340 
# 
# 
# High freq. dielectric constant tensor:
#      x y z
#    x 1.611910 0.000000 0.000000 
#    y 0.000000 1.639530 0.000000 
#    z 0.000000 0.000000 1.682010 
# 
# From -- ./inp_files/7714.got.cif
#   From: 2010.03.12/outbox.cif.g09.slc.cpg/sg47_4_cif.got.tgz:7714.got - 2010.04.14 03:12:58.
