data_PCOD8195463
_publ_section_title
;
Structure prediction by ZEFSAII (Michael W. Deem and Ramdas Pophale) SiO2 
 PCOD8195463
Probable space group: P M M M
;
_chemical_formula_sum "Si O2"
_cell_formula_units_Z 52
_cell_length_a 8.728455
_cell_length_b 28.277765
_cell_length_c 11.723303
_cell_angle_alpha 90.000000
_cell_angle_beta 90.000000
_cell_angle_gamma 90.000000
_cell_volume 2893.559706
_symmetry_space_group_name_H-M "P M M M"
_symmetry_group_IT_number 47
_symmetry_cell_setting 'orthorhombic'
loop_
_space_group_symop_operation_xyz
x,y,z
-x,-y,z
x,-y,-z
-x,y,-z
-x,-y,-z
x,y,-z
-x,y,z
x,-y,z
loop_
_atom_site_type_symbol
_atom_site_label
_atom_site_fract_x
_atom_site_fract_y
_atom_site_fract_z
Si Si1 0.182380 0.447623 0.871717
Si Si2 0.818945 0.212631 0.500000
Si Si3 0.823259 0.266027 0.133486
Si Si4 0.672303 0.000000 0.135260
Si Si5 0.320971 0.817506 0.731353
Si Si6 0.178929 0.903097 0.133505
Si Si7 0.183016 0.320386 0.500000
Si Si8 0.819007 0.359230 0.736665
O O1 0.235016 0.500000 0.831322
O O2 0.251189 0.408276 0.785512
O O3 0.000000 0.444537 0.872510
O O4 0.242628 0.437843 0.000000
O O5 0.761950 0.184710 0.610190
O O6 0.755574 0.266532 0.500000
O O7 0.000000 0.213113 0.500000
O O8 0.717306 0.228069 0.193724
O O9 0.774589 0.317680 0.176355
O O10 0.000000 0.255262 0.164990
O O11 0.794654 0.263427 0.000000
O O12 0.762851 0.953862 0.177975
O O13 0.500000 0.000000 0.185344
O O14 0.667488 0.000000 0.000000
O O15 0.500000 0.819837 0.709615
O O16 0.268961 0.863865 0.797368
O O17 0.000000 0.898552 0.158707
O O18 0.214463 0.896086 0.000000
O O19 0.247717 0.347624 0.388764
O O20 0.000000 0.319489 0.500000
O O21 0.000000 0.364088 0.727538
#
# Coordination Sequence:
#
# PCOD8195463 Si02
#       8
#     8   4   8   4   8   8   4   8
#     4   8  13  21  34  55  87 125 161 203 260 320
#     4  11  21  39  59  73  96 135 180 220 257 313
#     4  10  19  31  49  72  98 133 175 214 257 314
#     4   9  17  31  53  82 115 148 181 223 276 321
#     4  12  24  36  52  77 108 138 172 218 272 320
#     4  10  20  35  56  82 112 148 188 224 261 314
#     4   9  16  27  46  65  85 119 166 212 257 302
#     4   9  15  25  41  63  88 122 169 215 255 309
#
# _framework density 17.970943999999999
#
# number of rings (size 3 to 8) (size 9 to 14) (size 15 to 20)
#    0.000    2.231    1.538    3.692    0.000    5.846 
#    0.000    0.385    0.000    2.769    0.000    3.231 
#    0.000    0.615    0.000    4.615    0.000    5.077 
#
# Total GULP energy -644744.734679 kJ/mol
# GULP energy per Si atom -12398.937205 kJ/mol
# Density = 1.793004 g / cm^3
# Si number density = 17.970944 Si / 1000 Ang^3
#
#
#
# Elastic Constant Matrix: (Units=GPa)
#
#
# Indices 1 2 3 4 5 6 
#
# 1 54.4264 38.7515 35.2380 0.0000 0.0000 0.0000
# 2 38.7515 118.3900 45.0508 0.0000 0.0000 0.0000
# 3 35.2380 45.0508 91.3791 0.0000 0.0000 0.0000
# 4 0.0000 0.0000 0.0000 1.3594 0.0000 0.0000
# 5 0.0000 0.0000 0.0000 0.0000 15.1981 0.0000
# 6 0.0000 0.0000 0.0000 0.0000 0.0000 -0.8308
#
#
#
# Elastic Compliance Matrix: (Units=1/GPa)
#
#
# Indices 1 2 3 4 5 6 
#
# 1 0.027712 -0.006160 -0.007650 0.000000 0.000000 0.000000
# 2 -0.006160 0.011766 -0.003426 0.000000 0.000000 0.000000
# 3 -0.007650 -0.003426 0.015582 0.000000 0.000000 0.000000
# 4 0.000000 0.000000 0.000000 0.735605 0.000000 0.000000
# 5 0.000000 0.000000 0.000000 0.000000 0.065798 0.000000
# 6 0.000000 0.000000 0.000000 0.000000 0.000000 -1.203636
#
#
# Mechanical properties :
#
#
# Convention : Reuss Voigt Hill
#
# Bulk Modulus (GPa) = 48.56595 55.80845 52.18720
# Shear Modulus (GPa) = -16.34842 12.82235 -1.76304
#
# Velocity S-wave (km/s) = -3.01942 2.67405 -0.99155
# Velocity P-wave (km/s) = 3.86362 6.37623 5.27180
#
# Compressibility (1/GPa) = 0.02059056
#
# Stress axis : x y z
#
# Youngs Moduli (GPa) = 36.08569 84.98765 64.17611
#
# Poissons Ratio (x) = 0.52351 0.49092
# Poissons Ratio (y) = 0.22228 0.21984
# Poissons Ratio (z) = 0.27604 0.29113
#
# Static dielectric constant tensor:
#      x y z
#    x 2.996810 0.000000 0.000000 
#    y 0.000000 3.642780 0.000000 
#    z 0.000000 0.000000 3.452700 
# 
# 
# High freq. dielectric constant tensor:
#      x y z
#    x 1.660060 0.000000 0.000000 
#    y 0.000000 1.704540 0.000000 
#    z 0.000000 0.000000 1.687800 
# 
# From -- ./inp_files/15563.got.cif
#   From: 2010.03.12/outbox.cif.g09.slc.cpg/sg47_8_cif.got.tgz:15563.got - 2010.04.14 03:12:58.
