data_PCOD8195600
_publ_section_title
;
Structure prediction by ZEFSAII (Michael W. Deem and Ramdas Pophale) SiO2 
 PCOD8195600
Probable space group: P M M M
;
_chemical_formula_sum "Si O2"
_cell_formula_units_Z 40
_cell_length_a 8.691397
_cell_length_b 29.134037
_cell_length_c 7.836474
_cell_angle_alpha 90.000000
_cell_angle_beta 90.000000
_cell_angle_gamma 90.000000
_cell_volume 1984.316539
_symmetry_space_group_name_H-M "P M M M"
_symmetry_group_IT_number 47
_symmetry_cell_setting 'orthorhombic'
loop_
_space_group_symop_operation_xyz
x,y,z
-x,-y,z
x,-y,-z
-x,y,-z
-x,-y,-z
x,y,-z
-x,y,z
x,-y,z
loop_
_atom_site_type_symbol
_atom_site_label
_atom_site_fract_x
_atom_site_fract_y
_atom_site_fract_z
Si Si1 0.675815 0.354156 0.193799
Si Si2 0.822572 0.734242 0.307312
Si Si3 0.320277 0.211088 0.000000
Si Si4 0.182745 0.888653 0.000000
Si Si5 0.182971 0.051584 0.689233
Si Si6 0.318233 0.549317 0.695484
O O1 0.500000 0.353257 0.261613
O O2 0.776926 0.319401 0.304862
O O3 0.745407 0.405895 0.206190
O O4 0.683399 0.337284 0.000000
O O5 0.794496 0.752757 0.500000
O O6 0.720851 0.761903 0.172483
O O7 0.000000 0.739655 0.255465
O O8 0.231399 0.163583 0.000000
O O9 0.500000 0.201673 0.000000
O O10 0.250026 0.913849 0.831394
O O11 0.000000 0.891387 0.000000
O O12 0.239574 0.066867 0.500000
O O13 0.000000 0.052217 0.694513
O O14 0.241264 0.000000 0.729055
O O15 0.270001 0.554741 0.500000
O O16 0.500000 0.547974 0.717171
O O17 0.253022 0.500000 0.765458
#
# Coordination Sequence:
#
# PCOD8195600 Si02
#       6
#     8   8   4   4   8   8
#     4  10  19  31  52  82 112 144 183 230 282 336
#     4  11  24  42  64  86 110 145 189 239 295 351
#     4  12  26  43  61  85 117 153 194 242 295 351
#     4  10  19  32  54  82 114 151 191 238 289 336
#     4   8  14  26  48  81 117 151 191 237 280 324
#     4   8  14  25  42  68 105 146 185 224 266 319
#
# _framework density 20.158073999999999
#
# number of rings (size 3 to 8) (size 9 to 14) (size 15 to 20)
#    0.000    2.400    1.000    3.600    0.000    4.800 
#    0.000    4.000    0.000    1.800    0.000    5.600 
#    0.000    0.000    0.000    0.000    0.000    0.000 
#
# Total GULP energy -495741.451964 kJ/mol
# GULP energy per Si atom -12393.536299 kJ/mol
# Density = 2.011219 g / cm^3
# Si number density = 20.158074 Si / 1000 Ang^3
#
#
#
# Elastic Constant Matrix: (Units=GPa)
#
#
# Indices 1 2 3 4 5 6 
#
# 1 16.6310 -1.7975 13.2139 0.0000 0.0000 0.0000
# 2 -1.7975 116.9947 52.6107 0.0000 0.0000 0.0000
# 3 13.2139 52.6107 109.3031 0.0000 0.0000 0.0000
# 4 0.0000 0.0000 0.0000 24.6383 0.0000 0.0000
# 5 0.0000 0.0000 0.0000 0.0000 15.7228 0.0000
# 6 0.0000 0.0000 0.0000 0.0000 0.0000 48.2046
#
#
#
# Elastic Compliance Matrix: (Units=1/GPa)
#
#
# Indices 1 2 3 4 5 6 
#
# 1 0.069893 0.006220 -0.011443 0.000000 0.000000 0.000000
# 2 0.006220 0.011462 -0.006269 0.000000 0.000000 0.000000
# 3 -0.011443 -0.006269 0.013550 0.000000 0.000000 0.000000
# 4 0.000000 0.000000 0.000000 0.040587 0.000000 0.000000
# 5 0.000000 0.000000 0.000000 0.000000 0.063602 0.000000
# 6 0.000000 0.000000 0.000000 0.000000 0.000000 0.020745
#
#
# Mechanical properties :
#
#
# Convention : Reuss Voigt Hill
#
# Bulk Modulus (GPa) = 13.90444 41.22035 27.56239
# Shear Modulus (GPa) = 18.74087 29.63992 24.19039
#
# Velocity S-wave (km/s) = 3.05240 3.83871 3.46791
# Velocity P-wave (km/s) = 4.39722 6.33565 5.45326
#
# Compressibility (1/GPa) = 0.07191949
#
# Stress axis : x y z
#
# Youngs Moduli (GPa) = 14.30764 87.24507 73.80267
#
# Poissons Ratio (x) = -0.54263 0.84454
# Poissons Ratio (y) = -0.08899 0.46266
# Poissons Ratio (z) = 0.16372 0.54693
#
# Static dielectric constant tensor:
#      x y z
#    x 3.122590 0.000000 0.000000 
#    y 0.000000 3.763470 0.000000 
#    z 0.000000 0.000000 3.834620 
# 
# 
# High freq. dielectric constant tensor:
#      x y z
#    x 1.728190 0.000000 0.000000 
#    y 0.000000 1.794770 0.000000 
#    z 0.000000 0.000000 1.793590 
# 
# From -- ./inp_files/1891.got.cif
#   From: 2010.03.12/outbox.cif.g09.slc.cpg/sg47_1_cif.got.tgz:1891.got - 2010.04.14 03:12:58.
