data_PCOD8195149
_publ_section_title
;
Structure prediction by ZEFSAII (Michael W. Deem and Ramdas Pophale) SiO2 
 PCOD8195149
Probable space group: P M M M
;
_chemical_formula_sum "Si O2"
_cell_formula_units_Z 56
_cell_length_a 18.853054
_cell_length_b 19.055826
_cell_length_c 8.883177
_cell_angle_alpha 90.000000
_cell_angle_beta 90.000000
_cell_angle_gamma 90.000000
_cell_volume 3191.374758
_symmetry_space_group_name_H-M "P M M M"
_symmetry_group_IT_number 47
_symmetry_cell_setting 'orthorhombic'
loop_
_space_group_symop_operation_xyz
x,y,z
-x,-y,z
x,-y,-z
-x,y,-z
-x,-y,-z
x,y,-z
-x,y,z
x,-y,z
loop_
_atom_site_type_symbol
_atom_site_label
_atom_site_fract_x
_atom_site_fract_y
_atom_site_fract_z
Si Si1 0.579977 0.667078 0.676154
Si Si2 0.841997 0.077838 0.171515
Si Si3 0.661059 0.213302 0.822609
Si Si4 0.080319 0.217205 0.824398
Si Si5 0.208127 0.711387 0.677932
Si Si6 0.305623 0.078696 0.325088
Si Si7 0.289715 0.577029 0.322442
O O1 0.590714 0.681830 0.500000
O O2 0.500000 0.643173 0.713542
O O3 0.597170 0.738985 0.762233
O O4 0.633755 0.606468 0.731727
O O5 0.900396 0.136301 0.211685
O O6 0.776569 0.087248 0.282939
O O7 0.875874 0.000000 0.191584
O O8 0.814673 0.087924 0.000000
O O9 0.736931 0.236071 0.755947
O O10 0.646920 0.133411 0.769739
O O11 0.664103 0.218308 0.000000
O O12 0.129216 0.271505 0.733099
O O13 0.000000 0.229800 0.770978
O O14 0.089432 0.233396 0.000000
O O15 0.214444 0.721376 0.500000
O O16 0.227796 0.631300 0.725395
O O17 0.314186 0.095718 0.500000
O O18 0.331999 0.000000 0.287014
O O19 0.290943 0.569043 0.500000
O O20 0.276698 0.500000 0.248953
#
# Coordination Sequence:
#
# PCOD8195149 Si02
#       7
#     8   8   8   8   8   8   8
#     4   9  18  32  51  77 107 136 164 195 236 288
#     4   9  17  29  45  66  94 128 164 202 248 300
#     4  11  20  31  50  72  98 133 170 206 245 290
#     4  10  20  32  47  69  98 133 169 207 254 303
#     4  10  19  32  51  73  97 127 166 208 250 294
#     4  10  19  30  47  71  97 125 162 211 259 297
#     4   8  15  29  51  79 105 128 159 201 245 288
#
# _framework density 17.547295999999999
#
# number of rings (size 3 to 8) (size 9 to 14) (size 15 to 20)
#    0.000    2.429    1.429    3.000    0.000    2.000 
#    0.000    2.857    0.000   11.571    0.000   13.000 
#    0.000    0.000    0.000    0.000    0.000    0.000 
#
# Total GULP energy -694247.987513 kJ/mol
# GULP energy per Si atom -12397.285491 kJ/mol
# Density = 1.750736 g / cm^3
# Si number density = 17.547296 Si / 1000 Ang^3
#
#
#
# Elastic Constant Matrix: (Units=GPa)
#
#
# Indices 1 2 3 4 5 6 
#
# 1 80.0569 56.9892 23.6357 0.0000 0.0000 0.0000
# 2 56.9892 145.9277 41.5066 0.0000 0.0000 0.0000
# 3 23.6357 41.5066 64.6732 0.0000 0.0000 0.0000
# 4 0.0000 0.0000 0.0000 14.4624 0.0000 0.0000
# 5 0.0000 0.0000 0.0000 0.0000 22.5268 0.0000
# 6 0.0000 0.0000 0.0000 0.0000 0.0000 20.2476
#
#
#
# Elastic Compliance Matrix: (Units=1/GPa)
#
#
# Indices 1 2 3 4 5 6 
#
# 1 0.017619 -0.006177 -0.002475 0.000000 0.000000 0.000000
# 2 -0.006177 0.010548 -0.004513 0.000000 0.000000 0.000000
# 3 -0.002475 -0.004513 0.019263 0.000000 0.000000 0.000000
# 4 0.000000 0.000000 0.000000 0.069145 0.000000 0.000000
# 5 0.000000 0.000000 0.000000 0.000000 0.044392 0.000000
# 6 0.000000 0.000000 0.000000 0.000000 0.000000 0.049388
#
#
# Mechanical properties :
#
#
# Convention : Reuss Voigt Hill
#
# Bulk Modulus (GPa) = 47.38903 59.43562 53.41233
# Shear Modulus (GPa) = 20.51561 22.68246 21.59903
#
# Velocity S-wave (km/s) = 3.42301 3.59924 3.51223
# Velocity P-wave (km/s) = 6.53359 7.15667 6.85221
#
# Compressibility (1/GPa) = 0.02110193
#
# Stress axis : x y z
#
# Youngs Moduli (GPa) = 56.75777 94.80108 51.91324
#
# Poissons Ratio (x) = 0.58556 0.12848
# Poissons Ratio (y) = 0.35058 0.23426
# Poissons Ratio (z) = 0.14047 0.42779
#
# Static dielectric constant tensor:
#      x y z
#    x 3.050480 0.000000 0.000000 
#    y 0.000000 3.660240 0.000000 
#    z 0.000000 0.000000 3.128870 
# 
# 
# High freq. dielectric constant tensor:
#      x y z
#    x 1.646500 0.000000 0.000000 
#    y 0.000000 1.682270 0.000000 
#    z 0.000000 0.000000 1.667510 
# 
# From -- ./inp_files/11525.got.cif
#   From: 2010.03.12/outbox.cif.g09.slc.cpg/sg47_6_cif.got.tgz:11525.got - 2010.04.14 03:12:58.
