data_PCOD8195024
_publ_section_title
;
Structure prediction by ZEFSAII (Michael W. Deem and Ramdas Pophale) SiO2 
 PCOD8195024
Probable space group: P M M M
;
_chemical_formula_sum "Si O2"
_cell_formula_units_Z 52
_cell_length_a 24.178443
_cell_length_b 16.992508
_cell_length_c 9.554464
_cell_angle_alpha 90.000000
_cell_angle_beta 90.000000
_cell_angle_gamma 90.000000
_cell_volume 3925.474332
_symmetry_space_group_name_H-M "P M M M"
_symmetry_group_IT_number 47
_symmetry_cell_setting 'orthorhombic'
loop_
_space_group_symop_operation_xyz
x,y,z
-x,-y,z
x,-y,-z
-x,y,-z
-x,-y,-z
x,y,-z
-x,y,z
x,-y,z
loop_
_atom_site_type_symbol
_atom_site_label
_atom_site_fract_x
_atom_site_fract_y
_atom_site_fract_z
Si Si1 0.065502 0.805882 0.245716
Si Si2 0.934610 0.911017 0.500000
Si Si3 0.065351 0.914087 0.000000
Si Si4 0.232201 0.407465 0.334723
Si Si5 0.561691 0.593616 0.656958
Si Si6 0.661016 0.406785 0.158279
Si Si7 0.129855 0.650894 0.831781
Si Si8 0.939056 0.500000 0.835141
O O1 0.085556 0.856520 0.375447
O O2 0.097966 0.725289 0.229404
O O3 0.000000 0.787310 0.243301
O O4 0.085931 0.864620 0.128654
O O5 0.000000 0.921472 0.500000
O O6 0.908804 0.000000 0.500000
O O7 0.000000 0.924252 0.000000
O O8 0.093472 0.000000 0.000000
O O9 0.233669 0.385993 0.500000
O O10 0.220398 0.500000 0.314185
O O11 0.289179 0.382422 0.260714
O O12 0.186990 0.356797 0.251231
O O13 0.576196 0.623764 0.500000
O O14 0.500000 0.621743 0.699556
O O15 0.564575 0.500000 0.656724
O O16 0.605194 0.627521 0.770120
O O17 0.657647 0.500000 0.147983
O O18 0.667849 0.372322 0.000000
O O19 0.093188 0.576883 0.786195
O O20 0.139069 0.655513 0.000000
O O21 0.000000 0.500000 0.765827
O O22 0.945015 0.500000 0.000000
#
# Coordination Sequence:
#
# PCOD8195024 Si02
#       8
#     8   4   4   8   8   8   8   4
#     4  10  19  30  45  65  85 103 125 157 194 241
#     4   9  18  32  48  65  85 107 125 144 185 244
#     4   9  16  28  46  65  83 101 121 148 187 238
#     4  10  20  32  44  55  71  98 134 171 207 243
#     4   8  13  21  33  50  73  98 121 149 192 242
#     4   9  16  25  38  54  71  92 124 163 202 241
#     4  11  20  31  45  61  80 102 133 168 203 241
#     4   9  18  30  45  59  75 101 128 159 200 247
#
# _framework density 13.246807
#
# number of rings (size 3 to 8) (size 9 to 14) (size 15 to 20)
#    0.000    2.538    1.538    2.308    1.077    5.231 
#    0.000    1.538    0.000    0.462    0.000    0.000 
#    0.000    0.000    0.000    0.000    0.000    0.000 
#
# Total GULP energy -644269.013006 kJ/mol
# GULP energy per Si atom -12389.788712 kJ/mol
# Density = 1.321666 g / cm^3
# Si number density = 13.246807 Si / 1000 Ang^3
#
#
#
# Elastic Constant Matrix: (Units=GPa)
#
#
# Indices 1 2 3 4 5 6 
#
# 1 86.8042 32.3729 50.6699 0.0000 0.0000 0.0000
# 2 32.3729 79.4703 39.8198 0.0000 0.0000 0.0000
# 3 50.6699 39.8198 113.1590 0.0000 0.0000 0.0000
# 4 0.0000 0.0000 0.0000 33.7396 0.0000 0.0000
# 5 0.0000 0.0000 0.0000 0.0000 24.4796 0.0000
# 6 0.0000 0.0000 0.0000 0.0000 0.0000 8.8727
#
#
#
# Elastic Compliance Matrix: (Units=1/GPa)
#
#
# Indices 1 2 3 4 5 6 
#
# 1 0.016425 -0.003649 -0.006070 0.000000 0.000000 0.000000
# 2 -0.003649 0.016088 -0.004027 0.000000 0.000000 0.000000
# 3 -0.006070 -0.004027 0.012972 0.000000 0.000000 0.000000
# 4 0.000000 0.000000 0.000000 0.029639 0.000000 0.000000
# 5 0.000000 0.000000 0.000000 0.000000 0.040850 0.000000
# 6 0.000000 0.000000 0.000000 0.000000 0.000000 0.112706
#
#
# Mechanical properties :
#
#
# Convention : Reuss Voigt Hill
#
# Bulk Modulus (GPa) = 55.58218 58.35096 56.96657
# Shear Modulus (GPa) = 19.07161 23.85643 21.46402
#
# Velocity S-wave (km/s) = 3.79847 4.24833 4.02968
# Velocity P-wave (km/s) = 7.82866 8.25888 8.04664
#
# Compressibility (1/GPa) = 0.01799138
#
# Stress axis : x y z
#
# Youngs Moduli (GPa) = 60.88453 62.15949 77.08628
#
# Poissons Ratio (x) = 0.22682 0.46795
# Poissons Ratio (y) = 0.22217 0.31044
# Poissons Ratio (z) = 0.36960 0.25033
#
# Static dielectric constant tensor:
#      x y z
#    x 2.639610 0.000000 0.000000 
#    y 0.000000 2.451870 0.000000 
#    z 0.000000 0.000000 2.686220 
# 
# 
# High freq. dielectric constant tensor:
#      x y z
#    x 1.485880 0.000000 0.000000 
#    y 0.000000 1.457470 0.000000 
#    z 0.000000 0.000000 1.519110 
# 
# From -- ./inp_files/13449.got.cif
#   From: 2010.03.12/outbox.cif.g09.slc.cpg/sg47_7_cif.got.tgz:13449.got - 2010.04.14 03:12:58.
