data_PCOD8195097
_publ_section_title
;
Structure prediction by ZEFSAII (Michael W. Deem and Ramdas Pophale) SiO2 
 PCOD8195097
Probable space group: P M M M
;
_chemical_formula_sum "Si O2"
_cell_formula_units_Z 52
_cell_length_a 23.333283
_cell_length_b 14.319961
_cell_length_c 8.974658
_cell_angle_alpha 90.000000
_cell_angle_beta 90.000000
_cell_angle_gamma 90.000000
_cell_volume 2998.717757
_symmetry_space_group_name_H-M "P M M M"
_symmetry_group_IT_number 47
_symmetry_cell_setting 'orthorhombic'
loop_
_space_group_symop_operation_xyz
x,y,z
-x,-y,z
x,-y,-z
-x,y,-z
-x,-y,-z
x,y,-z
-x,y,z
x,-y,z
loop_
_atom_site_type_symbol
_atom_site_label
_atom_site_fract_x
_atom_site_fract_y
_atom_site_fract_z
Si Si1 0.723883 0.601534 0.322754
Si Si2 0.327952 0.211056 0.676723
Si Si3 0.110917 0.215465 0.823551
Si Si4 0.145524 0.605390 0.674079
Si Si5 0.563205 0.105080 0.322681
Si Si6 0.786320 0.891947 0.674227
Si Si7 0.000000 0.894713 0.822799
O O1 0.723042 0.602111 0.500000
O O2 0.702013 0.500000 0.264479
O O3 0.684049 0.684706 0.259003
O O4 0.789060 0.618037 0.271053
O O5 0.332736 0.215753 0.500000
O O6 0.387679 0.172571 0.744832
O O7 0.276748 0.141825 0.722625
O O8 0.106526 0.321443 0.763700
O O9 0.167765 0.166128 0.765405
O O10 0.056083 0.158713 0.763269
O O11 0.112121 0.217464 0.000000
O O12 0.140356 0.627551 0.500000
O O13 0.124401 0.500000 0.708417
O O14 0.566891 0.104634 0.500000
O O15 0.500000 0.140190 0.271761
O O16 0.573667 0.000000 0.263828
O O17 0.796534 0.873372 0.500000
O O18 0.792229 0.000000 0.715761
O O19 0.000000 0.000000 0.758271
O O20 0.000000 0.897334 0.000000
#
# Coordination Sequence:
#
# PCOD8195097 Si02
#       7
#     8   8   8   8   8   8   4
#     4   8  13  22  39  61  83 111 146 180 219 274
#     4   9  14  22  38  59  84 113 149 190 232 277
#     4  11  21  34  53  73  95 124 158 197 237 280
#     4   9  17  32  53  74  98 126 154 188 234 287
#     4   8  13  20  30  48  78 116 153 186 225 274
#     4  10  19  30  46  69  95 121 154 197 242 286
#     4   9  20  38  54  67  90 130 169 191 222 283
#
# _framework density 17.340745999999999
#
# number of rings (size 3 to 8) (size 9 to 14) (size 15 to 20)
#    0.000    2.846    1.538    2.769    0.000    3.077 
#    0.000    1.923    0.000    5.538    0.000    3.231 
#    0.000    0.615    0.000    3.231    0.000    8.000 
#
# Total GULP energy -644502.844208 kJ/mol
# GULP energy per Si atom -12394.285466 kJ/mol
# Density = 1.730128 g / cm^3
# Si number density = 17.340746 Si / 1000 Ang^3
#
#
#
# Elastic Constant Matrix: (Units=GPa)
#
#
# Indices 1 2 3 4 5 6 
#
# 1 111.0548 69.5897 20.9932 0.0000 0.0000 0.0000
# 2 69.5897 152.8187 26.9481 0.0000 0.0000 0.0000
# 3 20.9932 26.9481 23.6612 0.0000 0.0000 0.0000
# 4 0.0000 0.0000 0.0000 17.1860 0.0000 0.0000
# 5 0.0000 0.0000 0.0000 0.0000 1.0275 0.0000
# 6 0.0000 0.0000 0.0000 0.0000 0.0000 32.3073
#
#
#
# Elastic Compliance Matrix: (Units=1/GPa)
#
#
# Indices 1 2 3 4 5 6 
#
# 1 0.013273 -0.004964 -0.006122 0.000000 0.000000 0.000000
# 2 -0.004964 0.010045 -0.007036 0.000000 0.000000 0.000000
# 3 -0.006122 -0.007036 0.055708 0.000000 0.000000 0.000000
# 4 0.000000 0.000000 0.000000 0.058187 0.000000 0.000000
# 5 0.000000 0.000000 0.000000 0.000000 0.973274 0.000000
# 6 0.000000 0.000000 0.000000 0.000000 0.000000 0.030953
#
#
# Mechanical properties :
#
#
# Convention : Reuss Voigt Hill
#
# Bulk Modulus (GPa) = 23.37461 58.06631 40.72046
# Shear Modulus (GPa) = 4.19483 21.43772 12.81627
#
# Velocity S-wave (km/s) = 1.55702 3.51987 2.72156
# Velocity P-wave (km/s) = 4.09161 7.07654 5.78008
#
# Compressibility (1/GPa) = 0.04278145
#
# Stress axis : x y z
#
# Youngs Moduli (GPa) = 75.34266 99.55098 17.95066
#
# Poissons Ratio (x) = 0.49422 0.10989
# Poissons Ratio (y) = 0.37404 0.12630
# Poissons Ratio (z) = 0.46125 0.70043
#
# Static dielectric constant tensor:
#      x y z
#    x 3.362450 0.000000 0.000000 
#    y 0.000000 3.685960 0.000000 
#    z 0.000000 0.000000 2.693320 
# 
# 
# High freq. dielectric constant tensor:
#      x y z
#    x 1.656940 0.000000 0.000000 
#    y 0.000000 1.685170 0.000000 
#    z 0.000000 0.000000 1.610840 
# 
# From -- ./inp_files/11072.got.cif
#   From: 2010.03.12/outbox.cif.g09.slc.cpg/sg47_6_cif.got.tgz:11072.got - 2010.04.14 03:12:58.
