data_PCOD8195108
_publ_section_title
;
Structure prediction by ZEFSAII (Michael W. Deem and Ramdas Pophale) SiO2 
 PCOD8195108
Probable space group: P M M M
;
_chemical_formula_sum "Si O2"
_cell_formula_units_Z 44
_cell_length_a 9.006411
_cell_length_b 21.286753
_cell_length_c 13.744084
_cell_angle_alpha 90.000000
_cell_angle_beta 90.000000
_cell_angle_gamma 90.000000
_cell_volume 2634.977938
_symmetry_space_group_name_H-M "P M M M"
_symmetry_group_IT_number 47
_symmetry_cell_setting 'orthorhombic'
loop_
_space_group_symop_operation_xyz
x,y,z
-x,-y,z
x,-y,-z
-x,y,-z
-x,-y,-z
x,y,-z
-x,y,z
x,-y,z
loop_
_atom_site_type_symbol
_atom_site_label
_atom_site_fract_x
_atom_site_fract_y
_atom_site_fract_z
Si Si1 0.825292 0.740752 0.781173
Si Si2 0.325504 0.807554 0.611454
Si Si3 0.167098 0.500000 0.115302
Si Si4 0.327187 0.930406 0.721572
Si Si5 0.324866 0.626195 0.112811
Si Si6 0.825931 0.133168 0.109039
O O1 0.764694 0.756498 0.673677
O O2 0.742905 0.680255 0.821269
O O3 0.784709 0.797778 0.852652
O O4 0.000000 0.727788 0.776159
O O5 0.279636 0.798289 0.500000
O O6 0.500000 0.796936 0.627757
O O7 0.278195 0.878324 0.642676
O O8 0.254571 0.561372 0.151435
O O9 0.000000 0.500000 0.158173
O O10 0.162370 0.500000 0.000000
O O11 0.500000 0.924874 0.742663
O O12 0.247327 0.919766 0.824349
O O13 0.285545 0.000000 0.682156
O O14 0.500000 0.622906 0.127970
O O15 0.283839 0.638399 0.000000
O O16 0.000000 0.122174 0.111897
O O17 0.763271 0.126605 0.000000
#
# Coordination Sequence:
#
# PCOD8195108 Si02
#       6
#     8   8   4   8   8   8
#     4  10  19  31  48  69  93 121 156 196 236 280
#     4   9  18  33  51  69  90 116 148 190 240 290
#     4   9  17  29  45  67  98 135 170 199 227 263
#     4   9  18  31  46  66  90 115 147 187 231 281
#     4  10  19  30  46  70 101 134 165 196 230 269
#     4   9  18  31  45  62  87 120 155 189 226 271
#
# _framework density 16.698430999999999
#
# number of rings (size 3 to 8) (size 9 to 14) (size 15 to 20)
#    0.000    2.636    0.000    1.909    0.000    5.455 
#    0.000    3.636    0.000    0.000    0.000    5.727 
#    0.000    5.091    0.000    0.000    0.000    0.000 
#
# Total GULP energy -545605.258930 kJ/mol
# GULP energy per Si atom -12400.119521 kJ/mol
# Density = 1.666042 g / cm^3
# Si number density = 16.698431 Si / 1000 Ang^3
#
#
#
# Elastic Constant Matrix: (Units=GPa)
#
#
# Indices 1 2 3 4 5 6 
#
# 1 64.3548 49.6340 38.5271 0.0000 0.0000 0.0000
# 2 49.6340 119.6211 46.6737 0.0000 0.0000 0.0000
# 3 38.5271 46.6737 97.3265 0.0000 0.0000 0.0000
# 4 0.0000 0.0000 0.0000 18.4572 0.0000 0.0000
# 5 0.0000 0.0000 0.0000 0.0000 23.6540 0.0000
# 6 0.0000 0.0000 0.0000 0.0000 0.0000 29.1087
#
#
#
# Elastic Compliance Matrix: (Units=1/GPa)
#
#
# Indices 1 2 3 4 5 6 
#
# 1 0.025563 -0.008191 -0.006191 0.000000 0.000000 0.000000
# 2 -0.008191 0.012909 -0.002948 0.000000 0.000000 0.000000
# 3 -0.006191 -0.002948 0.014139 0.000000 0.000000 0.000000
# 4 0.000000 0.000000 0.000000 0.054180 0.000000 0.000000
# 5 0.000000 0.000000 0.000000 0.000000 0.042276 0.000000
# 6 0.000000 0.000000 0.000000 0.000000 0.000000 0.034354
#
#
# Mechanical properties :
#
#
# Convention : Reuss Voigt Hill
#
# Bulk Modulus (GPa) = 55.70912 61.21913 58.46412
# Shear Modulus (GPa) = 22.31510 24.00847 23.16178
#
# Velocity S-wave (km/s) = 3.65959 3.79590 3.72837
# Velocity P-wave (km/s) = 7.16178 7.48018 7.32271
#
# Compressibility (1/GPa) = 0.01795038
#
# Stress axis : x y z
#
# Youngs Moduli (GPa) = 39.11972 77.46745 70.72547
#
# Poissons Ratio (x) = 0.63454 0.43786
# Poissons Ratio (y) = 0.32043 0.20850
# Poissons Ratio (z) = 0.24219 0.22837
#
# Static dielectric constant tensor:
#      x y z
#    x 3.179150 0.000000 0.000000 
#    y 0.000000 3.193870 0.000000 
#    z 0.000000 0.000000 3.066670 
# 
# 
# High freq. dielectric constant tensor:
#      x y z
#    x 1.649000 0.000000 0.000000 
#    y 0.000000 1.641120 0.000000 
#    z 0.000000 0.000000 1.618750 
# 
# From -- ./inp_files/20930.got.cif
#   From: 2010.03.12/outbox.cif.g09.slc.cpg/sg47_11_cif.got.tgz:20930.got - 2010.04.14 03:12:58.
