data_PCOD8195521
_publ_section_title
;
Structure prediction by ZEFSAII (Michael W. Deem and Ramdas Pophale) SiO2 
 PCOD8195521
Probable space group: P M M M
;
_chemical_formula_sum "Si O2"
_cell_formula_units_Z 64
_cell_length_a 20.032155
_cell_length_b 9.045931
_cell_length_c 19.991915
_cell_angle_alpha 90.000000
_cell_angle_beta 90.000000
_cell_angle_gamma 90.000000
_cell_volume 3622.724759
_symmetry_space_group_name_H-M "P M M M"
_symmetry_group_IT_number 47
_symmetry_cell_setting 'orthorhombic'
loop_
_space_group_symop_operation_xyz
x,y,z
-x,-y,z
x,-y,-z
-x,y,-z
-x,-y,-z
x,y,-z
-x,y,z
x,-y,z
loop_
_atom_site_type_symbol
_atom_site_label
_atom_site_fract_x
_atom_site_fract_y
_atom_site_fract_z
Si Si1 0.822773 0.172201 0.683894
Si Si2 0.925380 0.175529 0.425697
Si Si3 0.329632 0.168332 0.324137
Si Si4 0.184632 0.323966 0.177220
Si Si5 0.677968 0.826479 0.828244
Si Si6 0.422553 0.669199 0.077012
Si Si7 0.574639 0.325281 0.425402
Si Si8 0.925815 0.324433 0.074625
O O1 0.872291 0.237277 0.627546
O O2 0.747670 0.194396 0.657714
O O3 0.835731 0.265438 0.750220
O O4 0.836143 0.000000 0.699848
O O5 0.907979 0.235967 0.500000
O O6 0.000000 0.226959 0.405206
O O7 0.921559 0.000000 0.426752
O O8 0.343116 0.213785 0.247377
O O9 0.373530 0.268279 0.371608
O O10 0.350511 0.000000 0.336578
O O11 0.189053 0.500000 0.178542
O O12 0.255019 0.259957 0.152200
O O13 0.128620 0.263192 0.126346
O O14 0.619064 0.779905 0.877377
O O15 0.692349 0.000000 0.834605
O O16 0.500000 0.702432 0.089825
O O17 0.405843 0.500000 0.095818
O O18 0.404192 0.699248 0.000000
O O19 0.593992 0.269468 0.500000
O O20 0.500000 0.269466 0.407481
O O21 0.576551 0.500000 0.423539
O O22 0.924538 0.500000 0.075259
O O23 0.000000 0.268910 0.095285
O O24 0.908311 0.267143 0.000000
#
# Coordination Sequence:
#
# PCOD8195521 Si02
#       8
#     8   8   8   8   8   8   8   8
#     4   9  18  32  48  69  99 129 157 197 245 288
#     4   8  14  26  46  71  96 125 164 204 240 286
#     4   9  19  33  48  69  97 128 162 199 239 285
#     4  10  19  31  50  74  98 127 164 204 245 294
#     4  10  21  36  52  73 103 135 167 206 250 294
#     4   9  19  36  56  78 104 133 167 206 245 290
#     4   9  19  35  52  71  96 124 155 194 240 289
#     4   8  15  29  48  70  96 125 159 200 243 286
#
# _framework density 17.666260000000001
#
# number of rings (size 3 to 8) (size 9 to 14) (size 15 to 20)
#    0.000    3.000    0.000    3.000    0.000    5.500 
#    0.000    6.250    0.000    2.625    0.000    4.375 
#    0.000    0.000    0.000    0.000    0.000    0.000 
#
# Total GULP energy -793441.133861 kJ/mol
# GULP energy per Si atom -12397.517717 kJ/mol
# Density = 1.762605 g / cm^3
# Si number density = 17.666260 Si / 1000 Ang^3
#
#
#
# Elastic Constant Matrix: (Units=GPa)
#
#
# Indices 1 2 3 4 5 6 
#
# 1 115.6525 38.2021 86.9000 0.0000 0.0000 0.0000
# 2 38.2021 47.2339 38.3072 0.0000 0.0000 0.0000
# 3 86.9000 38.3072 110.7181 0.0000 0.0000 0.0000
# 4 0.0000 0.0000 0.0000 24.7272 0.0000 0.0000
# 5 0.0000 0.0000 0.0000 0.0000 41.3031 0.0000
# 6 0.0000 0.0000 0.0000 0.0000 0.0000 21.0400
#
#
#
# Elastic Compliance Matrix: (Units=1/GPa)
#
#
# Indices 1 2 3 4 5 6 
#
# 1 0.021979 -0.005262 -0.015430 0.000000 0.000000 0.000000
# 2 -0.005262 0.030689 -0.006488 0.000000 0.000000 0.000000
# 3 -0.015430 -0.006488 0.023387 0.000000 0.000000 0.000000
# 4 0.000000 0.000000 0.000000 0.040441 0.000000 0.000000
# 5 0.000000 0.000000 0.000000 0.000000 0.024211 0.000000
# 6 0.000000 0.000000 0.000000 0.000000 0.000000 0.047528
#
#
# Mechanical properties :
#
#
# Convention : Reuss Voigt Hill
#
# Bulk Modulus (GPa) = 46.09366 66.71369 56.40368
# Shear Modulus (GPa) = 20.01386 24.76042 22.38714
#
# Velocity S-wave (km/s) = 3.36949 3.74781 3.56367
# Velocity P-wave (km/s) = 6.42541 7.52153 6.99498
#
# Compressibility (1/GPa) = 0.02169496
#
# Stress axis : x y z
#
# Youngs Moduli (GPa) = 45.49887 32.58504 42.75858
#
# Poissons Ratio (x) = 0.17147 0.65976
# Poissons Ratio (y) = 0.23943 0.27741
# Poissons Ratio (z) = 0.70204 0.21141
#
# Static dielectric constant tensor:
#      x y z
#    x 3.424420 0.000000 0.000000 
#    y 0.000000 2.978850 0.000000 
#    z 0.000000 0.000000 3.423400 
# 
# 
# High freq. dielectric constant tensor:
#      x y z
#    x 1.688550 0.000000 0.000000 
#    y 0.000000 1.657320 0.000000 
#    z 0.000000 0.000000 1.686760 
# 
# From -- ./inp_files/9946.got.cif
#   From: 2010.03.12/outbox.cif.g09.slc.cpg/sg47_5_cif.got.tgz:9946.got - 2010.04.14 03:12:58.
