data_PCOD8195604
_publ_section_title
;
Structure prediction by ZEFSAII (Michael W. Deem and Ramdas Pophale) SiO2 
 PCOD8195604
Probable space group: P M M M
;
_chemical_formula_sum "Si O2"
_cell_formula_units_Z 40
_cell_length_a 22.142897
_cell_length_b 11.932492
_cell_length_c 7.982724
_cell_angle_alpha 90.000000
_cell_angle_beta 90.000000
_cell_angle_gamma 90.000000
_cell_volume 2109.194867
_symmetry_space_group_name_H-M "P M M M"
_symmetry_group_IT_number 47
_symmetry_cell_setting 'orthorhombic'
loop_
_space_group_symop_operation_xyz
x,y,z
-x,-y,z
x,-y,-z
-x,y,-z
-x,-y,-z
x,y,-z
-x,y,z
x,-y,z
loop_
_atom_site_type_symbol
_atom_site_label
_atom_site_fract_x
_atom_site_fract_y
_atom_site_fract_z
Si Si1 0.429175 0.731153 0.500000
Si Si2 0.231247 0.632456 0.193344
Si Si3 0.886676 0.767942 0.192897
Si Si4 0.309480 0.625614 0.500000
Si Si5 0.066639 0.000000 0.691052
Si Si6 0.428698 0.123960 0.183199
Si Si7 0.000000 0.372376 0.697679
O O1 0.500000 0.694936 0.500000
O O2 0.382892 0.628040 0.500000
O O3 0.408859 0.798811 0.664211
O O4 0.217143 0.500000 0.208397
O O5 0.173125 0.703071 0.252125
O O6 0.282776 0.674699 0.324769
O O7 0.250298 0.659932 0.000000
O O8 0.941837 0.687689 0.231558
O O9 0.893728 0.889882 0.274182
O O10 0.882698 0.792810 0.000000
O O11 0.287762 0.500000 0.500000
O O12 0.050538 0.000000 0.500000
O O13 0.000000 0.000000 0.783983
O O14 0.500000 0.113964 0.187862
O O15 0.400768 0.000000 0.208642
O O16 0.408436 0.171919 0.000000
O O17 0.000000 0.500000 0.760619
O O18 0.000000 0.363578 0.500000
#
# Coordination Sequence:
#
# PCOD8195604 Si02
#       7
#     4   8   8   4   4   8   4
#     4  10  19  31  52  83 114 144 179 220 273 336
#     4   9  20  39  62  85 107 139 189 244 290 333
#     4  11  22  37  59  82 109 146 189 235 281 332
#     4  10  22  38  59  81 107 146 184 227 280 336
#     4  11  23  37  55  81 116 156 190 221 270 341
#     4   8  14  26  47  76 108 141 175 211 255 310
#     4  11  23  34  51  84 119 145 177 231 288 331
#
# _framework density 18.964583000000001
#
# number of rings (size 3 to 8) (size 9 to 14) (size 15 to 20)
#    0.000    2.200    1.000    2.700    2.800    4.200 
#    0.000    0.000    4.400    0.000    0.000    5.600 
#    0.000    0.000    0.000    0.000    0.000    0.000 
#
# Total GULP energy -495541.888022 kJ/mol
# GULP energy per Si atom -12388.547201 kJ/mol
# Density = 1.892142 g / cm^3
# Si number density = 18.964583 Si / 1000 Ang^3
#
#
#
# Elastic Constant Matrix: (Units=GPa)
#
#
# Indices 1 2 3 4 5 6 
#
# 1 110.3476 37.1760 44.2546 0.0000 0.0000 0.0000
# 2 37.1760 68.8872 15.7556 0.0000 0.0000 0.0000
# 3 44.2546 15.7556 97.6403 0.0000 0.0000 0.0000
# 4 0.0000 0.0000 0.0000 30.2521 0.0000 0.0000
# 5 0.0000 0.0000 0.0000 0.0000 14.2066 0.0000
# 6 0.0000 0.0000 0.0000 0.0000 0.0000 10.5904
#
#
#
# Elastic Compliance Matrix: (Units=1/GPa)
#
#
# Indices 1 2 3 4 5 6 
#
# 1 0.013039 -0.005903 -0.004957 0.000000 0.000000 0.000000
# 2 -0.005903 0.017745 -0.000188 0.000000 0.000000 0.000000
# 3 -0.004957 -0.000188 0.012519 0.000000 0.000000 0.000000
# 4 0.000000 0.000000 0.000000 0.033056 0.000000 0.000000
# 5 0.000000 0.000000 0.000000 0.000000 0.070390 0.000000
# 6 0.000000 0.000000 0.000000 0.000000 0.000000 0.094425
#
#
# Mechanical properties :
#
#
# Convention : Reuss Voigt Hill
#
# Bulk Modulus (GPa) = 47.15511 52.36080 49.75795
# Shear Modulus (GPa) = 18.49528 22.98907 20.74217
#
# Velocity S-wave (km/s) = 3.12629 3.48546 3.31075
# Velocity P-wave (km/s) = 6.16039 6.62326 6.39602
#
# Compressibility (1/GPa) = 0.02120661
#
# Stress axis : x y z
#
# Youngs Moduli (GPa) = 76.69251 56.35370 79.87942
#
# Poissons Ratio (x) = 0.33265 0.39599
# Poissons Ratio (y) = 0.45271 0.01501
# Poissons Ratio (z) = 0.38019 0.01059
#
# Static dielectric constant tensor:
#      x y z
#    x 3.249710 0.000000 0.000000 
#    y 0.000000 3.236900 0.000000 
#    z 0.000000 0.000000 3.998010 
# 
# 
# High freq. dielectric constant tensor:
#      x y z
#    x 1.711790 0.000000 0.000000 
#    y 0.000000 1.723650 0.000000 
#    z 0.000000 0.000000 1.758080 
# 
# From -- ./inp_files/10773.got.cif
#   From: 2010.03.12/outbox.cif.g09.slc.cpg/sg47_6_cif.got.tgz:10773.got - 2010.04.14 03:12:58.
