data_PCOD8195900
_publ_section_title
;
Structure prediction by ZEFSAII (Michael W. Deem and Ramdas Pophale) SiO2 
 PCOD8195900
Probable space group: P M M M
;
_chemical_formula_sum "Si O2"
_cell_formula_units_Z 48
_cell_length_a 8.011377
_cell_length_b 7.890754
_cell_length_c 35.754339
_cell_angle_alpha 90.000000
_cell_angle_beta 90.000000
_cell_angle_gamma 90.000000
_cell_volume 2260.239326
_symmetry_space_group_name_H-M "P M M M"
_symmetry_group_IT_number 47
_symmetry_cell_setting 'orthorhombic'
loop_
_space_group_symop_operation_xyz
x,y,z
-x,-y,z
x,-y,-z
-x,y,-z
-x,-y,-z
x,y,-z
-x,y,z
x,-y,z
loop_
_atom_site_type_symbol
_atom_site_label
_atom_site_fract_x
_atom_site_fract_y
_atom_site_fract_z
Si Si1 0.000000 0.798574 0.041884
Si Si2 0.803451 0.000000 0.781243
Si Si3 0.694541 0.803545 0.500000
Si Si4 0.807327 0.194033 0.578436
Si Si5 0.312445 0.802078 0.090268
Si Si6 0.693737 0.000000 0.697668
Si Si7 0.692427 0.317503 0.654775
Si Si8 0.806976 0.309603 0.832539
O O1 0.169485 0.733251 0.062117
O O2 0.000000 0.000000 0.040644
O O3 0.000000 0.723581 0.000000
O O4 0.744598 0.169654 0.802897
O O5 0.713360 0.000000 0.741812
O O6 0.000000 0.000000 0.774778
O O7 0.500000 0.770682 0.500000
O O8 0.771051 0.722032 0.462210
O O9 0.744741 0.000000 0.500000
O O10 0.706534 0.290200 0.610402
O O11 0.000000 0.209799 0.588324
O O12 0.745563 0.000000 0.578199
O O13 0.500000 0.768714 0.074110
O O14 0.297535 0.706224 0.129528
O O15 0.283089 0.000000 0.097718
O O16 0.778706 0.833220 0.678896
O O17 0.500000 0.000000 0.686912
O O18 0.500000 0.325346 0.665704
O O19 0.774984 0.500000 0.665059
O O20 0.780706 0.500000 0.816262
O O21 0.000000 0.274975 0.842320
#
# Coordination Sequence:
#
# PCOD8195900 Si02
#       8
#     4   4   4   8   8   4   8   8
#     4   9  18  32  53  83 123 166 207 257 310 357
#     4  10  22  38  60  88 121 152 189 238 291 351
#     4   9  17  29  50  79 112 150 189 231 278 333
#     4  10  19  32  53  82 114 147 186 234 287 336
#     4  10  19  32  56  85 116 159 207 253 304 361
#     4  10  22  40  60  83 115 150 187 233 285 342
#     4  10  21  38  60  83 109 149 196 235 279 340
#     4  10  20  36  60  87 117 156 197 240 296 358
#
# _framework density 21.236688999999998
#
# number of rings (size 3 to 8) (size 9 to 14) (size 15 to 20)
#    0.000    2.167    2.500    0.750    0.000    4.667 
#    0.000    2.083    0.000    3.500    0.000    1.167 
#    0.000    0.000    0.000    0.000    0.000    0.000 
#
# Total GULP energy -595057.187164 kJ/mol
# GULP energy per Si atom -12397.024733 kJ/mol
# Density = 2.118835 g / cm^3
# Si number density = 21.236689 Si / 1000 Ang^3
#
#
#
# Elastic Constant Matrix: (Units=GPa)
#
#
# Indices 1 2 3 4 5 6 
#
# 1 64.2512 25.4187 34.1469 0.0000 0.0000 0.0000
# 2 25.4187 132.9183 63.2588 0.0000 0.0000 0.0000
# 3 34.1469 63.2588 144.7842 0.0000 0.0000 0.0000
# 4 0.0000 0.0000 0.0000 5.8313 0.0000 0.0000
# 5 0.0000 0.0000 0.0000 0.0000 29.6533 0.0000
# 6 0.0000 0.0000 0.0000 0.0000 0.0000 11.0685
#
#
#
# Elastic Compliance Matrix: (Units=1/GPa)
#
#
# Indices 1 2 3 4 5 6 
#
# 1 0.018132 -0.001808 -0.003486 0.000000 0.000000 0.000000
# 2 -0.001808 0.009679 -0.003802 0.000000 0.000000 0.000000
# 3 -0.003486 -0.003802 0.009390 0.000000 0.000000 0.000000
# 4 0.000000 0.000000 0.000000 0.171489 0.000000 0.000000
# 5 0.000000 0.000000 0.000000 0.000000 0.033723 0.000000
# 6 0.000000 0.000000 0.000000 0.000000 0.000000 0.090346
#
#
# Mechanical properties :
#
#
# Convention : Reuss Voigt Hill
#
# Bulk Modulus (GPa) = 52.61112 65.28917 58.95014
# Shear Modulus (GPa) = 13.99428 23.91925 18.95676
#
# Velocity S-wave (km/s) = 2.56982 3.35971 2.99095
# Velocity P-wave (km/s) = 5.79938 6.77204 6.30449
#
# Compressibility (1/GPa) = 0.01900739
#
# Stress axis : x y z
#
# Youngs Moduli (GPa) = 55.15071 103.31778 106.49163
#
# Poissons Ratio (x) = 0.18683 0.37127
# Poissons Ratio (y) = 0.09973 0.40492
# Poissons Ratio (z) = 0.19227 0.39286
#
# Static dielectric constant tensor:
#      x y z
#    x 3.649160 0.000000 0.000000 
#    y 0.000000 3.972450 0.000000 
#    z 0.000000 0.000000 3.729040 
# 
# 
# High freq. dielectric constant tensor:
#      x y z
#    x 1.819670 0.000000 0.000000 
#    y 0.000000 1.820860 0.000000 
#    z 0.000000 0.000000 1.820670 
# 
# From -- ./inp_files/34242.got.cif
#   From: 2010.03.12/outbox.cif.g09.slc.cpg/sg47_18_cif.got.tgz:34242.got - 2010.04.14 03:12:58.
