data_PCOD8195982
_publ_section_title
;
Structure prediction by ZEFSAII (Michael W. Deem and Ramdas Pophale) SiO2 
 PCOD8195982
Probable space group: P M M M
;
_chemical_formula_sum "Si O2"
_cell_formula_units_Z 52
_cell_length_a 9.301430
_cell_length_b 28.348553
_cell_length_c 11.798076
_cell_angle_alpha 90.000000
_cell_angle_beta 90.000000
_cell_angle_gamma 90.000000
_cell_volume 3110.941235
_symmetry_space_group_name_H-M "P M M M"
_symmetry_group_IT_number 47
_symmetry_cell_setting 'orthorhombic'
loop_
_space_group_symop_operation_xyz
x,y,z
-x,-y,z
x,-y,-z
-x,y,-z
-x,-y,-z
x,y,-z
-x,y,z
x,-y,z
loop_
_atom_site_type_symbol
_atom_site_label
_atom_site_fract_x
_atom_site_fract_y
_atom_site_fract_z
Si Si1 0.833438 0.868726 0.369632
Si Si2 0.330612 0.090615 0.000000
Si Si3 0.170879 0.308749 0.625689
Si Si4 0.170117 0.222171 0.223578
Si Si5 0.839865 0.587883 0.364974
Si Si6 0.338882 0.500000 0.635372
Si Si7 0.329024 0.800757 0.000000
Si Si8 0.331212 0.054018 0.238087
O O1 0.798753 0.857150 0.500000
O O2 0.787415 0.823717 0.295919
O O3 0.744300 0.914258 0.332263
O O4 0.000000 0.880480 0.352139
O O5 0.283406 0.144727 0.000000
O O6 0.268582 0.065855 0.887094
O O7 0.500000 0.084367 0.000000
O O8 0.234986 0.299490 0.500000
O O9 0.224864 0.268038 0.708931
O O10 0.219384 0.360408 0.671815
O O11 0.000000 0.307954 0.617365
O O12 0.000000 0.223601 0.198469
O O13 0.259870 0.223564 0.108805
O O14 0.844910 0.586182 0.500000
O O15 0.738175 0.546821 0.316369
O O16 0.000000 0.579333 0.316487
O O17 0.500000 0.500000 0.682313
O O18 0.335246 0.500000 0.500000
O O19 0.500000 0.793928 0.000000
O O20 0.500000 0.064830 0.242318
O O21 0.297097 0.000000 0.267138
#
# Coordination Sequence:
#
# PCOD8195982 Si02
#       8
#     8   4   8   8   8   4   4   8
#     4  10  21  35  51  72  99 128 154 185 230 281
#     4   9  17  33  54  73  93 117 148 190 236 275
#     4   8  14  26  46  70  94 122 158 198 235 273
#     4  10  19  33  53  74  95 121 157 194 231 278
#     4   8  13  22  37  57  82 116 157 195 229 267
#     4   9  15  21  31  51  83 122 159 194 231 269
#     4  11  21  34  53  73  96 123 151 189 238 281
#     4  10  20  35  55  75  94 121 158 195 230 273
#
# _framework density 16.715198000000001
#
# number of rings (size 3 to 8) (size 9 to 14) (size 15 to 20)
#    0.000    2.692    1.538    2.077    0.000    4.615 
#    0.000    2.692    0.000    3.231    0.000    0.000 
#    0.000    0.615    0.000    7.077    0.000    4.615 
#
# Total GULP energy -644675.867108 kJ/mol
# GULP energy per Si atom -12397.612829 kJ/mol
# Density = 1.667715 g / cm^3
# Si number density = 16.715198 Si / 1000 Ang^3
#
#
#
# Elastic Constant Matrix: (Units=GPa)
#
#
# Indices 1 2 3 4 5 6 
#
# 1 57.2148 55.8301 36.3807 0.0000 0.0000 0.0000
# 2 55.8301 147.7110 58.2676 0.0000 0.0000 0.0000
# 3 36.3807 58.2676 90.0887 0.0000 0.0000 0.0000
# 4 0.0000 0.0000 0.0000 11.1815 0.0000 0.0000
# 5 0.0000 0.0000 0.0000 0.0000 19.2784 0.0000
# 6 0.0000 0.0000 0.0000 0.0000 0.0000 17.5624
#
#
#
# Elastic Compliance Matrix: (Units=1/GPa)
#
#
# Indices 1 2 3 4 5 6 
#
# 1 0.030265 -0.008885 -0.006476 0.000000 0.000000 0.000000
# 2 -0.008885 0.011697 -0.003977 0.000000 0.000000 0.000000
# 3 -0.006476 -0.003977 0.016288 0.000000 0.000000 0.000000
# 4 0.000000 0.000000 0.000000 0.089433 0.000000 0.000000
# 5 0.000000 0.000000 0.000000 0.000000 0.051872 0.000000
# 6 0.000000 0.000000 0.000000 0.000000 0.000000 0.056940
#
#
# Mechanical properties :
#
#
# Convention : Reuss Voigt Hill
#
# Bulk Modulus (GPa) = 51.08704 66.21903 58.65303
# Shear Modulus (GPa) = 16.57298 19.24021 17.90660
#
# Velocity S-wave (km/s) = 3.15221 3.39641 3.27659
# Velocity P-wave (km/s) = 6.62406 7.42178 7.03424
#
# Compressibility (1/GPa) = 0.01957444
#
# Stress axis : x y z
#
# Youngs Moduli (GPa) = 33.04094 85.49045 61.39584
#
# Poissons Ratio (x) = 0.75958 0.39757
# Poissons Ratio (y) = 0.29357 0.24420
# Poissons Ratio (z) = 0.21396 0.34004
#
# Static dielectric constant tensor:
#      x y z
#    x 2.950120 0.000000 0.000000 
#    y 0.000000 3.408170 0.000000 
#    z 0.000000 0.000000 2.971870 
# 
# 
# High freq. dielectric constant tensor:
#      x y z
#    x 1.619850 0.000000 0.000000 
#    y 0.000000 1.654230 0.000000 
#    z 0.000000 0.000000 1.612160 
# 
# From -- ./inp_files/15679.got.cif
#   From: 2010.03.12/outbox.cif.g09.slc.cpg/sg47_8_cif.got.tgz:15679.got - 2010.04.14 03:12:58.
