data_PCOD8195667
_publ_section_title
;
Structure prediction by ZEFSAII (Michael W. Deem and Ramdas Pophale) SiO2 
 PCOD8195667
Probable space group: P M M M
;
_chemical_formula_sum "Si O2"
_cell_formula_units_Z 32
_cell_length_a 9.308565
_cell_length_b 10.589608
_cell_length_c 17.636497
_cell_angle_alpha 90.000000
_cell_angle_beta 90.000000
_cell_angle_gamma 90.000000
_cell_volume 1738.501015
_symmetry_space_group_name_H-M "P M M M"
_symmetry_group_IT_number 47
_symmetry_cell_setting 'orthorhombic'
loop_
_space_group_symop_operation_xyz
x,y,z
-x,-y,z
x,-y,-z
-x,y,-z
-x,-y,-z
x,y,-z
-x,y,z
x,-y,z
loop_
_atom_site_type_symbol
_atom_site_label
_atom_site_fract_x
_atom_site_fract_y
_atom_site_fract_z
Si Si1 0.670914 0.642234 0.803856
Si Si2 0.155080 0.357383 0.500000
Si Si3 0.669498 0.733616 0.640377
Si Si4 0.668011 0.000000 0.584834
Si Si5 0.329163 0.859033 0.914405
O O1 0.500000 0.646617 0.806838
O O2 0.724662 0.500000 0.824480
O O3 0.724321 0.678299 0.719965
O O4 0.735115 0.747156 0.861715
O O5 0.111715 0.500000 0.500000
O O6 0.249304 0.334737 0.573642
O O7 0.000000 0.283147 0.500000
O O8 0.500000 0.711892 0.630044
O O9 0.713055 0.880451 0.634968
O O10 0.500000 0.000000 0.571000
O O11 0.739908 0.000000 0.500000
O O12 0.500000 0.854476 0.911298
O O13 0.278664 0.000000 0.887817
O O14 0.275476 0.834110 0.000000
#
# Coordination Sequence:
#
# PCOD8195667 Si02
#       5
#     8   4   8   4   8
#     4   9  17  26  39  62  87 116 156 195 231 275
#     4  11  23  36  49  66  92 127 162 195 240 293
#     4  10  19  32  50  70  94 121 157 202 242 283
#     4   9  16  28  46  70  89 111 151 194 241 289
#     4   8  14  24  37  56  86 122 153 183 228 282
#
# _framework density 18.406661
#
# number of rings (size 3 to 8) (size 9 to 14) (size 15 to 20)
#    0.000    2.750    1.250    1.875    1.750    2.500 
#    0.000    3.750    0.000    0.000    0.000    0.000 
#    0.000    1.000    0.000    8.000    0.000    8.500 
#
# Total GULP energy -396480.220103 kJ/mol
# GULP energy per Si atom -12390.006878 kJ/mol
# Density = 1.836477 g / cm^3
# Si number density = 18.406661 Si / 1000 Ang^3
#
#
#
# Elastic Constant Matrix: (Units=GPa)
#
#
# Indices 1 2 3 4 5 6 
#
# 1 25.6764 15.8768 22.3808 0.0000 0.0000 0.0000
# 2 15.8768 165.2735 89.0879 0.0000 0.0000 0.0000
# 3 22.3808 89.0879 144.0451 0.0000 0.0000 0.0000
# 4 0.0000 0.0000 0.0000 31.1857 0.0000 0.0000
# 5 0.0000 0.0000 0.0000 0.0000 -1.1030 0.0000
# 6 0.0000 0.0000 0.0000 0.0000 0.0000 4.4431
#
#
#
# Elastic Compliance Matrix: (Units=1/GPa)
#
#
# Indices 1 2 3 4 5 6 
#
# 1 0.045123 -0.000833 -0.006496 0.000000 0.000000 0.000000
# 2 -0.000833 0.009092 -0.005494 0.000000 0.000000 0.000000
# 3 -0.006496 -0.005494 0.011349 0.000000 0.000000 0.000000
# 4 0.000000 0.000000 0.000000 0.032066 0.000000 0.000000
# 5 0.000000 0.000000 0.000000 0.000000 -0.906646 0.000000
# 6 0.000000 0.000000 0.000000 0.000000 0.000000 0.225070
#
#
# Mechanical properties :
#
#
# Convention : Reuss Voigt Hill
#
# Bulk Modulus (GPa) = 25.05049 65.52064 45.28557
# Shear Modulus (GPa) = -9.17440 20.74846 5.78703
#
# Velocity S-wave (km/s) = -2.23497 3.36106 1.77505
# Velocity P-wave (km/s) = 2.64176 7.12290 5.37190
#
# Compressibility (1/GPa) = 0.03991938
#
# Stress axis : x y z
#
# Youngs Moduli (GPa) = 22.16143 109.98860 88.11262
#
# Poissons Ratio (x) = 0.09167 0.57234
# Poissons Ratio (y) = 0.01847 0.48405
# Poissons Ratio (z) = 0.14395 0.60423
#
# Static dielectric constant tensor:
#      x y z
#    x 2.700720 0.000000 0.000000 
#    y 0.000000 3.999070 0.000000 
#    z 0.000000 0.000000 3.501270 
# 
# 
# High freq. dielectric constant tensor:
#      x y z
#    x 1.634500 0.000000 0.000000 
#    y 0.000000 1.732030 0.000000 
#    z 0.000000 0.000000 1.715670 
# 
# From -- ./inp_files/8575.got.cif
#   From: 2010.03.12/outbox.cif.g09.slc.cpg/sg47_5_cif.got.tgz:8575.got - 2010.04.14 03:12:58.
