data_PCOD8195099
_publ_section_title
;
Structure prediction by ZEFSAII (Michael W. Deem and Ramdas Pophale) SiO2 
 PCOD8195099
Probable space group: P M M M
;
_chemical_formula_sum "Si O2"
_cell_formula_units_Z 60
_cell_length_a 21.707271
_cell_length_b 18.303704
_cell_length_c 8.979488
_cell_angle_alpha 90.000000
_cell_angle_beta 90.000000
_cell_angle_gamma 90.000000
_cell_volume 3567.761268
_symmetry_space_group_name_H-M "P M M M"
_symmetry_group_IT_number 47
_symmetry_cell_setting 'orthorhombic'
loop_
_space_group_symop_operation_xyz
x,y,z
-x,-y,z
x,-y,-z
-x,y,-z
-x,-y,-z
x,y,-z
-x,y,z
x,-y,z
loop_
_atom_site_type_symbol
_atom_site_label
_atom_site_fract_x
_atom_site_fract_y
_atom_site_fract_z
Si Si1 0.570222 0.196027 0.172961
Si Si2 0.802731 0.226118 0.673728
Si Si3 0.774585 0.917137 0.175735
Si Si4 0.929763 0.500000 0.822819
Si Si5 0.354062 0.082576 0.666645
Si Si6 0.713133 0.417345 0.834253
Si Si7 0.331708 0.288393 0.329730
Si Si8 0.849033 0.633542 0.829046
O O1 0.500000 0.217274 0.208231
O O2 0.588023 0.124355 0.265452
O O3 0.613977 0.261206 0.224561
O O4 0.580219 0.179986 0.000000
O O5 0.817236 0.220691 0.500000
O O6 0.816243 0.146334 0.747831
O O7 0.731458 0.245484 0.706056
O O8 0.847143 0.289265 0.740591
O O9 0.705081 0.906592 0.230520
O O10 0.797397 0.000000 0.217504
O O11 0.776655 0.905430 0.000000
O O12 0.899005 0.575727 0.763340
O O13 0.000000 0.500000 0.768781
O O14 0.922527 0.500000 0.000000
O O15 0.338340 0.112144 0.500000
O O16 0.375645 0.000000 0.658788
O O17 0.693010 0.500000 0.811923
O O18 0.676794 0.372959 0.709157
O O19 0.785648 0.409583 0.811161
O O20 0.695527 0.389550 0.000000
O O21 0.351345 0.279843 0.500000
O O22 0.863605 0.653342 0.000000
#
# Coordination Sequence:
#
# PCOD8195099 Si02
#       8
#     8   8   8   4   8   8   8   8
#     4  11  23  36  50  66  85 113 151 193 236 288
#     4  10  19  30  46  69  96 127 162 202 245 290
#     4  10  19  30  47  70  95 125 158 195 244 298
#     4   9  16  28  49  77 109 145 184 217 242 273
#     4  10  20  33  48  66  89 117 150 188 232 284
#     4   9  16  28  48  71  95 122 153 191 233 281
#     4  10  20  32  47  68  91 117 148 188 241 291
#     4   9  16  28  46  70 100 134 171 207 240 276
#
# _framework density 16.817267999999999
#
# number of rings (size 3 to 8) (size 9 to 14) (size 15 to 20)
#    0.000    2.200    2.000    2.000    0.000    4.267 
#    0.000    1.667    0.000    1.200    0.000    2.800 
#    0.000    0.533    0.000    6.133    0.000    1.733 
#
# Total GULP energy -743755.219940 kJ/mol
# GULP energy per Si atom -12395.920332 kJ/mol
# Density = 1.677899 g / cm^3
# Si number density = 16.817268 Si / 1000 Ang^3
#
#
#
# Elastic Constant Matrix: (Units=GPa)
#
#
# Indices 1 2 3 4 5 6 
#
# 1 55.4848 47.4241 28.5662 0.0000 0.0000 0.0000
# 2 47.4241 132.6109 57.1550 0.0000 0.0000 0.0000
# 3 28.5662 57.1550 77.0458 0.0000 0.0000 0.0000
# 4 0.0000 0.0000 0.0000 24.4920 0.0000 0.0000
# 5 0.0000 0.0000 0.0000 0.0000 10.9186 0.0000
# 6 0.0000 0.0000 0.0000 0.0000 0.0000 20.2127
#
#
#
# Elastic Compliance Matrix: (Units=1/GPa)
#
#
# Indices 1 2 3 4 5 6 
#
# 1 0.026835 -0.007803 -0.004161 0.000000 0.000000 0.000000
# 2 -0.007803 0.013354 -0.007013 0.000000 0.000000 0.000000
# 3 -0.004161 -0.007013 0.019725 0.000000 0.000000 0.000000
# 4 0.000000 0.000000 0.000000 0.040830 0.000000 0.000000
# 5 0.000000 0.000000 0.000000 0.000000 0.091587 0.000000
# 6 0.000000 0.000000 0.000000 0.000000 0.000000 0.049474
#
#
# Mechanical properties :
#
#
# Convention : Reuss Voigt Hill
#
# Bulk Modulus (GPa) = 45.53972 59.04801 52.29387
# Shear Modulus (GPa) = 17.41685 19.92441 18.67063
#
# Velocity S-wave (km/s) = 3.22165 3.44577 3.33559
# Velocity P-wave (km/s) = 6.40130 7.14275 6.78216
#
# Compressibility (1/GPa) = 0.02195885
#
# Stress axis : x y z
#
# Youngs Moduli (GPa) = 37.26501 74.88271 50.69794
#
# Poissons Ratio (x) = 0.58434 0.21094
# Poissons Ratio (y) = 0.29079 0.35556
# Poissons Ratio (z) = 0.15505 0.52518
#
# Static dielectric constant tensor:
#      x y z
#    x 2.740950 0.000000 0.000000 
#    y 0.000000 3.375110 0.000000 
#    z 0.000000 0.000000 3.210980 
# 
# 
# High freq. dielectric constant tensor:
#      x y z
#    x 1.590870 0.000000 0.000000 
#    y 0.000000 1.661780 0.000000 
#    z 0.000000 0.000000 1.652590 
# 
# From -- ./inp_files/11624.got.cif
#   From: 2010.03.12/outbox.cif.g09.slc.cpg/sg47_6_cif.got.tgz:11624.got - 2010.04.14 03:12:58.
