data_PCOD8195636
_publ_section_title
;
Structure prediction by ZEFSAII (Michael W. Deem and Ramdas Pophale) SiO2 
 PCOD8195636
Probable space group: P M M M
;
_chemical_formula_sum "Si O2"
_cell_formula_units_Z 52
_cell_length_a 21.593104
_cell_length_b 15.572474
_cell_length_c 8.789773
_cell_angle_alpha 90.000000
_cell_angle_beta 90.000000
_cell_angle_gamma 90.000000
_cell_volume 2955.631934
_symmetry_space_group_name_H-M "P M M M"
_symmetry_group_IT_number 47
_symmetry_cell_setting 'orthorhombic'
loop_
_space_group_symop_operation_xyz
x,y,z
-x,-y,z
x,-y,-z
-x,y,-z
-x,-y,-z
x,y,-z
-x,y,z
x,-y,z
loop_
_atom_site_type_symbol
_atom_site_label
_atom_site_fract_x
_atom_site_fract_y
_atom_site_fract_z
Si Si1 0.828542 0.752867 0.673295
Si Si2 0.780842 0.903920 0.167816
Si Si3 0.712247 0.500000 0.181727
Si Si4 0.853490 0.500000 0.818987
Si Si5 0.302843 0.320575 0.681161
Si Si6 0.426807 0.000000 0.326976
Si Si7 0.644726 0.847767 0.825373
Si Si8 0.930906 0.341032 0.820600
O O1 0.843206 0.732264 0.500000
O O2 0.813705 0.852510 0.697560
O O3 0.768378 0.699291 0.730733
O O4 0.890638 0.740194 0.771422
O O5 0.707535 0.901097 0.189264
O O6 0.804808 0.000000 0.182820
O O7 0.797674 0.866495 0.000000
O O8 0.783333 0.500000 0.240680
O O9 0.679636 0.413703 0.247585
O O10 0.706930 0.500000 0.000000
O O11 0.891330 0.419738 0.752988
O O12 0.853604 0.500000 0.000000
O O13 0.309697 0.323544 0.500000
O O14 0.348385 0.245836 0.744065
O O15 0.405667 0.910573 0.249384
O O16 0.500000 0.000000 0.318536
O O17 0.402435 0.000000 0.500000
O O18 0.626164 0.830326 0.000000
O O19 0.000000 0.338744 0.749644
O O20 0.936584 0.346904 0.000000
#
# Coordination Sequence:
#
# PCOD8195636 Si02
#       8
#     8   8   4   4   8   4   8   8
#     4  10  20  31  45  68  96 126 160 201 254 311
#     4   9  17  31  51  74  98 125 159 202 251 301
#     4  11  19  30  51  75 101 139 178 220 267 314
#     4   9  17  29  46  67  91 120 160 208 251 300
#     4  10  20  33  49  73 106 141 174 217 270 321
#     4  11  23  37  55  83 121 159 186 213 256 305
#     4  10  19  34  54  79 108 142 184 222 256 302
#     4  10  19  32  49  66  87 121 164 207 253 307
#
# _framework density 17.593530000000001
#
# number of rings (size 3 to 8) (size 9 to 14) (size 15 to 20)
#    0.000    2.077    2.308    2.077    0.000    4.000 
#    0.000    0.385    0.000    1.385    0.000    3.769 
#    0.000    4.308    0.000    0.000    0.000    0.000 
#
# Total GULP energy -644520.773728 kJ/mol
# GULP energy per Si atom -12394.630264 kJ/mol
# Density = 1.755349 g / cm^3
# Si number density = 17.593530 Si / 1000 Ang^3
#
#
#
# Elastic Constant Matrix: (Units=GPa)
#
#
# Indices 1 2 3 4 5 6 
#
# 1 54.1244 35.1024 25.4182 0.0000 0.0000 0.0000
# 2 35.1024 119.8222 44.0634 0.0000 0.0000 0.0000
# 3 25.4182 44.0634 74.6001 0.0000 0.0000 0.0000
# 4 0.0000 0.0000 0.0000 27.3060 0.0000 0.0000
# 5 0.0000 0.0000 0.0000 0.0000 20.4293 0.0000
# 6 0.0000 0.0000 0.0000 0.0000 0.0000 21.3275
#
#
#
# Elastic Compliance Matrix: (Units=1/GPa)
#
#
# Indices 1 2 3 4 5 6 
#
# 1 0.024295 -0.005203 -0.005204 0.000000 0.000000 0.000000
# 2 -0.005203 0.011776 -0.005183 0.000000 0.000000 0.000000
# 3 -0.005204 -0.005183 0.018239 0.000000 0.000000 0.000000
# 4 0.000000 0.000000 0.000000 0.036622 0.000000 0.000000
# 5 0.000000 0.000000 0.000000 0.000000 0.048949 0.000000
# 6 0.000000 0.000000 0.000000 0.000000 0.000000 0.046888
#
#
# Mechanical properties :
#
#
# Convention : Reuss Voigt Hill
#
# Bulk Modulus (GPa) = 43.23569 50.85720 47.04644
# Shear Modulus (GPa) = 22.15725 23.41007 22.78366
#
# Velocity S-wave (km/s) = 3.55265 3.65171 3.60252
# Velocity P-wave (km/s) = 6.43868 6.83736 6.64101
#
# Compressibility (1/GPa) = 0.02312904
#
# Stress axis : x y z
#
# Youngs Moduli (GPa) = 41.16115 84.91908 54.82674
#
# Poissons Ratio (x) = 0.44187 0.28534
# Poissons Ratio (y) = 0.21418 0.28415
# Poissons Ratio (z) = 0.21422 0.44011
#
# Static dielectric constant tensor:
#      x y z
#    x 2.969680 0.000000 0.000000 
#    y 0.000000 3.305890 0.000000 
#    z 0.000000 0.000000 3.226600 
# 
# 
# High freq. dielectric constant tensor:
#      x y z
#    x 1.638540 0.000000 0.000000 
#    y 0.000000 1.683950 0.000000 
#    z 0.000000 0.000000 1.679630 
# 
# From -- ./inp_files/11113.got.cif
#   From: 2010.03.12/outbox.cif.g09.slc.cpg/sg47_6_cif.got.tgz:11113.got - 2010.04.14 03:12:58.
