data_PCOD8195946
_publ_section_title
;
Structure prediction by ZEFSAII (Michael W. Deem and Ramdas Pophale) SiO2 
 PCOD8195946
Probable space group: P M M M
;
_chemical_formula_sum "Si O2"
_cell_formula_units_Z 40
_cell_length_a 10.625861
_cell_length_b 13.137682
_cell_length_c 15.636693
_cell_angle_alpha 90.000000
_cell_angle_beta 90.000000
_cell_angle_gamma 90.000000
_cell_volume 2182.869564
_symmetry_space_group_name_H-M "P M M M"
_symmetry_group_IT_number 47
_symmetry_cell_setting 'orthorhombic'
loop_
_space_group_symop_operation_xyz
x,y,z
-x,-y,z
x,-y,-z
-x,y,-z
-x,-y,-z
x,y,-z
-x,y,z
x,-y,z
loop_
_atom_site_type_symbol
_atom_site_label
_atom_site_fract_x
_atom_site_fract_y
_atom_site_fract_z
Si Si1 0.358292 0.109631 0.500000
Si Si2 0.741710 0.249630 0.356441
Si Si3 0.855528 0.110794 0.218371
Si Si4 0.146600 0.287857 0.899514
Si Si5 0.359121 0.616043 0.789499
Si Si6 0.853433 0.387529 0.500000
O O1 0.500000 0.077855 0.500000
O O2 0.336388 0.174813 0.584377
O O3 0.283135 0.000000 0.500000
O O4 0.833645 0.178041 0.302340
O O5 0.651564 0.312193 0.293316
O O6 0.818572 0.328172 0.414056
O O7 0.817081 0.175154 0.134183
O O8 0.000000 0.085816 0.214328
O O9 0.784649 0.000000 0.219606
O O10 0.246482 0.365205 0.857295
O O11 0.000000 0.315248 0.875571
O O12 0.166248 0.291450 0.000000
O O13 0.500000 0.634668 0.828818
O O14 0.346097 0.500000 0.758945
O O15 0.789464 0.500000 0.500000
O O16 0.000000 0.401637 0.500000
#
# Coordination Sequence:
#
# PCOD8195946 Si02
#       6
#     4   8   8   8   8   4
#     4  10  20  32  48  70  94 124 164 206 248 297
#     4  10  19  33  50  70  99 133 168 209 254 299
#     4   9  17  30  50  75 101 130 165 205 250 301
#     4   9  19  35  54  78 106 134 166 206 253 305
#     4  10  21  36  54  76 102 135 174 213 255 303
#     4  10  20  32  48  72 102 136 173 213 256 301
#
# _framework density 18.324504000000001
#
# number of rings (size 3 to 8) (size 9 to 14) (size 15 to 20)
#    0.000    2.400    0.000    2.400    0.000    2.400 
#    0.000    4.000    0.000   15.000    0.000    5.600 
#    0.000    0.000    0.000    0.000    0.000    0.000 
#
# Total GULP energy -495588.528141 kJ/mol
# GULP energy per Si atom -12389.713204 kJ/mol
# Density = 1.828280 g / cm^3
# Si number density = 18.324504 Si / 1000 Ang^3
#
#
#
# Elastic Constant Matrix: (Units=GPa)
#
#
# Indices 1 2 3 4 5 6 
#
# 1 71.5091 40.0119 38.9434 0.0000 0.0000 0.0000
# 2 40.0119 141.0494 51.6671 0.0000 0.0000 0.0000
# 3 38.9434 51.6671 114.6145 0.0000 0.0000 0.0000
# 4 0.0000 0.0000 0.0000 10.7449 0.0000 0.0000
# 5 0.0000 0.0000 0.0000 0.0000 14.1229 0.0000
# 6 0.0000 0.0000 0.0000 0.0000 0.0000 22.3075
#
#
#
# Elastic Compliance Matrix: (Units=1/GPa)
#
#
# Indices 1 2 3 4 5 6 
#
# 1 0.018520 -0.003532 -0.004701 0.000000 0.000000 0.000000
# 2 -0.003532 0.009165 -0.002932 0.000000 0.000000 0.000000
# 3 -0.004701 -0.002932 0.011644 0.000000 0.000000 0.000000
# 4 0.000000 0.000000 0.000000 0.093067 0.000000 0.000000
# 5 0.000000 0.000000 0.000000 0.000000 0.070807 0.000000
# 6 0.000000 0.000000 0.000000 0.000000 0.000000 0.044828
#
#
# Mechanical properties :
#
#
# Convention : Reuss Voigt Hill
#
# Bulk Modulus (GPa) = 58.81963 65.37975 62.09969
# Shear Modulus (GPa) = 18.11415 22.53843 20.32629
#
# Velocity S-wave (km/s) = 3.14749 3.51088 3.33414
# Velocity P-wave (km/s) = 6.73628 7.22436 6.98459
#
# Compressibility (1/GPa) = 0.01700113
#
# Stress axis : x y z
#
# Youngs Moduli (GPa) = 53.99446 109.10487 85.88370
#
# Poissons Ratio (x) = 0.38534 0.40371
# Poissons Ratio (y) = 0.19070 0.25178
# Poissons Ratio (z) = 0.25381 0.31986
#
# Static dielectric constant tensor:
#      x y z
#    x 3.272670 0.000000 0.000000 
#    y 0.000000 4.128930 0.000000 
#    z 0.000000 0.000000 3.443220 
# 
# 
# High freq. dielectric constant tensor:
#      x y z
#    x 1.694020 0.000000 0.000000 
#    y 0.000000 1.730170 0.000000 
#    z 0.000000 0.000000 1.706390 
# 
# From -- ./inp_files/20663.got.cif
#   From: 2010.03.12/outbox.cif.g09.slc.cpg/sg47_11_cif.got.tgz:20663.got - 2010.04.14 03:12:58.
