data_PCOD8195911
_publ_section_title
;
Structure prediction by ZEFSAII (Michael W. Deem and Ramdas Pophale) SiO2 
 PCOD8195911
Probable space group: P M M M
;
_chemical_formula_sum "Si O2"
_cell_formula_units_Z 52
_cell_length_a 14.458159
_cell_length_b 9.151026
_cell_length_c 20.376884
_cell_angle_alpha 90.000000
_cell_angle_beta 90.000000
_cell_angle_gamma 90.000000
_cell_volume 2696.004166
_symmetry_space_group_name_H-M "P M M M"
_symmetry_group_IT_number 47
_symmetry_cell_setting 'orthorhombic'
loop_
_space_group_symop_operation_xyz
x,y,z
-x,-y,z
x,-y,-z
-x,y,-z
-x,-y,-z
x,y,-z
-x,y,z
x,-y,z
loop_
_atom_site_type_symbol
_atom_site_label
_atom_site_fract_x
_atom_site_fract_y
_atom_site_fract_z
Si Si1 0.186257 0.330070 0.576361
Si Si2 0.896076 0.329337 0.109679
Si Si3 0.101193 0.838465 0.760688
Si Si4 0.000000 0.835273 0.577625
Si Si5 0.395789 0.174234 0.194894
Si Si6 0.278572 0.168735 0.928140
Si Si7 0.280750 0.166038 0.319211
O O1 0.206768 0.303818 0.500000
O O2 0.175546 0.500000 0.592989
O O3 0.092124 0.250841 0.599370
O O4 0.276353 0.265116 0.615300
O O5 0.878485 0.500000 0.103237
O O6 0.882068 0.283483 0.184851
O O7 0.820187 0.247751 0.066389
O O8 0.000000 0.288564 0.085736
O O9 0.176188 0.823700 0.705136
O O10 0.000000 0.817112 0.727636
O O11 0.108560 0.000000 0.793721
O O12 0.000000 0.846848 0.500000
O O13 0.000000 0.000000 0.608034
O O14 0.500000 0.235230 0.192701
O O15 0.342127 0.234699 0.130388
O O16 0.348586 0.229104 0.262608
O O17 0.394348 0.000000 0.193464
O O18 0.260049 0.000000 0.912891
O O19 0.326808 0.188249 0.000000
O O20 0.309180 0.000000 0.337217
#
# Coordination Sequence:
#
# PCOD8195911 Si02
#       7
#     8   8   8   4   8   8   8
#     4  10  21  35  50  74 111 149 184 224 268 315
#     4  10  20  33  50  74 107 146 183 219 261 311
#     4   9  17  30  49  74 105 138 175 221 266 310
#     4   9  17  31  51  75 107 149 192 225 258 309
#     4   9  18  35  58  84 111 135 169 224 283 331
#     4  10  20  35  56  81 108 140 179 220 266 322
#     4  10  19  32  54  80 105 139 180 221 270 324
#
# _framework density 19.287804999999999
#
# number of rings (size 3 to 8) (size 9 to 14) (size 15 to 20)
#    0.000    2.385    1.538    1.154    1.077    4.308 
#    0.000    3.077    0.000    2.308    0.000    4.308 
#    0.000    0.000    0.000    0.000    0.000    0.000 
#
# Total GULP energy -644486.035366 kJ/mol
# GULP energy per Si atom -12393.962219 kJ/mol
# Density = 1.924391 g / cm^3
# Si number density = 19.287805 Si / 1000 Ang^3
#
#
#
# Elastic Constant Matrix: (Units=GPa)
#
#
# Indices 1 2 3 4 5 6 
#
# 1 104.8745 36.5417 57.0652 0.0000 0.0000 0.0000
# 2 36.5417 71.6729 41.9944 0.0000 0.0000 0.0000
# 3 57.0652 41.9944 97.3260 0.0000 0.0000 0.0000
# 4 0.0000 0.0000 0.0000 15.2813 0.0000 0.0000
# 5 0.0000 0.0000 0.0000 0.0000 17.3560 0.0000
# 6 0.0000 0.0000 0.0000 0.0000 0.0000 12.7137
#
#
#
# Elastic Compliance Matrix: (Units=1/GPa)
#
#
# Indices 1 2 3 4 5 6 
#
# 1 0.014543 -0.003237 -0.007130 0.000000 0.000000 0.000000
# 2 -0.003237 0.019393 -0.006470 0.000000 0.000000 0.000000
# 3 -0.007130 -0.006470 0.017247 0.000000 0.000000 0.000000
# 4 0.000000 0.000000 0.000000 0.065439 0.000000 0.000000
# 5 0.000000 0.000000 0.000000 0.000000 0.057617 0.000000
# 6 0.000000 0.000000 0.000000 0.000000 0.000000 0.078655
#
#
# Mechanical properties :
#
#
# Convention : Reuss Voigt Hill
#
# Bulk Modulus (GPa) = 57.11304 60.56400 58.83852
# Shear Modulus (GPa) = 17.09953 18.28835 17.69394
#
# Velocity S-wave (km/s) = 2.98072 3.08260 3.03209
# Velocity P-wave (km/s) = 6.44372 6.64366 6.54445
#
# Compressibility (1/GPa) = 0.01750914
#
# Stress axis : x y z
#
# Youngs Moduli (GPa) = 68.76261 51.56381 57.98042
#
# Poissons Ratio (x) = 0.16690 0.41342
# Poissons Ratio (y) = 0.22257 0.37514
# Poissons Ratio (z) = 0.49030 0.33362
#
# Static dielectric constant tensor:
#      x y z
#    x 3.490350 0.000000 0.000000 
#    y 0.000000 3.406810 0.000000 
#    z 0.000000 0.000000 3.532830 
# 
# 
# High freq. dielectric constant tensor:
#      x y z
#    x 1.724720 0.000000 0.000000 
#    y 0.000000 1.726360 0.000000 
#    z 0.000000 0.000000 1.755130 
# 
# From -- ./inp_files/10968.got.cif
#   From: 2010.03.12/outbox.cif.g09.slc.cpg/sg47_6_cif.got.tgz:10968.got - 2010.04.14 03:12:58.
