data_PCOD8195742
_publ_section_title
;
Structure prediction by ZEFSAII (Michael W. Deem and Ramdas Pophale) SiO2 
 PCOD8195742
Probable space group: P M M M
;
_chemical_formula_sum "Si O2"
_cell_formula_units_Z 48
_cell_length_a 20.504956
_cell_length_b 14.024124
_cell_length_c 9.429098
_cell_angle_alpha 90.000000
_cell_angle_beta 90.000000
_cell_angle_gamma 90.000000
_cell_volume 2711.469567
_symmetry_space_group_name_H-M "P M M M"
_symmetry_group_IT_number 47
_symmetry_cell_setting 'orthorhombic'
loop_
_space_group_symop_operation_xyz
x,y,z
-x,-y,z
x,-y,-z
-x,y,-z
-x,-y,-z
x,y,-z
-x,y,z
x,-y,z
loop_
_atom_site_type_symbol
_atom_site_label
_atom_site_fract_x
_atom_site_fract_y
_atom_site_fract_z
Si Si1 0.752834 0.888981 0.338932
Si Si2 0.500000 0.888671 0.167133
Si Si3 0.322223 0.393954 0.662792
Si Si4 0.132150 0.798062 0.833880
Si Si5 0.000000 0.108493 0.168711
Si Si6 0.194007 0.393961 0.164164
Si Si7 0.616030 0.203762 0.336586
O O1 0.771890 0.863203 0.500000
O O2 0.810260 0.856098 0.237803
O O3 0.686004 0.838232 0.295626
O O4 0.741122 0.000000 0.318302
O O5 0.436579 0.840627 0.233071
O O6 0.500000 0.000000 0.204500
O O7 0.500000 0.870587 0.000000
O O8 0.299835 0.388418 0.500000
O O9 0.347917 0.500000 0.702167
O O10 0.258900 0.366354 0.752165
O O11 0.380072 0.318068 0.690267
O O12 0.063352 0.835664 0.773114
O O13 0.138536 0.684626 0.801500
O O14 0.137040 0.819121 0.000000
O O15 0.000000 0.000000 0.226536
O O16 0.000000 0.108779 0.000000
O O17 0.168514 0.500000 0.206698
O O18 0.213113 0.390694 0.000000
O O19 0.597583 0.180779 0.500000
#
# Coordination Sequence:
#
# PCOD8195742 Si02
#       7
#     8   4   8   8   4   8   8
#     4  10  20  33  51  77 105 130 166 217 264 307
#     4  11  25  41  56  77 106 140 179 219 256 301
#     4   9  17  31  54  82 107 133 168 208 251 303
#     4  10  19  32  51  73  99 135 177 215 256 309
#     4   9  18  32  48  68  98 137 179 219 260 307
#     4   9  17  29  47  74 105 133 164 209 264 311
#     4  10  20  36  57  79 105 138 173 209 258 312
#
# _framework density 17.702577999999999
#
# number of rings (size 3 to 8) (size 9 to 14) (size 15 to 20)
#    0.000    2.333    1.667    1.250    0.000    3.667 
#    0.000    1.250    0.000    6.500    0.000    0.000 
#    0.000    4.000    0.000    0.000    0.000    0.000 
#
# Total GULP energy -595117.318951 kJ/mol
# GULP energy per Si atom -12398.277478 kJ/mol
# Density = 1.766229 g / cm^3
# Si number density = 17.702578 Si / 1000 Ang^3
#
#
#
# Elastic Constant Matrix: (Units=GPa)
#
#
# Indices 1 2 3 4 5 6 
#
# 1 115.6574 73.6056 50.5457 0.0000 0.0000 0.0000
# 2 73.6056 131.9625 46.0719 0.0000 0.0000 0.0000
# 3 50.5457 46.0719 52.2987 0.0000 0.0000 0.0000
# 4 0.0000 0.0000 0.0000 23.9642 0.0000 0.0000
# 5 0.0000 0.0000 0.0000 0.0000 44.9637 0.0000
# 6 0.0000 0.0000 0.0000 0.0000 0.0000 29.4648
#
#
#
# Elastic Compliance Matrix: (Units=1/GPa)
#
#
# Indices 1 2 3 4 5 6 
#
# 1 0.017375 -0.005529 -0.011922 0.000000 0.000000 0.000000
# 2 -0.005529 0.012703 -0.005847 0.000000 0.000000 0.000000
# 3 -0.011922 -0.005847 0.035794 0.000000 0.000000 0.000000
# 4 0.000000 0.000000 0.000000 0.041729 0.000000 0.000000
# 5 0.000000 0.000000 0.000000 0.000000 0.022240 0.000000
# 6 0.000000 0.000000 0.000000 0.000000 0.000000 0.033939
#
#
# Mechanical properties :
#
#
# Convention : Reuss Voigt Hill
#
# Bulk Modulus (GPa) = 51.87693 71.15165 61.51429
# Shear Modulus (GPa) = 23.06246 28.32490 25.69368
#
# Velocity S-wave (km/s) = 3.61331 4.00439 3.81387
# Velocity P-wave (km/s) = 6.83933 7.85241 7.36331
#
# Compressibility (1/GPa) = 0.01927639
#
# Stress axis : x y z
#
# Youngs Moduli (GPa) = 57.55267 78.71952 27.93758
#
# Poissons Ratio (x) = 0.43526 0.33307
# Poissons Ratio (y) = 0.31822 0.16335
# Poissons Ratio (z) = 0.68614 0.46027
#
# Static dielectric constant tensor:
#      x y z
#    x 3.308850 0.000000 0.000000 
#    y 0.000000 3.737430 0.000000 
#    z 0.000000 0.000000 3.209060 
# 
# 
# High freq. dielectric constant tensor:
#      x y z
#    x 1.662120 0.000000 0.000000 
#    y 0.000000 1.707970 0.000000 
#    z 0.000000 0.000000 1.672840 
# 
# From -- ./inp_files/9230.got.cif
#   From: 2010.03.12/outbox.cif.g09.slc.cpg/sg47_5_cif.got.tgz:9230.got - 2010.04.14 03:12:58.
