data_PCOD8195336
_publ_section_title
;
Structure prediction by ZEFSAII (Michael W. Deem and Ramdas Pophale) SiO2 
 PCOD8195336
Probable space group: P M M M
;
_chemical_formula_sum "Si O2"
_cell_formula_units_Z 60
_cell_length_a 15.472250
_cell_length_b 14.968816
_cell_length_c 14.434490
_cell_angle_alpha 90.000000
_cell_angle_beta 90.000000
_cell_angle_gamma 90.000000
_cell_volume 3343.046120
_symmetry_space_group_name_H-M "P M M M"
_symmetry_group_IT_number 47
_symmetry_cell_setting 'orthorhombic'
loop_
_space_group_symop_operation_xyz
x,y,z
-x,-y,z
x,-y,-z
-x,y,-z
-x,-y,-z
x,y,-z
-x,y,z
x,-y,z
loop_
_atom_site_type_symbol
_atom_site_label
_atom_site_fract_x
_atom_site_fract_y
_atom_site_fract_z
Si Si1 0.404301 0.345096 0.714393
Si Si2 0.398118 0.000000 0.602081
Si Si3 0.255849 0.100477 0.892901
Si Si4 0.399757 0.858604 0.251028
Si Si5 0.334933 0.599950 0.101665
Si Si6 0.096895 0.603372 0.257963
Si Si7 0.169347 0.279695 0.894507
Si Si8 0.240705 0.602741 0.398077
O O1 0.500000 0.360980 0.672680
O O2 0.381784 0.241934 0.721256
O O3 0.404686 0.387144 0.817503
O O4 0.334894 0.389576 0.647373
O O5 0.368511 0.086672 0.659147
O O6 0.500000 0.000000 0.589683
O O7 0.354239 0.000000 0.500000
O O8 0.344570 0.112837 0.837465
O O9 0.184367 0.175587 0.864868
O O10 0.218592 0.000000 0.875859
O O11 0.280395 0.114939 0.000000
O O12 0.500000 0.877189 0.226641
O O13 0.296114 0.500000 0.107581
O O14 0.259627 0.670115 0.118826
O O15 0.377619 0.615613 0.000000
O O16 0.118273 0.500000 0.230568
O O17 0.100458 0.669229 0.169394
O O18 0.165100 0.642395 0.332894
O O19 0.000000 0.609321 0.298835
O O20 0.135804 0.285455 0.000000
O O21 0.239794 0.649109 0.500000
O O22 0.218691 0.500000 0.411170
#
# Coordination Sequence:
#
# PCOD8195336 Si02
#       8
#     8   4   8   8   8   8   8   8
#     4  11  22  34  51  74 103 143 189 230 263 308
#     4   9  18  32  47  63  87 119 157 212 284 342
#     4  10  19  31  50  74 101 138 179 214 256 313
#     4  10  19  31  47  68  96 130 171 225 280 318
#     4  10  19  31  49  71 100 142 184 222 267 314
#     4  10  20  35  58  85 109 136 173 216 267 325
#     4  10  19  33  52  77 110 142 170 210 262 314
#     4  10  21  37  54  73 103 139 175 221 272 317
#
# _framework density 17.947704000000002
#
# number of rings (size 3 to 8) (size 9 to 14) (size 15 to 20)
#    0.000    1.933    3.333    0.800    0.000    3.733 
#    0.000    6.667    0.000    0.400    0.000    1.867 
#    0.000    0.000    0.000    2.933    0.000    0.133 
#
# Total GULP energy -743709.488584 kJ/mol
# GULP energy per Si atom -12395.158143 kJ/mol
# Density = 1.790685 g / cm^3
# Si number density = 17.947704 Si / 1000 Ang^3
#
#
#
# Elastic Constant Matrix: (Units=GPa)
#
#
# Indices 1 2 3 4 5 6 
#
# 1 74.0382 21.1756 44.2816 0.0000 0.0000 0.0000
# 2 21.1756 88.4232 30.8243 0.0000 0.0000 0.0000
# 3 44.2816 30.8243 113.4757 0.0000 0.0000 0.0000
# 4 0.0000 0.0000 0.0000 18.7462 0.0000 0.0000
# 5 0.0000 0.0000 0.0000 0.0000 8.6158 0.0000
# 6 0.0000 0.0000 0.0000 0.0000 0.0000 23.4954
#
#
#
# Elastic Compliance Matrix: (Units=1/GPa)
#
#
# Indices 1 2 3 4 5 6 
#
# 1 0.017949 -0.002051 -0.006447 0.000000 0.000000 0.000000
# 2 -0.002051 0.012727 -0.002657 0.000000 0.000000 0.000000
# 3 -0.006447 -0.002657 0.012050 0.000000 0.000000 0.000000
# 4 0.000000 0.000000 0.000000 0.053344 0.000000 0.000000
# 5 0.000000 0.000000 0.000000 0.000000 0.116066 0.000000
# 6 0.000000 0.000000 0.000000 0.000000 0.000000 0.042562
#
#
# Mechanical properties :
#
#
# Convention : Reuss Voigt Hill
#
# Bulk Modulus (GPa) = 48.98105 52.05554 50.51829
# Shear Modulus (GPa) = 17.61729 22.14852 19.88291
#
# Velocity S-wave (km/s) = 3.13643 3.51673 3.33201
# Velocity P-wave (km/s) = 6.36133 6.74958 6.55833
#
# Compressibility (1/GPa) = 0.02041606
#
# Stress axis : x y z
#
# Youngs Moduli (GPa) = 55.71297 78.57603 82.98769
#
# Poissons Ratio (x) = 0.16116 0.53504
# Poissons Ratio (y) = 0.11427 0.22047
# Poissons Ratio (z) = 0.35919 0.20875
#
# Static dielectric constant tensor:
#      x y z
#    x 2.972260 0.000000 0.000000 
#    y 0.000000 3.577400 0.000000 
#    z 0.000000 0.000000 3.571530 
# 
# 
# High freq. dielectric constant tensor:
#      x y z
#    x 1.657650 0.000000 0.000000 
#    y 0.000000 1.696020 0.000000 
#    z 0.000000 0.000000 1.694400 
# 
# From -- ./inp_files/23947.got.cif
#   From: 2010.03.12/outbox.cif.g09.slc.cpg/sg47_12_cif.got.tgz:23947.got - 2010.04.14 03:12:58.
