data_PCOD8195257
_publ_section_title
;
Structure prediction by ZEFSAII (Michael W. Deem and Ramdas Pophale) SiO2 
 PCOD8195257
Probable space group: P M M M
;
_chemical_formula_sum "Si O2"
_cell_formula_units_Z 48
_cell_length_a 22.233195
_cell_length_b 19.960728
_cell_length_c 8.013406
_cell_angle_alpha 90.000000
_cell_angle_beta 90.000000
_cell_angle_gamma 90.000000
_cell_volume 3556.275523
_symmetry_space_group_name_H-M "P M M M"
_symmetry_group_IT_number 47
_symmetry_cell_setting 'orthorhombic'
loop_
_space_group_symop_operation_xyz
x,y,z
-x,-y,z
x,-y,-z
-x,y,-z
-x,-y,-z
x,y,-z
-x,y,z
x,-y,z
loop_
_atom_site_type_symbol
_atom_site_label
_atom_site_fract_x
_atom_site_fract_y
_atom_site_fract_z
Si Si1 0.768322 0.924927 0.808877
Si Si2 0.931382 0.714930 0.199292
Si Si3 0.568198 0.079982 0.000000
Si Si4 0.641878 0.079567 0.684287
Si Si5 0.071432 0.429148 0.187054
Si Si6 0.000000 0.075760 0.301318
Si Si7 0.117768 0.150187 0.692845
O O1 0.711054 0.897355 0.706832
O O2 0.823921 0.875234 0.788647
O O3 0.786584 0.000000 0.748899
O O4 0.748040 0.926822 0.000000
O O5 0.907971 0.641806 0.268271
O O6 0.888544 0.770399 0.280297
O O7 0.000000 0.728331 0.257425
O O8 0.927173 0.716701 0.000000
O O9 0.599973 0.108933 0.832122
O O10 0.500000 0.106171 0.000000
O O11 0.570663 0.000000 0.000000
O O12 0.619754 0.103739 0.500000
O O13 0.639615 0.000000 0.695733
O O14 0.091237 0.500000 0.277859
O O15 0.000000 0.425783 0.180208
O O16 0.097094 0.432079 0.000000
O O17 0.059109 0.113082 0.231730
O O18 0.000000 0.078268 0.500000
O O19 0.000000 0.000000 0.233900
O O20 0.125852 0.132743 0.500000
#
# Coordination Sequence:
#
# PCOD8195257 Si02
#       7
#     8   8   4   8   8   4   8
#     4  10  19  31  44  56  70  90 121 160 196 231
#     4   9  16  26  39  53  71  90 109 141 184 228
#     4   9  16  26  40  60  84 103 121 147 180 222
#     4   9  16  27  42  58  77 100 124 151 185 224
#     4   7  10  18  34  54  70  85 107 133 165 212
#     4   9  18  30  39  47  62  83 112 152 193 236
#     4  11  20  29  40  53  69  91 118 149 190 238
#
# _framework density 13.497266
#
# number of rings (size 3 to 8) (size 9 to 14) (size 15 to 20)
#    0.000    2.833    1.667    3.000    0.000    2.000 
#    0.000    1.667    0.000    2.500    0.000    2.333 
#    0.000    0.000    0.000    0.000    0.000    0.000 
#
# Total GULP energy -594659.913842 kJ/mol
# GULP energy per Si atom -12388.748205 kJ/mol
# Density = 1.346655 g / cm^3
# Si number density = 13.497266 Si / 1000 Ang^3
#
#
#
# Elastic Constant Matrix: (Units=GPa)
#
#
# Indices 1 2 3 4 5 6 
#
# 1 69.9423 25.3707 28.9035 0.0000 0.0000 0.0000
# 2 25.3707 82.1053 9.3085 0.0000 0.0000 0.0000
# 3 28.9035 9.3085 56.1777 0.0000 0.0000 0.0000
# 4 0.0000 0.0000 0.0000 8.3408 0.0000 0.0000
# 5 0.0000 0.0000 0.0000 0.0000 13.6255 0.0000
# 6 0.0000 0.0000 0.0000 0.0000 0.0000 3.0809
#
#
#
# Elastic Compliance Matrix: (Units=1/GPa)
#
#
# Indices 1 2 3 4 5 6 
#
# 1 0.020075 -0.005129 -0.009479 0.000000 0.000000 0.000000
# 2 -0.005129 0.013723 0.000365 0.000000 0.000000 0.000000
# 3 -0.009479 0.000365 0.022617 0.000000 0.000000 0.000000
# 4 0.000000 0.000000 0.000000 0.119892 0.000000 0.000000
# 5 0.000000 0.000000 0.000000 0.000000 0.073392 0.000000
# 6 0.000000 0.000000 0.000000 0.000000 0.000000 0.324584
#
#
# Mechanical properties :
#
#
# Convention : Reuss Voigt Hill
#
# Bulk Modulus (GPa) = 35.80409 37.26563 36.53486
# Shear Modulus (GPa) = 8.16889 14.65228 11.41059
#
# Velocity S-wave (km/s) = 2.46280 3.29838 2.91073
# Velocity P-wave (km/s) = 5.88827 6.49426 6.19868
#
# Compressibility (1/GPa) = 0.02792977
#
# Stress axis : x y z
#
# Youngs Moduli (GPa) = 49.81347 72.87106 44.21450
#
# Poissons Ratio (x) = 0.37372 0.41910
# Poissons Ratio (y) = 0.25547 -0.01613
# Poissons Ratio (z) = 0.47217 -0.02658
#
# Static dielectric constant tensor:
#      x y z
#    x 2.439370 0.000000 0.000000 
#    y 0.000000 2.760200 0.000000 
#    z 0.000000 0.000000 2.661210 
# 
# 
# High freq. dielectric constant tensor:
#      x y z
#    x 1.471400 0.000000 0.000000 
#    y 0.000000 1.484180 0.000000 
#    z 0.000000 0.000000 1.513410 
# 
# From -- ./inp_files/11692.got.cif
#   From: 2010.03.12/outbox.cif.g09.slc.cpg/sg47_6_cif.got.tgz:11692.got - 2010.04.14 03:12:58.
