data_PCOD8195791
_publ_section_title
;
Structure prediction by ZEFSAII (Michael W. Deem and Ramdas Pophale) SiO2 
 PCOD8195791
Probable space group: P M M M
;
_chemical_formula_sum "Si O2"
_cell_formula_units_Z 64
_cell_length_a 19.679171
_cell_length_b 9.174085
_cell_length_c 19.827772
_cell_angle_alpha 90.000000
_cell_angle_beta 90.000000
_cell_angle_gamma 90.000000
_cell_volume 3579.673984
_symmetry_space_group_name_H-M "P M M M"
_symmetry_group_IT_number 47
_symmetry_cell_setting 'orthorhombic'
loop_
_space_group_symop_operation_xyz
x,y,z
-x,-y,z
x,-y,-z
-x,y,-z
-x,-y,-z
x,y,-z
-x,y,z
x,-y,z
loop_
_atom_site_type_symbol
_atom_site_label
_atom_site_fract_x
_atom_site_fract_y
_atom_site_fract_z
Si Si1 0.319856 0.174126 0.328062
Si Si2 0.220392 0.170739 0.924992
Si Si3 0.927041 0.171234 0.111263
Si Si4 0.075310 0.670129 0.388016
Si Si5 0.202545 0.164445 0.425932
Si Si6 0.736065 0.669273 0.795666
Si Si7 0.109700 0.333621 0.761171
Si Si8 0.579839 0.666834 0.576674
O O1 0.254716 0.228367 0.371200
O O2 0.316501 0.247492 0.253834
O O3 0.385650 0.228641 0.368365
O O4 0.323031 0.000000 0.320681
O O5 0.141202 0.225821 0.926486
O O6 0.264728 0.259884 0.870625
O O7 0.224456 0.000000 0.906534
O O8 0.249859 0.200038 0.000000
O O9 0.928919 0.234213 0.186018
O O10 0.000000 0.214692 0.076192
O O11 0.922642 0.000000 0.116722
O O12 0.088324 0.500000 0.396422
O O13 0.132101 0.749790 0.431098
O O14 0.082476 0.717080 0.310616
O O15 0.000000 0.712755 0.413936
O O16 0.236845 0.173427 0.500000
O O17 0.184883 0.000000 0.405865
O O18 0.715195 0.500000 0.801752
O O19 0.809766 0.690596 0.763521
O O20 0.090691 0.500000 0.776848
O O21 0.599211 0.712954 0.500000
O O22 0.500000 0.683212 0.587420
O O23 0.602636 0.500000 0.589236
#
# Coordination Sequence:
#
# PCOD8195791 Si02
#       8
#     8   8   8   8   8   8   8   8
#     4  11  21  34  55  80 107 137 174 218 258 302
#     4   9  18  32  48  67  96 131 164 205 260 316
#     4   9  17  27  41  63  88 116 154 197 246 310
#     4  10  20  33  48  65  86 115 156 207 262 317
#     4  10  22  37  50  67  93 125 162 207 258 309
#     4  10  19  32  52  74  97 127 168 213 257 307
#     4   9  17  30  46  63  86 115 151 200 256 309
#     4   9  19  36  57  83 117 154 186 214 249 297
#
# _framework density 17.878723000000001
#
# number of rings (size 3 to 8) (size 9 to 14) (size 15 to 20)
#    0.000    2.375    1.250    1.875    0.000    4.500 
#    0.000    3.125    0.000    0.000    0.000    3.500 
#    0.000    0.500    0.000    5.250    0.000    2.250 
#
# Total GULP energy -793260.910565 kJ/mol
# GULP energy per Si atom -12394.701728 kJ/mol
# Density = 1.783803 g / cm^3
# Si number density = 17.878723 Si / 1000 Ang^3
#
#
#
# Elastic Constant Matrix: (Units=GPa)
#
#
# Indices 1 2 3 4 5 6 
#
# 1 51.1085 31.6520 36.3228 0.0000 0.0000 0.0000
# 2 31.6520 50.0623 39.0003 0.0000 0.0000 0.0000
# 3 36.3228 39.0003 101.2989 0.0000 0.0000 0.0000
# 4 0.0000 0.0000 0.0000 26.3612 0.0000 0.0000
# 5 0.0000 0.0000 0.0000 0.0000 15.6774 0.0000
# 6 0.0000 0.0000 0.0000 0.0000 0.0000 24.2893
#
#
#
# Elastic Compliance Matrix: (Units=1/GPa)
#
#
# Indices 1 2 3 4 5 6 
#
# 1 0.034273 -0.017277 -0.005637 0.000000 0.000000 0.000000
# 2 -0.017277 0.037243 -0.008143 0.000000 0.000000 0.000000
# 3 -0.005637 -0.008143 0.015028 0.000000 0.000000 0.000000
# 4 0.000000 0.000000 0.000000 0.037935 0.000000 0.000000
# 5 0.000000 0.000000 0.000000 0.000000 0.063786 0.000000
# 6 0.000000 0.000000 0.000000 0.000000 0.000000 0.041170
#
#
# Mechanical properties :
#
#
# Convention : Reuss Voigt Hill
#
# Bulk Modulus (GPa) = 40.93718 46.26888 43.60303
# Shear Modulus (GPa) = 16.68372 19.63190 18.15781
#
# Velocity S-wave (km/s) = 3.05808 3.31729 3.19032
# Velocity P-wave (km/s) = 5.95114 6.37244 6.16539
#
# Compressibility (1/GPa) = 0.02442767
#
# Stress axis : x y z
#
# Youngs Moduli (GPa) = 29.17775 26.85089 66.54066
#
# Poissons Ratio (x) = 0.46391 0.37512
# Poissons Ratio (y) = 0.50411 0.54187
# Poissons Ratio (z) = 0.16449 0.21866
#
# Static dielectric constant tensor:
#      x y z
#    x 3.059390 0.000000 0.000000 
#    y 0.000000 3.265820 0.000000 
#    z 0.000000 0.000000 3.301290 
# 
# 
# High freq. dielectric constant tensor:
#      x y z
#    x 1.654980 0.000000 0.000000 
#    y 0.000000 1.688200 0.000000 
#    z 0.000000 0.000000 1.688460 
# 
# From -- ./inp_files/31536.got.cif
#   From: 2010.03.12/outbox.cif.g09.slc.cpg/sg47_16_cif.got.tgz:31536.got - 2010.04.14 03:12:58.
