data_PCOD8195345
_publ_section_title
;
Structure prediction by ZEFSAII (Michael W. Deem and Ramdas Pophale) SiO2 
 PCOD8195345
Probable space group: P M M M
;
_chemical_formula_sum "Si O2"
_cell_formula_units_Z 52
_cell_length_a 12.559748
_cell_length_b 26.164553
_cell_length_c 8.941369
_cell_angle_alpha 90.000000
_cell_angle_beta 90.000000
_cell_angle_gamma 90.000000
_cell_volume 2938.314399
_symmetry_space_group_name_H-M "P M M M"
_symmetry_group_IT_number 47
_symmetry_cell_setting 'orthorhombic'
loop_
_space_group_symop_operation_xyz
x,y,z
-x,-y,z
x,-y,-z
-x,y,-z
-x,-y,-z
x,y,-z
-x,y,z
x,-y,z
loop_
_atom_site_type_symbol
_atom_site_label
_atom_site_fract_x
_atom_site_fract_y
_atom_site_fract_z
Si Si1 0.874576 0.602869 0.674053
Si Si2 0.000000 0.124426 0.175467
Si Si3 0.203849 0.941681 0.825972
Si Si4 0.000000 0.766631 0.322290
Si Si5 0.187489 0.704176 0.825030
Si Si6 0.621256 0.878005 0.324186
Si Si7 0.379893 0.774677 0.172379
Si Si8 0.126413 0.500000 0.168611
O O1 0.845826 0.603523 0.500000
O O2 0.812395 0.647528 0.758503
O O3 0.833063 0.549844 0.743624
O O4 0.000000 0.610602 0.700092
O O5 0.102717 0.091800 0.220768
O O6 0.000000 0.174823 0.274315
O O7 0.000000 0.138574 0.000000
O O8 0.307913 0.923718 0.738312
O O9 0.179127 0.000000 0.782632
O O10 0.228086 0.935870 0.000000
O O11 0.896024 0.739614 0.258893
O O12 0.000000 0.761598 0.500000
O O13 0.304880 0.726449 0.794995
O O14 0.158866 0.702530 0.000000
O O15 0.631803 0.877091 0.500000
O O16 0.500000 0.887549 0.272041
O O17 0.662088 0.823487 0.263708
O O18 0.500000 0.759508 0.220074
O O19 0.374237 0.790704 0.000000
O O20 0.000000 0.500000 0.165835
O O21 0.172176 0.500000 0.000000
#
# Coordination Sequence:
#
# PCOD8195345 Si02
#       8
#     8   4   8   4   8   8   8   4
#     4  10  19  31  47  71 105 141 176 215 257 302
#     4  10  21  38  56  74  99 131 166 205 248 297
#     4  10  21  37  57  78  99 127 165 206 248 297
#     4  12  24  35  49  74 107 138 168 205 250 303
#     4  11  21  33  52  76 104 137 173 213 255 303
#     4  10  21  36  54  77 104 132 162 202 253 305
#     4   9  19  36  56  77 101 132 171 213 255 301
#     4   9  17  29  47  69  98 139 182 219 254 302
#
# _framework density 17.697220999999999
#
# number of rings (size 3 to 8) (size 9 to 14) (size 15 to 20)
#    0.000    1.923    0.769    3.462    0.000    9.538 
#    0.000    1.538    0.000    1.385    0.000    0.538 
#    0.000    4.308    0.000    0.000    0.000    0.000 
#
# Total GULP energy -645001.545841 kJ/mol
# GULP energy per Si atom -12403.875882 kJ/mol
# Density = 1.765694 g / cm^3
# Si number density = 17.697221 Si / 1000 Ang^3
#
#
#
# Elastic Constant Matrix: (Units=GPa)
#
#
# Indices 1 2 3 4 5 6 
#
# 1 77.2323 53.9970 42.3384 0.0000 0.0000 0.0000
# 2 53.9970 144.6701 64.9099 0.0000 0.0000 0.0000
# 3 42.3384 64.9099 98.8514 0.0000 0.0000 0.0000
# 4 0.0000 0.0000 0.0000 5.8522 0.0000 0.0000
# 5 0.0000 0.0000 0.0000 0.0000 17.1668 0.0000
# 6 0.0000 0.0000 0.0000 0.0000 0.0000 15.4387
#
#
#
# Elastic Compliance Matrix: (Units=1/GPa)
#
#
# Indices 1 2 3 4 5 6 
#
# 1 0.019093 -0.004901 -0.004959 0.000000 0.000000 0.000000
# 2 -0.004901 0.011058 -0.005162 0.000000 0.000000 0.000000
# 3 -0.004959 -0.005162 0.015630 0.000000 0.000000 0.000000
# 4 0.000000 0.000000 0.000000 0.170875 0.000000 0.000000
# 5 0.000000 0.000000 0.000000 0.000000 0.058252 0.000000
# 6 0.000000 0.000000 0.000000 0.000000 0.000000 0.064772
#
#
# Mechanical properties :
#
#
# Convention : Reuss Voigt Hill
#
# Bulk Modulus (GPa) = 63.54844 71.47161 67.51002
# Shear Modulus (GPa) = 13.33443 18.32546 15.82994
#
# Velocity S-wave (km/s) = 2.74793 3.22141 2.99404
# Velocity P-wave (km/s) = 6.78637 7.36954 7.08396
#
# Compressibility (1/GPa) = 0.01573603
#
# Stress axis : x y z
#
# Youngs Moduli (GPa) = 52.37406 90.43616 63.98110
#
# Poissons Ratio (x) = 0.44326 0.31731
# Poissons Ratio (y) = 0.25670 0.33024
# Poissons Ratio (z) = 0.25974 0.46679
#
# Static dielectric constant tensor:
#      x y z
#    x 3.266290 0.000000 0.000000 
#    y 0.000000 3.372850 0.000000 
#    z 0.000000 0.000000 3.353620 
# 
# 
# High freq. dielectric constant tensor:
#      x y z
#    x 1.663990 0.000000 0.000000 
#    y 0.000000 1.689280 0.000000 
#    z 0.000000 0.000000 1.692790 
# 
# From -- ./inp_files/4679.got.cif
#   From: 2010.03.12/outbox.cif.g09.slc.cpg/sg47_3_cif.got.tgz:4679.got - 2010.04.14 03:12:58.
