data_PCOD8195493
_publ_section_title
;
Structure prediction by ZEFSAII (Michael W. Deem and Ramdas Pophale) SiO2 
 PCOD8195493
Probable space group: P M M M
;
_chemical_formula_sum "Si O2"
_cell_formula_units_Z 32
_cell_length_a 10.369375
_cell_length_b 9.011658
_cell_length_c 17.927485
_cell_angle_alpha 90.000000
_cell_angle_beta 90.000000
_cell_angle_gamma 90.000000
_cell_volume 1675.238518
_symmetry_space_group_name_H-M "P M M M"
_symmetry_group_IT_number 47
_symmetry_cell_setting 'orthorhombic'
loop_
_space_group_symop_operation_xyz
x,y,z
-x,-y,z
x,-y,-z
-x,y,-z
-x,-y,-z
x,y,-z
-x,y,z
x,-y,z
loop_
_atom_site_type_symbol
_atom_site_label
_atom_site_fract_x
_atom_site_fract_y
_atom_site_fract_z
Si Si1 0.243572 0.171790 0.913390
Si Si2 0.500000 0.676283 0.332633
Si Si3 0.000000 0.675933 0.842003
Si Si4 0.753441 0.676849 0.584060
Si Si5 0.000000 0.676722 0.672930
Si Si6 0.500000 0.826489 0.825860
O O1 0.374290 0.219758 0.872367
O O2 0.126612 0.268492 0.883372
O O3 0.210935 0.000000 0.899452
O O4 0.263718 0.205519 0.000000
O O5 0.500000 0.500000 0.328680
O O6 0.375487 0.736221 0.376562
O O7 0.500000 0.736418 0.249813
O O8 0.000000 0.736599 0.757319
O O9 0.000000 0.500000 0.843475
O O10 0.759876 0.739372 0.500000
O O11 0.754716 0.500000 0.582650
O O12 0.874581 0.738925 0.630464
O O13 0.000000 0.500000 0.671978
O O14 0.500000 0.000000 0.807955
#
# Coordination Sequence:
#
# PCOD8195493 Si02
#       6
#     8   4   4   8   4   4
#     4  10  21  38  58  78 102 136 179 222 260 304
#     4  10  19  31  49  75 105 132 162 208 262 310
#     4  11  22  35  53  81 114 141 168 210 266 321
#     4   9  16  27  45  69  97 131 170 208 247 295
#     4   9  17  28  43  67 100 133 164 204 252 299
#     4  10  21  37  57  79 103 136 178 220 262 310
#
# _framework density 19.101756999999999
#
# number of rings (size 3 to 8) (size 9 to 14) (size 15 to 20)
#    0.000    2.250    0.000    3.375    0.000    9.500 
#    0.000    0.000    0.000    3.750    0.000    0.000 
#    0.000   10.000    0.000    0.000    0.000    0.000 
#
# Total GULP energy -396875.980448 kJ/mol
# GULP energy per Si atom -12402.374389 kJ/mol
# Density = 1.905828 g / cm^3
# Si number density = 19.101757 Si / 1000 Ang^3
#
#
#
# Elastic Constant Matrix: (Units=GPa)
#
#
# Indices 1 2 3 4 5 6 
#
# 1 155.4066 26.4368 48.0620 0.0000 0.0000 0.0000
# 2 26.4368 26.6010 23.8842 0.0000 0.0000 0.0000
# 3 48.0620 23.8842 126.1596 0.0000 0.0000 0.0000
# 4 0.0000 0.0000 0.0000 13.5009 0.0000 0.0000
# 5 0.0000 0.0000 0.0000 0.0000 47.0169 0.0000
# 6 0.0000 0.0000 0.0000 0.0000 0.0000 148.8803
#
#
#
# Elastic Compliance Matrix: (Units=1/GPa)
#
#
# Indices 1 2 3 4 5 6 
#
# 1 0.008098 -0.006359 -0.001881 0.000000 0.000000 0.000000
# 2 -0.006359 0.050285 -0.007097 0.000000 0.000000 0.000000
# 3 -0.001881 -0.007097 0.009987 0.000000 0.000000 0.000000
# 4 0.000000 0.000000 0.000000 0.074069 0.000000 0.000000
# 5 0.000000 0.000000 0.000000 0.000000 0.021269 0.000000
# 6 0.000000 0.000000 0.000000 0.000000 0.000000 0.006717
#
#
# Mechanical properties :
#
#
# Convention : Reuss Voigt Hill
#
# Bulk Modulus (GPa) = 26.52892 56.10368 41.31630
# Shear Modulus (GPa) = 23.40113 55.86522 39.63318
#
# Velocity S-wave (km/s) = 3.50391 5.41383 4.55999
# Velocity P-wave (km/s) = 5.50347 8.27733 7.02860
#
# Compressibility (1/GPa) = 0.03769471
#
# Stress axis : x y z
#
# Youngs Moduli (GPa) = 123.48220 19.88667 100.13248
#
# Poissons Ratio (x) = 0.12646 0.18837
# Poissons Ratio (y) = 0.78525 0.71066
# Poissons Ratio (z) = 0.23230 0.14114
#
# Static dielectric constant tensor:
#      x y z
#    x 3.750470 0.000000 0.000000 
#    y 0.000000 3.024200 0.000000 
#    z 0.000000 0.000000 3.704790 
# 
# 
# High freq. dielectric constant tensor:
#      x y z
#    x 1.764420 0.000000 0.000000 
#    y 0.000000 1.692410 0.000000 
#    z 0.000000 0.000000 1.763230 
# 
# From -- ./inp_files/22369.got.cif
#   From: 2010.03.12/outbox.cif.g09.slc.cpg/sg47_12_cif.got.tgz:22369.got - 2010.04.14 03:12:58.
