data_PCOD8195249
_publ_section_title
;
Structure prediction by ZEFSAII (Michael W. Deem and Ramdas Pophale) SiO2 
 PCOD8195249
Probable space group: P M M M
;
_chemical_formula_sum "Si O2"
_cell_formula_units_Z 64
_cell_length_a 14.334422
_cell_length_b 26.095138
_cell_length_c 9.163903
_cell_angle_alpha 90.000000
_cell_angle_beta 90.000000
_cell_angle_gamma 90.000000
_cell_volume 3427.837829
_symmetry_space_group_name_H-M "P M M M"
_symmetry_group_IT_number 47
_symmetry_cell_setting 'orthorhombic'
loop_
_space_group_symop_operation_xyz
x,y,z
-x,-y,z
x,-y,-z
-x,y,-z
-x,-y,-z
x,y,-z
-x,y,z
x,-y,z
loop_
_atom_site_type_symbol
_atom_site_label
_atom_site_fract_x
_atom_site_fract_y
_atom_site_fract_z
Si Si1 0.109768 0.789863 0.339469
Si Si2 0.107628 0.308980 0.828947
Si Si3 0.101990 0.098097 0.327617
Si Si4 0.607054 0.250701 0.670823
Si Si5 0.389622 0.850489 0.832919
Si Si6 0.725868 0.650167 0.327483
Si Si7 0.604177 0.443232 0.673169
Si Si8 0.293475 0.942679 0.670692
O O1 0.156109 0.779980 0.500000
O O2 0.142257 0.746491 0.227468
O O3 0.136276 0.845546 0.274245
O O4 0.000000 0.788270 0.359213
O O5 0.172998 0.350393 0.749478
O O6 0.000000 0.320030 0.787555
O O7 0.123516 0.311380 0.000000
O O8 0.089773 0.101107 0.500000
O O9 0.183546 0.058895 0.283760
O O10 0.000000 0.082657 0.260360
O O11 0.614802 0.240096 0.500000
O O12 0.500000 0.261053 0.716659
O O13 0.648234 0.200408 0.751558
O O14 0.666367 0.300041 0.718290
O O15 0.500000 0.852433 0.817662
O O16 0.352011 0.902360 0.761764
O O17 0.356999 0.848218 0.000000
O O18 0.740581 0.647505 0.500000
O O19 0.673322 0.599998 0.265490
O O20 0.600664 0.439077 0.500000
O O21 0.500000 0.433493 0.734751
O O22 0.638980 0.500000 0.720603
O O23 0.304832 0.929757 0.500000
O O24 0.329590 0.000000 0.705410
#
# Coordination Sequence:
#
# PCOD8195249 Si02
#       8
#     8   8   8   8   8   8   8   8
#     4   8  14  27  47  68  91 123 164 206 247 295
#     4  10  21  34  46  66 101 141 179 218 258 299
#     4   8  15  29  50  75 101 128 158 196 244 298
#     4   9  18  33  53  78 107 134 161 198 247 306
#     4  10  22  39  56  73  97 131 168 208 256 307
#     4  10  19  30  51  81 108 138 174 211 252 301
#     4   8  14  27  50  81 114 142 170 210 258 306
#     4  10  21  35  53  78 103 128 164 209 253 301
#
# _framework density 18.670662
#
# number of rings (size 3 to 8) (size 9 to 14) (size 15 to 20)
#    0.000    2.875    0.000    2.250    1.750    4.250 
#    0.000    2.500    0.000    2.250    0.000    4.375 
#    0.000    0.000    0.000    0.000    0.000    0.000 
#
# Total GULP energy -793262.643731 kJ/mol
# GULP energy per Si atom -12394.728808 kJ/mol
# Density = 1.862817 g / cm^3
# Si number density = 18.670662 Si / 1000 Ang^3
#
#
#
# Elastic Constant Matrix: (Units=GPa)
#
#
# Indices 1 2 3 4 5 6 
#
# 1 62.8731 55.2296 33.9195 0.0000 0.0000 0.0000
# 2 55.2296 135.4375 48.3634 0.0000 0.0000 0.0000
# 3 33.9195 48.3634 56.0619 0.0000 0.0000 0.0000
# 4 0.0000 0.0000 0.0000 -1.7188 0.0000 0.0000
# 5 0.0000 0.0000 0.0000 0.0000 19.2566 0.0000
# 6 0.0000 0.0000 0.0000 0.0000 0.0000 28.4577
#
#
#
# Elastic Compliance Matrix: (Units=1/GPa)
#
#
# Indices 1 2 3 4 5 6 
#
# 1 0.028445 -0.007882 -0.010411 0.000000 0.000000 0.000000
# 2 -0.007882 0.012855 -0.006321 0.000000 0.000000 0.000000
# 3 -0.010411 -0.006321 0.029589 0.000000 0.000000 0.000000
# 4 0.000000 0.000000 0.000000 -0.581818 0.000000 0.000000
# 5 0.000000 0.000000 0.000000 0.000000 0.051930 0.000000
# 6 0.000000 0.000000 0.000000 0.000000 0.000000 0.035140
#
#
# Mechanical properties :
#
#
# Convention : Reuss Voigt Hill
#
# Bulk Modulus (GPa) = 46.16336 58.82195 52.49265
# Shear Modulus (GPa) = -13.60874 16.98978 1.69052
#
# Velocity S-wave (km/s) = -2.70271 3.01985 0.95258
# Velocity P-wave (km/s) = 3.87804 6.61307 5.42088
#
# Compressibility (1/GPa) = 0.02166220
#
# Stress axis : x y z
#
# Youngs Moduli (GPa) = 35.15503 77.79269 33.79640
#
# Poissons Ratio (x) = 0.61317 0.35185
# Poissons Ratio (y) = 0.27709 0.21361
# Poissons Ratio (z) = 0.36599 0.49169
#
# Static dielectric constant tensor:
#      x y z
#    x 3.556410 0.000000 0.000000 
#    y 0.000000 3.572900 0.000000 
#    z 0.000000 0.000000 3.114350 
# 
# 
# High freq. dielectric constant tensor:
#      x y z
#    x 1.728030 0.000000 0.000000 
#    y 0.000000 1.714690 0.000000 
#    z 0.000000 0.000000 1.685960 
# 
# From -- ./inp_files/7918.got.cif
#   From: 2010.03.12/outbox.cif.g09.slc.cpg/sg47_4_cif.got.tgz:7918.got - 2010.04.14 03:12:58.
