data_PCOD8195043
_publ_section_title
;
Structure prediction by ZEFSAII (Michael W. Deem and Ramdas Pophale) SiO2 
 PCOD8195043
Probable space group: P M M M
;
_chemical_formula_sum "Si O2"
_cell_formula_units_Z 52
_cell_length_a 26.057855
_cell_length_b 9.056186
_cell_length_c 13.689054
_cell_angle_alpha 90.000000
_cell_angle_beta 90.000000
_cell_angle_gamma 90.000000
_cell_volume 3230.408419
_symmetry_space_group_name_H-M "P M M M"
_symmetry_group_IT_number 47
_symmetry_cell_setting 'orthorhombic'
loop_
_space_group_symop_operation_xyz
x,y,z
-x,-y,z
x,-y,-z
-x,y,-z
-x,-y,-z
x,y,-z
-x,y,z
x,-y,z
loop_
_atom_site_type_symbol
_atom_site_label
_atom_site_fract_x
_atom_site_fract_y
_atom_site_fract_z
Si Si1 0.800176 0.671982 0.889121
Si Si2 0.500000 0.666407 0.884172
Si Si3 0.397438 0.826062 0.113489
Si Si4 0.695917 0.673003 0.218657
Si Si5 0.749780 0.172330 0.387336
Si Si6 0.058720 0.670211 0.611569
Si Si7 0.147119 0.172399 0.279460
O O1 0.811923 0.500000 0.878742
O O2 0.743077 0.708697 0.852774
O O3 0.842178 0.758090 0.826210
O O4 0.804888 0.726680 0.000000
O O5 0.500000 0.500000 0.841543
O O6 0.550119 0.753198 0.847529
O O7 0.500000 0.662588 0.000000
O O8 0.352392 0.759570 0.177800
O O9 0.400979 0.000000 0.130183
O O10 0.387737 0.787478 0.000000
O O11 0.683529 0.500000 0.223614
O O12 0.708712 0.732404 0.326830
O O13 0.743534 0.215515 0.500000
O O14 0.807373 0.214190 0.354392
O O15 0.739078 0.000000 0.368785
O O16 0.066601 0.720852 0.500000
O O17 0.074290 0.500000 0.623436
O O18 0.093650 0.767966 0.680932
O O19 0.000000 0.695037 0.643278
O O20 0.141884 0.000000 0.265204
#
# Coordination Sequence:
#
# PCOD8195043 Si02
#       7
#     8   4   8   8   8   8   8
#     4   9  18  32  48  66  91 124 159 191 224 267
#     4   9  17  29  45  65  90 121 156 193 231 269
#     4  10  19  30  45  66  94 126 157 189 228 275
#     4  10  19  30  46  69  94 120 154 193 230 269
#     4   9  18  32  47  65  93 125 154 185 224 272
#     4   9  18  32  49  69  93 121 152 185 223 270
#     4  10  19  30  47  71  96 121 150 186 229 274
#
# _framework density 16.097035000000002
#
# number of rings (size 3 to 8) (size 9 to 14) (size 15 to 20)
#    0.000    2.538    0.000    3.000    0.000    5.538 
#    0.000    0.769    0.000    0.462    0.000    3.769 
#    0.000    4.308    0.000    0.000    0.000    0.000 
#
# Total GULP energy -644913.445930 kJ/mol
# GULP energy per Si atom -12402.181653 kJ/mol
# Density = 1.606040 g / cm^3
# Si number density = 16.097035 Si / 1000 Ang^3
#
#
#
# Elastic Constant Matrix: (Units=GPa)
#
#
# Indices 1 2 3 4 5 6 
#
# 1 99.8226 52.1150 56.8255 0.0000 0.0000 0.0000
# 2 52.1150 76.8219 51.8092 0.0000 0.0000 0.0000
# 3 56.8255 51.8092 109.9928 0.0000 0.0000 0.0000
# 4 0.0000 0.0000 0.0000 23.9509 0.0000 0.0000
# 5 0.0000 0.0000 0.0000 0.0000 25.5072 0.0000
# 6 0.0000 0.0000 0.0000 0.0000 0.0000 31.4836
#
#
#
# Elastic Compliance Matrix: (Units=1/GPa)
#
#
# Indices 1 2 3 4 5 6 
#
# 1 0.017180 -0.008308 -0.004962 0.000000 0.000000 0.000000
# 2 -0.008308 0.023095 -0.006586 0.000000 0.000000 0.000000
# 3 -0.004962 -0.006586 0.014757 0.000000 0.000000 0.000000
# 4 0.000000 0.000000 0.000000 0.041752 0.000000 0.000000
# 5 0.000000 0.000000 0.000000 0.000000 0.039205 0.000000
# 6 0.000000 0.000000 0.000000 0.000000 0.000000 0.031763
#
#
# Mechanical properties :
#
#
# Convention : Reuss Voigt Hill
#
# Bulk Modulus (GPa) = 65.27709 67.57075 66.42392
# Shear Modulus (GPa) = 23.52147 24.58082 24.05115
#
# Velocity S-wave (km/s) = 3.82675 3.91198 3.86960
# Velocity P-wave (km/s) = 7.75665 7.90399 7.83067
#
# Compressibility (1/GPa) = 0.01531931
#
# Stress axis : x y z
#
# Youngs Moduli (GPa) = 58.20650 43.29954 67.76230
#
# Poissons Ratio (x) = 0.35974 0.33627
# Poissons Ratio (y) = 0.48359 0.44629
# Poissons Ratio (z) = 0.28885 0.28517
#
# Static dielectric constant tensor:
#      x y z
#    x 2.984660 0.000000 0.000000 
#    y 0.000000 3.104530 0.000000 
#    z 0.000000 0.000000 2.964940 
# 
# 
# High freq. dielectric constant tensor:
#      x y z
#    x 1.611260 0.000000 0.000000 
#    y 0.000000 1.629390 0.000000 
#    z 0.000000 0.000000 1.599210 
# 
# From -- ./inp_files/7696.got.cif
#   From: 2010.03.12/outbox.cif.g09.slc.cpg/sg47_4_cif.got.tgz:7696.got - 2010.04.14 03:12:58.
