data_PCOD8195906
_publ_section_title
;
Structure prediction by ZEFSAII (Michael W. Deem and Ramdas Pophale) SiO2 
 PCOD8195906
Probable space group: P M M M
;
_chemical_formula_sum "Si O2"
_cell_formula_units_Z 52
_cell_length_a 12.698746
_cell_length_b 8.915153
_cell_length_c 26.371727
_cell_angle_alpha 90.000000
_cell_angle_beta 90.000000
_cell_angle_gamma 90.000000
_cell_volume 2985.576534
_symmetry_space_group_name_H-M "P M M M"
_symmetry_group_IT_number 47
_symmetry_cell_setting 'orthorhombic'
loop_
_space_group_symop_operation_xyz
x,y,z
-x,-y,z
x,-y,-z
-x,y,-z
-x,-y,-z
x,y,-z
-x,y,z
x,-y,z
loop_
_atom_site_type_symbol
_atom_site_label
_atom_site_fract_x
_atom_site_fract_y
_atom_site_fract_z
Si Si1 0.698218 0.323504 0.106791
Si Si2 0.500000 0.676480 0.174636
Si Si3 0.878100 0.173809 0.281425
Si Si4 0.118729 0.176197 0.833734
Si Si5 0.381552 0.321145 0.000000
Si Si6 0.500000 0.822001 0.282768
Si Si7 0.381809 0.322298 0.444992
Si Si8 0.304099 0.322587 0.660865
O O1 0.710540 0.500000 0.105867
O O2 0.601913 0.276631 0.142578
O O3 0.806175 0.255713 0.126628
O O4 0.678158 0.261905 0.050035
O O5 0.500000 0.500000 0.187939
O O6 0.500000 0.775586 0.224506
O O7 0.851985 0.221531 0.223802
O O8 0.809577 0.275356 0.318734
O O9 0.000000 0.204115 0.293794
O O10 0.850154 0.000000 0.289892
O O11 0.000000 0.227999 0.845806
O O12 0.129880 0.000000 0.840192
O O13 0.386586 0.500000 0.000000
O O14 0.500000 0.257047 0.000000
O O15 0.395650 0.757723 0.308241
O O16 0.500000 0.000000 0.287435
O O17 0.338778 0.264071 0.500000
O O18 0.500000 0.260061 0.436276
O O19 0.386037 0.500000 0.446024
O O20 0.309321 0.269877 0.398119
O O21 0.319446 0.500000 0.666584
#
# Coordination Sequence:
#
# PCOD8195906 Si02
#       8
#     8   4   8   8   4   4   8   8
#     4  10  19  32  54  79 100 128 164 205 249 296
#     4  10  20  33  50  75 103 128 164 208 250 293
#     4   9  19  36  55  74 101 140 177 206 250 312
#     4   9  19  36  54  71  97 134 171 206 247 296
#     4   9  16  32  54  75 102 134 163 194 245 306
#     4  12  24  34  46  70 107 145 168 195 254 319
#     4   8  14  27  48  72  99 133 169 206 254 304
#     4  11  20  32  52  78 105 130 168 219 260 296
#
# _framework density 17.417072000000001
#
# number of rings (size 3 to 8) (size 9 to 14) (size 15 to 20)
#    0.000    2.385    1.538    3.462    0.000    4.308 
#    0.000    2.308    0.000    5.538    0.000    3.231 
#    0.000    0.000    0.000    0.000    0.000    0.000 
#
# Total GULP energy -644665.009711 kJ/mol
# GULP energy per Si atom -12397.404033 kJ/mol
# Density = 1.737743 g / cm^3
# Si number density = 17.417072 Si / 1000 Ang^3
#
#
#
# Elastic Constant Matrix: (Units=GPa)
#
#
# Indices 1 2 3 4 5 6 
#
# 1 108.6249 35.1031 84.8801 0.0000 0.0000 0.0000
# 2 35.1031 49.0247 47.7791 0.0000 0.0000 0.0000
# 3 84.8801 47.7791 170.5785 0.0000 0.0000 0.0000
# 4 0.0000 0.0000 0.0000 6.4850 0.0000 0.0000
# 5 0.0000 0.0000 0.0000 0.0000 23.4082 0.0000
# 6 0.0000 0.0000 0.0000 0.0000 0.0000 26.5136
#
#
#
# Elastic Compliance Matrix: (Units=1/GPa)
#
#
# Indices 1 2 3 4 5 6 
#
# 1 0.015927 -0.005062 -0.006507 0.000000 0.000000 0.000000
# 2 -0.005062 0.029666 -0.005791 0.000000 0.000000 0.000000
# 3 -0.006507 -0.005791 0.010722 0.000000 0.000000 0.000000
# 4 0.000000 0.000000 0.000000 0.154202 0.000000 0.000000
# 5 0.000000 0.000000 0.000000 0.000000 0.042720 0.000000
# 6 0.000000 0.000000 0.000000 0.000000 0.000000 0.037716
#
#
# Mechanical properties :
#
#
# Convention : Reuss Voigt Hill
#
# Bulk Modulus (GPa) = 46.30654 73.75029 60.02842
# Shear Modulus (GPa) = 15.02081 21.97908 18.49995
#
# Velocity S-wave (km/s) = 2.93988 3.55622 3.26264
# Velocity P-wave (km/s) = 6.17806 7.70051 6.98091
#
# Compressibility (1/GPa) = 0.02159522
#
# Stress axis : x y z
#
# Youngs Moduli (GPa) = 62.78798 33.70880 93.26319
#
# Poissons Ratio (x) = 0.17063 0.60689
# Poissons Ratio (y) = 0.31783 0.54004
# Poissons Ratio (z) = 0.40858 0.19519
#
# Static dielectric constant tensor:
#      x y z
#    x 3.365860 0.000000 0.000000 
#    y 0.000000 2.966490 0.000000 
#    z 0.000000 0.000000 3.629460 
# 
# 
# High freq. dielectric constant tensor:
#      x y z
#    x 1.665070 0.000000 0.000000 
#    y 0.000000 1.649250 0.000000 
#    z 0.000000 0.000000 1.681660 
# 
# From -- ./inp_files/33606.got.cif
#   From: 2010.03.12/outbox.cif.g09.slc.cpg/sg47_17_cif.got.tgz:33606.got - 2010.04.14 03:12:58.
