data_PCOD8195737
_publ_section_title
;
Structure prediction by ZEFSAII (Michael W. Deem and Ramdas Pophale) SiO2 
 PCOD8195737
Probable space group: P M M M
;
_chemical_formula_sum "Si O2"
_cell_formula_units_Z 44
_cell_length_a 30.269747
_cell_length_b 8.097774
_cell_length_c 9.367462
_cell_angle_alpha 90.000000
_cell_angle_beta 90.000000
_cell_angle_gamma 90.000000
_cell_volume 2296.129525
_symmetry_space_group_name_H-M "P M M M"
_symmetry_group_IT_number 47
_symmetry_cell_setting 'orthorhombic'
loop_
_space_group_symop_operation_xyz
x,y,z
-x,-y,z
x,-y,-z
-x,y,-z
-x,-y,-z
x,y,-z
-x,y,z
x,-y,z
loop_
_atom_site_type_symbol
_atom_site_label
_atom_site_fract_x
_atom_site_fract_y
_atom_site_fract_z
Si Si1 0.547460 0.189600 0.168567
Si Si2 0.196387 0.809123 0.160912
Si Si3 0.896994 0.683136 0.830607
Si Si4 0.278903 0.304045 0.337059
Si Si5 0.639241 0.691528 0.158843
Si Si6 0.949744 0.000000 0.829708
O O1 0.500000 0.258676 0.228114
O O2 0.590803 0.280700 0.230317
O O3 0.551574 0.000000 0.211601
O O4 0.547072 0.214262 0.000000
O O5 0.153858 0.708311 0.215763
O O6 0.236534 0.776415 0.265691
O O7 0.183009 0.000000 0.163155
O O8 0.209654 0.754548 0.000000
O O9 0.912361 0.500000 0.776333
O O10 0.926978 0.832340 0.767922
O O11 0.900283 0.690277 0.000000
O O12 0.281173 0.245542 0.500000
O O13 0.275694 0.500000 0.324626
O O14 0.322686 0.232845 0.258973
O O15 0.648040 0.500000 0.144602
O O16 0.641804 0.773080 0.000000
O O17 0.000000 0.000000 0.776222
O O18 0.946692 0.000000 0.000000
#
# Coordination Sequence:
#
# PCOD8195737 Si02
#       6
#     8   8   8   8   8   4
#     4   8  14  25  42  65  91 116 145 187 237 285
#     4  10  19  32  51  73  97 127 168 214 254 299
#     4   9  16  27  44  66  95 132 171 211 255 301
#     4  10  21  35  49  68  97 130 163 202 250 303
#     4   9  17  29  46  68  93 121 156 197 240 290
#     4   9  16  26  40  64 101 137 171 211 252 303
#
# _framework density 19.162680999999999
#
# number of rings (size 3 to 8) (size 9 to 14) (size 15 to 20)
#    0.000    2.818    0.909    1.636    0.000    3.636 
#    0.000    5.455    0.000    0.545    0.000    3.818 
#    0.000    1.455    0.000    3.818    0.000    3.636 
#
# Total GULP energy -545227.553053 kJ/mol
# GULP energy per Si atom -12391.535297 kJ/mol
# Density = 1.911907 g / cm^3
# Si number density = 19.162681 Si / 1000 Ang^3
#
#
#
# Elastic Constant Matrix: (Units=GPa)
#
#
# Indices 1 2 3 4 5 6 
#
# 1 158.8216 59.3421 42.9995 0.0000 0.0000 0.0000
# 2 59.3421 81.0071 20.7607 0.0000 0.0000 0.0000
# 3 42.9995 20.7607 52.3677 0.0000 0.0000 0.0000
# 4 0.0000 0.0000 0.0000 11.6253 0.0000 0.0000
# 5 0.0000 0.0000 0.0000 0.0000 0.5551 0.0000
# 6 0.0000 0.0000 0.0000 0.0000 0.0000 32.0989
#
#
#
# Elastic Compliance Matrix: (Units=1/GPa)
#
#
# Indices 1 2 3 4 5 6 
#
# 1 0.010108 -0.005874 -0.005971 0.000000 0.000000 0.000000
# 2 -0.005874 0.017155 -0.001977 0.000000 0.000000 0.000000
# 3 -0.005971 -0.001977 0.024782 0.000000 0.000000 0.000000
# 4 0.000000 0.000000 0.000000 0.086020 0.000000 0.000000
# 5 0.000000 0.000000 0.000000 0.000000 1.801533 0.000000
# 6 0.000000 0.000000 0.000000 0.000000 0.000000 0.031154
#
#
# Mechanical properties :
#
#
# Convention : Reuss Voigt Hill
#
# Bulk Modulus (GPa) = 40.98391 59.82234 50.40312
# Shear Modulus (GPa) = 2.49187 20.12878 11.31032
#
# Velocity S-wave (km/s) = 1.14158 3.24453 2.43209
# Velocity P-wave (km/s) = 4.81367 6.73215 5.85206
#
# Compressibility (1/GPa) = 0.02439982
#
# Stress axis : x y z
#
# Youngs Moduli (GPa) = 98.93381 58.29339 40.35140
#
# Poissons Ratio (x) = 0.34243 0.24093
# Poissons Ratio (y) = 0.58117 0.07979
# Poissons Ratio (z) = 0.59071 0.11527
#
# Static dielectric constant tensor:
#      x y z
#    x 3.673590 0.000000 0.000000 
#    y 0.000000 3.526970 0.000000 
#    z 0.000000 0.000000 3.054850 
# 
# 
# High freq. dielectric constant tensor:
#      x y z
#    x 1.759780 0.000000 0.000000 
#    y 0.000000 1.741640 0.000000 
#    z 0.000000 0.000000 1.674680 
# 
# From -- ./inp_files/13587.got.cif
#   From: 2010.03.12/outbox.cif.g09.slc.cpg/sg47_7_cif.got.tgz:13587.got - 2010.04.14 03:12:58.
