data_PCOD8195704
_publ_section_title
;
Structure prediction by ZEFSAII (Michael W. Deem and Ramdas Pophale) SiO2 
 PCOD8195704
Probable space group: P M M M
;
_chemical_formula_sum "Si O2"
_cell_formula_units_Z 52
_cell_length_a 8.050034
_cell_length_b 27.543760
_cell_length_c 12.743435
_cell_angle_alpha 90.000000
_cell_angle_beta 90.000000
_cell_angle_gamma 90.000000
_cell_volume 2825.578962
_symmetry_space_group_name_H-M "P M M M"
_symmetry_group_IT_number 47
_symmetry_cell_setting 'orthorhombic'
loop_
_space_group_symop_operation_xyz
x,y,z
-x,-y,z
x,-y,-z
-x,y,-z
-x,-y,-z
x,y,-z
-x,y,z
x,-y,z
loop_
_atom_site_type_symbol
_atom_site_label
_atom_site_fract_x
_atom_site_fract_y
_atom_site_fract_z
Si Si1 0.194625 0.384080 0.618891
Si Si2 0.814103 0.116188 0.122705
Si Si3 0.193912 0.725922 0.380023
Si Si4 0.312596 0.785298 0.191021
Si Si5 0.308213 0.446425 0.194065
Si Si6 0.191279 0.275837 0.000000
Si Si7 0.698507 0.384494 0.000000
Si Si8 0.500000 0.945549 0.875264
O O1 0.238890 0.398730 0.500000
O O2 0.254306 0.329096 0.640908
O O3 0.287918 0.421099 0.693930
O O4 0.000000 0.388098 0.639197
O O5 0.804118 0.167797 0.180818
O O6 0.669570 0.080348 0.165024
O O7 0.000000 0.094525 0.143394
O O8 0.786259 0.126072 0.000000
O O9 0.230739 0.740649 0.500000
O O10 0.293340 0.762200 0.305720
O O11 0.000000 0.730200 0.354590
O O12 0.500000 0.803500 0.175941
O O13 0.274219 0.745027 0.104295
O O14 0.500000 0.453130 0.169518
O O15 0.223765 0.500000 0.195126
O O16 0.233477 0.413366 0.101560
O O17 0.211864 0.333183 0.000000
O O18 0.000000 0.261058 0.000000
O O19 0.500000 0.377245 0.000000
O O20 0.500000 0.000000 0.829206
O O21 0.500000 0.946936 0.000000
#
# Coordination Sequence:
#
# PCOD8195704 Si02
#       8
#     8   8   8   8   8   4   4   4
#     4   9  19  36  55  74  98 127 161 205 255 308
#     4  10  19  32  50  74 108 147 188 234 279 323
#     4   9  19  36  55  75 103 139 175 214 264 320
#     4  12  22  33  51  77 109 143 182 223 267 321
#     4  10  21  36  54  74  97 126 160 202 254 311
#     4  12  24  35  51  77 104 137 175 213 263 323
#     4  10  21  38  54  72  98 128 163 205 254 308
#     4   9  18  32  50  74 107 149 193 235 278 326
#
# _framework density 18.403309
#
# number of rings (size 3 to 8) (size 9 to 14) (size 15 to 20)
#    0.000    1.923    1.538    4.154    0.000    6.154 
#    0.000    4.615    0.000    1.385    0.000    0.000 
#    0.000    1.231    0.000    3.231    0.000    0.154 
#
# Total GULP energy -644832.736150 kJ/mol
# GULP energy per Si atom -12400.629541 kJ/mol
# Density = 1.836142 g / cm^3
# Si number density = 18.403309 Si / 1000 Ang^3
#
#
#
# Elastic Constant Matrix: (Units=GPa)
#
#
# Indices 1 2 3 4 5 6 
#
# 1 81.7775 33.2042 20.5373 0.0000 0.0000 0.0000
# 2 33.2042 117.7463 43.5383 0.0000 0.0000 0.0000
# 3 20.5373 43.5383 85.9205 0.0000 0.0000 0.0000
# 4 0.0000 0.0000 0.0000 11.0872 0.0000 0.0000
# 5 0.0000 0.0000 0.0000 0.0000 20.3683 0.0000
# 6 0.0000 0.0000 0.0000 0.0000 0.0000 21.3313
#
#
#
# Elastic Compliance Matrix: (Units=1/GPa)
#
#
# Indices 1 2 3 4 5 6 
#
# 1 0.013998 -0.003335 -0.001656 0.000000 0.000000 0.000000
# 2 -0.003335 0.011246 -0.004901 0.000000 0.000000 0.000000
# 3 -0.001656 -0.004901 0.014518 0.000000 0.000000 0.000000
# 4 0.000000 0.000000 0.000000 0.090194 0.000000 0.000000
# 5 0.000000 0.000000 0.000000 0.000000 0.049096 0.000000
# 6 0.000000 0.000000 0.000000 0.000000 0.000000 0.046879
#
#
# Mechanical properties :
#
#
# Convention : Reuss Voigt Hill
#
# Bulk Modulus (GPa) = 50.05691 53.33378 51.69535
# Shear Modulus (GPa) = 19.81176 23.10166 21.45671
#
# Velocity S-wave (km/s) = 3.28462 3.54686 3.41826
# Velocity P-wave (km/s) = 6.45321 6.76883 6.61291
#
# Compressibility (1/GPa) = 0.01997726
#
# Stress axis : x y z
#
# Youngs Moduli (GPa) = 71.43687 88.92306 68.87945
#
# Poissons Ratio (x) = 0.29658 0.11406
# Poissons Ratio (y) = 0.23826 0.33760
# Poissons Ratio (z) = 0.11830 0.43584
#
# Static dielectric constant tensor:
#      x y z
#    x 3.360590 0.000000 0.000000 
#    y 0.000000 3.361270 0.000000 
#    z 0.000000 0.000000 3.255310 
# 
# 
# High freq. dielectric constant tensor:
#      x y z
#    x 1.715140 0.000000 0.000000 
#    y 0.000000 1.702300 0.000000 
#    z 0.000000 0.000000 1.693210 
# 
# From -- ./inp_files/15525.got.cif
#   From: 2010.03.12/outbox.cif.g09.slc.cpg/sg47_8_cif.got.tgz:15525.got - 2010.04.14 03:12:58.
