data_PCOD8195258
_publ_section_title
;
Structure prediction by ZEFSAII (Michael W. Deem and Ramdas Pophale) SiO2 
 PCOD8195258
Probable space group: P M M M
;
_chemical_formula_sum "Si O2"
_cell_formula_units_Z 40
_cell_length_a 18.454643
_cell_length_b 18.612444
_cell_length_c 7.926009
_cell_angle_alpha 90.000000
_cell_angle_beta 90.000000
_cell_angle_gamma 90.000000
_cell_volume 2722.473202
_symmetry_space_group_name_H-M "P M M M"
_symmetry_group_IT_number 47
_symmetry_cell_setting 'orthorhombic'
loop_
_space_group_symop_operation_xyz
x,y,z
-x,-y,z
x,-y,-z
-x,y,-z
-x,-y,-z
x,y,-z
-x,y,z
x,-y,z
loop_
_atom_site_type_symbol
_atom_site_label
_atom_site_fract_x
_atom_site_fract_y
_atom_site_fract_z
Si Si1 0.085943 0.580296 0.000000
Si Si2 0.729589 0.919780 0.694726
Si Si3 0.861828 0.167940 0.695016
Si Si4 0.000000 0.915768 0.805282
Si Si5 0.577680 0.084411 0.194896
Si Si6 0.914252 0.679636 0.305170
O O1 0.111940 0.618600 0.826320
O O2 0.118722 0.500000 0.000000
O O3 0.000000 0.577647 0.000000
O O4 0.748383 0.927434 0.500000
O O5 0.790302 0.868300 0.780264
O O6 0.649452 0.884265 0.715195
O O7 0.732515 0.000000 0.777952
O O8 0.847034 0.178757 0.500000
O O9 0.877273 0.247486 0.765688
O O10 0.929158 0.115676 0.719201
O O11 0.000000 0.000000 0.774596
O O12 0.000000 0.894438 0.000000
O O13 0.500000 0.115736 0.263656
O O14 0.576261 0.000000 0.227025
O O15 0.584403 0.103413 0.000000
O O16 0.892384 0.660306 0.500000
O O17 0.000000 0.691576 0.296005
#
# Coordination Sequence:
#
# PCOD8195258 Si02
#       6
#     4   8   8   4   8   8
#     4   9  18  30  46  66  84 104 127 164 211 245
#     4   9  17  27  39  56  76  99 133 176 212 243
#     4  10  19  31  44  56  75 107 139 170 212 251
#     4  11  23  31  39  57  75 100 141 184 218 246
#     4   8  14  25  39  53  71  96 125 161 208 253
#     4   9  17  29  45  63  81 107 139 167 203 251
#
# _framework density 14.692523
#
# number of rings (size 3 to 8) (size 9 to 14) (size 15 to 20)
#    0.000    2.800    1.000    1.500    1.400    3.200 
#    0.000    6.000    0.000    0.000    0.000    0.000 
#    0.000    0.000    0.000    0.000    0.000    2.000 
#
# Total GULP energy -495527.749969 kJ/mol
# GULP energy per Si atom -12388.193749 kJ/mol
# Density = 1.465908 g / cm^3
# Si number density = 14.692523 Si / 1000 Ang^3
#
#
#
# Elastic Constant Matrix: (Units=GPa)
#
#
# Indices 1 2 3 4 5 6 
#
# 1 97.9860 39.8003 17.4992 0.0000 0.0000 0.0000
# 2 39.8003 81.8922 30.1541 0.0000 0.0000 0.0000
# 3 17.4992 30.1541 41.5723 0.0000 0.0000 0.0000
# 4 0.0000 0.0000 0.0000 17.9326 0.0000 0.0000
# 5 0.0000 0.0000 0.0000 0.0000 64.7640 0.0000
# 6 0.0000 0.0000 0.0000 0.0000 0.0000 6.9763
#
#
#
# Elastic Compliance Matrix: (Units=1/GPa)
#
#
# Indices 1 2 3 4 5 6 
#
# 1 0.012759 -0.005762 -0.001191 0.000000 0.000000 0.000000
# 2 -0.005762 0.019264 -0.011547 0.000000 0.000000 0.000000
# 3 -0.001191 -0.011547 0.032931 0.000000 0.000000 0.000000
# 4 0.000000 0.000000 0.000000 0.055764 0.000000 0.000000
# 5 0.000000 0.000000 0.000000 0.000000 0.015441 0.000000
# 6 0.000000 0.000000 0.000000 0.000000 0.000000 0.143342
#
#
# Mechanical properties :
#
#
# Convention : Reuss Voigt Hill
#
# Bulk Modulus (GPa) = 35.77437 44.03972 39.90704
# Shear Modulus (GPa) = 15.34593 26.86772 21.10683
#
# Velocity S-wave (km/s) = 3.23534 4.28093 3.79432
# Velocity P-wave (km/s) = 6.19339 7.38068 6.81295
#
# Compressibility (1/GPa) = 0.02795298
#
# Stress axis : x y z
#
# Youngs Moduli (GPa) = 78.37726 51.91148 30.36620
#
# Poissons Ratio (x) = 0.29913 0.03616
# Poissons Ratio (y) = 0.45164 0.35064
# Poissons Ratio (z) = 0.09334 0.59943
#
# Static dielectric constant tensor:
#      x y z
#    x 3.014610 0.000000 0.000000 
#    y 0.000000 2.789140 0.000000 
#    z 0.000000 0.000000 2.849690 
# 
# 
# High freq. dielectric constant tensor:
#      x y z
#    x 1.545910 0.000000 0.000000 
#    y 0.000000 1.516440 0.000000 
#    z 0.000000 0.000000 1.563020 
# 
# From -- ./inp_files/9355.got.cif
#   From: 2010.03.12/outbox.cif.g09.slc.cpg/sg47_5_cif.got.tgz:9355.got - 2010.04.14 03:12:58.
