data_PCOD8195768
_publ_section_title
;
Structure prediction by ZEFSAII (Michael W. Deem and Ramdas Pophale) SiO2 
 PCOD8195768
Probable space group: P M M M
;
_chemical_formula_sum "Si O2"
_cell_formula_units_Z 64
_cell_length_a 19.021871
_cell_length_b 9.841070
_cell_length_c 19.298095
_cell_angle_alpha 90.000000
_cell_angle_beta 90.000000
_cell_angle_gamma 90.000000
_cell_volume 3612.517778
_symmetry_space_group_name_H-M "P M M M"
_symmetry_group_IT_number 47
_symmetry_cell_setting 'orthorhombic'
loop_
_space_group_symop_operation_xyz
x,y,z
-x,-y,z
x,-y,-z
-x,y,-z
-x,-y,-z
x,y,-z
-x,y,z
x,-y,z
loop_
_atom_site_type_symbol
_atom_site_label
_atom_site_fract_x
_atom_site_fract_y
_atom_site_fract_z
Si Si1 0.677173 0.842601 0.919494
Si Si2 0.328819 0.660047 0.301236
Si Si3 0.422373 0.660659 0.575734
Si Si4 0.078758 0.161010 0.421905
Si Si5 0.180082 0.849931 0.153561
Si Si6 0.919417 0.652025 0.078291
Si Si7 0.417972 0.342488 0.165034
Si Si8 0.194778 0.846974 0.687597
O O1 0.743030 0.798954 0.871170
O O2 0.610826 0.750365 0.897518
O O3 0.657346 0.000000 0.907274
O O4 0.695173 0.814785 0.000000
O O5 0.312565 0.500000 0.306035
O O6 0.372310 0.719147 0.365758
O O7 0.373776 0.694609 0.233337
O O8 0.257346 0.741030 0.307325
O O9 0.392123 0.699700 0.500000
O O10 0.500000 0.723484 0.584991
O O11 0.427671 0.500000 0.584019
O O12 0.100247 0.208536 0.500000
O O13 0.135674 0.212386 0.365258
O O14 0.000000 0.216647 0.404279
O O15 0.076486 0.000000 0.418945
O O16 0.121367 0.750093 0.127838
O O17 0.166078 0.855075 0.234968
O O18 0.169084 0.000000 0.121475
O O19 0.889423 0.500000 0.086404
O O20 0.000000 0.655391 0.100642
O O21 0.910013 0.702709 0.000000
O O22 0.500000 0.310019 0.178160
O O23 0.407848 0.500000 0.144884
O O24 0.218423 0.000000 0.664558
#
# Coordination Sequence:
#
# PCOD8195768 Si02
#       8
#     8   8   8   8   8   8   8   8
#     4  10  21  37  55  75 101 134 171 211 262 321
#     4  10  19  32  51  75 104 136 168 208 256 307
#     4   8  14  26  46  72 100 131 169 209 246 290
#     4   8  15  30  52  77 105 138 176 214 250 291
#     4  10  20  34  52  75 104 136 172 215 257 304
#     4   9  19  35  53  75 104 136 169 206 252 308
#     4  10  21  36  54  76 101 132 172 216 261 311
#     4  10  20  33  52  77 104 133 169 211 252 297
#
# _framework density 17.716176000000001
#
# number of rings (size 3 to 8) (size 9 to 14) (size 15 to 20)
#    0.000    2.625    1.250    1.875    0.000    5.250 
#    0.000    3.125    0.000    1.500    0.000    1.750 
#    0.000    0.000    0.000    0.000    0.000    0.000 
#
# Total GULP energy -793232.987283 kJ/mol
# GULP energy per Si atom -12394.265426 kJ/mol
# Density = 1.767585 g / cm^3
# Si number density = 17.716176 Si / 1000 Ang^3
#
#
#
# Elastic Constant Matrix: (Units=GPa)
#
#
# Indices 1 2 3 4 5 6 
#
# 1 88.3766 42.0497 59.4637 0.0000 0.0000 0.0000
# 2 42.0497 51.1634 38.3948 0.0000 0.0000 0.0000
# 3 59.4637 38.3948 102.7645 0.0000 0.0000 0.0000
# 4 0.0000 0.0000 0.0000 17.4148 0.0000 0.0000
# 5 0.0000 0.0000 0.0000 0.0000 38.8478 0.0000
# 6 0.0000 0.0000 0.0000 0.0000 0.0000 14.6290
#
#
#
# Elastic Compliance Matrix: (Units=1/GPa)
#
#
# Indices 1 2 3 4 5 6 
#
# 1 0.023103 -0.012445 -0.008719 0.000000 0.000000 0.000000
# 2 -0.012445 0.033864 -0.005451 0.000000 0.000000 0.000000
# 3 -0.008719 -0.005451 0.016813 0.000000 0.000000 0.000000
# 4 0.000000 0.000000 0.000000 0.057422 0.000000 0.000000
# 5 0.000000 0.000000 0.000000 0.000000 0.025741 0.000000
# 6 0.000000 0.000000 0.000000 0.000000 0.000000 0.068357
#
#
# Mechanical properties :
#
#
# Convention : Reuss Voigt Hill
#
# Bulk Modulus (GPa) = 48.66125 58.01345 53.33735
# Shear Modulus (GPa) = 17.52055 21.00474 19.26265
#
# Velocity S-wave (km/s) = 3.14818 3.44703 3.30099
# Velocity P-wave (km/s) = 6.38291 6.97566 6.68585
#
# Compressibility (1/GPa) = 0.02055023
#
# Stress axis : x y z
#
# Youngs Moduli (GPa) = 43.28517 29.52998 59.47927
#
# Poissons Ratio (x) = 0.36749 0.51857
# Poissons Ratio (y) = 0.53867 0.32424
# Poissons Ratio (z) = 0.37738 0.16098
#
# Static dielectric constant tensor:
#      x y z
#    x 3.325770 0.000000 0.000000 
#    y 0.000000 3.051370 0.000000 
#    z 0.000000 0.000000 3.500080 
# 
# 
# High freq. dielectric constant tensor:
#      x y z
#    x 1.681990 0.000000 0.000000 
#    y 0.000000 1.657620 0.000000 
#    z 0.000000 0.000000 1.693050 
# 
# From -- ./inp_files/10032.got.cif
#   From: 2010.03.12/outbox.cif.g09.slc.cpg/sg47_6_cif.got.tgz:10032.got - 2010.04.14 03:12:58.
