data_PCOD8195898
_publ_section_title
;
Structure prediction by ZEFSAII (Michael W. Deem and Ramdas Pophale) SiO2 
 PCOD8195898
Probable space group: P M M M
;
_chemical_formula_sum "Si O2"
_cell_formula_units_Z 56
_cell_length_a 20.451270
_cell_length_b 15.071347
_cell_length_c 8.737383
_cell_angle_alpha 90.000000
_cell_angle_beta 90.000000
_cell_angle_gamma 90.000000
_cell_volume 2693.107719
_symmetry_space_group_name_H-M "P M M M"
_symmetry_group_IT_number 47
_symmetry_cell_setting 'orthorhombic'
loop_
_space_group_symop_operation_xyz
x,y,z
-x,-y,z
x,-y,-z
-x,y,-z
-x,-y,-z
x,y,-z
-x,y,z
x,-y,z
loop_
_atom_site_type_symbol
_atom_site_label
_atom_site_fract_x
_atom_site_fract_y
_atom_site_fract_z
Si Si1 0.336674 0.352568 0.178631
Si Si2 0.897096 0.902038 0.323457
Si Si3 0.353138 0.173471 0.323232
Si Si4 0.071431 0.274371 0.176628
Si Si5 0.761346 0.099450 0.830906
Si Si6 0.810140 0.399333 0.818434
Si Si7 0.573518 0.000000 0.681925
Si Si8 0.425740 0.500000 0.319494
O O1 0.367688 0.257521 0.218019
O O2 0.261103 0.363144 0.235994
O O3 0.385562 0.415991 0.265350
O O4 0.340109 0.372966 0.000000
O O5 0.876970 0.890947 0.500000
O O6 0.938784 0.817505 0.270739
O O7 0.835969 0.898685 0.212189
O O8 0.931288 0.000000 0.302083
O O9 0.368533 0.193849 0.500000
O O10 0.276744 0.152689 0.299784
O O11 0.393714 0.090195 0.256782
O O12 0.130383 0.336445 0.243006
O O13 0.000000 0.322472 0.191382
O O14 0.086362 0.251918 0.000000
O O15 0.734018 0.000000 0.835242
O O16 0.752572 0.143559 0.000000
O O17 0.819681 0.500000 0.755746
O O18 0.813237 0.400596 0.000000
O O19 0.500000 0.000000 0.741355
O O20 0.579524 0.000000 0.500000
O O21 0.500000 0.500000 0.252642
O O22 0.429250 0.500000 0.500000
#
# Coordination Sequence:
#
# PCOD8195898 Si02
#       8
#     8   8   8   8   8   8   4   4
#     4  11  22  39  65  95 125 162 206 256 314 370
#     4  10  21  36  55  79 111 155 203 248 299 362
#     4  11  21  35  58  87 120 159 204 252 301 360
#     4  10  21  36  57  87 121 157 199 249 304 363
#     4  10  19  32  53  81 114 149 192 249 307 357
#     4   9  18  36  62  89 118 153 195 245 299 359
#     4   9  20  38  57  79 115 165 212 249 290 347
#     4  11  25  45  67  93 126 161 200 252 315 383
#
# _framework density 20.793821999999999
#
# number of rings (size 3 to 8) (size 9 to 14) (size 15 to 20)
#    0.000    1.857    1.429    2.786    0.000    4.571 
#    0.000    5.000    0.000    3.000    0.000    1.000 
#    0.000    0.000    0.000    0.000    0.000    0.000 
#
# Total GULP energy -693909.385096 kJ/mol
# GULP energy per Si atom -12391.239020 kJ/mol
# Density = 2.074649 g / cm^3
# Si number density = 20.793822 Si / 1000 Ang^3
#
#
#
# Elastic Constant Matrix: (Units=GPa)
#
#
# Indices 1 2 3 4 5 6 
#
# 1 137.7815 66.2626 25.1386 0.0000 0.0000 0.0000
# 2 66.2626 145.9436 23.0137 0.0000 0.0000 0.0000
# 3 25.1386 23.0137 53.7474 0.0000 0.0000 0.0000
# 4 0.0000 0.0000 0.0000 28.8783 0.0000 0.0000
# 5 0.0000 0.0000 0.0000 0.0000 21.4566 0.0000
# 6 0.0000 0.0000 0.0000 0.0000 0.0000 23.9340
#
#
#
# Elastic Compliance Matrix: (Units=1/GPa)
#
#
# Indices 1 2 3 4 5 6 
#
# 1 0.009672 -0.003944 -0.002835 0.000000 0.000000 0.000000
# 2 -0.003944 0.008957 -0.001990 0.000000 0.000000 0.000000
# 3 -0.002835 -0.001990 0.020784 0.000000 0.000000 0.000000
# 4 0.000000 0.000000 0.000000 0.034628 0.000000 0.000000
# 5 0.000000 0.000000 0.000000 0.000000 0.046606 0.000000
# 6 0.000000 0.000000 0.000000 0.000000 0.000000 0.041782
#
#
# Mechanical properties :
#
#
# Convention : Reuss Voigt Hill
#
# Bulk Modulus (GPa) = 45.71759 62.92246 54.32003
# Shear Modulus (GPa) = 26.70116 29.72429 28.21273
#
# Velocity S-wave (km/s) = 3.58731 3.78494 3.68745
# Velocity P-wave (km/s) = 6.26037 7.03043 6.65655
#
# Compressibility (1/GPa) = 0.02187342
#
# Stress axis : x y z
#
# Youngs Moduli (GPa) = 103.39083 111.64894 48.11471
#
# Poissons Ratio (x) = 0.44038 0.13640
# Poissons Ratio (y) = 0.40781 0.09576
# Poissons Ratio (z) = 0.29310 0.22221
#
# Static dielectric constant tensor:
#      x y z
#    x 3.777690 0.000000 0.000000 
#    y 0.000000 4.440990 0.000000 
#    z 0.000000 0.000000 3.474490 
# 
# 
# High freq. dielectric constant tensor:
#      x y z
#    x 1.810530 0.000000 0.000000 
#    y 0.000000 1.821340 0.000000 
#    z 0.000000 0.000000 1.788360 
# 
# From -- ./inp_files/11337.got.cif
#   From: 2010.03.12/outbox.cif.g09.slc.cpg/sg47_6_cif.got.tgz:11337.got - 2010.04.14 03:12:58.
