data_PCOD8195930
_publ_section_title
;
Structure prediction by ZEFSAII (Michael W. Deem and Ramdas Pophale) SiO2 
 PCOD8195930
Probable space group: P M M M
;
_chemical_formula_sum "Si O2"
_cell_formula_units_Z 52
_cell_length_a 22.462921
_cell_length_b 9.152990
_cell_length_c 13.691117
_cell_angle_alpha 90.000000
_cell_angle_beta 90.000000
_cell_angle_gamma 90.000000
_cell_volume 2814.933240
_symmetry_space_group_name_H-M "P M M M"
_symmetry_group_IT_number 47
_symmetry_cell_setting 'orthorhombic'
loop_
_space_group_symop_operation_xyz
x,y,z
-x,-y,z
x,-y,-z
-x,y,-z
-x,-y,-z
x,y,-z
-x,y,z
x,-y,z
loop_
_atom_site_type_symbol
_atom_site_label
_atom_site_fract_x
_atom_site_fract_y
_atom_site_fract_z
Si Si1 0.619041 0.833658 0.000000
Si Si2 0.751152 0.174007 0.000000
Si Si3 0.932459 0.329671 0.888451
Si Si4 0.176052 0.172117 0.191156
Si Si5 0.759089 0.168872 0.390057
Si Si6 0.361113 0.327256 0.652871
Si Si7 0.567364 0.169640 0.798690
Si Si8 0.568889 0.839192 0.500000
O O1 0.684405 0.756173 0.000000
O O2 0.575198 0.799113 0.912005
O O3 0.639223 0.000000 0.000000
O O4 0.783170 0.229679 0.100520
O O5 0.752773 0.000000 0.000000
O O6 0.918723 0.500000 0.878101
O O7 0.889132 0.241653 0.817246
O O8 0.000000 0.295239 0.856523
O O9 0.922240 0.279053 0.000000
O O10 0.199541 0.218569 0.299256
O O11 0.169462 0.000000 0.185124
O O12 0.787422 0.191076 0.500000
O O13 0.701043 0.268222 0.385577
O O14 0.741188 0.000000 0.375553
O O15 0.361147 0.500000 0.643341
O O16 0.379264 0.272358 0.759497
O O17 0.414491 0.255078 0.593124
O O18 0.500000 0.214172 0.768140
O O19 0.578895 0.000000 0.770465
O O20 0.500000 0.866246 0.500000
O O21 0.600301 0.000000 0.500000
#
# Coordination Sequence:
#
# PCOD8195930 Si02
#       8
#     4   4   8   8   8   8   8   4
#     4   9  17  32  54  77 103 138 182 225 262 317
#     4   9  16  27  46  77 112 137 166 219 280 325
#     4   9  18  33  53  80 117 157 189 220 268 328
#     4  10  19  32  54  84 114 145 184 229 274 321
#     4  10  21  38  59  80 108 147 188 228 274 331
#     4  12  24  37  55  80 108 136 173 224 281 338
#     4  10  20  35  56  79 103 137 181 225 273 332
#     4  11  23  39  59  79 101 133 174 223 280 339
#
# _framework density 18.472906999999999
#
# number of rings (size 3 to 8) (size 9 to 14) (size 15 to 20)
#    0.000    1.923    1.538    3.692    0.000    7.077 
#    0.000    1.154    0.000    1.385    0.000    3.231 
#    0.000    0.000    0.000    0.000    0.000    0.000 
#
# Total GULP energy -644354.683581 kJ/mol
# GULP energy per Si atom -12391.436223 kJ/mol
# Density = 1.843086 g / cm^3
# Si number density = 18.472907 Si / 1000 Ang^3
#
#
#
# Elastic Constant Matrix: (Units=GPa)
#
#
# Indices 1 2 3 4 5 6 
#
# 1 96.6041 34.9005 45.6876 0.0000 0.0000 0.0000
# 2 34.9005 70.0222 36.1213 0.0000 0.0000 0.0000
# 3 45.6876 36.1213 121.5646 0.0000 0.0000 0.0000
# 4 0.0000 0.0000 0.0000 30.9596 0.0000 0.0000
# 5 0.0000 0.0000 0.0000 0.0000 11.3280 0.0000
# 6 0.0000 0.0000 0.0000 0.0000 0.0000 16.5243
#
#
#
# Elastic Compliance Matrix: (Units=1/GPa)
#
#
# Indices 1 2 3 4 5 6 
#
# 1 0.013935 -0.005012 -0.003748 0.000000 0.000000 0.000000
# 2 -0.005012 0.018669 -0.003664 0.000000 0.000000 0.000000
# 3 -0.003748 -0.003664 0.010723 0.000000 0.000000 0.000000
# 4 0.000000 0.000000 0.000000 0.032300 0.000000 0.000000
# 5 0.000000 0.000000 0.000000 0.000000 0.088277 0.000000
# 6 0.000000 0.000000 0.000000 0.000000 0.000000 0.060517
#
#
# Mechanical properties :
#
#
# Convention : Reuss Voigt Hill
#
# Bulk Modulus (GPa) = 54.11203 57.95662 56.03433
# Shear Modulus (GPa) = 19.57500 23.19449 21.38474
#
# Velocity S-wave (km/s) = 3.25877 3.54728 3.40608
# Velocity P-wave (km/s) = 6.59664 6.94403 6.77257
#
# Compressibility (1/GPa) = 0.01848018
#
# Stress axis : x y z
#
# Youngs Moduli (GPa) = 71.76323 53.56421 93.25554
#
# Poissons Ratio (x) = 0.26846 0.34951
# Poissons Ratio (y) = 0.35968 0.34165
# Poissons Ratio (z) = 0.26896 0.19624
#
# Static dielectric constant tensor:
#      x y z
#    x 3.264760 0.000000 0.000000 
#    y 0.000000 3.166600 0.000000 
#    z 0.000000 0.000000 3.702930 
# 
# 
# High freq. dielectric constant tensor:
#      x y z
#    x 1.705240 0.000000 0.000000 
#    y 0.000000 1.690530 0.000000 
#    z 0.000000 0.000000 1.723390 
# 
# From -- ./inp_files/25073.got.cif
#   From: 2010.03.12/outbox.cif.g09.slc.cpg/sg47_13_cif.got.tgz:25073.got - 2010.04.14 03:12:58.
