data_PCOD8195322
_publ_section_title
;
Structure prediction by ZEFSAII (Michael W. Deem and Ramdas Pophale) SiO2 
 PCOD8195322
Probable space group: P M M M
;
_chemical_formula_sum "Si O2"
_cell_formula_units_Z 44
_cell_length_a 10.388701
_cell_length_b 13.798157
_cell_length_c 17.892242
_cell_angle_alpha 90.000000
_cell_angle_beta 90.000000
_cell_angle_gamma 90.000000
_cell_volume 2564.762131
_symmetry_space_group_name_H-M "P M M M"
_symmetry_group_IT_number 47
_symmetry_cell_setting 'orthorhombic'
loop_
_space_group_symop_operation_xyz
x,y,z
-x,-y,z
x,-y,-z
-x,y,-z
-x,-y,-z
x,y,-z
-x,y,z
x,-y,z
loop_
_atom_site_type_symbol
_atom_site_label
_atom_site_fract_x
_atom_site_fract_y
_atom_site_fract_z
Si Si1 0.650428 0.792120 0.307842
Si Si2 0.738899 0.704142 0.086293
Si Si3 0.648653 0.891485 0.153020
Si Si4 0.000000 0.392092 0.088041
Si Si5 0.645412 0.394724 0.775550
Si Si6 0.145608 0.111948 0.587521
O O1 0.500000 0.790096 0.333938
O O2 0.666368 0.867117 0.240002
O O3 0.701733 0.686409 0.280530
O O4 0.745067 0.823279 0.373857
O O5 0.728584 0.819322 0.099797
O O6 0.878058 0.669162 0.114335
O O7 0.641862 0.645154 0.139195
O O8 0.711090 0.678820 0.000000
O O9 0.500000 0.882030 0.130094
O O10 0.700071 0.000000 0.138855
O O11 0.000000 0.500000 0.124017
O O12 0.000000 0.402729 0.000000
O O13 0.500000 0.410278 0.751536
O O14 0.716719 0.500000 0.769280
O O15 0.158616 0.131028 0.500000
O O16 0.000000 0.139734 0.613722
O O17 0.172209 0.000000 0.606428
#
# Coordination Sequence:
#
# PCOD8195322 Si02
#       6
#     8   8   8   4   8   8
#     4   9  17  31  51  72  97 130 166 200 236 286
#     4  10  19  31  47  67  91 122 163 205 246 295
#     4   9  18  32  48  68  97 129 158 195 244 291
#     4   9  18  32  47  61  83 117 151 192 248 294
#     4   9  18  32  49  70  96 123 154 201 254 292
#     4   9  18  32  50  75 106 133 156 190 237 282
#
# _framework density 17.155587000000001
#
# number of rings (size 3 to 8) (size 9 to 14) (size 15 to 20)
#    0.000    2.818    0.000    3.273    0.000    4.364 
#    6.545    3.182    0.000    2.182    0.000    3.818 
#    0.000    0.000    0.000    0.000    0.000    0.000 
#
# Total GULP energy -545248.047231 kJ/mol
# GULP energy per Si atom -12392.001073 kJ/mol
# Density = 1.711654 g / cm^3
# Si number density = 17.155587 Si / 1000 Ang^3
#
#
#
# Elastic Constant Matrix: (Units=GPa)
#
#
# Indices 1 2 3 4 5 6 
#
# 1 72.1441 50.9252 38.0032 0.0000 0.0000 0.0000
# 2 50.9252 157.6281 42.1744 0.0000 0.0000 0.0000
# 3 38.0032 42.1744 66.3935 0.0000 0.0000 0.0000
# 4 0.0000 0.0000 0.0000 20.3888 0.0000 0.0000
# 5 0.0000 0.0000 0.0000 0.0000 22.2121 0.0000
# 6 0.0000 0.0000 0.0000 0.0000 0.0000 22.1051
#
#
#
# Elastic Compliance Matrix: (Units=1/GPa)
#
#
# Indices 1 2 3 4 5 6 
#
# 1 0.022268 -0.004559 -0.009850 0.000000 0.000000 0.000000
# 2 -0.004559 0.008576 -0.002838 0.000000 0.000000 0.000000
# 3 -0.009850 -0.002838 0.022503 0.000000 0.000000 0.000000
# 4 0.000000 0.000000 0.000000 0.049047 0.000000 0.000000
# 5 0.000000 0.000000 0.000000 0.000000 0.045021 0.000000
# 6 0.000000 0.000000 0.000000 0.000000 0.000000 0.045238
#
#
# Mechanical properties :
#
#
# Convention : Reuss Voigt Hill
#
# Bulk Modulus (GPa) = 53.04369 62.04127 57.54248
# Shear Modulus (GPa) = 21.41959 23.94540 22.68250
#
# Velocity S-wave (km/s) = 3.53731 3.74006 3.64010
# Velocity P-wave (km/s) = 6.90433 7.40899 7.16111
#
# Compressibility (1/GPa) = 0.01885238
#
# Stress axis : x y z
#
# Youngs Moduli (GPa) = 44.90797 116.60100 44.43859
#
# Poissons Ratio (x) = 0.53154 0.43773
# Poissons Ratio (y) = 0.20472 0.12614
# Poissons Ratio (z) = 0.44235 0.33097
#
# Static dielectric constant tensor:
#      x y z
#    x 3.192210 0.000000 0.000000 
#    y 0.000000 3.592970 0.000000 
#    z 0.000000 0.000000 2.882710 
# 
# 
# High freq. dielectric constant tensor:
#      x y z
#    x 1.647990 0.000000 0.000000 
#    y 0.000000 1.669730 0.000000 
#    z 0.000000 0.000000 1.633240 
# 
# From -- ./inp_files/26376.got.cif
#   From: 2010.03.12/outbox.cif.g09.slc.cpg/sg47_14_cif.got.tgz:26376.got - 2010.04.14 03:12:58.
