data_PCOD8195079
_publ_section_title
;
Structure prediction by ZEFSAII (Michael W. Deem and Ramdas Pophale) SiO2 
 PCOD8195079
Probable space group: P M M M
;
_chemical_formula_sum "Si O2"
_cell_formula_units_Z 56
_cell_length_a 9.481639
_cell_length_b 13.595250
_cell_length_c 28.579635
_cell_angle_alpha 90.000000
_cell_angle_beta 90.000000
_cell_angle_gamma 90.000000
_cell_volume 3684.065069
_symmetry_space_group_name_H-M "P M M M"
_symmetry_group_IT_number 47
_symmetry_cell_setting 'orthorhombic'
loop_
_space_group_symop_operation_xyz
x,y,z
-x,-y,z
x,-y,-z
-x,y,-z
-x,-y,-z
x,y,-z
-x,y,z
x,-y,z
loop_
_atom_site_type_symbol
_atom_site_label
_atom_site_fract_x
_atom_site_fract_y
_atom_site_fract_z
Si Si1 0.337347 0.613639 0.824449
Si Si2 0.660530 0.113569 0.054119
Si Si3 0.665191 0.386698 0.638001
Si Si4 0.165304 0.223899 0.870643
Si Si5 0.836249 0.112546 0.223862
Si Si6 0.158763 0.616849 0.448562
Si Si7 0.336499 0.725175 0.269614
O O1 0.500000 0.632813 0.837762
O O2 0.297273 0.500000 0.828363
O O3 0.238323 0.671717 0.860447
O O4 0.306831 0.647721 0.771608
O O5 0.500000 0.134209 0.070399
O O6 0.769125 0.179891 0.082497
O O7 0.698665 0.000000 0.062464
O O8 0.678197 0.141280 0.000000
O O9 0.500000 0.376465 0.629874
O O10 0.707915 0.500000 0.646560
O O11 0.740325 0.341686 0.592055
O O12 0.716094 0.324679 0.682612
O O13 0.197403 0.149130 0.828397
O O14 0.000000 0.240850 0.878221
O O15 0.749661 0.174763 0.261780
O O16 0.000000 0.125388 0.235538
O O17 0.787554 0.000000 0.227576
O O18 0.207528 0.655267 0.500000
O O19 0.165742 0.500000 0.448583
O O20 0.000000 0.652746 0.438359
O O21 0.500000 0.753440 0.272244
#
# Coordination Sequence:
#
# PCOD8195079 Si02
#       7
#     8   8   8   8   8   8   8
#     4   9  17  30  47  64  85 116 150 180 210 246
#     4   9  18  32  49  69  92 116 142 173 209 252
#     4   9  16  25  38  57  82 110 138 171 209 245
#     4  10  19  30  46  68  92 116 142 174 212 252
#     4   9  18  31  44  60  85 114 141 170 205 246
#     4   8  14  24  36  51  74 105 140 174 205 240
#     4   9  17  28  42  62  85 109 141 177 210 246
#
# _framework density 15.2006
#
# number of rings (size 3 to 8) (size 9 to 14) (size 15 to 20)
#    0.000    3.000    0.000    2.143    0.000    4.857 
#    0.000    2.143    0.000    3.000    0.000    3.000 
#    0.000    0.571    0.000    6.286    0.000    4.857 
#
# Total GULP energy -694349.630776 kJ/mol
# GULP energy per Si atom -12399.100550 kJ/mol
# Density = 1.516600 g / cm^3
# Si number density = 15.200600 Si / 1000 Ang^3
#
#
#
# Elastic Constant Matrix: (Units=GPa)
#
#
# Indices 1 2 3 4 5 6 
#
# 1 71.1765 51.6706 55.3801 0.0000 0.0000 0.0000
# 2 51.6706 95.8699 51.1861 0.0000 0.0000 0.0000
# 3 55.3801 51.1861 99.6744 0.0000 0.0000 0.0000
# 4 0.0000 0.0000 0.0000 19.8124 0.0000 0.0000
# 5 0.0000 0.0000 0.0000 0.0000 28.4286 0.0000
# 6 0.0000 0.0000 0.0000 0.0000 0.0000 21.9767
#
#
#
# Elastic Compliance Matrix: (Units=1/GPa)
#
#
# Indices 1 2 3 4 5 6 
#
# 1 0.030627 -0.010225 -0.011766 0.000000 0.000000 0.000000
# 2 -0.010225 0.017785 -0.003452 0.000000 0.000000 0.000000
# 3 -0.011766 -0.003452 0.018343 0.000000 0.000000 0.000000
# 4 0.000000 0.000000 0.000000 0.050473 0.000000 0.000000
# 5 0.000000 0.000000 0.000000 0.000000 0.035176 0.000000
# 6 0.000000 0.000000 0.000000 0.000000 0.000000 0.045503
#
#
# Mechanical properties :
#
#
# Convention : Reuss Voigt Hill
#
# Bulk Modulus (GPa) = 63.01664 64.79938 63.90801
# Shear Modulus (GPa) = 19.67872 21.27580 20.47726
#
# Velocity S-wave (km/s) = 3.60196 3.74527 3.67432
# Velocity P-wave (km/s) = 7.67108 7.83740 7.75469
#
# Compressibility (1/GPa) = 0.01586882
#
# Stress axis : x y z
#
# Youngs Moduli (GPa) = 32.65089 56.22784 54.51803
#
# Poissons Ratio (x) = 0.57493 0.64145
# Poissons Ratio (y) = 0.33386 0.18819
# Poissons Ratio (z) = 0.38416 0.19410
#
# Static dielectric constant tensor:
#      x y z
#    x 2.944970 0.000000 0.000000 
#    y 0.000000 2.737790 0.000000 
#    z 0.000000 0.000000 2.982380 
# 
# 
# High freq. dielectric constant tensor:
#      x y z
#    x 1.585450 0.000000 0.000000 
#    y 0.000000 1.553320 0.000000 
#    z 0.000000 0.000000 1.576500 
# 
# From -- ./inp_files/8121.got.cif
#   From: 2010.03.12/outbox.cif.g09.slc.cpg/sg47_5_cif.got.tgz:8121.got - 2010.04.14 03:12:58.
