data_PCOD8195294
_publ_section_title
;
Structure prediction by ZEFSAII (Michael W. Deem and Ramdas Pophale) SiO2 
 PCOD8195294
Probable space group: P M M M
;
_chemical_formula_sum "Si O2"
_cell_formula_units_Z 36
_cell_length_a 10.952294
_cell_length_b 13.858859
_cell_length_c 13.730945
_cell_angle_alpha 90.000000
_cell_angle_beta 90.000000
_cell_angle_gamma 90.000000
_cell_volume 2084.169313
_symmetry_space_group_name_H-M "P M M M"
_symmetry_group_IT_number 47
_symmetry_cell_setting 'orthorhombic'
loop_
_space_group_symop_operation_xyz
x,y,z
-x,-y,z
x,-y,-z
-x,y,-z
-x,-y,-z
x,y,-z
-x,y,z
x,-y,z
loop_
_atom_site_type_symbol
_atom_site_label
_atom_site_fract_x
_atom_site_fract_y
_atom_site_fract_z
Si Si1 0.748340 0.612303 0.705818
Si Si2 0.641432 0.215392 0.394287
Si Si3 0.356726 0.297428 0.110638
Si Si4 0.000000 0.613636 0.610267
Si Si5 0.355670 0.105866 0.789558
O O1 0.725969 0.500000 0.684944
O O2 0.654899 0.674023 0.640919
O O3 0.724811 0.634567 0.820002
O O4 0.883072 0.646538 0.672946
O O5 0.704603 0.199826 0.500000
O O6 0.500000 0.193262 0.404388
O O7 0.698959 0.142918 0.314079
O O8 0.500000 0.314827 0.133010
O O9 0.322884 0.184563 0.127989
O O10 0.324586 0.324410 0.000000
O O11 0.000000 0.500000 0.599618
O O12 0.000000 0.658142 0.500000
O O13 0.500000 0.097465 0.780441
O O14 0.300373 0.000000 0.815011
#
# Coordination Sequence:
#
# PCOD8195294 Si02
#       5
#     8   8   8   4   8
#     4  10  19  31  46  64  88 118 152 188 223 263
#     4   9  17  27  40  63  93 120 147 181 222 269
#     4   9  18  31  46  67  94 121 151 187 226 268
#     4   9  18  32  49  67  86 113 151 191 229 267
#     4   8  14  25  41  62  89 119 148 178 215 263
#
# _framework density 17.273069
#
# number of rings (size 3 to 8) (size 9 to 14) (size 15 to 20)
#    0.000    3.000    0.000    2.667    0.000    4.444 
#    0.000    7.222    0.000    2.000    0.000   12.444 
#    0.000   28.444    0.000    0.000    0.000    0.000 
#
# Total GULP energy -446043.170612 kJ/mol
# GULP energy per Si atom -12390.088073 kJ/mol
# Density = 1.723375 g / cm^3
# Si number density = 17.273069 Si / 1000 Ang^3
#
#
#
# Elastic Constant Matrix: (Units=GPa)
#
#
# Indices 1 2 3 4 5 6 
#
# 1 35.3000 8.0731 32.9857 0.0000 0.0000 0.0000
# 2 8.0731 56.0943 -0.8272 0.0000 0.0000 0.0000
# 3 32.9857 -0.8272 109.7593 0.0000 0.0000 0.0000
# 4 0.0000 0.0000 0.0000 15.5769 0.0000 0.0000
# 5 0.0000 0.0000 0.0000 0.0000 20.7927 0.0000
# 6 0.0000 0.0000 0.0000 0.0000 0.0000 4.6275
#
#
#
# Elastic Compliance Matrix: (Units=1/GPa)
#
#
# Indices 1 2 3 4 5 6 
#
# 1 0.041404 -0.006143 -0.012489 0.000000 0.000000 0.000000
# 2 -0.006143 0.018741 0.001987 0.000000 0.000000 0.000000
# 3 -0.012489 0.001987 0.012879 0.000000 0.000000 0.000000
# 4 0.000000 0.000000 0.000000 0.064198 0.000000 0.000000
# 5 0.000000 0.000000 0.000000 0.000000 0.048094 0.000000
# 6 0.000000 0.000000 0.000000 0.000000 0.000000 0.216100
#
#
# Mechanical properties :
#
#
# Convention : Reuss Voigt Hill
#
# Bulk Modulus (GPa) = 25.16751 31.29077 28.22914
# Shear Modulus (GPa) = 11.16195 18.92754 15.04474
#
# Velocity S-wave (km/s) = 2.54481 3.31385 2.95446
# Velocity P-wave (km/s) = 4.82045 5.72685 5.29309
#
# Compressibility (1/GPa) = 0.03973377
#
# Stress axis : x y z
#
# Youngs Moduli (GPa) = 24.15218 53.36023 77.64435
#
# Poissons Ratio (x) = 0.32780 0.96973
# Poissons Ratio (y) = 0.14837 -0.15431
# Poissons Ratio (z) = 0.30165 -0.10605
#
# Static dielectric constant tensor:
#      x y z
#    x 2.903520 0.000000 0.000000 
#    y 0.000000 3.314020 0.000000 
#    z 0.000000 0.000000 3.482820 
# 
# 
# High freq. dielectric constant tensor:
#      x y z
#    x 1.609710 0.000000 0.000000 
#    y 0.000000 1.658570 0.000000 
#    z 0.000000 0.000000 1.676330 
# 
# From -- ./inp_files/5522.got.cif
#   From: 2010.03.12/outbox.cif.g09.slc.cpg/sg47_3_cif.got.tgz:5522.got - 2010.04.14 03:12:58.
