data_PCOD8195330
_publ_section_title
;
Structure prediction by ZEFSAII (Michael W. Deem and Ramdas Pophale) SiO2 
 PCOD8195330
Probable space group: P M M M
;
_chemical_formula_sum "Si O2"
_cell_formula_units_Z 60
_cell_length_a 8.764771
_cell_length_b 19.549331
_cell_length_c 19.633103
_cell_angle_alpha 90.000000
_cell_angle_beta 90.000000
_cell_angle_gamma 90.000000
_cell_volume 3364.042072
_symmetry_space_group_name_H-M "P M M M"
_symmetry_group_IT_number 47
_symmetry_cell_setting 'orthorhombic'
loop_
_space_group_symop_operation_xyz
x,y,z
-x,-y,z
x,-y,-z
-x,y,-z
-x,-y,-z
x,y,-z
-x,y,z
x,-y,z
loop_
_atom_site_type_symbol
_atom_site_label
_atom_site_fract_x
_atom_site_fract_y
_atom_site_fract_z
Si Si1 0.680484 0.208857 0.672770
Si Si2 0.319769 0.736537 0.924338
Si Si3 0.319594 0.314320 0.215022
Si Si4 0.821211 0.077973 0.280295
Si Si5 0.319272 0.422199 0.677876
Si Si6 0.178119 0.682568 0.579144
Si Si7 0.822629 0.128030 0.130295
Si Si8 0.665648 0.000000 0.076289
O O1 0.500000 0.207008 0.670619
O O2 0.739968 0.249040 0.740865
O O3 0.742734 0.131035 0.667568
O O4 0.739461 0.249901 0.607293
O O5 0.500000 0.730721 0.930186
O O6 0.257070 0.686846 0.863350
O O7 0.278949 0.811683 0.899485
O O8 0.249830 0.719845 0.000000
O O9 0.500000 0.309442 0.212491
O O10 0.268355 0.384212 0.252170
O O11 0.780815 0.109353 0.207386
O O12 0.000000 0.076652 0.294113
O O13 0.757016 0.000000 0.287350
O O14 0.500000 0.417091 0.667898
O O15 0.262606 0.500000 0.682592
O O16 0.240727 0.386342 0.613804
O O17 0.215448 0.676530 0.500000
O O18 0.000000 0.689184 0.594100
O O19 0.775814 0.063155 0.087740
O O20 0.000000 0.145771 0.120957
O O21 0.500000 0.000000 0.116861
O O22 0.613670 0.000000 0.000000
#
# Coordination Sequence:
#
# PCOD8195330 Si02
#       8
#     8   8   8   8   8   8   8   4
#     4  10  19  33  55  78 101 134 175 218 258 301
#     4  10  19  31  47  67  94 129 171 218 266 313
#     4   8  15  29  48  71  97 130 171 213 257 302
#     4  10  20  34  50  71 100 133 169 214 267 317
#     4   9  18  33  54  80 109 141 177 215 252 295
#     4  10  21  36  55  81 113 145 172 202 245 300
#     4  11  21  33  47  66  92 123 162 211 264 316
#     4  11  23  35  45  59  85 125 168 207 258 323
#
# _framework density 17.835687
#
# number of rings (size 3 to 8) (size 9 to 14) (size 15 to 20)
#    0.000    2.200    2.000    2.600    0.000    4.800 
#    0.000    1.333    0.000    0.800    0.000    5.600 
#    0.000    0.000    0.000    4.667    0.000    5.867 
#
# Total GULP energy -743505.683880 kJ/mol
# GULP energy per Si atom -12391.761398 kJ/mol
# Density = 1.779509 g / cm^3
# Si number density = 17.835687 Si / 1000 Ang^3
#
#
#
# Elastic Constant Matrix: (Units=GPa)
#
#
# Indices 1 2 3 4 5 6 
#
# 1 23.5397 29.8703 26.4326 0.0000 0.0000 0.0000
# 2 29.8703 125.6839 71.9505 0.0000 0.0000 0.0000
# 3 26.4326 71.9505 115.2552 0.0000 0.0000 0.0000
# 4 0.0000 0.0000 0.0000 17.6194 0.0000 0.0000
# 5 0.0000 0.0000 0.0000 0.0000 20.8760 0.0000
# 6 0.0000 0.0000 0.0000 0.0000 0.0000 20.9452
#
#
#
# Elastic Compliance Matrix: (Units=1/GPa)
#
#
# Indices 1 2 3 4 5 6 
#
# 1 0.065511 -0.010844 -0.008255 0.000000 0.000000 0.000000
# 2 -0.010844 0.014176 -0.006363 0.000000 0.000000 0.000000
# 3 -0.008255 -0.006363 0.014542 0.000000 0.000000 0.000000
# 4 0.000000 0.000000 0.000000 0.056756 0.000000 0.000000
# 5 0.000000 0.000000 0.000000 0.000000 0.047902 0.000000
# 6 0.000000 0.000000 0.000000 0.000000 0.000000 0.047744
#
#
# Mechanical properties :
#
#
# Convention : Reuss Voigt Hill
#
# Bulk Modulus (GPa) = 23.09165 57.88731 40.48948
# Shear Modulus (GPa) = 16.02627 20.96980 18.49804
#
# Velocity S-wave (km/s) = 3.00084 3.43260 3.22395
# Velocity P-wave (km/s) = 4.99817 6.94526 6.05055
#
# Compressibility (1/GPa) = 0.04330569
#
# Stress axis : x y z
#
# Youngs Moduli (GPa) = 15.26471 70.54069 68.76777
#
# Poissons Ratio (x) = 0.76493 0.56766
# Poissons Ratio (y) = 0.16553 0.43756
# Poissons Ratio (z) = 0.12601 0.44884
#
# Static dielectric constant tensor:
#      x y z
#    x 3.152890 0.000000 0.000000 
#    y 0.000000 3.441000 0.000000 
#    z 0.000000 0.000000 3.493870 
# 
# 
# High freq. dielectric constant tensor:
#      x y z
#    x 1.680940 0.000000 0.000000 
#    y 0.000000 1.678860 0.000000 
#    z 0.000000 0.000000 1.678640 
# 
# From -- ./inp_files/11584.got.cif
#   From: 2010.03.12/outbox.cif.g09.slc.cpg/sg47_6_cif.got.tgz:11584.got - 2010.04.14 03:12:58.
