data_PCOD8195196
_publ_section_title
;
Structure prediction by ZEFSAII (Michael W. Deem and Ramdas Pophale) SiO2 
 PCOD8195196
Probable space group: P M M M
;
_chemical_formula_sum "Si O2"
_cell_formula_units_Z 40
_cell_length_a 9.563660
_cell_length_b 28.905084
_cell_length_c 7.891648
_cell_angle_alpha 90.000000
_cell_angle_beta 90.000000
_cell_angle_gamma 90.000000
_cell_volume 2181.554512
_symmetry_space_group_name_H-M "P M M M"
_symmetry_group_IT_number 47
_symmetry_cell_setting 'orthorhombic'
loop_
_space_group_symop_operation_xyz
x,y,z
-x,-y,z
x,-y,-z
-x,y,-z
-x,-y,-z
x,y,-z
-x,y,z
x,-y,z
loop_
_atom_site_type_symbol
_atom_site_label
_atom_site_fract_x
_atom_site_fract_y
_atom_site_fract_z
Si Si1 0.167268 0.113764 0.500000
Si Si2 0.345023 0.633955 0.692817
Si Si3 0.834306 0.051719 0.188156
Si Si4 0.665539 0.730112 0.813118
Si Si5 0.840477 0.448075 0.801891
Si Si6 0.332736 0.208474 0.500000
O O1 0.219383 0.086208 0.666710
O O2 0.250334 0.161034 0.500000
O O3 0.000000 0.121882 0.500000
O O4 0.355525 0.650093 0.500000
O O5 0.500000 0.622366 0.764110
O O6 0.276632 0.677663 0.791028
O O7 0.252556 0.588318 0.703019
O O8 0.000000 0.049859 0.195268
O O9 0.775756 0.000000 0.223020
O O10 0.785601 0.068501 0.000000
O O11 0.500000 0.726887 0.795301
O O12 0.720293 0.764401 0.667583
O O13 0.710744 0.748369 0.000000
O O14 0.791325 0.500000 0.754912
O O15 0.000000 0.441163 0.745290
O O16 0.823585 0.439300 0.000000
O O17 0.500000 0.200401 0.500000
#
# Coordination Sequence:
#
# PCOD8195196 Si02
#       6
#     4   8   8   8   8   4
#     4  10  19  30  48  74 102 129 161 206 253 289
#     4  10  19  32  52  77 100 121 157 210 254 292
#     4   8  14  26  46  72 100 131 168 206 243 287
#     4   9  17  32  54  74  94 125 164 206 249 291
#     4   9  19  35  51  69  98 134 167 197 236 295
#     4  10  20  35  51  71  99 131 168 203 241 302
#
# _framework density 18.335547999999999
#
# number of rings (size 3 to 8) (size 9 to 14) (size 15 to 20)
#    0.000    2.800    1.000    2.100    0.000    4.400 
#    0.000    4.000    0.000    2.400    0.000    1.400 
#    0.000    0.000    0.000    0.000    0.000    0.000 
#
# Total GULP energy -495758.861069 kJ/mol
# GULP energy per Si atom -12393.971527 kJ/mol
# Density = 1.829382 g / cm^3
# Si number density = 18.335548 Si / 1000 Ang^3
#
#
#
# Elastic Constant Matrix: (Units=GPa)
#
#
# Indices 1 2 3 4 5 6 
#
# 1 33.3691 38.0248 24.7106 0.0000 0.0000 0.0000
# 2 38.0248 141.9175 78.1657 0.0000 0.0000 0.0000
# 3 24.7106 78.1657 136.7370 0.0000 0.0000 0.0000
# 4 0.0000 0.0000 0.0000 26.4083 0.0000 0.0000
# 5 0.0000 0.0000 0.0000 0.0000 14.4992 0.0000
# 6 0.0000 0.0000 0.0000 0.0000 0.0000 30.9562
#
#
#
# Elastic Compliance Matrix: (Units=1/GPa)
#
#
# Indices 1 2 3 4 5 6 
#
# 1 0.043423 -0.010673 -0.001746 0.000000 0.000000 0.000000
# 2 -0.010673 0.012908 -0.005450 0.000000 0.000000 0.000000
# 3 -0.001746 -0.005450 0.010744 0.000000 0.000000 0.000000
# 4 0.000000 0.000000 0.000000 0.037867 0.000000 0.000000
# 5 0.000000 0.000000 0.000000 0.000000 0.068969 0.000000
# 6 0.000000 0.000000 0.000000 0.000000 0.000000 0.032304
#
#
# Mechanical properties :
#
#
# Convention : Reuss Voigt Hill
#
# Bulk Modulus (GPa) = 31.91101 65.98065 48.94583
# Shear Modulus (GPa) = 19.80996 25.78090 22.79543
#
# Velocity S-wave (km/s) = 3.29053 3.75382 3.52978
# Velocity P-wave (km/s) = 5.64610 7.40617 6.58521
#
# Compressibility (1/GPa) = 0.03133714
#
# Stress axis : x y z
#
# Youngs Moduli (GPa) = 23.02937 77.47305 93.07246
#
# Poissons Ratio (x) = 0.82686 0.16251
# Poissons Ratio (y) = 0.24579 0.50724
# Poissons Ratio (z) = 0.04021 0.42222
#
# Static dielectric constant tensor:
#      x y z
#    x 2.911340 0.000000 0.000000 
#    y 0.000000 3.379850 0.000000 
#    z 0.000000 0.000000 3.652320 
# 
# 
# High freq. dielectric constant tensor:
#      x y z
#    x 1.655330 0.000000 0.000000 
#    y 0.000000 1.710610 0.000000 
#    z 0.000000 0.000000 1.726420 
# 
# From -- ./inp_files/1725.got.cif
#   From: 2010.03.12/outbox.cif.g09.slc.cpg/sg47_1_cif.got.tgz:1725.got - 2010.04.14 03:12:58.
