data_PCOD8195798
_publ_section_title
;
Structure prediction by ZEFSAII (Michael W. Deem and Ramdas Pophale) SiO2 
 PCOD8195798
Probable space group: P M M M
;
_chemical_formula_sum "Si O2"
_cell_formula_units_Z 64
_cell_length_a 20.103301
_cell_length_b 20.103299
_cell_length_c 8.822955
_cell_angle_alpha 90.000000
_cell_angle_beta 90.000000
_cell_angle_gamma 90.000000
_cell_volume 3565.732599
_symmetry_space_group_name_H-M "P M M M"
_symmetry_group_IT_number 47
_symmetry_cell_setting 'orthorhombic'
loop_
_space_group_symop_operation_xyz
x,y,z
-x,-y,z
x,-y,-z
-x,y,-z
-x,-y,-z
x,y,-z
-x,y,z
x,-y,z
loop_
_atom_site_type_symbol
_atom_site_label
_atom_site_fract_x
_atom_site_fract_y
_atom_site_fract_z
Si Si1 0.822243 0.822243 0.178487
Si Si2 0.076470 0.423318 0.675394
Si Si3 0.180393 0.673187 0.821667
Si Si4 0.576682 0.076470 0.324606
Si Si5 0.326813 0.819607 0.821667
Si Si6 0.074070 0.925930 0.180594
Si Si7 0.573970 0.573970 0.319866
Si Si8 0.320524 0.320524 0.319997
O O1 0.840994 0.747471 0.229459
O O2 0.747471 0.840994 0.229459
O O3 0.873903 0.873903 0.254239
O O4 0.828452 0.828451 0.000000
O O5 0.090633 0.408088 0.500000
O O6 0.092412 0.500000 0.711988
O O7 0.122906 0.377802 0.777962
O O8 0.000000 0.407406 0.715464
O O9 0.249116 0.655443 0.739735
O O10 0.193078 0.670227 0.000000
O O11 0.591912 0.090633 0.500000
O O12 0.500000 0.092412 0.288012
O O13 0.622198 0.122906 0.222038
O O14 0.592594 0.000000 0.284537
O O15 0.344556 0.750884 0.739735
O O16 0.329774 0.806922 0.000000
O O17 0.000000 0.907022 0.236704
O O18 0.092978 0.000000 0.236703
O O19 0.076299 0.923700 0.000000
O O20 0.575231 0.575232 0.500000
O O21 0.500000 0.593015 0.262222
O O22 0.593015 0.500000 0.262222
O O23 0.626557 0.626557 0.255203
O O24 0.318577 0.318577 0.500000
#
# Coordination Sequence:
#
# PCOD8195798 Si02
#       8
#     8   8   8   8   8   8   8   8
#     4   8  16  29  42  62  96 130 159 194 236 285
#     4   9  19  36  55  74  98 129 167 211 256 307
#     4  10  20  33  49  72 102 133 166 207 252 298
#     4   9  19  36  55  74  98 129 167 211 256 307
#     4  10  20  33  49  72 102 133 166 207 252 298
#     4   8  13  22  38  60  86 118 155 191 227 271
#     4   8  15  29  49  73  97 120 155 203 245 285
#     4  10  19  32  52  75 101 136 171 204 248 301
#
# _framework density 17.948626000000001
#
# number of rings (size 3 to 8) (size 9 to 14) (size 15 to 20)
#    0.000    3.000    0.000    3.375    0.000    3.000 
#    0.000    6.250    0.000    2.250    0.000    3.500 
#    0.000    0.000    0.000   49.500    0.000   44.500 
#
# Total GULP energy -793383.099852 kJ/mol
# GULP energy per Si atom -12396.610935 kJ/mol
# Density = 1.790777 g / cm^3
# Si number density = 17.948626 Si / 1000 Ang^3
#
#
#
# Elastic Constant Matrix: (Units=GPa)
#
#
# Indices 1 2 3 4 5 6 
#
# 1 128.4094 103.4845 34.1763 0.0000 0.0000 0.0000
# 2 103.4845 128.4082 34.1761 0.0000 0.0000 0.0000
# 3 34.1763 34.1761 47.8353 0.0000 0.0000 0.0000
# 4 0.0000 0.0000 0.0000 23.4100 0.0000 0.0000
# 5 0.0000 0.0000 0.0000 0.0000 23.4101 0.0000
# 6 0.0000 0.0000 0.0000 0.0000 0.0000 44.6886
#
#
#
# Elastic Compliance Matrix: (Units=1/GPa)
#
#
# Indices 1 2 3 4 5 6 
#
# 1 0.022792 -0.017329 -0.003903 0.000000 0.000000 0.000000
# 2 -0.017329 0.022792 -0.003903 0.000000 0.000000 0.000000
# 3 -0.003903 -0.003903 0.026482 0.000000 0.000000 0.000000
# 4 0.000000 0.000000 0.000000 0.042717 0.000000 0.000000
# 5 0.000000 0.000000 0.000000 0.000000 0.042717 0.000000
# 6 0.000000 0.000000 0.000000 0.000000 0.000000 0.022377
#
#
# Mechanical properties :
#
#
# Convention : Reuss Voigt Hill
#
# Bulk Modulus (GPa) = 45.88020 72.03629 58.95825
# Shear Modulus (GPa) = 21.06043 27.15614 24.10828
#
# Velocity S-wave (km/s) = 3.42917 3.89394 3.66892
# Velocity P-wave (km/s) = 6.42623 7.77424 7.13215
#
# Compressibility (1/GPa) = 0.02179589
#
# Stress axis : x y z
#
# Youngs Moduli (GPa) = 43.87510 43.87469 37.76156
#
# Poissons Ratio (x) = 0.76032 0.14738
# Poissons Ratio (y) = 0.76033 0.14738
# Poissons Ratio (z) = 0.17124 0.17124
#
# Static dielectric constant tensor:
#      x y z
#    x 3.508100 0.000000 0.000000 
#    y 0.000000 3.508100 0.000000 
#    z 0.000000 0.000000 2.956410 
# 
# 
# High freq. dielectric constant tensor:
#      x y z
#    x 1.700290 0.000000 0.000000 
#    y 0.000000 1.700290 0.000000 
#    z 0.000000 0.000000 1.662590 
# 
# From -- ./inp_files/9945.got.cif
#   From: 2010.03.12/outbox.cif.g09.slc.cpg/sg47_5_cif.got.tgz:9945.got - 2010.04.14 03:12:58.
