data_PCOD8195697
_publ_section_title
;
Structure prediction by ZEFSAII (Michael W. Deem and Ramdas Pophale) SiO2 
 PCOD8195697
Probable space group: P M M M
;
_chemical_formula_sum "Si O2"
_cell_formula_units_Z 52
_cell_length_a 26.030628
_cell_length_b 12.555009
_cell_length_c 9.103762
_cell_angle_alpha 90.000000
_cell_angle_beta 90.000000
_cell_angle_gamma 90.000000
_cell_volume 2975.243873
_symmetry_space_group_name_H-M "P M M M"
_symmetry_group_IT_number 47
_symmetry_cell_setting 'orthorhombic'
loop_
_space_group_symop_operation_xyz
x,y,z
-x,-y,z
x,-y,-z
-x,y,-z
-x,-y,-z
x,y,-z
-x,y,z
x,-y,z
loop_
_atom_site_type_symbol
_atom_site_label
_atom_site_fract_x
_atom_site_fract_y
_atom_site_fract_z
Si Si1 0.059938 0.195463 0.170068
Si Si2 0.766483 0.000000 0.669467
Si Si3 0.115376 0.623681 0.671290
Si Si4 0.289595 0.188218 0.829740
Si Si5 0.500000 0.873279 0.666020
Si Si6 0.599722 0.123371 0.170091
Si Si7 0.887252 0.000000 0.328950
Si Si8 0.218850 0.379547 0.831590
O O1 0.072834 0.309276 0.241893
O O2 0.090584 0.104567 0.253773
O O3 0.000000 0.172711 0.187896
O O4 0.076331 0.195951 0.000000
O O5 0.743560 0.894692 0.739709
O O6 0.751698 0.000000 0.500000
O O7 0.826858 0.000000 0.695671
O O8 0.112647 0.651666 0.500000
O O9 0.103683 0.500000 0.701803
O O10 0.171777 0.655197 0.728708
O O11 0.349215 0.186969 0.781466
O O12 0.267777 0.305738 0.798150
O O13 0.285424 0.155758 0.000000
O O14 0.500000 0.833330 0.500000
O O15 0.551357 0.828424 0.742403
O O16 0.500000 0.000000 0.680429
O O17 0.609362 0.000000 0.208833
O O18 0.587029 0.138517 0.000000
O O19 0.902247 0.000000 0.500000
O O20 0.236113 0.500000 0.796972
O O21 0.200638 0.367256 0.000000
#
# Coordination Sequence:
#
# PCOD8195697 Si02
#       8
#     8   4   8   8   4   8   4   8
#     4  11  24  40  58  80 104 132 169 212 256 303
#     4  11  23  34  48  74 105 132 164 203 245 292
#     4  10  21  37  57  80 106 135 168 208 256 310
#     4  10  19  32  50  73 102 135 169 204 247 299
#     4   9  17  27  41  63  92 127 164 204 249 292
#     4   9  16  28  44  64  93 130 168 202 241 293
#     4  11  24  40  57  78 105 139 174 207 248 302
#     4   9  18  33  54  78 103 133 169 209 252 299
#
# _framework density 17.477558999999999
#
# number of rings (size 3 to 8) (size 9 to 14) (size 15 to 20)
#    0.000    2.077    0.769    2.769    0.000    9.231 
#    0.000    1.538    0.000    0.000    0.000    0.538 
#    0.000    4.308    0.000    0.000    0.000    0.000 
#
# Total GULP energy -644951.034500 kJ/mol
# GULP energy per Si atom -12402.904510 kJ/mol
# Density = 1.743778 g / cm^3
# Si number density = 17.477559 Si / 1000 Ang^3
#
#
#
# Elastic Constant Matrix: (Units=GPa)
#
#
# Indices 1 2 3 4 5 6 
#
# 1 100.4774 47.0671 67.2697 0.0000 0.0000 0.0000
# 2 47.0671 77.3944 47.3352 0.0000 0.0000 0.0000
# 3 67.2697 47.3352 108.6104 0.0000 0.0000 0.0000
# 4 0.0000 0.0000 0.0000 21.1029 0.0000 0.0000
# 5 0.0000 0.0000 0.0000 0.0000 17.0602 0.0000
# 6 0.0000 0.0000 0.0000 0.0000 0.0000 26.1346
#
#
#
# Elastic Compliance Matrix: (Units=1/GPa)
#
#
# Indices 1 2 3 4 5 6 
#
# 1 0.018775 -0.005871 -0.009070 0.000000 0.000000 0.000000
# 2 -0.005871 0.019452 -0.004842 0.000000 0.000000 0.000000
# 3 -0.009070 -0.004842 0.016935 0.000000 0.000000 0.000000
# 4 0.000000 0.000000 0.000000 0.047387 0.000000 0.000000
# 5 0.000000 0.000000 0.000000 0.000000 0.058616 0.000000
# 6 0.000000 0.000000 0.000000 0.000000 0.000000 0.038263
#
#
# Mechanical properties :
#
#
# Convention : Reuss Voigt Hill
#
# Bulk Modulus (GPa) = 64.11270 67.75847 65.93559
# Shear Modulus (GPa) = 20.47569 21.18022 20.82795
#
# Velocity S-wave (km/s) = 3.42649 3.48494 3.45584
# Velocity P-wave (km/s) = 7.23996 7.41931 7.33018
#
# Compressibility (1/GPa) = 0.01559753
#
# Stress axis : x y z
#
# Youngs Moduli (GPa) = 53.26288 51.40788 59.04922
#
# Poissons Ratio (x) = 0.30179 0.53557
# Poissons Ratio (y) = 0.31268 0.28590
# Poissons Ratio (z) = 0.48309 0.24891
#
# Static dielectric constant tensor:
#      x y z
#    x 3.321990 0.000000 0.000000 
#    y 0.000000 3.221860 0.000000 
#    z 0.000000 0.000000 3.375820 
# 
# 
# High freq. dielectric constant tensor:
#      x y z
#    x 1.677340 0.000000 0.000000 
#    y 0.000000 1.656040 0.000000 
#    z 0.000000 0.000000 1.683480 
# 
# From -- ./inp_files/13347.got.cif
#   From: 2010.03.12/outbox.cif.g09.slc.cpg/sg47_7_cif.got.tgz:13347.got - 2010.04.14 03:12:58.
