data_PCOD8195989
_publ_section_title
;
Structure prediction by ZEFSAII (Michael W. Deem and Ramdas Pophale) SiO2 
 PCOD8195989
Probable space group: P M M M
;
_chemical_formula_sum "Si O2"
_cell_formula_units_Z 52
_cell_length_a 18.539338
_cell_length_b 19.464359
_cell_length_c 8.141618
_cell_angle_alpha 90.000000
_cell_angle_beta 90.000000
_cell_angle_gamma 90.000000
_cell_volume 2937.954395
_symmetry_space_group_name_H-M "P M M M"
_symmetry_group_IT_number 47
_symmetry_cell_setting 'orthorhombic'
loop_
_space_group_symop_operation_xyz
x,y,z
-x,-y,z
x,-y,-z
-x,y,-z
-x,-y,-z
x,y,-z
-x,y,z
x,-y,z
loop_
_atom_site_type_symbol
_atom_site_label
_atom_site_fract_x
_atom_site_fract_y
_atom_site_fract_z
Si Si1 0.285642 0.867660 0.680126
Si Si2 0.217538 0.718552 0.683824
Si Si3 0.646843 0.342176 0.189505
Si Si4 0.852082 0.923617 0.812214
Si Si5 0.582981 0.581053 0.500000
Si Si6 0.579418 0.804751 0.191565
Si Si7 0.920869 0.788511 0.691729
O O1 0.283624 0.901180 0.500000
O O2 0.256945 0.790788 0.674765
O O3 0.234333 0.913003 0.796052
O O4 0.368171 0.864213 0.740404
O O5 0.210814 0.687394 0.500000
O O6 0.266023 0.667649 0.794695
O O7 0.138159 0.734154 0.764031
O O8 0.620439 0.394564 0.329816
O O9 0.606936 0.271478 0.232081
O O10 0.630448 0.366358 0.000000
O O11 0.896988 0.867535 0.711973
O O12 0.872255 0.000000 0.748992
O O13 0.874098 0.915138 0.000000
O O14 0.589368 0.500000 0.500000
O O15 0.500000 0.605440 0.500000
O O16 0.500000 0.813847 0.270754
O O17 0.575450 0.815417 0.000000
O O18 0.924627 0.774349 0.500000
O O19 0.000000 0.776319 0.772135
#
# Coordination Sequence:
#
# PCOD8195989 Si02
#       7
#     8   8   8   8   4   8   8
#     4   9  17  28  44  65  86 112 149 197 247 291
#     4   8  14  28  48  70  97 127 160 201 249 296
#     4  10  19  33  53  75 100 135 177 212 244 291
#     4  10  20  32  45  60  83 122 166 201 236 286
#     4  11  24  38  52  74 107 145 178 211 249 283
#     4   9  17  28  45  70  95 118 147 190 245 299
#     4   9  18  31  48  72 101 129 156 195 248 299
#
# _framework density 17.699390999999999
#
# number of rings (size 3 to 8) (size 9 to 14) (size 15 to 20)
#    0.000    2.692    0.769    2.308    1.077    7.077 
#    0.000    2.308    0.000    0.462    0.000    3.231 
#    0.000    1.231    0.000    1.385    0.000    0.000 
#
# Total GULP energy -644194.059731 kJ/mol
# GULP energy per Si atom -12388.347303 kJ/mol
# Density = 1.765911 g / cm^3
# Si number density = 17.699391 Si / 1000 Ang^3
#
#
#
# Elastic Constant Matrix: (Units=GPa)
#
#
# Indices 1 2 3 4 5 6 
#
# 1 149.2293 28.9677 21.8955 0.0000 0.0000 0.0000
# 2 28.9677 33.5795 21.3649 0.0000 0.0000 0.0000
# 3 21.8955 21.3649 57.0271 0.0000 0.0000 0.0000
# 4 0.0000 0.0000 0.0000 18.8264 0.0000 0.0000
# 5 0.0000 0.0000 0.0000 0.0000 19.0329 0.0000
# 6 0.0000 0.0000 0.0000 0.0000 0.0000 14.6723
#
#
#
# Elastic Compliance Matrix: (Units=1/GPa)
#
#
# Indices 1 2 3 4 5 6 
#
# 1 0.008067 -0.006550 -0.000644 0.000000 0.000000 0.000000
# 2 -0.006550 0.044418 -0.014126 0.000000 0.000000 0.000000
# 3 -0.000644 -0.014126 0.023075 0.000000 0.000000 0.000000
# 4 0.000000 0.000000 0.000000 0.053117 0.000000 0.000000
# 5 0.000000 0.000000 0.000000 0.000000 0.052541 0.000000
# 6 0.000000 0.000000 0.000000 0.000000 0.000000 0.068156
#
#
# Mechanical properties :
#
#
# Convention : Reuss Voigt Hill
#
# Bulk Modulus (GPa) = 30.37565 42.69912 36.53739
# Shear Modulus (GPa) = 16.50244 21.68017 19.09131
#
# Velocity S-wave (km/s) = 3.05679 3.50367 3.28783
# Velocity P-wave (km/s) = 5.44590 6.36746 5.92463
#
# Compressibility (1/GPa) = 0.03292111
#
# Stress axis : x y z
#
# Youngs Moduli (GPa) = 123.96362 22.51340 43.33701
#
# Poissons Ratio (x) = 0.14745 0.02789
# Poissons Ratio (y) = 0.81191 0.61219
# Poissons Ratio (z) = 0.07977 0.31803
#
# Static dielectric constant tensor:
#      x y z
#    x 3.945870 0.000000 0.000000 
#    y 0.000000 2.841600 0.000000 
#    z 0.000000 0.000000 3.293180 
# 
# 
# High freq. dielectric constant tensor:
#      x y z
#    x 1.692290 0.000000 0.000000 
#    y 0.000000 1.621450 0.000000 
#    z 0.000000 0.000000 1.683420 
# 
# From -- ./inp_files/9557.got.cif
#   From: 2010.03.12/outbox.cif.g09.slc.cpg/sg47_5_cif.got.tgz:9557.got - 2010.04.14 03:12:58.
