data_PCOD8195479
_publ_section_title
;
Structure prediction by ZEFSAII (Michael W. Deem and Ramdas Pophale) SiO2 
 PCOD8195479
Probable space group: P M M M
;
_chemical_formula_sum "Si O2"
_cell_formula_units_Z 52
_cell_length_a 16.920992
_cell_length_b 13.563148
_cell_length_c 12.978195
_cell_angle_alpha 90.000000
_cell_angle_beta 90.000000
_cell_angle_gamma 90.000000
_cell_volume 2978.520655
_symmetry_space_group_name_H-M "P M M M"
_symmetry_group_IT_number 47
_symmetry_cell_setting 'orthorhombic'
loop_
_space_group_symop_operation_xyz
x,y,z
-x,-y,z
x,-y,-z
-x,y,-z
-x,-y,-z
x,y,-z
-x,y,z
x,-y,z
loop_
_atom_site_type_symbol
_atom_site_label
_atom_site_fract_x
_atom_site_fract_y
_atom_site_fract_z
Si Si1 0.820298 0.301765 0.692939
Si Si2 0.091897 0.614185 0.882480
Si Si3 0.410109 0.799181 0.681245
Si Si4 0.906625 0.387997 0.500000
Si Si5 0.254958 0.889600 0.616766
Si Si6 0.335683 0.389690 0.380815
Si Si7 0.593210 0.890456 0.888591
O O1 0.858972 0.317778 0.804464
O O2 0.879893 0.331279 0.602327
O O3 0.796181 0.186626 0.684416
O O4 0.742276 0.368725 0.685328
O O5 0.107464 0.500000 0.855653
O O6 0.000000 0.638984 0.868717
O O7 0.118261 0.636802 0.000000
O O8 0.500000 0.836107 0.661504
O O9 0.348228 0.861441 0.613881
O O10 0.405555 0.683639 0.653442
O O11 0.382732 0.813672 0.800100
O O12 0.872594 0.500000 0.500000
O O13 0.000000 0.390460 0.500000
O O14 0.224244 0.884196 0.500000
O O15 0.243697 0.000000 0.661200
O O16 0.313320 0.372153 0.500000
O O17 0.366301 0.500000 0.360685
O O18 0.500000 0.896040 0.896276
O O19 0.625785 0.000000 0.861430
O O20 0.627417 0.855876 0.000000
#
# Coordination Sequence:
#
# PCOD8195479 Si02
#       7
#     8   8   8   4   8   8   8
#     4  11  18  33  53  74 102 137 172 207 247 303
#     4   9  18  32  52  81 114 143 168 200 249 303
#     4  10  19  31  49  73  96 122 167 218 261 307
#     4  11  20  28  49  85 108 121 155 209 253 283
#     4  10  21  36  51  69  99 138 172 210 265 315
#     4  10  20  33  48  67  98 139 171 200 249 308
#     4   8  14  26  45  67  89 113 143 189 252 306
#
# _framework density 17.458331999999999
#
# number of rings (size 3 to 8) (size 9 to 14) (size 15 to 20)
#    0.000    2.231    1.538    4.615    0.000    3.692 
#    0.000    4.615    0.000    5.077    0.000    3.231 
#    0.000    0.000    0.000    0.000    0.000    0.000 
#
# Total GULP energy -644560.534254 kJ/mol
# GULP energy per Si atom -12395.394889 kJ/mol
# Density = 1.741860 g / cm^3
# Si number density = 17.458332 Si / 1000 Ang^3
#
#
#
# Elastic Constant Matrix: (Units=GPa)
#
#
# Indices 1 2 3 4 5 6 
#
# 1 61.6070 34.5388 32.9730 0.0000 0.0000 0.0000
# 2 34.5388 134.0832 53.1676 0.0000 0.0000 0.0000
# 3 32.9730 53.1676 102.4404 0.0000 0.0000 0.0000
# 4 0.0000 0.0000 0.0000 26.3457 0.0000 0.0000
# 5 0.0000 0.0000 0.0000 0.0000 28.1105 0.0000
# 6 0.0000 0.0000 0.0000 0.0000 0.0000 12.6657
#
#
#
# Elastic Compliance Matrix: (Units=1/GPa)
#
#
# Indices 1 2 3 4 5 6 
#
# 1 0.020772 -0.003399 -0.004922 0.000000 0.000000 0.000000
# 2 -0.003399 0.009947 -0.004068 0.000000 0.000000 0.000000
# 3 -0.004922 -0.004068 0.013458 0.000000 0.000000 0.000000
# 4 0.000000 0.000000 0.000000 0.037957 0.000000 0.000000
# 5 0.000000 0.000000 0.000000 0.000000 0.035574 0.000000
# 6 0.000000 0.000000 0.000000 0.000000 0.000000 0.078954
#
#
# Mechanical properties :
#
#
# Convention : Reuss Voigt Hill
#
# Bulk Modulus (GPa) = 51.55272 59.94329 55.74801
# Shear Modulus (GPa) = 21.93898 25.25446 23.59672
#
# Velocity S-wave (km/s) = 3.54877 3.80749 3.68040
# Velocity P-wave (km/s) = 6.81064 7.33068 7.07544
#
# Compressibility (1/GPa) = 0.01939762
#
# Stress axis : x y z
#
# Youngs Moduli (GPa) = 48.14237 100.53414 74.30774
#
# Poissons Ratio (x) = 0.34172 0.36573
# Poissons Ratio (y) = 0.16364 0.30232
# Poissons Ratio (z) = 0.23695 0.40902
#
# Static dielectric constant tensor:
#      x y z
#    x 3.007950 0.000000 0.000000 
#    y 0.000000 3.294660 0.000000 
#    z 0.000000 0.000000 3.478250 
# 
# 
# High freq. dielectric constant tensor:
#      x y z
#    x 1.650770 0.000000 0.000000 
#    y 0.000000 1.663920 0.000000 
#    z 0.000000 0.000000 1.674170 
# 
# From -- ./inp_files/18546.got.cif
#   From: 2010.03.12/outbox.cif.g09.slc.cpg/sg47_10_cif.got.tgz:18546.got - 2010.04.14 03:12:58.
