data_PCOD8195047
_publ_section_title
;
Structure prediction by ZEFSAII (Michael W. Deem and Ramdas Pophale) SiO2 
 PCOD8195047
Probable space group: P M M M
;
_chemical_formula_sum "Si O2"
_cell_formula_units_Z 60
_cell_length_a 13.683205
_cell_length_b 19.734663
_cell_length_c 13.479169
_cell_angle_alpha 90.000000
_cell_angle_beta 90.000000
_cell_angle_gamma 90.000000
_cell_volume 3639.826366
_symmetry_space_group_name_H-M "P M M M"
_symmetry_group_IT_number 47
_symmetry_cell_setting 'orthorhombic'
loop_
_space_group_symop_operation_xyz
x,y,z
-x,-y,z
x,-y,-z
-x,y,-z
-x,-y,-z
x,y,-z
-x,y,z
x,-y,z
loop_
_atom_site_type_symbol
_atom_site_label
_atom_site_fract_x
_atom_site_fract_y
_atom_site_fract_z
Si Si1 0.387916 0.208517 0.700615
Si Si2 0.386263 0.704680 0.888428
Si Si3 0.893960 0.882053 0.387270
Si Si4 0.263697 0.423805 0.116221
Si Si5 0.884835 0.377025 0.261394
Si Si6 0.311693 0.924342 0.617177
Si Si7 0.800748 0.261937 0.610631
Si Si8 0.115825 0.500000 0.392330
O O1 0.500000 0.227579 0.674705
O O2 0.362175 0.233253 0.813037
O O3 0.373846 0.127436 0.685379
O O4 0.314015 0.245636 0.625524
O O5 0.500000 0.691080 0.891806
O O6 0.342147 0.632955 0.850498
O O7 0.348103 0.723507 0.000000
O O8 0.906889 0.904452 0.500000
O O9 0.801488 0.923789 0.344468
O O10 0.868165 0.803417 0.379318
O O11 0.000000 0.895945 0.333860
O O12 0.291367 0.500000 0.155098
O O13 0.158775 0.398538 0.155822
O O14 0.253505 0.426335 0.000000
O O15 0.839045 0.308483 0.301610
O O16 0.848247 0.433319 0.337917
O O17 0.000000 0.370763 0.250197
O O18 0.317225 0.903202 0.500000
O O19 0.354001 0.000000 0.632407
O O20 0.813241 0.293354 0.500000
O O21 0.164731 0.500000 0.500000
O O22 0.000000 0.500000 0.398708
#
# Coordination Sequence:
#
# PCOD8195047 Si02
#       8
#     8   8   8   8   8   8   8   4
#     4  10  19  32  51  72  96 126 159 199 246 291
#     4   9  18  34  56  78  96 118 154 201 252 299
#     4   8  14  25  41  62  89 122 159 197 234 268
#     4  10  20  34  52  74  99 125 156 198 250 302
#     4  11  20  31  46  66  93 126 162 199 240 286
#     4   9  18  30  44  68 102 135 166 197 230 277
#     4  10  19  30  45  67  94 126 164 202 238 279
#     4   9  18  30  43  61  86 121 163 197 227 274
#
# _framework density 16.484303000000001
#
# number of rings (size 3 to 8) (size 9 to 14) (size 15 to 20)
#    0.000    2.467    2.000    2.000    0.000    3.467 
#    0.000    4.000    0.000    0.400    0.000    1.867 
#    0.000    4.267    0.000    3.467    0.000    0.267 
#
# Total GULP energy -743318.893715 kJ/mol
# GULP energy per Si atom -12388.648229 kJ/mol
# Density = 1.644678 g / cm^3
# Si number density = 16.484303 Si / 1000 Ang^3
#
#
#
# Elastic Constant Matrix: (Units=GPa)
#
#
# Indices 1 2 3 4 5 6 
#
# 1 67.8251 23.9779 19.9852 0.0000 0.0000 0.0000
# 2 23.9779 94.9995 35.2395 0.0000 0.0000 0.0000
# 3 19.9852 35.2395 42.2102 0.0000 0.0000 0.0000
# 4 0.0000 0.0000 0.0000 24.6026 0.0000 0.0000
# 5 0.0000 0.0000 0.0000 0.0000 20.4518 0.0000
# 6 0.0000 0.0000 0.0000 0.0000 0.0000 12.7879
#
#
#
# Elastic Compliance Matrix: (Units=1/GPa)
#
#
# Indices 1 2 3 4 5 6 
#
# 1 0.017376 -0.001932 -0.006614 0.000000 0.000000 0.000000
# 2 -0.001932 0.015464 -0.011995 0.000000 0.000000 0.000000
# 3 -0.006614 -0.011995 0.036836 0.000000 0.000000 0.000000
# 4 0.000000 0.000000 0.000000 0.040646 0.000000 0.000000
# 5 0.000000 0.000000 0.000000 0.000000 0.048895 0.000000
# 6 0.000000 0.000000 0.000000 0.000000 0.000000 0.078199
#
#
# Mechanical properties :
#
#
# Convention : Reuss Voigt Hill
#
# Bulk Modulus (GPa) = 34.97262 40.38222 37.67742
# Shear Modulus (GPa) = 17.35934 19.95727 18.65830
#
# Velocity S-wave (km/s) = 3.24864 3.48326 3.36800
# Velocity P-wave (km/s) = 5.94419 6.38185 6.16690
#
# Compressibility (1/GPa) = 0.02859379
#
# Stress axis : x y z
#
# Youngs Moduli (GPa) = 57.55167 64.66823 27.14708
#
# Poissons Ratio (x) = 0.12496 0.17954
# Poissons Ratio (y) = 0.11121 0.32563
# Poissons Ratio (z) = 0.38062 0.77569
#
# Static dielectric constant tensor:
#      x y z
#    x 3.188320 0.000000 0.000000 
#    y 0.000000 3.197170 0.000000 
#    z 0.000000 0.000000 3.070500 
# 
# 
# High freq. dielectric constant tensor:
#      x y z
#    x 1.634570 0.000000 0.000000 
#    y 0.000000 1.634910 0.000000 
#    z 0.000000 0.000000 1.602850 
# 
# From -- ./inp_files/18056.got.cif
#   From: 2010.03.12/outbox.cif.g09.slc.cpg/sg47_10_cif.got.tgz:18056.got - 2010.04.14 03:12:58.
