data_PCOD8195428
_publ_section_title
;
Structure prediction by ZEFSAII (Michael W. Deem and Ramdas Pophale) SiO2 
 PCOD8195428
Probable space group: P M M M
;
_chemical_formula_sum "Si O2"
_cell_formula_units_Z 56
_cell_length_a 14.558242
_cell_length_b 14.996438
_cell_length_c 14.721729
_cell_angle_alpha 90.000000
_cell_angle_beta 90.000000
_cell_angle_gamma 90.000000
_cell_volume 3214.073985
_symmetry_space_group_name_H-M "P M M M"
_symmetry_group_IT_number 47
_symmetry_cell_setting 'orthorhombic'
loop_
_space_group_symop_operation_xyz
x,y,z
-x,-y,z
x,-y,-z
-x,y,-z
-x,-y,-z
x,y,-z
-x,y,z
x,-y,z
loop_
_atom_site_type_symbol
_atom_site_label
_atom_site_fract_x
_atom_site_fract_y
_atom_site_fract_z
Si Si1 0.394254 0.756016 0.394381
Si Si2 0.214485 0.900297 0.101073
Si Si3 0.894796 0.397636 0.744223
Si Si4 0.719410 0.102840 0.707479
Si Si5 0.898342 0.894326 0.602424
Si Si6 0.107812 0.272495 0.901056
Si Si7 0.259480 0.600655 0.395201
O O1 0.378627 0.777824 0.500000
O O2 0.500000 0.737653 0.372319
O O3 0.361857 0.840826 0.336671
O O4 0.339668 0.667462 0.364220
O O5 0.287221 0.886025 0.182871
O O6 0.133109 0.830322 0.116442
O O7 0.172286 0.000000 0.109956
O O8 0.259905 0.888406 0.000000
O O9 0.887171 0.500000 0.774981
O O10 0.851601 0.338420 0.825293
O O11 0.835143 0.377130 0.655581
O O12 0.000000 0.372148 0.721584
O O13 0.818401 0.139374 0.670507
O O14 0.705389 0.000000 0.678878
O O15 0.875785 0.861029 0.500000
O O16 0.000000 0.858302 0.632325
O O17 0.901216 0.000000 0.603920
O O18 0.000000 0.280649 0.898862
O O19 0.145628 0.302624 0.000000
O O20 0.235747 0.613019 0.500000
O O21 0.293261 0.500000 0.373927
#
# Coordination Sequence:
#
# PCOD8195428 Si02
#       7
#     8   8   8   8   8   8   8
#     4  10  21  35  51  73  98 122 153 194 236 281
#     4   9  18  31  46  65  89 120 160 203 242 279
#     4   9  17  29  47  72 100 128 157 190 229 276
#     4  10  19  31  49  70  95 128 159 191 236 286
#     4   8  14  25  41  62  89 121 156 190 223 265
#     4   9  17  28  42  62  91 127 163 198 235 274
#     4   9  18  33  52  72  95 125 159 193 230 272
#
# _framework density 17.423369999999998
#
# number of rings (size 3 to 8) (size 9 to 14) (size 15 to 20)
#    0.000    2.857    0.000    1.714    0.000    2.857 
#    0.000    8.571    0.000    1.286    0.000    2.000 
#    0.000    0.000    0.000   12.286    0.000    0.429 
#
# Total GULP energy -694066.900624 kJ/mol
# GULP energy per Si atom -12394.051797 kJ/mol
# Density = 1.738371 g / cm^3
# Si number density = 17.423370 Si / 1000 Ang^3
#
#
#
# Elastic Constant Matrix: (Units=GPa)
#
#
# Indices 1 2 3 4 5 6 
#
# 1 79.9718 45.8615 48.3765 0.0000 0.0000 0.0000
# 2 45.8615 86.2565 55.1196 0.0000 0.0000 0.0000
# 3 48.3765 55.1196 97.3519 0.0000 0.0000 0.0000
# 4 0.0000 0.0000 0.0000 25.1421 0.0000 0.0000
# 5 0.0000 0.0000 0.0000 0.0000 15.2906 0.0000
# 6 0.0000 0.0000 0.0000 0.0000 0.0000 25.1769
#
#
#
# Elastic Compliance Matrix: (Units=1/GPa)
#
#
# Indices 1 2 3 4 5 6 
#
# 1 0.020107 -0.006747 -0.006172 0.000000 0.000000 0.000000
# 2 -0.006747 0.020430 -0.008214 0.000000 0.000000 0.000000
# 3 -0.006172 -0.008214 0.017990 0.000000 0.000000 0.000000
# 4 0.000000 0.000000 0.000000 0.039774 0.000000 0.000000
# 5 0.000000 0.000000 0.000000 0.000000 0.065400 0.000000
# 6 0.000000 0.000000 0.000000 0.000000 0.000000 0.039719
#
#
# Mechanical properties :
#
#
# Convention : Reuss Voigt Hill
#
# Bulk Modulus (GPa) = 61.49824 62.47727 61.98775
# Shear Modulus (GPa) = 19.91200 20.73674 20.32437
#
# Velocity S-wave (km/s) = 3.38425 3.45362 3.41911
# Velocity P-wave (km/s) = 7.11645 7.19997 7.15833
#
# Compressibility (1/GPa) = 0.01626063
#
# Stress axis : x y z
#
# Youngs Moduli (GPa) = 49.73435 48.94841 55.58715
#
# Poissons Ratio (x) = 0.33024 0.34306
# Poissons Ratio (y) = 0.33555 0.45662
# Poissons Ratio (z) = 0.30694 0.40208
#
# Static dielectric constant tensor:
#      x y z
#    x 2.984990 0.000000 0.000000 
#    y 0.000000 3.318770 0.000000 
#    z 0.000000 0.000000 3.522710 
# 
# 
# High freq. dielectric constant tensor:
#      x y z
#    x 1.631050 0.000000 0.000000 
#    y 0.000000 1.674750 0.000000 
#    z 0.000000 0.000000 1.677220 
# 
# From -- ./inp_files/17675.got.cif
#   From: 2010.03.12/outbox.cif.g09.slc.cpg/sg47_9_cif.got.tgz:17675.got - 2010.04.14 03:12:58.
