data_PCOD8195490
_publ_section_title
;
Structure prediction by ZEFSAII (Michael W. Deem and Ramdas Pophale) SiO2 
 PCOD8195490
Probable space group: P M M M
;
_chemical_formula_sum "Si O2"
_cell_formula_units_Z 52
_cell_length_a 9.601240
_cell_length_b 13.806710
_cell_length_c 22.217678
_cell_angle_alpha 90.000000
_cell_angle_beta 90.000000
_cell_angle_gamma 90.000000
_cell_volume 2945.209529
_symmetry_space_group_name_H-M "P M M M"
_symmetry_group_IT_number 47
_symmetry_cell_setting 'orthorhombic'
loop_
_space_group_symop_operation_xyz
x,y,z
-x,-y,z
x,-y,-z
-x,y,-z
-x,-y,-z
x,y,-z
-x,y,z
x,-y,z
loop_
_atom_site_type_symbol
_atom_site_label
_atom_site_fract_x
_atom_site_fract_y
_atom_site_fract_z
Si Si1 0.657522 0.608191 0.827433
Si Si2 0.500000 0.114857 0.433814
Si Si3 0.253203 0.114671 0.352732
Si Si4 0.837377 0.114806 0.116393
Si Si5 0.662880 0.196680 0.227469
Si Si6 0.844055 0.614919 0.065416
Si Si7 0.336733 0.115515 0.000000
Si Si8 0.000000 0.885065 0.431984
O O1 0.500000 0.601523 0.850690
O O2 0.708691 0.500000 0.807469
O O3 0.671051 0.685696 0.773774
O O4 0.745359 0.654284 0.882310
O O5 0.500000 0.162328 0.500000
O O6 0.372461 0.152336 0.395865
O O7 0.500000 0.000000 0.440347
O O8 0.264085 0.165732 0.288834
O O9 0.124734 0.151869 0.391209
O O10 0.253942 0.000000 0.341469
O O11 0.754122 0.150372 0.174806
O O12 0.000000 0.151103 0.115221
O O13 0.837152 0.000000 0.117249
O O14 0.750820 0.153356 0.058210
O O15 0.500000 0.162620 0.223720
O O16 0.840224 0.500000 0.066021
O O17 0.000000 0.652330 0.077899
O O18 0.792213 0.652265 0.000000
O O19 0.500000 0.152081 0.000000
O O20 0.338305 0.000000 0.000000
O O21 0.000000 0.840819 0.500000
O O22 0.000000 0.000000 0.438640
#
# Coordination Sequence:
#
# PCOD8195490 Si02
#       8
#     8   4   8   8   8   8   4   4
#     4   9  19  35  52  70  95 128 166 211 260 309
#     4   9  16  28  48  74 103 136 170 203 239 282
#     4  10  19  31  49  74 106 140 172 206 241 290
#     4  10  21  35  53  75 101 133 171 214 256 304
#     4  11  22  35  50  73 103 137 175 213 258 306
#     4   8  14  27  48  71  92 115 147 193 253 315
#     4   9  17  33  55  75  96 129 172 217 261 300
#     4   9  18  32  50  74 107 144 172 197 239 294
#
# _framework density 17.65579
#
# number of rings (size 3 to 8) (size 9 to 14) (size 15 to 20)
#    0.000    2.538    0.769    2.077    1.077    5.231 
#    1.385    1.538    0.000    0.000    0.000    0.000 
#    0.000    3.692    0.000    0.000    0.000    0.000 
#
# Total GULP energy -644252.400796 kJ/mol
# GULP energy per Si atom -12389.469246 kJ/mol
# Density = 1.761560 g / cm^3
# Si number density = 17.655790 Si / 1000 Ang^3
#
#
#
# Elastic Constant Matrix: (Units=GPa)
#
#
# Indices 1 2 3 4 5 6 
#
# 1 138.4115 19.6602 82.5833 0.0000 0.0000 0.0000
# 2 19.6602 37.9135 39.6407 0.0000 0.0000 0.0000
# 3 82.5833 39.6407 170.9950 0.0000 0.0000 0.0000
# 4 0.0000 0.0000 0.0000 13.5880 0.0000 0.0000
# 5 0.0000 0.0000 0.0000 0.0000 45.9650 0.0000
# 6 0.0000 0.0000 0.0000 0.0000 0.0000 8.4583
#
#
#
# Elastic Compliance Matrix: (Units=1/GPa)
#
#
# Indices 1 2 3 4 5 6 
#
# 1 0.010150 -0.000182 -0.004860 0.000000 0.000000 0.000000
# 2 -0.000182 0.034818 -0.007984 0.000000 0.000000 0.000000
# 3 -0.004860 -0.007984 0.010046 0.000000 0.000000 0.000000
# 4 0.000000 0.000000 0.000000 0.073595 0.000000 0.000000
# 5 0.000000 0.000000 0.000000 0.000000 0.021756 0.000000
# 6 0.000000 0.000000 0.000000 0.000000 0.000000 0.118227
#
#
# Mechanical properties :
#
#
# Convention : Reuss Voigt Hill
#
# Bulk Modulus (GPa) = 34.52725 70.12092 52.32408
# Shear Modulus (GPa) = 16.43130 27.29797 21.86463
#
# Velocity S-wave (km/s) = 3.05396 3.93634 3.52288
# Velocity P-wave (km/s) = 5.65984 7.77570 6.80056
#
# Compressibility (1/GPa) = 0.02896263
#
# Stress axis : x y z
#
# Youngs Moduli (GPa) = 98.51804 28.72114 99.54144
#
# Poissons Ratio (x) = 0.00523 0.48377
# Poissons Ratio (y) = 0.01795 0.79469
# Poissons Ratio (z) = 0.47880 0.22930
#
# Static dielectric constant tensor:
#      x y z
#    x 3.634020 0.000000 0.000000 
#    y 0.000000 3.062210 0.000000 
#    z 0.000000 0.000000 3.421480 
# 
# 
# High freq. dielectric constant tensor:
#      x y z
#    x 1.698220 0.000000 0.000000 
#    y 0.000000 1.652130 0.000000 
#    z 0.000000 0.000000 1.673900 
# 
# From -- ./inp_files/29680.got.cif
#   From: 2010.03.12/outbox.cif.g09.slc.cpg/sg47_15_cif.got.tgz:29680.got - 2010.04.14 03:12:58.
