data_PCOD8195011
_publ_section_title
;
Structure prediction by ZEFSAII (Michael W. Deem and Ramdas Pophale) SiO2 
 PCOD8195011
Probable space group: P M M M
;
_chemical_formula_sum "Si O2"
_cell_formula_units_Z 52
_cell_length_a 17.672293
_cell_length_b 9.451335
_cell_length_c 17.436009
_cell_angle_alpha 90.000000
_cell_angle_beta 90.000000
_cell_angle_gamma 90.000000
_cell_volume 2912.280114
_symmetry_space_group_name_H-M "P M M M"
_symmetry_group_IT_number 47
_symmetry_cell_setting 'orthorhombic'
loop_
_space_group_symop_operation_xyz
x,y,z
-x,-y,z
x,-y,-z
-x,y,-z
-x,-y,-z
x,y,-z
-x,y,z
x,-y,z
loop_
_atom_site_type_symbol
_atom_site_label
_atom_site_fract_x
_atom_site_fract_y
_atom_site_fract_z
Si Si1 0.914765 0.165639 0.744061
Si Si2 0.216934 0.659186 0.193425
Si Si3 0.414355 0.159155 0.410919
Si Si4 0.500000 0.838298 0.091172
Si Si5 0.284668 0.659170 0.639534
Si Si6 0.645821 0.335544 0.089828
Si Si7 0.152492 0.162654 0.584178
O O1 0.858120 0.244497 0.802286
O O2 0.902060 0.207972 0.654370
O O3 0.000000 0.210520 0.765314
O O4 0.901945 0.000000 0.755768
O O5 0.191075 0.500000 0.172871
O O6 0.258602 0.663982 0.273740
O O7 0.276556 0.715925 0.130375
O O8 0.407744 0.196991 0.500000
O O9 0.500000 0.174022 0.382448
O O10 0.366641 0.270045 0.362129
O O11 0.385121 0.000000 0.395855
O O12 0.424871 0.756996 0.120696
O O13 0.500000 0.000000 0.122042
O O14 0.500000 0.835854 0.000000
O O15 0.289245 0.500000 0.608246
O O16 0.228324 0.745397 0.585026
O O17 0.629404 0.500000 0.109201
O O18 0.657765 0.312007 0.000000
O O19 0.113523 0.185510 0.500000
O O20 0.176367 0.000000 0.594450
#
# Coordination Sequence:
#
# PCOD8195011 Si02
#       7
#     8   8   8   4   8   8   8
#     4   9  18  32  50  72  97 126 160 197 238 287
#     4   9  19  34  50  71  97 125 158 195 237 285
#     4   9  18  32  47  61  81 114 156 198 235 273
#     4   9  17  29  47  75 107 131 154 189 234 281
#     4  10  19  30  44  64  91 119 149 190 238 283
#     4   9  17  32  54  75  97 130 168 200 233 279
#     4   9  17  29  46  67  91 121 155 192 234 279
#
# _framework density 17.855425
#
# number of rings (size 3 to 8) (size 9 to 14) (size 15 to 20)
#    0.000    2.846    0.000    1.615    0.000    5.538 
#    1.385    2.308    0.000    0.462    0.000    7.538 
#    0.000    0.000    0.000    0.000    0.000    0.000 
#
# Total GULP energy -644642.501056 kJ/mol
# GULP energy per Si atom -12396.971174 kJ/mol
# Density = 1.781479 g / cm^3
# Si number density = 17.855425 Si / 1000 Ang^3
#
#
#
# Elastic Constant Matrix: (Units=GPa)
#
#
# Indices 1 2 3 4 5 6 
#
# 1 139.7460 69.4883 39.4934 0.0000 0.0000 0.0000
# 2 69.4883 89.7164 25.1410 0.0000 0.0000 0.0000
# 3 39.4934 25.1410 40.6525 0.0000 0.0000 0.0000
# 4 0.0000 0.0000 0.0000 20.1738 0.0000 0.0000
# 5 0.0000 0.0000 0.0000 0.0000 20.8264 0.0000
# 6 0.0000 0.0000 0.0000 0.0000 0.0000 28.6686
#
#
#
# Elastic Compliance Matrix: (Units=1/GPa)
#
#
# Indices 1 2 3 4 5 6 
#
# 1 0.013514 -0.008211 -0.008051 0.000000 0.000000 0.000000
# 2 -0.008211 0.018472 -0.003447 0.000000 0.000000 0.000000
# 3 -0.008051 -0.003447 0.034551 0.000000 0.000000 0.000000
# 4 0.000000 0.000000 0.000000 0.049569 0.000000 0.000000
# 5 0.000000 0.000000 0.000000 0.000000 0.048016 0.000000
# 6 0.000000 0.000000 0.000000 0.000000 0.000000 0.034881
#
#
# Mechanical properties :
#
#
# Convention : Reuss Voigt Hill
#
# Bulk Modulus (GPa) = 36.87265 59.81784 48.34524
# Shear Modulus (GPa) = 20.20524 22.99991 21.60258
#
# Velocity S-wave (km/s) = 3.36758 3.59293 3.48208
# Velocity P-wave (km/s) = 5.98467 7.12644 6.58037
#
# Compressibility (1/GPa) = 0.02712037
#
# Stress axis : x y z
#
# Youngs Moduli (GPa) = 73.99797 54.13666 28.94234
#
# Poissons Ratio (x) = 0.44451 0.23300
# Poissons Ratio (y) = 0.60759 0.09976
# Poissons Ratio (z) = 0.59573 0.18660
#
# Static dielectric constant tensor:
#      x y z
#    x 3.327190 0.000000 0.000000 
#    y 0.000000 3.422270 0.000000 
#    z 0.000000 0.000000 3.087610 
# 
# 
# High freq. dielectric constant tensor:
#      x y z
#    x 1.684670 0.000000 0.000000 
#    y 0.000000 1.689970 0.000000 
#    z 0.000000 0.000000 1.664130 
# 
# From -- ./inp_files/9566.got.cif
#   From: 2010.03.12/outbox.cif.g09.slc.cpg/sg47_5_cif.got.tgz:9566.got - 2010.04.14 03:12:58.
