data_PCOD8195069
_publ_section_title
;
Structure prediction by ZEFSAII (Michael W. Deem and Ramdas Pophale) SiO2 
 PCOD8195069
Probable space group: P M M M
;
_chemical_formula_sum "Si O2"
_cell_formula_units_Z 52
_cell_length_a 13.717549
_cell_length_b 9.322000
_cell_length_c 26.300000
_cell_angle_alpha 90.000000
_cell_angle_beta 90.000000
_cell_angle_gamma 90.000000
_cell_volume 3363.112284
_symmetry_space_group_name_H-M "P M M M"
_symmetry_group_IT_number 47
_symmetry_cell_setting 'orthorhombic'
loop_
_space_group_symop_operation_xyz
x,y,z
-x,-y,z
x,-y,-z
-x,y,-z
-x,-y,-z
x,y,-z
-x,y,z
x,-y,z
loop_
_atom_site_type_symbol
_atom_site_label
_atom_site_fract_x
_atom_site_fract_y
_atom_site_fract_z
Si Si1 0.225155 0.331832 0.641313
Si Si2 0.111760 0.164111 0.441082
Si Si3 0.615771 0.842779 0.000000
Si Si4 0.888880 0.667252 0.742548
Si Si5 0.272934 0.167347 0.794766
Si Si6 0.612208 0.166415 0.693697
Si Si7 0.609408 0.171935 0.109042
O O1 0.241028 0.500000 0.634300
O O2 0.182192 0.268298 0.589708
O O3 0.150467 0.295208 0.686610
O O4 0.329305 0.259810 0.652623
O O5 0.137778 0.183131 0.500000
O O6 0.000000 0.208223 0.431014
O O7 0.128879 0.000000 0.424073
O O8 0.645518 0.766432 0.946423
O O9 0.500000 0.858838 0.000000
O O10 0.664382 0.000000 0.000000
O O11 0.878558 0.500000 0.754010
O O12 0.828165 0.751201 0.785186
O O13 0.000000 0.719319 0.745602
O O14 0.350097 0.199892 0.750308
O O15 0.318478 0.227537 0.847139
O O16 0.249374 0.000000 0.798538
O O17 0.500000 0.212251 0.690812
O O18 0.626849 0.000000 0.680249
O O19 0.500000 0.226820 0.121078
O O20 0.608692 0.000000 0.107349
#
# Coordination Sequence:
#
# PCOD8195069 Si02
#       7
#     8   8   4   8   8   8   8
#     4  10  19  30  46  67  89 113 141 173 209 248
#     4   9  18  32  49  69  92 116 141 170 206 249
#     4   7  10  16  28  50  80 111 136 158 195 247
#     4   9  18  31  43  57  82 113 140 167 204 250
#     4   9  16  25  40  63  85 106 137 175 209 241
#     4   9  17  29  44  62  86 116 146 173 205 247
#     4   8  12  19  33  55  84 112 135 163 201 245
#
# _framework density 15.461869
#
# number of rings (size 3 to 8) (size 9 to 14) (size 15 to 20)
#    0.000    3.154    0.000    2.769    0.000    4.308 
#    0.000    0.769    0.000    1.846    0.000    4.308 
#    0.000    6.154    0.000    0.000    0.000    0.000 
#
# Total GULP energy -644558.947470 kJ/mol
# GULP energy per Si atom -12395.364374 kJ/mol
# Density = 1.542668 g / cm^3
# Si number density = 15.461869 Si / 1000 Ang^3
#
#
#
# Elastic Constant Matrix: (Units=GPa)
#
#
# Indices 1 2 3 4 5 6 
#
# 1 115.4735 44.2066 56.7639 0.0000 0.0000 0.0000
# 2 44.2066 45.8308 39.1725 0.0000 0.0000 0.0000
# 3 56.7639 39.1725 97.5717 0.0000 0.0000 0.0000
# 4 0.0000 0.0000 0.0000 12.0694 0.0000 0.0000
# 5 0.0000 0.0000 0.0000 0.0000 25.9390 0.0000
# 6 0.0000 0.0000 0.0000 0.0000 0.0000 19.0342
#
#
#
# Elastic Compliance Matrix: (Units=1/GPa)
#
#
# Indices 1 2 3 4 5 6 
#
# 1 0.014878 -0.010585 -0.004406 0.000000 0.000000 0.000000
# 2 -0.010585 0.040749 -0.010202 0.000000 0.000000 0.000000
# 3 -0.004406 -0.010202 0.016908 0.000000 0.000000 0.000000
# 4 0.000000 0.000000 0.000000 0.082854 0.000000 0.000000
# 5 0.000000 0.000000 0.000000 0.000000 0.038552 0.000000
# 6 0.000000 0.000000 0.000000 0.000000 0.000000 0.052537
#
#
# Mechanical properties :
#
#
# Convention : Reuss Voigt Hill
#
# Bulk Modulus (GPa) = 45.14760 59.90690 52.52725
# Shear Modulus (GPa) = 16.43406 19.32403 17.87904
#
# Velocity S-wave (km/s) = 3.26372 3.53907 3.40418
# Velocity P-wave (km/s) = 6.59281 7.45178 7.03542
#
# Compressibility (1/GPa) = 0.02214957
#
# Stress axis : x y z
#
# Youngs Moduli (GPa) = 67.21286 24.54061 59.14419
#
# Poissons Ratio (x) = 0.25976 0.26059
# Poissons Ratio (y) = 0.71144 0.60337
# Poissons Ratio (z) = 0.29614 0.25035
#
# Static dielectric constant tensor:
#      x y z
#    x 2.873010 0.000000 0.000000 
#    y 0.000000 2.734050 0.000000 
#    z 0.000000 0.000000 3.087300 
# 
# 
# High freq. dielectric constant tensor:
#      x y z
#    x 1.575160 0.000000 0.000000 
#    y 0.000000 1.570000 0.000000 
#    z 0.000000 0.000000 1.589990 
# 
# From -- ./inp_files/13385.got.cif
#   From: 2010.03.12/outbox.cif.g09.slc.cpg/sg47_7_cif.got.tgz:13385.got - 2010.04.14 03:12:58.
