data_PCOD8195243
_publ_section_title
;
Structure prediction by ZEFSAII (Michael W. Deem and Ramdas Pophale) SiO2 
 PCOD8195243
Probable space group: P M M M
;
_chemical_formula_sum "Si O2"
_cell_formula_units_Z 48
_cell_length_a 7.803446
_cell_length_b 34.000104
_cell_length_c 9.311255
_cell_angle_alpha 90.000000
_cell_angle_beta 90.000000
_cell_angle_gamma 90.000000
_cell_volume 2470.443327
_symmetry_space_group_name_H-M "P M M M"
_symmetry_group_IT_number 47
_symmetry_cell_setting 'orthorhombic'
loop_
_space_group_symop_operation_xyz
x,y,z
-x,-y,z
x,-y,-z
-x,y,-z
-x,-y,-z
x,y,-z
-x,y,z
x,-y,z
loop_
_atom_site_type_symbol
_atom_site_label
_atom_site_fract_x
_atom_site_fract_y
_atom_site_fract_z
Si Si1 0.197165 0.116612 0.342141
Si Si2 0.796651 0.189788 0.164665
Si Si3 0.000000 0.402937 0.828562
Si Si4 0.297920 0.044208 0.838547
Si Si5 0.690363 0.544010 0.829490
Si Si6 0.000000 0.678422 0.667584
Si Si7 0.692872 0.264759 0.663810
O O1 0.285464 0.116510 0.500000
O O2 0.277428 0.150722 0.242539
O O3 0.212865 0.073988 0.271429
O O4 0.000000 0.126659 0.361148
O O5 0.708522 0.227173 0.235550
O O6 0.000000 0.193623 0.179293
O O7 0.738992 0.187291 0.000000
O O8 0.167735 0.425898 0.770396
O O9 0.000000 0.360162 0.762285
O O10 0.000000 0.399487 0.000000
O O11 0.500000 0.048718 0.830426
O O12 0.242699 0.000000 0.795353
O O13 0.233816 0.053506 0.000000
O O14 0.500000 0.557405 0.778778
O O15 0.729439 0.500000 0.771666
O O16 0.698658 0.543244 0.000000
O O17 0.170336 0.702445 0.710788
O O18 0.000000 0.667433 0.500000
O O19 0.730514 0.251695 0.500000
O O20 0.500000 0.281972 0.679293
#
# Coordination Sequence:
#
# PCOD8195243 Si02
#       7
#     8   8   4   8   8   4   8
#     4  10  21  35  53  79 109 140 173 210 254 307
#     4  10  20  35  57  82 108 136 168 213 270 323
#     4  10  19  30  50  78 104 136 182 227 269 322
#     4   9  19  36  55  74 100 136 176 218 263 309
#     4   8  14  26  46  74 107 140 177 226 279 324
#     4  10  22  39  55  75 110 148 179 223 274 326
#     4  10  21  38  60  81 102 138 184 223 268 326
#
# _framework density 19.42971
#
# number of rings (size 3 to 8) (size 9 to 14) (size 15 to 20)
#    0.000    2.500    0.833    2.250    0.000    6.000 
#    0.000    2.500    0.000    1.000    0.000    1.167 
#    0.000    0.000    0.000    0.000    0.000    0.000 
#
# Total GULP energy -595106.131552 kJ/mol
# GULP energy per Si atom -12398.044407 kJ/mol
# Density = 1.938549 g / cm^3
# Si number density = 19.429710 Si / 1000 Ang^3
#
#
#
# Elastic Constant Matrix: (Units=GPa)
#
#
# Indices 1 2 3 4 5 6 
#
# 1 97.0351 64.2030 39.5826 0.0000 0.0000 0.0000
# 2 64.2030 150.2016 68.9389 0.0000 0.0000 0.0000
# 3 39.5826 68.9389 97.7194 0.0000 0.0000 0.0000
# 4 0.0000 0.0000 0.0000 4.4763 0.0000 0.0000
# 5 0.0000 0.0000 0.0000 0.0000 17.2293 0.0000
# 6 0.0000 0.0000 0.0000 0.0000 0.0000 1.6836
#
#
#
# Elastic Compliance Matrix: (Units=1/GPa)
#
#
# Indices 1 2 3 4 5 6 
#
# 1 0.014696 -0.005249 -0.002250 0.000000 0.000000 0.000000
# 2 -0.005249 0.011721 -0.006142 0.000000 0.000000 0.000000
# 3 -0.002250 -0.006142 0.015478 0.000000 0.000000 0.000000
# 4 0.000000 0.000000 0.000000 0.223401 0.000000 0.000000
# 5 0.000000 0.000000 0.000000 0.000000 0.058041 0.000000
# 6 0.000000 0.000000 0.000000 0.000000 0.000000 0.593950
#
#
# Mechanical properties :
#
#
# Convention : Reuss Voigt Hill
#
# Bulk Modulus (GPa) = 68.43566 76.71169 72.57367
# Shear Modulus (GPa) = 5.26626 16.15995 10.71310
#
# Velocity S-wave (km/s) = 1.64812 2.88707 2.35069
# Velocity P-wave (km/s) = 6.23862 7.11905 6.69333
#
# Compressibility (1/GPa) = 0.01461227
#
# Stress axis : x y z
#
# Youngs Moduli (GPa) = 68.04349 85.31867 64.60792
#
# Poissons Ratio (x) = 0.44787 0.14535
# Poissons Ratio (y) = 0.35719 0.39685
# Poissons Ratio (z) = 0.15308 0.52406
#
# Static dielectric constant tensor:
#      x y z
#    x 3.658080 0.000000 0.000000 
#    y 0.000000 3.526990 0.000000 
#    z 0.000000 0.000000 3.487120 
# 
# 
# High freq. dielectric constant tensor:
#      x y z
#    x 1.757780 0.000000 0.000000 
#    y 0.000000 1.751570 0.000000 
#    z 0.000000 0.000000 1.736690 
# 
# From -- ./inp_files/2623.got.cif
#   From: 2010.03.12/outbox.cif.g09.slc.cpg/sg47_2_cif.got.tgz:2623.got - 2010.04.14 03:12:58.
