data_PCOD8195974
_publ_section_title
;
Structure prediction by ZEFSAII (Michael W. Deem and Ramdas Pophale) SiO2 
 PCOD8195974
Probable space group: P M M M
;
_chemical_formula_sum "Si O2"
_cell_formula_units_Z 64
_cell_length_a 18.537921
_cell_length_b 13.968686
_cell_length_c 13.907321
_cell_angle_alpha 90.000000
_cell_angle_beta 90.000000
_cell_angle_gamma 90.000000
_cell_volume 3601.306302
_symmetry_space_group_name_H-M "P M M M"
_symmetry_group_IT_number 47
_symmetry_cell_setting 'orthorhombic'
loop_
_space_group_symop_operation_xyz
x,y,z
-x,-y,z
x,-y,-z
-x,y,-z
-x,-y,-z
x,y,-z
-x,y,z
x,-y,z
loop_
_atom_site_type_symbol
_atom_site_label
_atom_site_fract_x
_atom_site_fract_y
_atom_site_fract_z
Si Si1 0.202784 0.605515 0.656697
Si Si2 0.261731 0.892587 0.275237
Si Si3 0.805811 0.223204 0.893672
Si Si4 0.919639 0.274225 0.260716
Si Si5 0.327301 0.264756 0.393811
Si Si6 0.418789 0.611091 0.737365
Si Si7 0.882604 0.107356 0.610635
Si Si8 0.285471 0.604086 0.145092
O O1 0.194992 0.500000 0.608468
O O2 0.123373 0.649213 0.674175
O O3 0.251176 0.678197 0.594760
O O4 0.243423 0.595496 0.756110
O O5 0.233893 0.855758 0.171734
O O6 0.322855 0.822930 0.317791
O O7 0.199761 0.890060 0.355137
O O8 0.292026 0.000000 0.261442
O O9 0.879056 0.256077 0.840490
O O10 0.752480 0.312708 0.915097
O O11 0.824584 0.181308 0.000000
O O12 0.928694 0.176904 0.321816
O O13 0.000000 0.313080 0.238013
O O14 0.348038 0.227216 0.500000
O O15 0.391045 0.332554 0.356215
O O16 0.500000 0.642967 0.763140
O O17 0.414773 0.500000 0.709333
O O18 0.368565 0.631440 0.830724
O O19 0.886704 0.141002 0.500000
O O20 0.913841 0.000000 0.621569
O O21 0.282049 0.500000 0.092182
#
# Coordination Sequence:
#
# PCOD8195974 Si02
#       8
#     8   8   8   8   8   8   8   8
#     4   9  17  31  48  67  95 132 171 206 242 287
#     4  10  19  33  52  76 101 125 165 218 264 303
#     4  10  19  34  54  76 100 129 167 211 260 312
#     4  10  20  33  47  71 104 135 165 206 255 306
#     4  11  19  31  52  77 104 136 173 210 250 295
#     4   9  17  30  50  78 114 149 174 199 238 292
#     4   9  17  31  51  72  94 124 165 210 253 297
#     4   8  14  29  51  75 100 130 168 206 244 288
#
# _framework density 17.771329000000001
#
# number of rings (size 3 to 8) (size 9 to 14) (size 15 to 20)
#    0.000    2.500    5.000    1.500    0.000    3.500 
#    0.000    1.250    0.000    0.750    0.000   11.375 
#    0.000    1.000    0.000    0.000    0.000    0.000 
#
# Total GULP energy -793048.129809 kJ/mol
# GULP energy per Si atom -12391.377028 kJ/mol
# Density = 1.773088 g / cm^3
# Si number density = 17.771329 Si / 1000 Ang^3
#
#
#
# Elastic Constant Matrix: (Units=GPa)
#
#
# Indices 1 2 3 4 5 6 
#
# 1 106.2430 33.0573 24.3857 0.0000 0.0000 0.0000
# 2 33.0573 97.2976 24.0869 0.0000 0.0000 0.0000
# 3 24.3857 24.0869 89.2636 0.0000 0.0000 0.0000
# 4 0.0000 0.0000 0.0000 2.4890 0.0000 0.0000
# 5 0.0000 0.0000 0.0000 0.0000 9.3286 0.0000
# 6 0.0000 0.0000 0.0000 0.0000 0.0000 16.4486
#
#
#
# Elastic Compliance Matrix: (Units=1/GPa)
#
#
# Indices 1 2 3 4 5 6 
#
# 1 0.010886 -0.003174 -0.002117 0.000000 0.000000 0.000000
# 2 -0.003174 0.011939 -0.002354 0.000000 0.000000 0.000000
# 3 -0.002117 -0.002354 0.012417 0.000000 0.000000 0.000000
# 4 0.000000 0.000000 0.000000 0.401764 0.000000 0.000000
# 5 0.000000 0.000000 0.000000 0.000000 0.107197 0.000000
# 6 0.000000 0.000000 0.000000 0.000000 0.000000 0.060795
#
#
# Mechanical properties :
#
#
# Convention : Reuss Voigt Hill
#
# Bulk Modulus (GPa) = 50.12704 50.65153 50.38928
# Shear Modulus (GPa) = 7.97523 19.73820 13.85672
#
# Velocity S-wave (km/s) = 2.12072 3.33630 2.79538
# Velocity P-wave (km/s) = 5.85359 6.58824 6.23175
#
# Compressibility (1/GPa) = 0.01994931
#
# Stress axis : x y z
#
# Youngs Moduli (GPa) = 91.86033 83.75814 80.53783
#
# Poissons Ratio (x) = 0.26588 0.17053
# Poissons Ratio (y) = 0.29160 0.18962
# Poissons Ratio (z) = 0.19450 0.19720
#
# Static dielectric constant tensor:
#      x y z
#    x 3.207010 0.000000 0.000000 
#    y 0.000000 3.636840 0.000000 
#    z 0.000000 0.000000 3.034360 
# 
# 
# High freq. dielectric constant tensor:
#      x y z
#    x 1.658790 0.000000 0.000000 
#    y 0.000000 1.685380 0.000000 
#    z 0.000000 0.000000 1.671750 
# 
# From -- ./inp_files/24775.got.cif
#   From: 2010.03.12/outbox.cif.g09.slc.cpg/sg47_13_cif.got.tgz:24775.got - 2010.04.14 03:12:58.
