data_PCOD8195506
_publ_section_title
;
Structure prediction by ZEFSAII (Michael W. Deem and Ramdas Pophale) SiO2 
 PCOD8195506
Probable space group: P M M M
;
_chemical_formula_sum "Si O2"
_cell_formula_units_Z 64
_cell_length_a 15.601763
_cell_length_b 9.361952
_cell_length_c 23.461860
_cell_angle_alpha 90.000000
_cell_angle_beta 90.000000
_cell_angle_gamma 90.000000
_cell_volume 3426.908632
_symmetry_space_group_name_H-M "P M M M"
_symmetry_group_IT_number 47
_symmetry_cell_setting 'orthorhombic'
loop_
_space_group_symop_operation_xyz
x,y,z
-x,-y,z
x,-y,-z
-x,y,-z
-x,-y,-z
x,y,-z
-x,y,z
x,-y,z
loop_
_atom_site_type_symbol
_atom_site_label
_atom_site_fract_x
_atom_site_fract_y
_atom_site_fract_z
Si Si1 0.736780 0.168841 0.436751
Si Si2 0.407402 0.661573 0.880653
Si Si3 0.901387 0.166373 0.631366
Si Si4 0.354725 0.836562 0.222448
Si Si5 0.170905 0.164646 0.168281
Si Si6 0.233865 0.666789 0.064757
Si Si7 0.902273 0.656725 0.261621
Si Si8 0.402546 0.830048 0.347464
O O1 0.722461 0.233026 0.500000
O O2 0.834483 0.206879 0.418419
O O3 0.663671 0.232730 0.394572
O O4 0.725965 0.000000 0.438110
O O5 0.500000 0.678551 0.911280
O O6 0.390841 0.500000 0.861054
O O7 0.410739 0.753332 0.823377
O O8 0.333608 0.707266 0.924869
O O9 0.865474 0.251398 0.686037
O O10 0.000000 0.204636 0.613688
O O11 0.895146 0.000000 0.647345
O O12 0.255928 0.817856 0.205917
O O13 0.372422 0.773889 0.285376
O O14 0.384037 0.000000 0.219628
O O15 0.177194 0.234560 0.105781
O O16 0.101347 0.254595 0.202940
O O17 0.143480 0.000000 0.161225
O O18 0.216086 0.500000 0.077255
O O19 0.210347 0.705403 0.000000
O O20 0.856740 0.500000 0.256679
O O21 0.000000 0.630151 0.275857
O O22 0.500000 0.778393 0.360447
O O23 0.398018 0.000000 0.347931
#
# Coordination Sequence:
#
# PCOD8195506 Si02
#       8
#     8   8   8   8   8   8   8   8
#     4   9  17  28  42  63  92 124 161 204 243 284
#     4   9  17  28  43  66  94 121 154 199 245 287
#     4   9  17  30  49  72  98 127 157 192 238 290
#     4   9  17  29  45  65  90 121 156 194 241 295
#     4  10  19  31  50  73  97 126 158 196 240 283
#     4   9  18  32  48  66  92 129 169 204 239 281
#     4  10  20  33  51  76 103 127 151 183 229 287
#     4   9  16  25  39  60  87 121 159 198 241 288
#
# _framework density 18.675725
#
# number of rings (size 3 to 8) (size 9 to 14) (size 15 to 20)
#    0.000    2.750    0.000    1.875    0.000    5.000 
#    0.000    3.750    0.000    0.750    0.000    7.875 
#    0.000    0.000    0.000    5.375    0.000    5.500 
#
# Total GULP energy -793186.214754 kJ/mol
# GULP energy per Si atom -12393.534606 kJ/mol
# Density = 1.863322 g / cm^3
# Si number density = 18.675725 Si / 1000 Ang^3
#
#
#
# Elastic Constant Matrix: (Units=GPa)
#
#
# Indices 1 2 3 4 5 6 
#
# 1 55.6551 14.3759 33.7800 0.0000 0.0000 0.0000
# 2 14.3759 62.1377 39.6602 0.0000 0.0000 0.0000
# 3 33.7800 39.6602 126.2960 0.0000 0.0000 0.0000
# 4 0.0000 0.0000 0.0000 12.1381 0.0000 0.0000
# 5 0.0000 0.0000 0.0000 0.0000 21.1051 0.0000
# 6 0.0000 0.0000 0.0000 0.0000 0.0000 14.8721
#
#
#
# Elastic Compliance Matrix: (Units=1/GPa)
#
#
# Indices 1 2 3 4 5 6 
#
# 1 0.021582 -0.001637 -0.005259 0.000000 0.000000 0.000000
# 2 -0.001637 0.020252 -0.005922 0.000000 0.000000 0.000000
# 3 -0.005259 -0.005922 0.011184 0.000000 0.000000 0.000000
# 4 0.000000 0.000000 0.000000 0.082385 0.000000 0.000000
# 5 0.000000 0.000000 0.000000 0.000000 0.047382 0.000000
# 6 0.000000 0.000000 0.000000 0.000000 0.000000 0.067240
#
#
# Mechanical properties :
#
#
# Convention : Reuss Voigt Hill
#
# Bulk Modulus (GPa) = 36.51814 46.63566 41.57690
# Shear Modulus (GPa) = 17.55698 20.04125 18.79911
#
# Velocity S-wave (km/s) = 3.06942 3.27940 3.17615
# Velocity P-wave (km/s) = 5.67081 6.27414 5.98009
#
# Compressibility (1/GPa) = 0.02738365
#
# Stress axis : x y z
#
# Youngs Moduli (GPa) = 46.33429 49.37884 89.41372
#
# Poissons Ratio (x) = 0.08083 0.47019
# Poissons Ratio (y) = 0.07584 0.52948
# Poissons Ratio (z) = 0.24365 0.29241
#
# Static dielectric constant tensor:
#      x y z
#    x 3.402550 0.000000 0.000000 
#    y 0.000000 3.353240 0.000000 
#    z 0.000000 0.000000 3.430950 
# 
# 
# High freq. dielectric constant tensor:
#      x y z
#    x 1.718100 0.000000 0.000000 
#    y 0.000000 1.694590 0.000000 
#    z 0.000000 0.000000 1.716740 
# 
# From -- ./inp_files/28787.got.cif
#   From: 2010.03.12/outbox.cif.g09.slc.cpg/sg47_15_cif.got.tgz:28787.got - 2010.04.14 03:12:58.
