data_PCOD8195492
_publ_section_title
;
Structure prediction by ZEFSAII (Michael W. Deem and Ramdas Pophale) SiO2 
 PCOD8195492
Probable space group: P M M M
;
_chemical_formula_sum "Si O2"
_cell_formula_units_Z 64
_cell_length_a 19.589508
_cell_length_b 9.009788
_cell_length_c 20.900612
_cell_angle_alpha 90.000000
_cell_angle_beta 90.000000
_cell_angle_gamma 90.000000
_cell_volume 3688.901881
_symmetry_space_group_name_H-M "P M M M"
_symmetry_group_IT_number 47
_symmetry_cell_setting 'orthorhombic'
loop_
_space_group_symop_operation_xyz
x,y,z
-x,-y,z
x,-y,-z
-x,y,-z
-x,-y,-z
x,y,-z
-x,y,z
x,-y,z
loop_
_atom_site_type_symbol
_atom_site_label
_atom_site_fract_x
_atom_site_fract_y
_atom_site_fract_z
Si Si1 0.923048 0.673076 0.266772
Si Si2 0.293533 0.175703 0.814694
Si Si3 0.926499 0.324267 0.878070
Si Si4 0.792413 0.176166 0.691348
Si Si5 0.577212 0.326984 0.767635
Si Si6 0.575807 0.169462 0.635538
Si Si7 0.710796 0.174587 0.569746
Si Si8 0.215288 0.673463 0.927660
O O1 0.905833 0.500000 0.271582
O O2 0.914905 0.731307 0.194288
O O3 0.869265 0.762406 0.309584
O O4 0.000000 0.704845 0.291476
O O5 0.249503 0.232171 0.753677
O O6 0.370203 0.238599 0.812119
O O7 0.261791 0.233240 0.880422
O O8 0.296562 0.000000 0.816529
O O9 0.930907 0.500000 0.877388
O O10 0.863488 0.271290 0.921532
O O11 0.000000 0.262325 0.903664
O O12 0.756499 0.240599 0.627261
O O13 0.794391 0.000000 0.690721
O O14 0.500000 0.292241 0.790887
O O15 0.593691 0.500000 0.772399
O O16 0.586926 0.277139 0.694898
O O17 0.500000 0.189043 0.606144
O O18 0.631024 0.211059 0.581874
O O19 0.587312 0.000000 0.659594
O O20 0.730489 0.242730 0.500000
O O21 0.722433 0.000000 0.567683
O O22 0.220881 0.500000 0.909946
O O23 0.239512 0.703490 0.000000
#
# Coordination Sequence:
#
# PCOD8195492 Si02
#       8
#     8   8   8   8   8   8   8   8
#     4   9  17  30  50  74  98 127 164 207 254 300
#     4  11  21  34  53  76 103 135 171 211 252 297
#     4   8  14  26  45  71 101 131 166 204 241 287
#     4  10  19  31  49  75 100 129 169 210 254 298
#     4  10  20  33  52  78 104 131 166 209 255 299
#     4   9  16  28  47  72 103 136 169 203 243 295
#     4   9  17  30  47  70 102 135 170 213 254 294
#     4  10  20  33  51  76 105 138 174 209 249 299
#
# _framework density 17.349336999999998
#
# number of rings (size 3 to 8) (size 9 to 14) (size 15 to 20)
#    0.000    2.500    2.500    1.500    0.000    2.250 
#    0.000    2.500    0.000    2.625    0.000    7.875 
#    0.000    0.000    0.000    0.000    0.000    0.000 
#
# Total GULP energy -793293.006982 kJ/mol
# GULP energy per Si atom -12395.203234 kJ/mol
# Density = 1.730985 g / cm^3
# Si number density = 17.349337 Si / 1000 Ang^3
#
#
#
# Elastic Constant Matrix: (Units=GPa)
#
#
# Indices 1 2 3 4 5 6 
#
# 1 116.2219 38.0276 61.6855 0.0000 0.0000 0.0000
# 2 38.0276 40.0448 31.5379 0.0000 0.0000 0.0000
# 3 61.6855 31.5379 104.0697 0.0000 0.0000 0.0000
# 4 0.0000 0.0000 0.0000 16.5955 0.0000 0.0000
# 5 0.0000 0.0000 0.0000 0.0000 23.5669 0.0000
# 6 0.0000 0.0000 0.0000 0.0000 0.0000 26.0027
#
#
#
# Elastic Compliance Matrix: (Units=1/GPa)
#
#
# Indices 1 2 3 4 5 6 
#
# 1 0.014837 -0.009409 -0.005943 0.000000 0.000000 0.000000
# 2 -0.009409 0.038768 -0.006171 0.000000 0.000000 0.000000
# 3 -0.005943 -0.006171 0.015002 0.000000 0.000000 0.000000
# 4 0.000000 0.000000 0.000000 0.060257 0.000000 0.000000
# 5 0.000000 0.000000 0.000000 0.000000 0.042432 0.000000
# 6 0.000000 0.000000 0.000000 0.000000 0.000000 0.038458
#
#
# Mechanical properties :
#
#
# Convention : Reuss Voigt Hill
#
# Bulk Modulus (GPa) = 39.12441 58.09316 48.60878
# Shear Modulus (GPa) = 19.13358 21.83871 20.48615
#
# Velocity S-wave (km/s) = 3.32451 3.55175 3.44001
# Velocity P-wave (km/s) = 6.11035 7.09768 6.62244
#
# Compressibility (1/GPa) = 0.02555949
#
# Stress axis : x y z
#
# Youngs Moduli (GPa) = 67.39795 25.79476 66.65897
#
# Poissons Ratio (x) = 0.24271 0.39616
# Poissons Ratio (y) = 0.63417 0.41136
# Poissons Ratio (z) = 0.40055 0.15918
#
# Static dielectric constant tensor:
#      x y z
#    x 3.565530 0.000000 0.000000 
#    y 0.000000 2.955420 0.000000 
#    z 0.000000 0.000000 3.144900 
# 
# 
# High freq. dielectric constant tensor:
#      x y z
#    x 1.679260 0.000000 0.000000 
#    y 0.000000 1.642420 0.000000 
#    z 0.000000 0.000000 1.643580 
# 
# From -- ./inp_files/31360.got.cif
#   From: 2010.03.12/outbox.cif.g09.slc.cpg/sg47_16_cif.got.tgz:31360.got - 2010.04.14 03:12:58.
