data_PCOD8195358
_publ_section_title
;
Structure prediction by ZEFSAII (Michael W. Deem and Ramdas Pophale) SiO2 
 PCOD8195358
Probable space group: P M M M
;
_chemical_formula_sum "Si O2"
_cell_formula_units_Z 40
_cell_length_a 18.417021
_cell_length_b 18.118395
_cell_length_c 7.980904
_cell_angle_alpha 90.000000
_cell_angle_beta 90.000000
_cell_angle_gamma 90.000000
_cell_volume 2663.122805
_symmetry_space_group_name_H-M "P M M M"
_symmetry_group_IT_number 47
_symmetry_cell_setting 'orthorhombic'
loop_
_space_group_symop_operation_xyz
x,y,z
-x,-y,z
x,-y,-z
-x,y,-z
-x,-y,-z
x,y,-z
-x,y,z
x,-y,z
loop_
_atom_site_type_symbol
_atom_site_label
_atom_site_fract_x
_atom_site_fract_y
_atom_site_fract_z
Si Si1 0.082926 0.765697 0.690667
Si Si2 0.581033 0.587477 0.000000
Si Si3 0.677135 0.414051 0.311405
Si Si4 0.080518 0.500000 0.800706
Si Si5 0.825064 0.364919 0.808151
Si Si6 0.914018 0.079585 0.810587
O O1 0.086356 0.739904 0.500000
O O2 0.135638 0.713888 0.797303
O O3 0.112391 0.850013 0.703742
O O4 0.000000 0.759747 0.759430
O O5 0.620673 0.614463 0.170588
O O6 0.576831 0.500000 0.000000
O O7 0.500000 0.621362 0.000000
O O8 0.645407 0.402461 0.500000
O O9 0.695632 0.500000 0.279514
O O10 0.750721 0.366660 0.296368
O O11 0.121343 0.572739 0.735122
O O12 0.000000 0.500000 0.722571
O O13 0.076025 0.500000 0.000000
O O14 0.805114 0.382002 0.000000
O O15 0.000000 0.076451 0.804445
O O16 0.884324 0.000000 0.741322
O O17 0.886689 0.090643 0.000000
#
# Coordination Sequence:
#
# PCOD8195358 Si02
#       6
#     8   4   8   4   8   8
#     4  10  20  30  39  57  84 110 143 188 230 267
#     4   9  18  32  50  70  90 110 137 174 215 259
#     4  10  19  31  48  67  88 114 144 177 218 265
#     4   9  18  28  41  59  75 103 149 194 231 264
#     4  11  19  30  46  59  81 113 149 187 226 266
#     4   8  14  26  43  59  74  97 133 176 223 272
#
# _framework density 15.019962
#
# number of rings (size 3 to 8) (size 9 to 14) (size 15 to 20)
#    0.000    2.400    2.000    2.400    0.000    2.800 
#    0.000    4.000    0.000    2.400    0.000    0.000 
#    0.000    0.000    0.000    0.000    0.000    2.000 
#
# Total GULP energy -495792.914852 kJ/mol
# GULP energy per Si atom -12394.822871 kJ/mol
# Density = 1.498578 g / cm^3
# Si number density = 15.019962 Si / 1000 Ang^3
#
#
#
# Elastic Constant Matrix: (Units=GPa)
#
#
# Indices 1 2 3 4 5 6 
#
# 1 83.2011 28.0753 32.9531 0.0000 0.0000 0.0000
# 2 28.0753 79.3360 15.7437 0.0000 0.0000 0.0000
# 3 32.9531 15.7437 72.1712 0.0000 0.0000 0.0000
# 4 0.0000 0.0000 0.0000 15.9721 0.0000 0.0000
# 5 0.0000 0.0000 0.0000 0.0000 13.9305 0.0000
# 6 0.0000 0.0000 0.0000 0.0000 0.0000 5.3775
#
#
#
# Elastic Compliance Matrix: (Units=1/GPa)
#
#
# Indices 1 2 3 4 5 6 
#
# 1 0.016024 -0.004409 -0.006355 0.000000 0.000000 0.000000
# 2 -0.004409 0.014388 -0.001125 0.000000 0.000000 0.000000
# 3 -0.006355 -0.001125 0.017003 0.000000 0.000000 0.000000
# 4 0.000000 0.000000 0.000000 0.062609 0.000000 0.000000
# 5 0.000000 0.000000 0.000000 0.000000 0.071785 0.000000
# 6 0.000000 0.000000 0.000000 0.000000 0.000000 0.185961
#
#
# Mechanical properties :
#
#
# Convention : Reuss Voigt Hill
#
# Bulk Modulus (GPa) = 42.30777 43.13916 42.72346
# Shear Modulus (GPa) = 12.51791 17.58510 15.05151
#
# Velocity S-wave (km/s) = 2.89003 3.42538 3.16903
# Velocity P-wave (km/s) = 6.27417 6.66542 6.47275
#
# Compressibility (1/GPa) = 0.02363632
#
# Stress axis : x y z
#
# Youngs Moduli (GPa) = 62.40717 69.50066 58.81360
#
# Poissons Ratio (x) = 0.30646 0.37373
# Poissons Ratio (y) = 0.27518 0.06619
# Poissons Ratio (z) = 0.39657 0.07822
#
# Static dielectric constant tensor:
#      x y z
#    x 2.652320 0.000000 0.000000 
#    y 0.000000 3.119040 0.000000 
#    z 0.000000 0.000000 2.892670 
# 
# 
# High freq. dielectric constant tensor:
#      x y z
#    x 1.526830 0.000000 0.000000 
#    y 0.000000 1.552120 0.000000 
#    z 0.000000 0.000000 1.581460 
# 
# From -- ./inp_files/9391.got.cif
#   From: 2010.03.12/outbox.cif.g09.slc.cpg/sg47_5_cif.got.tgz:9391.got - 2010.04.14 03:12:58.
