data_PCOD8195162
_publ_section_title
;
Structure prediction by ZEFSAII (Michael W. Deem and Ramdas Pophale) SiO2 
 PCOD8195162
Probable space group: P M M M
;
_chemical_formula_sum "Si O2"
_cell_formula_units_Z 52
_cell_length_a 22.622337
_cell_length_b 13.851135
_cell_length_c 9.377668
_cell_angle_alpha 90.000000
_cell_angle_beta 90.000000
_cell_angle_gamma 90.000000
_cell_volume 2938.445790
_symmetry_space_group_name_H-M "P M M M"
_symmetry_group_IT_number 47
_symmetry_cell_setting 'orthorhombic'
loop_
_space_group_symop_operation_xyz
x,y,z
-x,-y,z
x,-y,-z
-x,y,-z
-x,-y,-z
x,y,-z
-x,y,z
x,-y,z
loop_
_atom_site_type_symbol
_atom_site_label
_atom_site_fract_x
_atom_site_fract_y
_atom_site_fract_z
Si Si1 0.368907 0.891533 0.337498
Si Si2 0.667491 0.614237 0.842720
Si Si3 0.161725 0.780302 0.658719
Si Si4 0.068872 0.885641 0.500000
Si Si5 0.800439 0.610824 0.167132
Si Si6 0.742546 0.885682 0.839070
Si Si7 0.565038 0.293669 0.664183
O O1 0.345416 0.889257 0.500000
O O2 0.317626 0.850084 0.235666
O O3 0.424693 0.821192 0.317830
O O4 0.388299 0.000000 0.294609
O O5 0.670394 0.500000 0.845130
O O6 0.733608 0.649445 0.799519
O O7 0.616713 0.646377 0.736472
O O8 0.651742 0.653623 0.000000
O O9 0.189263 0.763685 0.500000
O O10 0.098389 0.834889 0.640022
O O11 0.155338 0.677433 0.739920
O O12 0.201513 0.850082 0.752575
O O13 0.000000 0.862789 0.500000
O O14 0.081796 0.000000 0.500000
O O15 0.808888 0.500000 0.215164
O O16 0.814558 0.621505 0.000000
O O17 0.743965 0.000000 0.837576
O O18 0.744371 0.844653 0.000000
O O19 0.566407 0.323817 0.500000
O O20 0.500000 0.317393 0.728607
#
# Coordination Sequence:
#
# PCOD8195162 Si02
#       7
#     8   8   8   4   8   8   8
#     4   9  18  32  49  68  94 127 163 206 259 317
#     4   9  19  35  53  72  96 128 163 202 254 313
#     4  10  20  30  53  81 106 139 180 218 252 300
#     4   9  20  38  57  79 111 151 187 218 252 288
#     4   9  18  34  55  81 113 141 168 212 271 326
#     4  10  19  30  47  74 106 133 162 210 271 328
#     4  10  21  34  47  66  92 124 167 213 256 304
#
# _framework density 17.696429999999999
#
# number of rings (size 3 to 8) (size 9 to 14) (size 15 to 20)
#    0.462    2.077    0.000    3.231    0.000    5.846 
#    0.000    4.615    0.000    2.769    0.000    9.692 
#    0.000    0.000    0.000    0.000    0.000    0.000 
#
# Total GULP energy -644490.132706 kJ/mol
# GULP energy per Si atom -12394.041014 kJ/mol
# Density = 1.765615 g / cm^3
# Si number density = 17.696430 Si / 1000 Ang^3
#
#
#
# Elastic Constant Matrix: (Units=GPa)
#
#
# Indices 1 2 3 4 5 6 
#
# 1 96.1853 43.4114 45.8118 0.0000 0.0000 0.0000
# 2 43.4114 47.5515 28.8341 0.0000 0.0000 0.0000
# 3 45.8118 28.8341 85.5408 0.0000 0.0000 0.0000
# 4 0.0000 0.0000 0.0000 32.0065 0.0000 0.0000
# 5 0.0000 0.0000 0.0000 0.0000 11.3405 0.0000
# 6 0.0000 0.0000 0.0000 0.0000 0.0000 22.0565
#
#
#
# Elastic Compliance Matrix: (Units=1/GPa)
#
#
# Indices 1 2 3 4 5 6 
#
# 1 0.019618 -0.014504 -0.005618 0.000000 0.000000 0.000000
# 2 -0.014504 0.037155 -0.004757 0.000000 0.000000 0.000000
# 3 -0.005618 -0.004757 0.016302 0.000000 0.000000 0.000000
# 4 0.000000 0.000000 0.000000 0.031244 0.000000 0.000000
# 5 0.000000 0.000000 0.000000 0.000000 0.088179 0.000000
# 6 0.000000 0.000000 0.000000 0.000000 0.000000 0.045338
#
#
# Mechanical properties :
#
#
# Convention : Reuss Voigt Hill
#
# Bulk Modulus (GPa) = 42.88282 51.71026 47.29654
# Shear Modulus (GPa) = 16.92814 20.49539 18.71176
#
# Velocity S-wave (km/s) = 3.09623 3.40687 3.25526
# Velocity P-wave (km/s) = 6.08829 6.69028 6.39637
#
# Compressibility (1/GPa) = 0.02331936
#
# Stress axis : x y z
#
# Youngs Moduli (GPa) = 50.97300 26.91415 61.34090
#
# Poissons Ratio (x) = 0.39036 0.34460
# Poissons Ratio (y) = 0.73930 0.29178
# Poissons Ratio (z) = 0.28635 0.12802
#
# Static dielectric constant tensor:
#      x y z
#    x 2.974460 0.000000 0.000000 
#    y 0.000000 3.382400 0.000000 
#    z 0.000000 0.000000 3.400790 
# 
# 
# High freq. dielectric constant tensor:
#      x y z
#    x 1.646270 0.000000 0.000000 
#    y 0.000000 1.700870 0.000000 
#    z 0.000000 0.000000 1.680410 
# 
# From -- ./inp_files/12468.got.cif
#   From: 2010.03.12/outbox.cif.g09.slc.cpg/sg47_7_cif.got.tgz:12468.got - 2010.04.14 03:12:58.
