data_PCOD8195874
_publ_section_title
;
Structure prediction by ZEFSAII (Michael W. Deem and Ramdas Pophale) SiO2 
 PCOD8195874
Probable space group: P M M M
;
_chemical_formula_sum "Si O2"
_cell_formula_units_Z 64
_cell_length_a 16.073565
_cell_length_b 9.716713
_cell_length_c 23.003162
_cell_angle_alpha 90.000000
_cell_angle_beta 90.000000
_cell_angle_gamma 90.000000
_cell_volume 3592.684862
_symmetry_space_group_name_H-M "P M M M"
_symmetry_group_IT_number 47
_symmetry_cell_setting 'orthorhombic'
loop_
_space_group_symop_operation_xyz
x,y,z
-x,-y,z
x,-y,-z
-x,y,-z
-x,-y,-z
x,y,-z
-x,y,z
x,-y,z
loop_
_atom_site_type_symbol
_atom_site_label
_atom_site_fract_x
_atom_site_fract_y
_atom_site_fract_z
Si Si1 0.907731 0.836838 0.565996
Si Si2 0.646860 0.156611 0.067246
Si Si3 0.706963 0.842764 0.758645
Si Si4 0.814932 0.850227 0.865582
Si Si5 0.406092 0.654568 0.832113
Si Si6 0.261278 0.161695 0.625890
Si Si7 0.405176 0.342212 0.568513
Si Si8 0.903355 0.648857 0.937485
O O1 0.894570 0.785707 0.500000
O O2 0.828780 0.782258 0.603400
O O3 0.000000 0.785161 0.588142
O O4 0.907707 0.000000 0.568528
O O5 0.741566 0.165335 0.087671
O O6 0.596033 0.263394 0.106812
O O7 0.613730 0.000000 0.076209
O O8 0.638513 0.200605 0.000000
O O9 0.786183 0.821965 0.800110
O O10 0.637119 0.736963 0.779681
O O11 0.736630 0.808965 0.694223
O O12 0.673363 0.000000 0.764338
O O13 0.884403 0.742188 0.882331
O O14 0.855630 0.000000 0.870141
O O15 0.500000 0.640785 0.811824
O O16 0.367753 0.500000 0.839345
O O17 0.338462 0.241907 0.597888
O O18 0.271988 0.000000 0.611437
O O19 0.395835 0.325076 0.500000
O O20 0.500000 0.302493 0.587198
O O21 0.386932 0.500000 0.586790
O O22 0.860095 0.500000 0.928850
O O23 0.000000 0.626861 0.939005
O O24 0.873982 0.711650 0.000000
#
# Coordination Sequence:
#
# PCOD8195874 Si02
#       8
#     8   8   8   8   8   8   8   8
#     4   8  14  26  47  77 109 135 160 197 249 304
#     4   9  18  32  50  72  96 122 152 189 241 301
#     4   9  20  36  50  68  96 127 161 202 248 294
#     4   9  17  31  48  65  89 120 154 192 232 280
#     4  10  21  35  50  69  93 123 162 205 243 285
#     4  10  19  32  53  79 103 131 173 220 256 291
#     4   9  19  35  52  73 106 144 174 203 250 309
#     4   9  18  31  46  67  94 120 148 187 237 290
#
# _framework density 17.813977000000001
#
# number of rings (size 3 to 8) (size 9 to 14) (size 15 to 20)
#    0.000    2.875    0.000    3.000    0.000    6.500 
#    0.000    5.625    0.000    2.625    0.000    1.750 
#    0.000    0.000    0.000    0.000    0.000    0.000 
#
# Total GULP energy -792990.271698 kJ/mol
# GULP energy per Si atom -12390.472995 kJ/mol
# Density = 1.777343 g / cm^3
# Si number density = 17.813977 Si / 1000 Ang^3
#
#
#
# Elastic Constant Matrix: (Units=GPa)
#
#
# Indices 1 2 3 4 5 6 
#
# 1 95.8719 51.3513 61.7536 0.0000 0.0000 0.0000
# 2 51.3513 89.2525 55.4910 0.0000 0.0000 0.0000
# 3 61.7536 55.4910 114.7652 0.0000 0.0000 0.0000
# 4 0.0000 0.0000 0.0000 15.9848 0.0000 0.0000
# 5 0.0000 0.0000 0.0000 0.0000 15.4727 0.0000
# 6 0.0000 0.0000 0.0000 0.0000 0.0000 25.4790
#
#
#
# Elastic Compliance Matrix: (Units=1/GPa)
#
#
# Indices 1 2 3 4 5 6 
#
# 1 0.018102 -0.006233 -0.006727 0.000000 0.000000 0.000000
# 2 -0.006233 0.018166 -0.005430 0.000000 0.000000 0.000000
# 3 -0.006727 -0.005430 0.014958 0.000000 0.000000 0.000000
# 4 0.000000 0.000000 0.000000 0.062559 0.000000 0.000000
# 5 0.000000 0.000000 0.000000 0.000000 0.064630 0.000000
# 6 0.000000 0.000000 0.000000 0.000000 0.000000 0.039248
#
#
# Mechanical properties :
#
#
# Convention : Reuss Voigt Hill
#
# Bulk Modulus (GPa) = 69.21495 70.78683 70.00089
# Shear Modulus (GPa) = 19.28579 20.14021 19.71300
#
# Velocity S-wave (km/s) = 3.29389 3.36606 3.33017
# Velocity P-wave (km/s) = 7.30787 7.41149 7.35986
#
# Compressibility (1/GPa) = 0.01444775
#
# Stress axis : x y z
#
# Youngs Moduli (GPa) = 55.24307 55.04775 66.85168
#
# Poissons Ratio (x) = 0.34309 0.44970
# Poissons Ratio (y) = 0.34431 0.36300
# Poissons Ratio (z) = 0.37161 0.29890
#
# Static dielectric constant tensor:
#      x y z
#    x 3.276280 0.000000 0.000000 
#    y 0.000000 3.329930 0.000000 
#    z 0.000000 0.000000 3.343770 
# 
# 
# High freq. dielectric constant tensor:
#      x y z
#    x 1.679120 0.000000 0.000000 
#    y 0.000000 1.678630 0.000000 
#    z 0.000000 0.000000 1.682900 
# 
# From -- ./inp_files/31326.got.cif
#   From: 2010.03.12/outbox.cif.g09.slc.cpg/sg47_16_cif.got.tgz:31326.got - 2010.04.14 03:12:58.
