data_PCOD8195382
_publ_section_title
;
Structure prediction by ZEFSAII (Michael W. Deem and Ramdas Pophale) SiO2 
 PCOD8195382
Probable space group: P M M M
;
_chemical_formula_sum "Si O2"
_cell_formula_units_Z 64
_cell_length_a 8.502786
_cell_length_b 20.761422
_cell_length_c 18.640173
_cell_angle_alpha 90.000000
_cell_angle_beta 90.000000
_cell_angle_gamma 90.000000
_cell_volume 3290.548404
_symmetry_space_group_name_H-M "P M M M"
_symmetry_group_IT_number 47
_symmetry_cell_setting 'orthorhombic'
loop_
_space_group_symop_operation_xyz
x,y,z
-x,-y,z
x,-y,-z
-x,y,-z
-x,-y,-z
x,y,-z
-x,y,z
x,-y,z
loop_
_atom_site_type_symbol
_atom_site_label
_atom_site_fract_x
_atom_site_fract_y
_atom_site_fract_z
Si Si1 0.815293 0.304958 0.916592
Si Si2 0.185981 0.810028 0.330290
Si Si3 0.686840 0.928529 0.919741
Si Si4 0.813275 0.570923 0.833973
Si Si5 0.812867 0.071249 0.580630
Si Si6 0.684373 0.810813 0.827140
Si Si7 0.813019 0.428700 0.673100
Si Si8 0.187827 0.688698 0.419122
O O1 0.753037 0.373948 0.887818
O O2 0.719515 0.249745 0.876977
O O3 0.000000 0.296098 0.901194
O O4 0.775581 0.301078 0.000000
O O5 0.256282 0.875896 0.364315
O O6 0.232154 0.802349 0.248333
O O7 0.253087 0.750029 0.375564
O O8 0.000000 0.810684 0.336152
O O9 0.500000 0.924690 0.921580
O O10 0.753727 0.875060 0.865298
O O11 0.741105 0.000000 0.894590
O O12 0.751658 0.914730 0.000000
O O13 0.751082 0.500000 0.858218
O O14 0.752618 0.586462 0.753587
O O15 0.000000 0.569666 0.834164
O O16 0.754702 0.087352 0.500000
O O17 0.000000 0.072605 0.581914
O O18 0.752818 0.000000 0.603561
O O19 0.500000 0.817026 0.814444
O O20 0.755934 0.500000 0.649191
O O21 0.744402 0.375707 0.618599
O O22 0.000000 0.425931 0.672408
O O23 0.253040 0.691547 0.500000
O O24 0.000000 0.688224 0.419016
#
# Coordination Sequence:
#
# PCOD8195382 Si02
#       8
#     8   8   8   8   8   8   8   8
#     4  10  20  33  51  75 101 129 162 201 242 283
#     4  10  19  31  48  69  94 124 159 200 241 281
#     4   8  15  30  51  71  90 116 153 194 233 277
#     4   8  14  26  45  70 100 131 160 191 232 283
#     4   8  14  26  46  72  99 126 158 197 243 296
#     4  11  22  34  50  72  98 129 163 199 242 292
#     4   8  13  21  34  55  87 123 151 180 225 276
#     4   9  16  25  40  63  89 119 156 194 231 274
#
# _framework density 19.449643999999999
#
# number of rings (size 3 to 8) (size 9 to 14) (size 15 to 20)
#    0.000    3.000    0.000    3.375    0.000    5.250 
#    0.000    2.500    0.000    3.000    0.000    6.125 
#    0.000    0.000    0.000    4.500    0.000    4.000 
#
# Total GULP energy -793270.068282 kJ/mol
# GULP energy per Si atom -12394.844817 kJ/mol
# Density = 1.940538 g / cm^3
# Si number density = 19.449644 Si / 1000 Ang^3
#
#
#
# Elastic Constant Matrix: (Units=GPa)
#
#
# Indices 1 2 3 4 5 6 
#
# 1 3.4701 5.4573 0.2685 0.0000 0.0000 0.0000
# 2 5.4573 172.6032 88.0980 0.0000 0.0000 0.0000
# 3 0.2685 88.0980 131.1151 0.0000 0.0000 0.0000
# 4 0.0000 0.0000 0.0000 46.9879 0.0000 0.0000
# 5 0.0000 0.0000 0.0000 0.0000 5.1180 0.0000
# 6 0.0000 0.0000 0.0000 0.0000 0.0000 11.7019
#
#
#
# Elastic Compliance Matrix: (Units=1/GPa)
#
#
# Indices 1 2 3 4 5 6 
#
# 1 0.310173 -0.014432 0.009062 0.000000 0.000000 0.000000
# 2 -0.014432 0.009489 -0.006346 0.000000 0.000000 0.000000
# 3 0.009062 -0.006346 0.011873 0.000000 0.000000 0.000000
# 4 0.000000 0.000000 0.000000 0.021282 0.000000 0.000000
# 5 0.000000 0.000000 0.000000 0.000000 0.195388 0.000000
# 6 0.000000 0.000000 0.000000 0.000000 0.000000 0.085456
#
#
# Mechanical properties :
#
#
# Convention : Reuss Voigt Hill
#
# Bulk Modulus (GPa) = 3.24568 54.98177 29.11372
# Shear Modulus (GPa) = 6.58072 26.98588 16.78330
#
# Velocity S-wave (km/s) = 1.84142 3.72892 2.94072
# Velocity P-wave (km/s) = 2.48867 6.84616 5.15089
#
# Compressibility (1/GPa) = 0.30810191
#
# Stress axis : x y z
#
# Youngs Moduli (GPa) = 3.22400 105.38333 84.22815
#
# Poissons Ratio (x) = 1.52091 -0.76328
# Poissons Ratio (y) = 0.04653 0.53454
# Poissons Ratio (z) = -0.02922 0.66880
#
# Static dielectric constant tensor:
#      x y z
#    x 2.822390 0.000000 0.000000 
#    y 0.000000 4.092500 0.000000 
#    z 0.000000 0.000000 3.677100 
# 
# 
# High freq. dielectric constant tensor:
#      x y z
#    x 1.684930 0.000000 0.000000 
#    y 0.000000 1.778450 0.000000 
#    z 0.000000 0.000000 1.759090 
# 
# From -- ./inp_files/27034.got.cif
#   From: 2010.03.12/outbox.cif.g09.slc.cpg/sg47_14_cif.got.tgz:27034.got - 2010.04.14 03:12:58.
