data_PCOD8195032
_publ_section_title
;
Structure prediction by ZEFSAII (Michael W. Deem and Ramdas Pophale) SiO2 
 PCOD8195032
Probable space group: P M M M
;
_chemical_formula_sum "Si O2"
_cell_formula_units_Z 64
_cell_length_a 29.129333
_cell_length_b 14.030553
_cell_length_c 9.424879
_cell_angle_alpha 90.000000
_cell_angle_beta 90.000000
_cell_angle_gamma 90.000000
_cell_volume 3851.954178
_symmetry_space_group_name_H-M "P M M M"
_symmetry_group_IT_number 47
_symmetry_cell_setting 'orthorhombic'
loop_
_space_group_symop_operation_xyz
x,y,z
-x,-y,z
x,-y,-z
-x,y,-z
-x,-y,-z
x,y,-z
-x,y,z
x,-y,z
loop_
_atom_site_type_symbol
_atom_site_label
_atom_site_fract_x
_atom_site_fract_y
_atom_site_fract_z
Si Si1 0.448161 0.248910 0.663157
Si Si2 0.135824 0.609250 0.164853
Si Si3 0.279927 0.107218 0.163160
Si Si4 0.395495 0.387842 0.836766
Si Si5 0.692086 0.387165 0.339476
Si Si6 0.949670 0.613196 0.340458
Si Si7 0.632061 0.108747 0.664681
Si Si8 0.229415 0.706702 0.163657
O O1 0.440305 0.279669 0.500000
O O2 0.500000 0.212191 0.686342
O O3 0.439737 0.339487 0.764776
O O4 0.413526 0.165344 0.708997
O O5 0.146881 0.500000 0.211458
O O6 0.091057 0.652385 0.242067
O O7 0.177790 0.678476 0.205637
O O8 0.124852 0.613002 0.000000
O O9 0.323335 0.146295 0.251519
O O10 0.237518 0.179959 0.187799
O O11 0.265353 0.000000 0.211407
O O12 0.295040 0.106885 0.000000
O O13 0.401992 0.500000 0.823304
O O14 0.351334 0.349995 0.750152
O O15 0.390261 0.356511 0.000000
O O16 0.688739 0.346716 0.500000
O O17 0.692589 0.500000 0.341382
O O18 0.738154 0.353347 0.265163
O O19 0.940737 0.649214 0.500000
O O20 0.949330 0.500000 0.335079
O O21 0.000000 0.649623 0.288309
O O22 0.643310 0.120682 0.500000
O O23 0.622343 0.000000 0.706605
O O24 0.239324 0.678198 0.000000
#
# Coordination Sequence:
#
# PCOD8195032 Si02
#       8
#     8   8   8   8   8   8   8   8
#     4  10  21  35  51  72  95 117 142 175 216 260
#     4   9  17  27  39  59  88 120 153 187 222 262
#     4   9  18  32  49  68  89 115 148 183 219 261
#     4  10  21  36  52  68  88 117 151 184 217 255
#     4  10  20  32  47  68  92 118 149 183 218 259
#     4   8  14  25  40  57  80 114 154 191 225 262
#     4   9  18  33  52  72  93 116 142 174 214 262
#     4  10  19  30  45  65  92 124 153 184 224 267
#
# _framework density 16.614943
#
# number of rings (size 3 to 8) (size 9 to 14) (size 15 to 20)
#    0.000    2.625    0.000    2.250    0.000    6.500 
#    0.000    5.000    0.000    0.000    0.000    2.625 
#    0.000    0.500    0.000    6.250    0.000    1.250 
#
# Total GULP energy -793495.982676 kJ/mol
# GULP energy per Si atom -12398.374729 kJ/mol
# Density = 1.657713 g / cm^3
# Si number density = 16.614943 Si / 1000 Ang^3
#
#
#
# Elastic Constant Matrix: (Units=GPa)
#
#
# Indices 1 2 3 4 5 6 
#
# 1 136.7909 53.5888 58.1863 0.0000 0.0000 0.0000
# 2 53.5888 46.2114 34.5895 0.0000 0.0000 0.0000
# 3 58.1863 34.5895 74.7887 0.0000 0.0000 0.0000
# 4 0.0000 0.0000 0.0000 18.0638 0.0000 0.0000
# 5 0.0000 0.0000 0.0000 0.0000 30.7875 0.0000
# 6 0.0000 0.0000 0.0000 0.0000 0.0000 18.6226
#
#
#
# Elastic Compliance Matrix: (Units=1/GPa)
#
#
# Indices 1 2 3 4 5 6 
#
# 1 0.014713 -0.012991 -0.005439 0.000000 0.000000 0.000000
# 2 -0.012991 0.044568 -0.010505 0.000000 0.000000 0.000000
# 3 -0.005439 -0.010505 0.022461 0.000000 0.000000 0.000000
# 4 0.000000 0.000000 0.000000 0.055359 0.000000 0.000000
# 5 0.000000 0.000000 0.000000 0.000000 0.032481 0.000000
# 6 0.000000 0.000000 0.000000 0.000000 0.000000 0.053698
#
#
# Mechanical properties :
#
#
# Convention : Reuss Voigt Hill
#
# Bulk Modulus (GPa) = 41.89003 61.16890 51.52946
# Shear Modulus (GPa) = 17.29454 20.92321 19.10888
#
# Velocity S-wave (km/s) = 3.22980 3.55251 3.39499
# Velocity P-wave (km/s) = 6.25906 7.32957 6.81537
#
# Compressibility (1/GPa) = 0.02387203
#
# Stress axis : x y z
#
# Youngs Moduli (GPa) = 67.96580 22.43748 44.52169
#
# Poissons Ratio (x) = 0.29149 0.24214
# Poissons Ratio (y) = 0.88297 0.46771
# Poissons Ratio (z) = 0.36964 0.23571
#
# Static dielectric constant tensor:
#      x y z
#    x 3.213840 0.000000 0.000000 
#    y 0.000000 3.046100 0.000000 
#    z 0.000000 0.000000 3.232850 
# 
# 
# High freq. dielectric constant tensor:
#      x y z
#    x 1.627970 0.000000 0.000000 
#    y 0.000000 1.617650 0.000000 
#    z 0.000000 0.000000 1.644420 
# 
# From -- ./inp_files/8336.got.cif
#   From: 2010.03.12/outbox.cif.g09.slc.cpg/sg47_5_cif.got.tgz:8336.got - 2010.04.14 03:12:58.
