data_PCOD8195810
_publ_section_title
;
Structure prediction by ZEFSAII (Michael W. Deem and Ramdas Pophale) SiO2 
 PCOD8195810
Probable space group: P M M M
;
_chemical_formula_sum "Si O2"
_cell_formula_units_Z 60
_cell_length_a 19.281628
_cell_length_b 19.091767
_cell_length_c 9.421308
_cell_angle_alpha 90.000000
_cell_angle_beta 90.000000
_cell_angle_gamma 90.000000
_cell_volume 3468.175190
_symmetry_space_group_name_H-M "P M M M"
_symmetry_group_IT_number 47
_symmetry_cell_setting 'orthorhombic'
loop_
_space_group_symop_operation_xyz
x,y,z
-x,-y,z
x,-y,-z
-x,y,-z
-x,-y,-z
x,y,-z
-x,y,z
x,-y,z
loop_
_atom_site_type_symbol
_atom_site_label
_atom_site_fract_x
_atom_site_fract_y
_atom_site_fract_z
Si Si1 0.078606 0.245046 0.839247
Si Si2 0.781228 0.822968 0.160483
Si Si3 0.124073 0.625845 0.339895
Si Si4 0.921492 0.500000 0.152117
Si Si5 0.579945 0.192943 0.663810
Si Si6 0.328259 0.705666 0.166510
Si Si7 0.690512 0.921027 0.665270
Si Si8 0.280180 0.418908 0.339883
O O1 0.135676 0.183892 0.819898
O O2 0.097415 0.301689 0.722239
O O3 0.000000 0.216752 0.814201
O O4 0.085272 0.275785 0.000000
O O5 0.742006 0.749861 0.198894
O O6 0.756392 0.885909 0.259413
O O7 0.762089 0.843319 0.000000
O O8 0.095840 0.618843 0.500000
O O9 0.092569 0.567321 0.242893
O O10 0.206048 0.617864 0.337811
O O11 0.000000 0.500000 0.109333
O O12 0.880082 0.500000 0.000000
O O13 0.591990 0.214446 0.500000
O O14 0.500000 0.178557 0.697200
O O15 0.606575 0.255295 0.763248
O O16 0.620544 0.121465 0.700564
O O17 0.326266 0.627762 0.234085
O O18 0.341407 0.697041 0.000000
O O19 0.707346 0.920073 0.500000
O O20 0.680370 0.000000 0.721220
O O21 0.310408 0.416272 0.500000
O O22 0.276421 0.500000 0.287714
#
# Coordination Sequence:
#
# PCOD8195810 Si02
#       8
#     8   8   8   4   8   8   8   8
#     4  10  20  34  50  69  96 129 168 215 264 311
#     4   9  18  32  50  73  99 132 173 212 253 302
#     4  11  21  33  48  68  93 123 162 211 263 314
#     4  11  23  35  45  59  87 129 168 203 254 319
#     4   9  18  33  54  80 110 143 171 197 238 293
#     4  10  19  32  52  76 101 132 171 214 254 296
#     4   9  18  32  52  80 110 139 170 204 243 289
#     4  10  20  34  50  70  97 130 167 211 262 310
#
# _framework density 17.300163000000001
#
# number of rings (size 3 to 8) (size 9 to 14) (size 15 to 20)
#    0.000    2.200    2.000    1.400    0.000    5.067 
#    0.000    1.333    0.000    0.800    0.000    9.333 
#    0.000    0.000    0.000    0.000    0.000    0.000 
#
# Total GULP energy -743775.922430 kJ/mol
# GULP energy per Si atom -12396.265374 kJ/mol
# Density = 1.726079 g / cm^3
# Si number density = 17.300163 Si / 1000 Ang^3
#
#
#
# Elastic Constant Matrix: (Units=GPa)
#
#
# Indices 1 2 3 4 5 6 
#
# 1 97.7172 55.9670 49.2356 0.0000 0.0000 0.0000
# 2 55.9670 92.3684 57.9948 0.0000 0.0000 0.0000
# 3 49.2356 57.9948 103.8814 0.0000 0.0000 0.0000
# 4 0.0000 0.0000 0.0000 29.7745 0.0000 0.0000
# 5 0.0000 0.0000 0.0000 0.0000 23.2174 0.0000
# 6 0.0000 0.0000 0.0000 0.0000 0.0000 19.4866
#
#
#
# Elastic Compliance Matrix: (Units=1/GPa)
#
#
# Indices 1 2 3 4 5 6 
#
# 1 0.016431 -0.007800 -0.003433 0.000000 0.000000 0.000000
# 2 -0.007800 0.020372 -0.007676 0.000000 0.000000 0.000000
# 3 -0.003433 -0.007676 0.015539 0.000000 0.000000 0.000000
# 4 0.000000 0.000000 0.000000 0.033586 0.000000 0.000000
# 5 0.000000 0.000000 0.000000 0.000000 0.043071 0.000000
# 6 0.000000 0.000000 0.000000 0.000000 0.000000 0.051317
#
#
# Mechanical properties :
#
#
# Convention : Reuss Voigt Hill
#
# Bulk Modulus (GPa) = 68.85605 68.92910 68.89258
# Shear Modulus (GPa) = 22.42393 23.21368 22.81881
#
# Velocity S-wave (km/s) = 3.60414 3.66706 3.63574
# Velocity P-wave (km/s) = 7.56353 7.60653 7.58506
#
# Compressibility (1/GPa) = 0.01452305
#
# Stress axis : x y z
#
# Youngs Moduli (GPa) = 60.86115 49.08660 64.35455
#
# Poissons Ratio (x) = 0.38289 0.22092
# Poissons Ratio (y) = 0.47473 0.49401
# Poissons Ratio (z) = 0.20893 0.37680
#
# Static dielectric constant tensor:
#      x y z
#    x 3.145870 0.000000 0.000000 
#    y 0.000000 3.264020 0.000000 
#    z 0.000000 0.000000 3.379790 
# 
# 
# High freq. dielectric constant tensor:
#      x y z
#    x 1.650910 0.000000 0.000000 
#    y 0.000000 1.647310 0.000000 
#    z 0.000000 0.000000 1.678710 
# 
# From -- ./inp_files/11559.got.cif
#   From: 2010.03.12/outbox.cif.g09.slc.cpg/sg47_6_cif.got.tgz:11559.got - 2010.04.14 03:12:58.
