data_PCOD8195008
_publ_section_title
;
Structure prediction by ZEFSAII (Michael W. Deem and Ramdas Pophale) SiO2 
 PCOD8195008
Probable space group: P M M M
;
_chemical_formula_sum "Si O2"
_cell_formula_units_Z 48
_cell_length_a 12.043959
_cell_length_b 20.386922
_cell_length_c 12.539570
_cell_angle_alpha 90.000000
_cell_angle_beta 90.000000
_cell_angle_gamma 90.000000
_cell_volume 3078.956647
_symmetry_space_group_name_H-M "P M M M"
_symmetry_group_IT_number 47
_symmetry_cell_setting 'orthorhombic'
loop_
_space_group_symop_operation_xyz
x,y,z
-x,-y,z
x,-y,-z
-x,y,-z
-x,-y,-z
x,y,-z
-x,y,z
x,-y,z
loop_
_atom_site_type_symbol
_atom_site_label
_atom_site_fract_x
_atom_site_fract_y
_atom_site_fract_z
Si Si1 0.000000 0.767240 0.875234
Si Si2 0.624677 0.922269 0.500000
Si Si3 0.765798 0.427596 0.126911
Si Si4 0.763545 0.922715 0.295721
Si Si5 0.000000 0.922926 0.617600
Si Si6 0.000000 0.378353 0.872720
Si Si7 0.375470 0.693403 0.126693
Si Si8 0.763507 0.819995 0.125226
O O1 0.890835 0.806995 0.842413
O O2 0.000000 0.694939 0.823425
O O3 0.000000 0.755336 0.000000
O O4 0.500000 0.893187 0.500000
O O5 0.688974 0.898558 0.394712
O O6 0.621995 0.000000 0.500000
O O7 0.726618 0.500000 0.164852
O O8 0.683617 0.371923 0.173302
O O9 0.890577 0.415423 0.169347
O O10 0.765381 0.423408 0.000000
O O11 0.890478 0.902297 0.318427
O O12 0.723501 0.883894 0.190439
O O13 0.749956 0.000000 0.273785
O O14 0.000000 0.889933 0.500000
O O15 0.000000 0.000000 0.600983
O O16 0.000000 0.376659 0.000000
O O17 0.500000 0.696834 0.172980
O O18 0.308900 0.757859 0.162403
O O19 0.377073 0.689696 0.000000
O O20 0.748731 0.834708 0.000000
#
# Coordination Sequence:
#
# PCOD8195008 Si02
#       8
#     4   4   8   8   4   4   8   8
#     4   9  15  26  42  57  80 117 154 182 211 256
#     4   9  18  33  51  69  87 108 140 183 230 276
#     4   9  15  22  35  55  76 101 139 186 225 253
#     4  10  19  31  49  70  90 114 145 185 230 270
#     4   9  15  28  49  70  90 110 137 176 226 281
#     4   9  13  21  36  53  75 103 140 182 218 255
#     4   9  17  28  39  52  76 113 152 183 214 257
#     4  10  19  30  44  63  89 121 154 184 217 263
#
# _framework density 15.589696999999999
#
# number of rings (size 3 to 8) (size 9 to 14) (size 15 to 20)
#    0.000    2.667    2.500    0.750    0.000    2.333 
#    0.000    1.667    0.000    3.000    0.000    4.667 
#    0.000    0.000    0.000    0.750    0.000    6.833 
#
# Total GULP energy -594925.567489 kJ/mol
# GULP energy per Si atom -12394.282656 kJ/mol
# Density = 1.555421 g / cm^3
# Si number density = 15.589697 Si / 1000 Ang^3
#
#
#
# Elastic Constant Matrix: (Units=GPa)
#
#
# Indices 1 2 3 4 5 6 
#
# 1 122.2981 45.9219 28.1641 0.0000 0.0000 0.0000
# 2 45.9219 101.6050 45.6300 0.0000 0.0000 0.0000
# 3 28.1641 45.6300 47.9895 0.0000 0.0000 0.0000
# 4 0.0000 0.0000 0.0000 2.6396 0.0000 0.0000
# 5 0.0000 0.0000 0.0000 0.0000 10.6790 0.0000
# 6 0.0000 0.0000 0.0000 0.0000 0.0000 11.2631
#
#
#
# Elastic Compliance Matrix: (Units=1/GPa)
#
#
# Indices 1 2 3 4 5 6 
#
# 1 0.010053 -0.003305 -0.002757 0.000000 0.000000 0.000000
# 2 -0.003305 0.018263 -0.015426 0.000000 0.000000 0.000000
# 3 -0.002757 -0.015426 0.037123 0.000000 0.000000 0.000000
# 4 0.000000 0.000000 0.000000 0.378840 0.000000 0.000000
# 5 0.000000 0.000000 0.000000 0.000000 0.093642 0.000000
# 6 0.000000 0.000000 0.000000 0.000000 0.000000 0.088786
#
#
# Mechanical properties :
#
#
# Convention : Reuss Voigt Hill
#
# Bulk Modulus (GPa) = 44.51679 56.81385 50.66532
# Shear Modulus (GPa) = 7.38366 15.06145 11.22255
#
# Velocity S-wave (km/s) = 2.17865 3.11161 2.68595
# Velocity P-wave (km/s) = 5.91151 7.03078 6.49530
#
# Compressibility (1/GPa) = 0.02246343
#
# Stress axis : x y z
#
# Youngs Moduli (GPa) = 99.47502 54.75409 26.93744
#
# Poissons Ratio (x) = 0.18098 0.07426
# Poissons Ratio (y) = 0.32880 0.41553
# Poissons Ratio (z) = 0.27424 0.84462
#
# Static dielectric constant tensor:
#      x y z
#    x 3.357860 0.000000 0.000000 
#    y 0.000000 2.936060 0.000000 
#    z 0.000000 0.000000 2.449910 
# 
# 
# High freq. dielectric constant tensor:
#      x y z
#    x 1.609520 0.000000 0.000000 
#    y 0.000000 1.591550 0.000000 
#    z 0.000000 0.000000 1.529540 
# 
# From -- ./inp_files/16493.got.cif
#   From: 2010.03.12/outbox.cif.g09.slc.cpg/sg47_9_cif.got.tgz:16493.got - 2010.04.14 03:12:58.
