data_PCOD8195282
_publ_section_title
;
Structure prediction by ZEFSAII (Michael W. Deem and Ramdas Pophale) SiO2 
 PCOD8195282
Probable space group: P M M M
;
_chemical_formula_sum "Si O2"
_cell_formula_units_Z 40
_cell_length_a 18.496595
_cell_length_b 16.955633
_cell_length_c 8.812384
_cell_angle_alpha 90.000000
_cell_angle_beta 90.000000
_cell_angle_gamma 90.000000
_cell_volume 2763.752882
_symmetry_space_group_name_H-M "P M M M"
_symmetry_group_IT_number 47
_symmetry_cell_setting 'orthorhombic'
loop_
_space_group_symop_operation_xyz
x,y,z
-x,-y,z
x,-y,-z
-x,y,-z
-x,-y,-z
x,y,-z
-x,y,z
x,-y,z
loop_
_atom_site_type_symbol
_atom_site_label
_atom_site_fract_x
_atom_site_fract_y
_atom_site_fract_z
Si Si1 0.267062 0.091059 0.680698
Si Si2 0.137536 0.814878 0.820171
Si Si3 0.000000 0.088294 0.819572
Si Si4 0.916618 0.660117 0.678984
Si Si5 0.423608 0.093505 0.669666
Si Si6 0.914138 0.500000 0.171008
O O1 0.261528 0.102450 0.500000
O O2 0.211150 0.145676 0.767037
O O3 0.346810 0.119372 0.742590
O O4 0.252133 0.000000 0.723864
O O5 0.132322 0.728256 0.749991
O O6 0.070830 0.867123 0.758684
O O7 0.136043 0.808136 0.000000
O O8 0.000000 0.000000 0.752161
O O9 0.000000 0.085802 0.000000
O O10 0.907976 0.659903 0.500000
O O11 0.886079 0.577600 0.742611
O O12 0.000000 0.673121 0.727920
O O13 0.426311 0.127857 0.500000
O O14 0.500000 0.119914 0.752468
O O15 0.421076 0.000000 0.661315
O O16 0.000000 0.500000 0.172919
O O17 0.883871 0.500000 0.000000
#
# Coordination Sequence:
#
# PCOD8195282 Si02
#       6
#     8   8   4   8   8   4
#     4   9  17  28  41  59  82 106 137 177 216 251
#     4  11  20  30  43  57  79 109 143 177 211 249
#     4   9  18  30  41  52  69 100 143 183 212 241
#     4  10  19  31  46  63  83 104 132 170 212 249
#     4   7  10  19  37  58  77  99 129 165 205 250
#     4   9  17  29  47  67  85 103 128 159 200 253
#
# _framework density 14.473075
#
# number of rings (size 3 to 8) (size 9 to 14) (size 15 to 20)
#    0.000    2.800    1.000    3.900    0.000    3.200 
#    0.000    0.000    0.000    3.000    0.000    2.800 
#    0.000    0.000    0.000    0.900    0.000   18.600 
#
# Total GULP energy -495584.870169 kJ/mol
# GULP energy per Si atom -12389.621754 kJ/mol
# Density = 1.444013 g / cm^3
# Si number density = 14.473075 Si / 1000 Ang^3
#
#
#
# Elastic Constant Matrix: (Units=GPa)
#
#
# Indices 1 2 3 4 5 6 
#
# 1 110.5391 48.4679 27.6825 0.0000 0.0000 0.0000
# 2 48.4679 100.5536 32.9844 0.0000 0.0000 0.0000
# 3 27.6825 32.9844 48.0052 0.0000 0.0000 0.0000
# 4 0.0000 0.0000 0.0000 21.2891 0.0000 0.0000
# 5 0.0000 0.0000 0.0000 0.0000 11.3131 0.0000
# 6 0.0000 0.0000 0.0000 0.0000 0.0000 4.0149
#
#
#
# Elastic Compliance Matrix: (Units=1/GPa)
#
#
# Indices 1 2 3 4 5 6 
#
# 1 0.011984 -0.004531 -0.003798 0.000000 0.000000 0.000000
# 2 -0.004531 0.014552 -0.007386 0.000000 0.000000 0.000000
# 3 -0.003798 -0.007386 0.028096 0.000000 0.000000 0.000000
# 4 0.000000 0.000000 0.000000 0.046972 0.000000 0.000000
# 5 0.000000 0.000000 0.000000 0.000000 0.088393 0.000000
# 6 0.000000 0.000000 0.000000 0.000000 0.000000 0.249070
#
#
# Mechanical properties :
#
#
# Convention : Reuss Voigt Hill
#
# Bulk Modulus (GPa) = 43.09744 53.04083 48.06913
# Shear Modulus (GPa) = 10.45524 17.32097 13.88810
#
# Velocity S-wave (km/s) = 2.69065 3.46319 3.10107
# Velocity P-wave (km/s) = 6.28451 7.26079 6.79022
#
# Compressibility (1/GPa) = 0.02320324
#
# Stress axis : x y z
#
# Youngs Moduli (GPa) = 83.44291 68.72126 35.59263
#
# Poissons Ratio (x) = 0.31136 0.13517
# Poissons Ratio (y) = 0.37806 0.26288
# Poissons Ratio (z) = 0.31689 0.50755
#
# Static dielectric constant tensor:
#      x y z
#    x 3.099240 0.000000 0.000000 
#    y 0.000000 2.702360 0.000000 
#    z 0.000000 0.000000 2.633440 
# 
# 
# High freq. dielectric constant tensor:
#      x y z
#    x 1.539630 0.000000 0.000000 
#    y 0.000000 1.526660 0.000000 
#    z 0.000000 0.000000 1.538360 
# 
# From -- ./inp_files/9362.got.cif
#   From: 2010.03.12/outbox.cif.g09.slc.cpg/sg47_5_cif.got.tgz:9362.got - 2010.04.14 03:12:58.
