data_PCOD8195925
_publ_section_title
;
Structure prediction by ZEFSAII (Michael W. Deem and Ramdas Pophale) SiO2 
 PCOD8195925
Probable space group: P M M M
;
_chemical_formula_sum "Si O2"
_cell_formula_units_Z 56
_cell_length_a 19.873500
_cell_length_b 8.985138
_cell_length_c 15.252291
_cell_angle_alpha 90.000000
_cell_angle_beta 90.000000
_cell_angle_gamma 90.000000
_cell_volume 2723.542731
_symmetry_space_group_name_H-M "P M M M"
_symmetry_group_IT_number 47
_symmetry_cell_setting 'orthorhombic'
loop_
_space_group_symop_operation_xyz
x,y,z
-x,-y,z
x,-y,-z
-x,y,-z
-x,-y,-z
x,y,-z
-x,y,z
x,-y,z
loop_
_atom_site_type_symbol
_atom_site_label
_atom_site_fract_x
_atom_site_fract_y
_atom_site_fract_z
Si Si1 0.573825 0.327194 0.844244
Si Si2 0.922611 0.824723 0.247645
Si Si3 0.844567 0.670511 0.400931
Si Si4 0.161669 0.329605 0.098814
Si Si5 0.705565 0.829985 0.146182
Si Si6 0.571790 0.169390 0.335552
Si Si7 0.715174 0.167080 0.645405
O O1 0.500000 0.293500 0.887016
O O2 0.591757 0.500000 0.853904
O O3 0.633807 0.232730 0.888524
O O4 0.569951 0.286865 0.742287
O O5 0.889159 0.769820 0.337191
O O6 0.888295 0.756915 0.162407
O O7 0.000000 0.776227 0.248337
O O8 0.913008 0.000000 0.242965
O O9 0.871121 0.691571 0.500000
O O10 0.850109 0.500000 0.371139
O O11 0.766533 0.717931 0.397265
O O12 0.165161 0.500000 0.129799
O O13 0.236002 0.262448 0.100314
O O14 0.133342 0.316387 0.000000
O O15 0.712980 0.811544 0.250280
O O16 0.711828 0.000000 0.116440
O O17 0.500000 0.183466 0.388082
O O18 0.639419 0.198876 0.392843
O O19 0.578611 0.000000 0.297362
O O20 0.738560 0.000000 0.621105
#
# Coordination Sequence:
#
# PCOD8195925 Si02
#       7
#     8   8   8   8   8   8   8
#     4   9  16  25  41  70 108 150 197 248 302 357
#     4  11  25  45  69  96 125 158 196 239 291 353
#     4  11  24  40  61  90 123 161 203 248 300 357
#     4  11  24  41  64  94 126 161 200 243 293 351
#     4  10  19  32  54  82 114 155 201 249 301 355
#     4   8  14  25  42  68 104 145 192 246 301 356
#     4   9  17  30  52  81 112 151 198 248 301 356
#
# _framework density 20.561454000000001
#
# number of rings (size 3 to 8) (size 9 to 14) (size 15 to 20)
#    0.000    2.143    1.429    3.000    0.000    7.143 
#    0.000    2.857    0.000    0.857    0.000    6.000 
#    0.000    0.000    0.000    0.000    0.000    0.000 
#
# Total GULP energy -694073.089197 kJ/mol
# GULP energy per Si atom -12394.162307 kJ/mol
# Density = 2.051465 g / cm^3
# Si number density = 20.561454 Si / 1000 Ang^3
#
#
#
# Elastic Constant Matrix: (Units=GPa)
#
#
# Indices 1 2 3 4 5 6 
#
# 1 166.5888 62.1433 41.2001 0.0000 0.0000 0.0000
# 2 62.1433 85.6746 28.2910 0.0000 0.0000 0.0000
# 3 41.2001 28.2910 67.4345 0.0000 0.0000 0.0000
# 4 0.0000 0.0000 0.0000 9.6301 0.0000 0.0000
# 5 0.0000 0.0000 0.0000 0.0000 -4.0322 0.0000
# 6 0.0000 0.0000 0.0000 0.0000 0.0000 29.0606
#
#
#
# Elastic Compliance Matrix: (Units=1/GPa)
#
#
# Indices 1 2 3 4 5 6 
#
# 1 0.008760 -0.005324 -0.003118 0.000000 0.000000 0.000000
# 2 -0.005324 0.016785 -0.003789 0.000000 0.000000 0.000000
# 3 -0.003118 -0.003789 0.018324 0.000000 0.000000 0.000000
# 4 0.000000 0.000000 0.000000 0.103841 0.000000 0.000000
# 5 0.000000 0.000000 0.000000 0.000000 -0.248005 0.000000
# 6 0.000000 0.000000 0.000000 0.000000 0.000000 0.034411
#
#
# Mechanical properties :
#
#
# Convention : Reuss Voigt Hill
#
# Bulk Modulus (GPa) = 51.53055 64.77410 58.15232
# Shear Modulus (GPa) = -143.05580 19.46928 -61.79326
#
# Velocity S-wave (km/s) = -8.35020 3.08048 -5.48801
# Velocity P-wave (km/s) = 8.23721 6.65008 3.43715
#
# Compressibility (1/GPa) = 0.01940596
#
# Stress axis : x y z
#
# Youngs Moduli (GPa) = 114.15230 59.57615 54.57308
#
# Poissons Ratio (x) = 0.31721 0.17018
# Poissons Ratio (y) = 0.60779 0.20677
# Poissons Ratio (z) = 0.35598 0.22573
#
# Static dielectric constant tensor:
#      x y z
#    x 4.167930 0.000000 0.000000 
#    y 0.000000 3.770210 0.000000 
#    z 0.000000 0.000000 3.317610 
# 
# 
# High freq. dielectric constant tensor:
#      x y z
#    x 1.819200 0.000000 0.000000 
#    y 0.000000 1.809590 0.000000 
#    z 0.000000 0.000000 1.767030 
# 
# From -- ./inp_files/11477.got.cif
#   From: 2010.03.12/outbox.cif.g09.slc.cpg/sg47_6_cif.got.tgz:11477.got - 2010.04.14 03:12:58.
