data_PCOD8195907
_publ_section_title
;
Structure prediction by ZEFSAII (Michael W. Deem and Ramdas Pophale) SiO2 
 PCOD8195907
Probable space group: P M M M
;
_chemical_formula_sum "Si O2"
_cell_formula_units_Z 52
_cell_length_a 28.046451
_cell_length_b 11.734125
_cell_length_c 9.047725
_cell_angle_alpha 90.000000
_cell_angle_beta 90.000000
_cell_angle_gamma 90.000000
_cell_volume 2977.611381
_symmetry_space_group_name_H-M "P M M M"
_symmetry_group_IT_number 47
_symmetry_cell_setting 'orthorhombic'
loop_
_space_group_symop_operation_xyz
x,y,z
-x,-y,z
x,-y,-z
-x,y,-z
-x,-y,-z
x,y,-z
-x,y,z
x,-y,z
loop_
_atom_site_type_symbol
_atom_site_label
_atom_site_fract_x
_atom_site_fract_y
_atom_site_fract_z
Si Si1 0.905981 0.869701 0.327180
Si Si2 0.554449 0.128270 0.826333
Si Si3 0.814253 0.276212 0.325208
Si Si4 0.000000 0.864597 0.166176
Si Si5 0.274024 0.126474 0.324297
Si Si6 0.679413 0.500000 0.326850
Si Si7 0.782213 0.500000 0.823803
Si Si8 0.364947 0.261821 0.326458
O O1 0.916145 0.864519 0.500000
O O2 0.862135 0.790083 0.281977
O O3 0.952572 0.819605 0.246616
O O4 0.894619 0.000000 0.279142
O O5 0.500000 0.152679 0.781273
O O6 0.586185 0.223781 0.748522
O O7 0.568740 0.000000 0.775377
O O8 0.561274 0.139676 0.000000
O O9 0.811134 0.300998 0.500000
O O10 0.770530 0.199358 0.269157
O O11 0.811986 0.392616 0.234903
O O12 0.000000 0.000000 0.172540
O O13 0.000000 0.817714 0.000000
O O14 0.274026 0.122499 0.500000
O O15 0.322431 0.182932 0.265138
O O16 0.270077 0.000000 0.257331
O O17 0.693285 0.500000 0.500000
O O18 0.728516 0.500000 0.237668
O O19 0.647359 0.608443 0.284530
O O20 0.780565 0.500000 0.000000
O O21 0.371206 0.247027 0.500000
#
# Coordination Sequence:
#
# PCOD8195907 Si02
#       8
#     8   8   8   4   8   4   4   8
#     4   9  17  30  52  81 107 134 174 219 258 305
#     4   9  19  36  55  75 104 140 172 206 255 313
#     4  10  19  34  54  74 103 139 172 211 261 309
#     4   9  17  29  47  72 107 148 177 205 257 315
#     4   9  16  27  48  78 105 128 160 204 255 308
#     4  10  20  38  57  75 101 138 176 212 257 306
#     4  12  24  36  52  74 102 138 182 221 250 296
#     4  10  19  32  54  79 103 132 171 217 257 299
#
# _framework density 17.463661999999999
#
# number of rings (size 3 to 8) (size 9 to 14) (size 15 to 20)
#    0.000    2.385    1.538    2.308    0.000    5.231 
#    0.000    1.154    0.000    4.154    0.000    3.231 
#    0.000    0.000    0.000    0.000    0.000    0.000 
#
# Total GULP energy -644807.686690 kJ/mol
# GULP energy per Si atom -12400.147821 kJ/mol
# Density = 1.742391 g / cm^3
# Si number density = 17.463662 Si / 1000 Ang^3
#
#
#
# Elastic Constant Matrix: (Units=GPa)
#
#
# Indices 1 2 3 4 5 6 
#
# 1 144.6829 75.2135 52.2135 0.0000 0.0000 0.0000
# 2 75.2135 136.3971 45.1822 0.0000 0.0000 0.0000
# 3 52.2135 45.1822 54.2710 0.0000 0.0000 0.0000
# 4 0.0000 0.0000 0.0000 17.3202 0.0000 0.0000
# 5 0.0000 0.0000 0.0000 0.0000 19.0336 0.0000
# 6 0.0000 0.0000 0.0000 0.0000 0.0000 14.5024
#
#
#
# Elastic Compliance Matrix: (Units=1/GPa)
#
#
# Indices 1 2 3 4 5 6 
#
# 1 0.011870 -0.003814 -0.008244 0.000000 0.000000 0.000000
# 2 -0.003814 0.011349 -0.005779 0.000000 0.000000 0.000000
# 3 -0.008244 -0.005779 0.031169 0.000000 0.000000 0.000000
# 4 0.000000 0.000000 0.000000 0.057736 0.000000 0.000000
# 5 0.000000 0.000000 0.000000 0.000000 0.052539 0.000000
# 6 0.000000 0.000000 0.000000 0.000000 0.000000 0.068954
#
#
# Mechanical properties :
#
#
# Convention : Reuss Voigt Hill
#
# Bulk Modulus (GPa) = 53.43884 75.61879 64.52882
# Shear Modulus (GPa) = 18.14696 21.02070 19.58383
#
# Velocity S-wave (km/s) = 3.22705 3.47318 3.35237
# Velocity P-wave (km/s) = 6.67469 7.71224 7.21215
#
# Compressibility (1/GPa) = 0.01871298
#
# Stress axis : x y z
#
# Youngs Moduli (GPa) = 84.24769 88.11238 32.08365
#
# Poissons Ratio (x) = 0.33610 0.26450
# Poissons Ratio (y) = 0.32136 0.18540
# Poissons Ratio (z) = 0.69455 0.50917
#
# Static dielectric constant tensor:
#      x y z
#    x 3.297840 0.000000 0.000000 
#    y 0.000000 3.314890 0.000000 
#    z 0.000000 0.000000 2.988320 
# 
# 
# High freq. dielectric constant tensor:
#      x y z
#    x 1.679310 0.000000 0.000000 
#    y 0.000000 1.668610 0.000000 
#    z 0.000000 0.000000 1.651010 
# 
# From -- ./inp_files/13333.got.cif
#   From: 2010.03.12/outbox.cif.g09.slc.cpg/sg47_7_cif.got.tgz:13333.got - 2010.04.14 03:12:58.
