data_PCOD8195320
_publ_section_title
;
Structure prediction by ZEFSAII (Michael W. Deem and Ramdas Pophale) SiO2 
 PCOD8195320
Probable space group: P M M M
;
_chemical_formula_sum "Si O2"
_cell_formula_units_Z 60
_cell_length_a 20.831702
_cell_length_b 9.470706
_cell_length_c 18.837981
_cell_angle_alpha 90.000000
_cell_angle_beta 90.000000
_cell_angle_gamma 90.000000
_cell_volume 3716.562699
_symmetry_space_group_name_H-M "P M M M"
_symmetry_group_IT_number 47
_symmetry_cell_setting 'orthorhombic'
loop_
_space_group_symop_operation_xyz
x,y,z
-x,-y,z
x,-y,-z
-x,y,-z
-x,-y,-z
x,y,-z
-x,y,z
x,-y,z
loop_
_atom_site_type_symbol
_atom_site_label
_atom_site_fract_x
_atom_site_fract_y
_atom_site_fract_z
Si Si1 0.764108 0.836673 0.578531
Si Si2 0.320271 0.835043 0.800785
Si Si3 0.000000 0.668167 0.079898
Si Si4 0.187435 0.838427 0.275380
Si Si5 0.126410 0.336034 0.841041
Si Si6 0.362440 0.338482 0.578348
Si Si7 0.742398 0.662658 0.917803
Si Si8 0.573456 0.662866 0.278856
O O1 0.792393 0.800518 0.500000
O O2 0.815939 0.801826 0.640292
O O3 0.699918 0.752453 0.594244
O O4 0.744804 0.000000 0.583874
O O5 0.259965 0.806632 0.749632
O O6 0.307006 0.762803 0.876621
O O7 0.383200 0.764705 0.768146
O O8 0.333273 0.000000 0.812375
O O9 0.937331 0.723343 0.121310
O O10 0.000000 0.500000 0.076088
O O11 0.000000 0.730053 0.000000
O O12 0.136524 0.742806 0.233772
O O13 0.169012 0.000000 0.260264
O O14 0.119438 0.500000 0.823056
O O15 0.184923 0.305446 0.894099
O O16 0.390902 0.303538 0.500000
O O17 0.339959 0.500000 0.582412
O O18 0.415889 0.305765 0.637475
O O19 0.724903 0.500000 0.902180
O O20 0.736341 0.699676 0.000000
O O21 0.500000 0.696721 0.260663
O O22 0.590335 0.500000 0.261544
#
# Coordination Sequence:
#
# PCOD8195320 Si02
#       8
#     8   8   4   8   8   8   8   8
#     4   9  16  27  44  64  88 119 152 188 232 276
#     4  10  19  31  47  67  90 117 149 188 232 272
#     4   9  16  28  47  71 100 129 158 188 215 253
#     4   9  17  29  44  65  92 120 152 191 231 269
#     4   9  17  28  46  71  96 126 157 185 216 257
#     4   9  17  28  43  64  89 117 150 188 228 270
#     4   9  17  30  49  72  95 119 148 181 221 270
#     4  10  20  32  46  64  88 120 155 188 226 275
#
# _framework density 16.14395
#
# number of rings (size 3 to 8) (size 9 to 14) (size 15 to 20)
#    0.000    2.733    1.333    0.800    0.000    3.467 
#    0.000    1.667    0.000    2.000    0.000    6.067 
#    0.000    3.733    0.000    0.000    0.000    0.000 
#
# Total GULP energy -743849.126167 kJ/mol
# GULP energy per Si atom -12397.485436 kJ/mol
# Density = 1.610721 g / cm^3
# Si number density = 16.143950 Si / 1000 Ang^3
#
#
#
# Elastic Constant Matrix: (Units=GPa)
#
#
# Indices 1 2 3 4 5 6 
#
# 1 84.7238 44.6676 59.2290 0.0000 0.0000 0.0000
# 2 44.6676 64.9400 56.0976 0.0000 0.0000 0.0000
# 3 59.2290 56.0976 126.5099 0.0000 0.0000 0.0000
# 4 0.0000 0.0000 0.0000 24.1661 0.0000 0.0000
# 5 0.0000 0.0000 0.0000 0.0000 25.4147 0.0000
# 6 0.0000 0.0000 0.0000 0.0000 0.0000 13.2859
#
#
#
# Elastic Compliance Matrix: (Units=1/GPa)
#
#
# Indices 1 2 3 4 5 6 
#
# 1 0.020601 -0.009463 -0.005449 0.000000 0.000000 0.000000
# 2 -0.009463 0.029307 -0.008565 0.000000 0.000000 0.000000
# 3 -0.005449 -0.008565 0.014253 0.000000 0.000000 0.000000
# 4 0.000000 0.000000 0.000000 0.041380 0.000000 0.000000
# 5 0.000000 0.000000 0.000000 0.000000 0.039347 0.000000
# 6 0.000000 0.000000 0.000000 0.000000 0.000000 0.075268
#
#
# Mechanical properties :
#
#
# Convention : Reuss Voigt Hill
#
# Bulk Modulus (GPa) = 58.11418 66.24023 62.17721
# Shear Modulus (GPa) = 18.32534 20.31865 19.32199
#
# Velocity S-wave (km/s) = 3.37281 3.55151 3.46331
# Velocity P-wave (km/s) = 7.15845 7.61168 7.38854
#
# Compressibility (1/GPa) = 0.01720750
#
# Stress axis : x y z
#
# Youngs Moduli (GPa) = 48.54020 34.12206 70.15904
#
# Poissons Ratio (x) = 0.32291 0.38228
# Poissons Ratio (y) = 0.45936 0.60089
# Poissons Ratio (z) = 0.26449 0.29225
#
# Static dielectric constant tensor:
#      x y z
#    x 2.794670 0.000000 0.000000 
#    y 0.000000 3.026140 0.000000 
#    z 0.000000 0.000000 3.267850 
# 
# 
# High freq. dielectric constant tensor:
#      x y z
#    x 1.583610 0.000000 0.000000 
#    y 0.000000 1.616460 0.000000 
#    z 0.000000 0.000000 1.628250 
# 
# From -- ./inp_files/31370.got.cif
#   From: 2010.03.12/outbox.cif.g09.slc.cpg/sg47_16_cif.got.tgz:31370.got - 2010.04.14 03:12:58.
