data_PCOD8195429
_publ_section_title
;
Structure prediction by ZEFSAII (Michael W. Deem and Ramdas Pophale) SiO2 
 PCOD8195429
Probable space group: P M M M
;
_chemical_formula_sum "Si O2"
_cell_formula_units_Z 52
_cell_length_a 8.768510
_cell_length_b 28.057903
_cell_length_c 12.002121
_cell_angle_alpha 90.000000
_cell_angle_beta 90.000000
_cell_angle_gamma 90.000000
_cell_volume 2952.833858
_symmetry_space_group_name_H-M "P M M M"
_symmetry_group_IT_number 47
_symmetry_cell_setting 'orthorhombic'
loop_
_space_group_symop_operation_xyz
x,y,z
-x,-y,z
x,-y,-z
-x,y,-z
-x,-y,-z
x,y,-z
-x,y,z
x,-y,z
loop_
_atom_site_type_symbol
_atom_site_label
_atom_site_fract_x
_atom_site_fract_y
_atom_site_fract_z
Si Si1 0.830726 0.267466 0.000000
Si Si2 0.167202 0.156067 0.000000
Si Si3 0.818834 0.052436 0.375080
Si Si4 0.329397 0.500000 0.867956
Si Si5 0.319742 0.309777 0.214242
Si Si6 0.821070 0.235672 0.370265
Si Si7 0.182993 0.141882 0.759491
Si Si8 0.179438 0.402560 0.129218
O O1 0.737063 0.280861 0.108139
O O2 0.854540 0.211987 0.000000
O O3 0.000000 0.292192 0.000000
O O4 0.251895 0.141067 0.114550
O O5 0.000000 0.131809 0.000000
O O6 0.756245 0.059756 0.500000
O O7 0.751268 0.094268 0.298367
O O8 0.000000 0.056082 0.376531
O O9 0.768871 0.000000 0.330462
O O10 0.500000 0.500000 0.818486
O O11 0.241642 0.546945 0.827010
O O12 0.333152 0.500000 0.000000
O O13 0.500000 0.313103 0.214410
O O14 0.263571 0.282578 0.324752
O O15 0.251818 0.362854 0.209228
O O16 0.782854 0.229804 0.500000
O O17 0.759846 0.188423 0.307245
O O18 0.000000 0.242403 0.349148
O O19 0.000000 0.142745 0.762496
O O20 0.000000 0.402722 0.143578
O O21 0.225762 0.392584 0.000000
#
# Coordination Sequence:
#
# PCOD8195429 Si02
#       8
#     4   4   8   4   8   8   8   8
#     4  11  19  33  51  69  96 131 170 208 241 297
#     4   9  16  25  42  63  87 119 158 198 243 292
#     4   8  13  21  34  54  83 119 158 203 254 303
#     4   9  17  29  45  69 104 137 170 213 258 301
#     4  12  23  33  49  74 104 134 166 208 260 307
#     4  10  20  34  52  71  93 128 172 211 250 302
#     4   9  15  25  41  63  88 120 162 204 246 301
#     4  10  19  31  49  71 100 138 177 211 246 298
#
# _framework density 17.610201
#
# number of rings (size 3 to 8) (size 9 to 14) (size 15 to 20)
#    0.000    2.231    2.308    3.231    0.000    3.692 
#    0.000    0.385    0.000    2.308    0.000    0.538 
#    0.000    4.923    0.000    4.615    0.000    5.077 
#
# Total GULP energy -644598.832869 kJ/mol
# GULP energy per Si atom -12396.131401 kJ/mol
# Density = 1.757012 g / cm^3
# Si number density = 17.610201 Si / 1000 Ang^3
#
#
#
# Elastic Constant Matrix: (Units=GPa)
#
#
# Indices 1 2 3 4 5 6 
#
# 1 65.4518 40.1921 30.2024 0.0000 0.0000 0.0000
# 2 40.1921 155.0187 69.9882 0.0000 0.0000 0.0000
# 3 30.2024 69.9882 109.3185 0.0000 0.0000 0.0000
# 4 0.0000 0.0000 0.0000 56.2487 0.0000 0.0000
# 5 0.0000 0.0000 0.0000 0.0000 22.5003 0.0000
# 6 0.0000 0.0000 0.0000 0.0000 0.0000 -0.2242
#
#
#
# Elastic Compliance Matrix: (Units=1/GPa)
#
#
# Indices 1 2 3 4 5 6 
#
# 1 0.018811 -0.003560 -0.002918 0.000000 0.000000 0.000000
# 2 -0.003560 0.009747 -0.005257 0.000000 0.000000 0.000000
# 3 -0.002918 -0.005257 0.013319 0.000000 0.000000 0.000000
# 4 0.000000 0.000000 0.000000 0.017778 0.000000 0.000000
# 5 0.000000 0.000000 0.000000 0.000000 0.044444 0.000000
# 6 0.000000 0.000000 0.000000 0.000000 0.000000 -4.460599
#
#
# Mechanical properties :
#
#
# Convention : Reuss Voigt Hill
#
# Bulk Modulus (GPa) = 54.32386 67.83938 61.08162
# Shear Modulus (GPa) = -1.15556 28.33206 13.58825
#
# Velocity S-wave (km/s) = -0.81093 4.01539 2.78080
# Velocity P-wave (km/s) = 5.48070 7.75269 6.71351
#
# Compressibility (1/GPa) = 0.01840812
#
# Stress axis : x y z
#
# Youngs Moduli (GPa) = 53.16080 102.59401 75.07872
#
# Poissons Ratio (x) = 0.36520 0.21908
# Poissons Ratio (y) = 0.18924 0.39468
# Poissons Ratio (z) = 0.15513 0.53932
#
# Static dielectric constant tensor:
#      x y z
#    x 2.942440 0.000000 0.000000 
#    y 0.000000 3.508740 0.000000 
#    z 0.000000 0.000000 3.272540 
# 
# 
# High freq. dielectric constant tensor:
#      x y z
#    x 1.645270 0.000000 0.000000 
#    y 0.000000 1.690010 0.000000 
#    z 0.000000 0.000000 1.656590 
# 
# From -- ./inp_files/15580.got.cif
#   From: 2010.03.12/outbox.cif.g09.slc.cpg/sg47_8_cif.got.tgz:15580.got - 2010.04.14 03:12:58.
