data_PCOD8195923
_publ_section_title
;
Structure prediction by ZEFSAII (Michael W. Deem and Ramdas Pophale) SiO2 
 PCOD8195923
Probable space group: P M M M
;
_chemical_formula_sum "Si O2"
_cell_formula_units_Z 52
_cell_length_a 19.788288
_cell_length_b 14.873573
_cell_length_c 9.694147
_cell_angle_alpha 90.000000
_cell_angle_beta 90.000000
_cell_angle_gamma 90.000000
_cell_volume 2853.206027
_symmetry_space_group_name_H-M "P M M M"
_symmetry_group_IT_number 47
_symmetry_cell_setting 'orthorhombic'
loop_
_space_group_symop_operation_xyz
x,y,z
-x,-y,z
x,-y,-z
-x,y,-z
-x,-y,-z
x,y,-z
-x,y,z
x,-y,z
loop_
_atom_site_type_symbol
_atom_site_label
_atom_site_fract_x
_atom_site_fract_y
_atom_site_fract_z
Si Si1 0.500000 0.898455 0.147713
Si Si2 0.075637 0.399876 0.836404
Si Si3 0.808236 0.732172 0.164277
Si Si4 0.690285 0.598860 0.155744
Si Si5 0.617621 0.149681 0.651773
Si Si6 0.230717 0.102793 0.339710
Si Si7 0.422504 0.650049 0.652768
O O1 0.566621 0.880487 0.232871
O O2 0.500000 0.000000 0.106201
O O3 0.500000 0.844771 0.000000
O O4 0.093680 0.500000 0.779644
O O5 0.127416 0.324676 0.781853
O O6 0.000000 0.373023 0.788591
O O7 0.080065 0.402931 0.000000
O O8 0.742387 0.674495 0.208225
O O9 0.810039 0.827755 0.242909
O O10 0.810264 0.749060 0.000000
O O11 0.725176 0.500000 0.162956
O O12 0.621337 0.591036 0.243272
O O13 0.669016 0.622112 0.000000
O O14 0.597528 0.111497 0.500000
O O15 0.690454 0.113207 0.694681
O O16 0.616395 0.256308 0.646418
O O17 0.216642 0.125636 0.500000
O O18 0.208616 0.000000 0.306237
O O19 0.422587 0.606259 0.500000
O O20 0.500000 0.660583 0.705377
#
# Coordination Sequence:
#
# PCOD8195923 Si02
#       7
#     4   8   8   8   8   8   8
#     4  11  23  33  45  71 100 123 156 209 271 328
#     4   8  14  27  51  84 118 148 177 209 249 302
#     4  10  19  32  54  82 110 138 170 214 261 304
#     4  10  21  35  51  74 103 134 167 205 256 315
#     4  10  19  35  54  69  90 126 170 213 261 317
#     4  10  21  36  54  75 100 134 176 218 260 311
#     4  10  20  35  53  71  92 123 168 218 261 304
#
# _framework density 18.225110999999998
#
# number of rings (size 3 to 8) (size 9 to 14) (size 15 to 20)
#    0.000    2.231    2.308    1.615    0.000    5.538 
#    0.000    1.538    0.000    2.308    0.000    4.308 
#    0.000    0.000    0.000    0.000    0.000    0.000 
#
# Total GULP energy -644427.322149 kJ/mol
# GULP energy per Si atom -12392.833118 kJ/mol
# Density = 1.818363 g / cm^3
# Si number density = 18.225111 Si / 1000 Ang^3
#
#
#
# Elastic Constant Matrix: (Units=GPa)
#
#
# Indices 1 2 3 4 5 6 
#
# 1 99.0954 51.0851 47.4973 0.0000 0.0000 0.0000
# 2 51.0851 113.4767 42.4446 0.0000 0.0000 0.0000
# 3 47.4973 42.4446 75.2049 0.0000 0.0000 0.0000
# 4 0.0000 0.0000 0.0000 16.9134 0.0000 0.0000
# 5 0.0000 0.0000 0.0000 0.0000 15.8312 0.0000
# 6 0.0000 0.0000 0.0000 0.0000 0.0000 7.8522
#
#
#
# Elastic Compliance Matrix: (Units=1/GPa)
#
#
# Indices 1 2 3 4 5 6 
#
# 1 0.015997 -0.004338 -0.007655 0.000000 0.000000 0.000000
# 2 -0.004338 0.012347 -0.004229 0.000000 0.000000 0.000000
# 3 -0.007655 -0.004229 0.020518 0.000000 0.000000 0.000000
# 4 0.000000 0.000000 0.000000 0.059125 0.000000 0.000000
# 5 0.000000 0.000000 0.000000 0.000000 0.063166 0.000000
# 6 0.000000 0.000000 0.000000 0.000000 0.000000 0.127353
#
#
# Mechanical properties :
#
#
# Convention : Reuss Voigt Hill
#
# Bulk Modulus (GPa) = 60.90570 63.31454 62.11012
# Shear Modulus (GPa) = 14.86234 17.90271 16.38253
#
# Velocity S-wave (km/s) = 2.85877 3.13758 3.00142
# Velocity P-wave (km/s) = 6.66242 6.92399 6.79446
#
# Compressibility (1/GPa) = 0.01641882
#
# Stress axis : x y z
#
# Youngs Moduli (GPa) = 62.51317 80.99111 48.73782
#
# Poissons Ratio (x) = 0.35136 0.37307
# Poissons Ratio (y) = 0.27120 0.20609
# Poissons Ratio (z) = 0.47851 0.34248
#
# Static dielectric constant tensor:
#      x y z
#    x 3.264600 0.000000 0.000000 
#    y 0.000000 3.437260 0.000000 
#    z 0.000000 0.000000 3.344190 
# 
# 
# High freq. dielectric constant tensor:
#      x y z
#    x 1.683950 0.000000 0.000000 
#    y 0.000000 1.707580 0.000000 
#    z 0.000000 0.000000 1.689270 
# 
# From -- ./inp_files/7071.got.cif
#   From: 2010.03.12/outbox.cif.g09.slc.cpg/sg47_4_cif.got.tgz:7071.got - 2010.04.14 03:12:58.
