data_PCOD8195473
_publ_section_title
;
Structure prediction by ZEFSAII (Michael W. Deem and Ramdas Pophale) SiO2 
 PCOD8195473
Probable space group: P M M M
;
_chemical_formula_sum "Si O2"
_cell_formula_units_Z 64
_cell_length_a 24.225952
_cell_length_b 14.586101
_cell_length_c 8.933763
_cell_angle_alpha 90.000000
_cell_angle_beta 90.000000
_cell_angle_gamma 90.000000
_cell_volume 3156.853993
_symmetry_space_group_name_H-M "P M M M"
_symmetry_group_IT_number 47
_symmetry_cell_setting 'orthorhombic'
loop_
_space_group_symop_operation_xyz
x,y,z
-x,-y,z
x,-y,-z
-x,y,-z
-x,-y,-z
x,y,-z
-x,y,z
x,-y,z
loop_
_atom_site_type_symbol
_atom_site_label
_atom_site_fract_x
_atom_site_fract_y
_atom_site_fract_z
Si Si1 0.151301 0.268575 0.324358
Si Si2 0.321700 0.854760 0.332549
Si Si3 0.559457 0.843716 0.328141
Si Si4 0.209538 0.895919 0.827154
Si Si5 0.935864 0.396310 0.173384
Si Si6 0.439852 0.345108 0.171104
Si Si7 0.230876 0.600594 0.832135
Si Si8 0.335341 0.362108 0.668110
O O1 0.144047 0.257803 0.500000
O O2 0.165490 0.168605 0.258069
O O3 0.096563 0.316344 0.259294
O O4 0.202472 0.333712 0.287397
O O5 0.303511 0.882942 0.500000
O O6 0.382847 0.899081 0.294332
O O7 0.273244 0.887936 0.224358
O O8 0.328857 0.746473 0.318085
O O9 0.565067 0.807110 0.500000
O O10 0.500000 0.898703 0.313293
O O11 0.556015 0.761223 0.212779
O O12 0.189624 0.000000 0.801311
O O13 0.207906 0.868311 0.000000
O O14 0.922454 0.500000 0.231626
O O15 0.000000 0.375387 0.197080
O O16 0.919281 0.390078 0.000000
O O17 0.500000 0.391521 0.192570
O O18 0.395741 0.394574 0.278095
O O19 0.420149 0.352939 0.000000
O O20 0.202796 0.500000 0.830027
O O21 0.293527 0.589530 0.781162
O O22 0.226840 0.641910 0.000000
O O23 0.325266 0.397078 0.500000
#
# Coordination Sequence:
#
# PCOD8195473 Si02
#       8
#     8   8   8   8   8   8   8   8
#     4  12  24  38  60  90 124 161 198 241 293 344
#     4   9  17  30  50  76 104 137 179 232 295 356
#     4   8  14  25  42  66  97 131 170 220 280 350
#     4  11  24  40  59  82 110 151 202 253 304 356
#     4   9  19  38  65  97 134 175 213 245 280 327
#     4   9  16  25  40  64  93 128 172 220 272 333
#     4  11  23  37  55  80 112 151 191 232 280 338
#     4  10  19  31  49  73 102 137 176 224 284 344
#
# _framework density 20.273349
#
# number of rings (size 3 to 8) (size 9 to 14) (size 15 to 20)
#    0.000    2.125    1.250    4.125    0.000    6.750 
#    0.000    0.625    0.000    1.125    0.000    7.875 
#    0.000    0.000    0.000    0.000    0.000    0.000 
#
# Total GULP energy -792926.071147 kJ/mol
# GULP energy per Si atom -12389.469862 kJ/mol
# Density = 2.022721 g / cm^3
# Si number density = 20.273349 Si / 1000 Ang^3
#
#
#
# Elastic Constant Matrix: (Units=GPa)
#
#
# Indices 1 2 3 4 5 6 
#
# 1 118.9467 39.8307 56.7788 0.0000 0.0000 0.0000
# 2 39.8307 87.2275 42.6870 0.0000 0.0000 0.0000
# 3 56.7788 42.6870 117.0595 0.0000 0.0000 0.0000
# 4 0.0000 0.0000 0.0000 -17.7386 0.0000 0.0000
# 5 0.0000 0.0000 0.0000 0.0000 35.5316 0.0000
# 6 0.0000 0.0000 0.0000 0.0000 0.0000 22.7751
#
#
#
# Elastic Compliance Matrix: (Units=1/GPa)
#
#
# Indices 1 2 3 4 5 6 
#
# 1 0.011587 -0.003093 -0.004493 0.000000 0.000000 0.000000
# 2 -0.003093 0.014780 -0.003890 0.000000 0.000000 0.000000
# 3 -0.004493 -0.003890 0.012140 0.000000 0.000000 0.000000
# 4 0.000000 0.000000 0.000000 -0.056374 0.000000 0.000000
# 5 0.000000 0.000000 0.000000 0.000000 0.028144 0.000000
# 6 0.000000 0.000000 0.000000 0.000000 0.000000 0.043908
#
#
# Mechanical properties :
#
#
# Convention : Reuss Voigt Hill
#
# Bulk Modulus (GPa) = 64.27645 66.86965 65.57305
# Shear Modulus (GPa) = 60.73854 20.37609 40.55731
#
# Velocity S-wave (km/s) = 5.47949 3.17372 4.47757
# Velocity P-wave (km/s) = 8.47389 6.81804 7.69066
#
# Compressibility (1/GPa) = 0.01555780
#
# Stress axis : x y z
#
# Youngs Moduli (GPa) = 86.30213 67.65939 82.37122
#
# Poissons Ratio (x) = 0.20924 0.37006
# Poissons Ratio (y) = 0.26689 0.32040
# Poissons Ratio (z) = 0.38772 0.26317
#
# Static dielectric constant tensor:
#      x y z
#    x 3.900610 0.000000 0.000000 
#    y 0.000000 3.403090 0.000000 
#    z 0.000000 0.000000 3.636050 
# 
# 
# High freq. dielectric constant tensor:
#      x y z
#    x 1.791710 0.000000 0.000000 
#    y 0.000000 1.762210 0.000000 
#    z 0.000000 0.000000 1.790890 
# 
# From -- ./inp_files/12754.got.cif
#   From: 2010.03.12/outbox.cif.g09.slc.cpg/sg47_7_cif.got.tgz:12754.got - 2010.04.14 03:12:58.
