data_PCOD8195701
_publ_section_title
;
Structure prediction by ZEFSAII (Michael W. Deem and Ramdas Pophale) SiO2 
 PCOD8195701
Probable space group: P M M M
;
_chemical_formula_sum "Si O2"
_cell_formula_units_Z 52
_cell_length_a 8.108861
_cell_length_b 27.593726
_cell_length_c 12.682242
_cell_angle_alpha 90.000000
_cell_angle_beta 90.000000
_cell_angle_gamma 90.000000
_cell_volume 2837.698427
_symmetry_space_group_name_H-M "P M M M"
_symmetry_group_IT_number 47
_symmetry_cell_setting 'orthorhombic'
loop_
_space_group_symop_operation_xyz
x,y,z
-x,-y,z
x,-y,-z
-x,y,-z
-x,-y,-z
x,y,-z
-x,y,z
x,-y,z
loop_
_atom_site_type_symbol
_atom_site_label
_atom_site_fract_x
_atom_site_fract_y
_atom_site_fract_z
Si Si1 0.192132 0.383512 0.620283
Si Si2 0.814431 0.115550 0.123668
Si Si3 0.192289 0.726859 0.379386
Si Si4 0.312318 0.785415 0.189947
Si Si5 0.310959 0.445773 0.194478
Si Si6 0.195952 0.279198 0.000000
Si Si7 0.812617 0.386118 0.000000
Si Si8 0.500000 0.945638 0.874752
O O1 0.230468 0.397792 0.500000
O O2 0.247953 0.328391 0.641902
O O3 0.293343 0.419677 0.693484
O O4 0.000000 0.389289 0.645420
O O5 0.799810 0.166887 0.182067
O O6 0.669450 0.079905 0.165249
O O7 0.000000 0.094655 0.146170
O O8 0.790203 0.125031 0.000000
O O9 0.229372 0.741095 0.500000
O O10 0.294947 0.762646 0.305761
O O11 0.000000 0.732336 0.353628
O O12 0.500000 0.801282 0.170371
O O13 0.260472 0.746056 0.104730
O O14 0.500000 0.448431 0.162350
O O15 0.236305 0.500000 0.201694
O O16 0.220741 0.416422 0.104097
O O17 0.274824 0.333479 0.000000
O O18 0.000000 0.277250 0.000000
O O19 0.000000 0.371610 0.000000
O O20 0.500000 0.000000 0.828568
O O21 0.500000 0.946825 0.000000
#
# Coordination Sequence:
#
# PCOD8195701 Si02
#       8
#     8   8   8   8   8   4   4   4
#     4   9  19  37  59  80 102 130 168 213 258 312
#     4  10  19  32  50  73 108 148 187 234 280 322
#     4   9  19  36  55  75 103 139 175 214 265 321
#     4  12  22  32  50  78 110 143 183 223 265 321
#     4  11  24  39  55  76 103 132 163 207 264 320
#     4  11  23  36  52  77 104 137 175 213 264 323
#     4  11  24  40  57  76 100 130 173 217 255 312
#     4   9  18  32  50  74 107 147 193 237 276 328
#
# _framework density 18.32471
#
# number of rings (size 3 to 8) (size 9 to 14) (size 15 to 20)
#    0.000    1.769    1.538    4.385    0.000    8.923 
#    0.000    4.615    0.000    0.000    0.000    0.000 
#    0.000    1.231    0.000    3.231    0.000    0.154 
#
# Total GULP energy -644827.104942 kJ/mol
# GULP energy per Si atom -12400.521249 kJ/mol
# Density = 1.828300 g / cm^3
# Si number density = 18.324710 Si / 1000 Ang^3
#
#
#
# Elastic Constant Matrix: (Units=GPa)
#
#
# Indices 1 2 3 4 5 6 
#
# 1 90.4486 39.6089 21.8622 0.0000 0.0000 0.0000
# 2 39.6089 122.0760 43.5340 0.0000 0.0000 0.0000
# 3 21.8622 43.5340 81.1628 0.0000 0.0000 0.0000
# 4 0.0000 0.0000 0.0000 -47.8772 0.0000 0.0000
# 5 0.0000 0.0000 0.0000 0.0000 190.7424 0.0000
# 6 0.0000 0.0000 0.0000 0.0000 0.0000 25.8555
#
#
#
# Elastic Compliance Matrix: (Units=1/GPa)
#
#
# Indices 1 2 3 4 5 6 
#
# 1 0.013040 -0.003683 -0.001537 0.000000 0.000000 0.000000
# 2 -0.003683 0.011169 -0.004999 0.000000 0.000000 0.000000
# 3 -0.001537 -0.004999 0.015416 0.000000 0.000000 0.000000
# 4 0.000000 0.000000 0.000000 -0.020887 0.000000 0.000000
# 5 0.000000 0.000000 0.000000 0.000000 0.005243 0.000000
# 6 0.000000 0.000000 0.000000 0.000000 0.000000 0.038676
#
#
# Mechanical properties :
#
#
# Convention : Reuss Voigt Hill
#
# Bulk Modulus (GPa) = 52.11607 55.96641 54.04124
# Shear Modulus (GPa) = 55.87077 46.32296 51.09686
#
# Velocity S-wave (km/s) = 5.52770 5.03327 5.28627
# Velocity P-wave (km/s) = 8.32122 8.02410 8.17401
#
# Compressibility (1/GPa) = 0.01918794
#
# Stress axis : x y z
#
# Youngs Moduli (GPa) = 76.68503 89.53134 64.86650
#
# Poissons Ratio (x) = 0.32974 0.09971
# Poissons Ratio (y) = 0.28243 0.32426
# Poissons Ratio (z) = 0.11787 0.44756
#
# Static dielectric constant tensor:
#      x y z
#    x 3.433430 0.000000 0.000000 
#    y 0.000000 3.408510 0.000000 
#    z 0.000000 0.000000 3.234830 
# 
# 
# High freq. dielectric constant tensor:
#      x y z
#    x 1.717570 0.000000 0.000000 
#    y 0.000000 1.700860 0.000000 
#    z 0.000000 0.000000 1.689960 
# 
# From -- ./inp_files/15526.got.cif
#   From: 2010.03.12/outbox.cif.g09.slc.cpg/sg47_8_cif.got.tgz:15526.got - 2010.04.14 03:12:58.
