data_PCOD8195681
_publ_section_title
;
Structure prediction by ZEFSAII (Michael W. Deem and Ramdas Pophale) SiO2 
 PCOD8195681
Probable space group: P M M M
;
_chemical_formula_sum "Si O2"
_cell_formula_units_Z 48
_cell_length_a 16.365820
_cell_length_b 8.941240
_cell_length_c 18.567345
_cell_angle_alpha 90.000000
_cell_angle_beta 90.000000
_cell_angle_gamma 90.000000
_cell_volume 2716.973044
_symmetry_space_group_name_H-M "P M M M"
_symmetry_group_IT_number 47
_symmetry_cell_setting 'orthorhombic'
loop_
_space_group_symop_operation_xyz
x,y,z
-x,-y,z
x,-y,-z
-x,y,-z
-x,-y,-z
x,y,-z
-x,y,z
x,-y,z
loop_
_atom_site_type_symbol
_atom_site_label
_atom_site_fract_x
_atom_site_fract_y
_atom_site_fract_z
Si Si1 0.908884 0.174105 0.707065
Si Si2 0.662514 0.676189 0.332858
Si Si3 0.500000 0.176966 0.313231
Si Si4 0.246622 0.824043 0.205529
Si Si5 0.668210 0.674291 0.917456
Si Si6 0.500000 0.673551 0.159522
Si Si7 0.820413 0.324025 0.580785
O O1 0.845638 0.218866 0.770270
O O2 0.888642 0.254328 0.632084
O O3 0.000000 0.220771 0.731974
O O4 0.903008 0.000000 0.690709
O O5 0.648408 0.500000 0.327010
O O6 0.578613 0.756878 0.354679
O O7 0.689116 0.736224 0.254933
O O8 0.729900 0.719486 0.392184
O O9 0.500000 0.225769 0.230238
O O10 0.500000 0.000000 0.318932
O O11 0.262130 0.768104 0.124535
O O12 0.262596 0.000000 0.212477
O O13 0.687713 0.500000 0.908439
O O14 0.578441 0.713458 0.888368
O O15 0.672777 0.724674 0.000000
O O16 0.500000 0.500000 0.182949
O O17 0.831549 0.261543 0.500000
O O18 0.832452 0.500000 0.582928
#
# Coordination Sequence:
#
# PCOD8195681 Si02
#       7
#     8   8   4   8   8   4   8
#     4   9  19  35  54  77 104 134 167 202 247 305
#     4  10  19  33  52  71  96 134 172 206 250 301
#     4  12  22  31  48  74 101 129 170 219 254 285
#     4  10  19  32  51  74 100 130 167 212 252 291
#     4  10  20  33  50  73 103 138 172 205 248 303
#     4  10  19  32  50  71 100 136 168 202 247 298
#     4   9  19  35  54  77 104 132 165 206 251 300
#
# _framework density 17.666719000000001
#
# number of rings (size 3 to 8) (size 9 to 14) (size 15 to 20)
#    0.000    2.167    1.667    2.000    0.000    3.667 
#    0.000    2.083    0.000    4.500    0.000    3.500 
#    0.000    0.000    0.000    0.000    0.000    0.000 
#
# Total GULP energy -595265.126192 kJ/mol
# GULP energy per Si atom -12401.356796 kJ/mol
# Density = 1.762651 g / cm^3
# Si number density = 17.666719 Si / 1000 Ang^3
#
#
#
# Elastic Constant Matrix: (Units=GPa)
#
#
# Indices 1 2 3 4 5 6 
#
# 1 120.3813 35.5759 40.5712 0.0000 0.0000 0.0000
# 2 35.5759 59.3608 23.2131 0.0000 0.0000 0.0000
# 3 40.5712 23.2131 88.6631 0.0000 0.0000 0.0000
# 4 0.0000 0.0000 0.0000 18.1131 0.0000 0.0000
# 5 0.0000 0.0000 0.0000 0.0000 18.6956 0.0000
# 6 0.0000 0.0000 0.0000 0.0000 0.0000 26.8474
#
#
#
# Elastic Compliance Matrix: (Units=1/GPa)
#
#
# Indices 1 2 3 4 5 6 
#
# 1 0.011095 -0.005196 -0.003717 0.000000 0.000000 0.000000
# 2 -0.005196 0.021201 -0.003173 0.000000 0.000000 0.000000
# 3 -0.003717 -0.003173 0.013810 0.000000 0.000000 0.000000
# 4 0.000000 0.000000 0.000000 0.055209 0.000000 0.000000
# 5 0.000000 0.000000 0.000000 0.000000 0.053489 0.000000
# 6 0.000000 0.000000 0.000000 0.000000 0.000000 0.037247
#
#
# Mechanical properties :
#
#
# Convention : Reuss Voigt Hill
#
# Bulk Modulus (GPa) = 45.58966 51.90285 48.74625
# Shear Modulus (GPa) = 22.36796 24.00089 23.18442
#
# Velocity S-wave (km/s) = 3.56210 3.68983 3.62653
# Velocity P-wave (km/s) = 6.54060 6.89897 6.72218
#
# Compressibility (1/GPa) = 0.02193480
#
# Stress axis : x y z
#
# Youngs Moduli (GPa) = 90.12988 47.16739 72.41101
#
# Poissons Ratio (x) = 0.24509 0.26912
# Poissons Ratio (y) = 0.46833 0.22976
# Poissons Ratio (z) = 0.33498 0.14966
#
# Static dielectric constant tensor:
#      x y z
#    x 3.494060 0.000000 0.000000 
#    y 0.000000 3.226840 0.000000 
#    z 0.000000 0.000000 3.249650 
# 
# 
# High freq. dielectric constant tensor:
#      x y z
#    x 1.682930 0.000000 0.000000 
#    y 0.000000 1.683700 0.000000 
#    z 0.000000 0.000000 1.665560 
# 
# From -- ./inp_files/6531.got.cif
#   From: 2010.03.12/outbox.cif.g09.slc.cpg/sg47_4_cif.got.tgz:6531.got - 2010.04.14 03:12:58.
