data_PCOD8195848
_publ_section_title
;
Structure prediction by ZEFSAII (Michael W. Deem and Ramdas Pophale) SiO2 
 PCOD8195848
Probable space group: P M M M
;
_chemical_formula_sum "Si O2"
_cell_formula_units_Z 48
_cell_length_a 29.082785
_cell_length_b 8.923031
_cell_length_c 10.123614
_cell_angle_alpha 90.000000
_cell_angle_beta 90.000000
_cell_angle_gamma 90.000000
_cell_volume 2627.144569
_symmetry_space_group_name_H-M "P M M M"
_symmetry_group_IT_number 47
_symmetry_cell_setting 'orthorhombic'
loop_
_space_group_symop_operation_xyz
x,y,z
-x,-y,z
x,-y,-z
-x,y,-z
-x,-y,-z
x,y,-z
-x,y,z
x,-y,z
loop_
_atom_site_type_symbol
_atom_site_label
_atom_site_fract_x
_atom_site_fract_y
_atom_site_fract_z
Si Si1 0.551543 0.322490 0.500000
Si Si2 0.946222 0.327547 0.349982
Si Si3 0.694218 0.174852 0.845079
Si Si4 0.879069 0.175960 0.848394
Si Si5 0.396739 0.677937 0.760171
Si Si6 0.554346 0.169719 0.000000
Si Si7 0.786465 0.668347 0.156786
O O1 0.547850 0.500000 0.500000
O O2 0.500000 0.253440 0.500000
O O3 0.579651 0.266378 0.626186
O O4 0.931931 0.284967 0.500000
O O5 0.933699 0.500000 0.321652
O O6 0.920858 0.223507 0.244703
O O7 0.000000 0.299755 0.330471
O O8 0.654498 0.257284 0.764345
O O9 0.742500 0.239467 0.792326
O O10 0.693064 0.000000 0.814326
O O11 0.686966 0.208009 0.000000
O O12 0.832999 0.253805 0.793072
O O13 0.871512 0.000000 0.839213
O O14 0.889598 0.224084 0.000000
O O15 0.394376 0.500000 0.772797
O O16 0.428277 0.743027 0.873826
O O17 0.500000 0.169105 0.000000
O O18 0.574107 0.000000 0.000000
O O19 0.784256 0.500000 0.213508
O O20 0.786254 0.668210 0.000000
#
# Coordination Sequence:
#
# PCOD8195848 Si02
#       7
#     4   8   8   8   8   4   8
#     4   9  20  38  57  79 107 139 177 221 266 313
#     4   9  19  36  56  77 104 142 187 231 275 324
#     4  10  19  32  52  79 113 143 172 216 268 318
#     4  10  20  33  51  79 113 145 179 222 273 324
#     4  11  21  35  58  82 106 139 180 221 264 318
#     4  11  23  37  53  79 113 141 173 221 270 315
#     4   9  17  30  51  78 107 140 181 222 263 316
#
# _framework density 18.270786999999999
#
# number of rings (size 3 to 8) (size 9 to 14) (size 15 to 20)
#    0.000    2.167    0.833    3.250    0.000    6.000 
#    0.000    4.167    1.833    3.000    0.000    0.000 
#    0.000    0.000    0.000    0.000    0.000    0.000 
#
# Total GULP energy -595281.633698 kJ/mol
# GULP energy per Si atom -12401.700702 kJ/mol
# Density = 1.822920 g / cm^3
# Si number density = 18.270787 Si / 1000 Ang^3
#
#
#
# Elastic Constant Matrix: (Units=GPa)
#
#
# Indices 1 2 3 4 5 6 
#
# 1 119.6449 54.9568 57.7352 0.0000 0.0000 0.0000
# 2 54.9568 104.0198 45.2419 0.0000 0.0000 0.0000
# 3 57.7352 45.2419 100.5937 0.0000 0.0000 0.0000
# 4 0.0000 0.0000 0.0000 26.0541 0.0000 0.0000
# 5 0.0000 0.0000 0.0000 0.0000 30.5310 0.0000
# 6 0.0000 0.0000 0.0000 0.0000 0.0000 35.6113
#
#
#
# Elastic Compliance Matrix: (Units=1/GPa)
#
#
# Indices 1 2 3 4 5 6 
#
# 1 0.013078 -0.004531 -0.005468 0.000000 0.000000 0.000000
# 2 -0.004531 0.013521 -0.003481 0.000000 0.000000 0.000000
# 3 -0.005468 -0.003481 0.014645 0.000000 0.000000 0.000000
# 4 0.000000 0.000000 0.000000 0.038382 0.000000 0.000000
# 5 0.000000 0.000000 0.000000 0.000000 0.032754 0.000000
# 6 0.000000 0.000000 0.000000 0.000000 0.000000 0.028081
#
#
# Mechanical properties :
#
#
# Convention : Reuss Voigt Hill
#
# Bulk Modulus (GPa) = 70.00686 71.12515 70.56600
# Shear Modulus (GPa) = 29.03906 29.52758 29.28332
#
# Velocity S-wave (km/s) = 3.99102 4.02445 4.00777
# Velocity P-wave (km/s) = 7.72251 7.78510 7.75386
#
# Compressibility (1/GPa) = 0.01428431
#
# Stress axis : x y z
#
# Youngs Moduli (GPa) = 76.46360 73.95708 68.28374
#
# Poissons Ratio (x) = 0.33512 0.37339
# Poissons Ratio (y) = 0.34648 0.23766
# Poissons Ratio (z) = 0.41812 0.25741
#
# Static dielectric constant tensor:
#      x y z
#    x 3.501140 0.000000 0.000000 
#    y 0.000000 3.421620 0.000000 
#    z 0.000000 0.000000 3.171290 
# 
# 
# High freq. dielectric constant tensor:
#      x y z
#    x 1.722140 0.000000 0.000000 
#    y 0.000000 1.713740 0.000000 
#    z 0.000000 0.000000 1.679770 
# 
# From -- ./inp_files/2725.got.cif
#   From: 2010.03.12/outbox.cif.g09.slc.cpg/sg47_2_cif.got.tgz:2725.got - 2010.04.14 03:12:58.
