data_PCOD8195744
_publ_section_title
;
Structure prediction by ZEFSAII (Michael W. Deem and Ramdas Pophale) SiO2 
 PCOD8195744
Probable space group: P M M M
;
_chemical_formula_sum "Si O2"
_cell_formula_units_Z 52
_cell_length_a 9.301969
_cell_length_b 23.046048
_cell_length_c 14.306360
_cell_angle_alpha 90.000000
_cell_angle_beta 90.000000
_cell_angle_gamma 90.000000
_cell_volume 3066.906240
_symmetry_space_group_name_H-M "P M M M"
_symmetry_group_IT_number 47
_symmetry_cell_setting 'orthorhombic'
loop_
_space_group_symop_operation_xyz
x,y,z
-x,-y,z
x,-y,-z
-x,y,-z
-x,-y,-z
x,y,-z
-x,y,z
x,-y,z
loop_
_atom_site_type_symbol
_atom_site_label
_atom_site_fract_x
_atom_site_fract_y
_atom_site_fract_z
Si Si1 0.667822 0.378338 0.103047
Si Si2 0.834156 0.334812 0.392303
Si Si3 0.669012 0.565095 0.291096
Si Si4 0.834338 0.214892 0.295627
Si Si5 0.837069 0.000000 0.388929
Si Si6 0.163909 0.737604 0.896734
Si Si7 0.332941 0.887529 0.390139
O O1 0.500000 0.365950 0.105524
O O2 0.712126 0.424156 0.182599
O O3 0.740934 0.317675 0.126178
O O4 0.714303 0.401678 0.000000
O O5 0.799412 0.322143 0.500000
O O6 0.745018 0.390242 0.359728
O O7 0.790145 0.277877 0.334481
O O8 0.000000 0.349815 0.376064
O O9 0.500000 0.572807 0.305133
O O10 0.718088 0.500000 0.316995
O O11 0.810264 0.214188 0.183305
O O12 0.728155 0.168440 0.339018
O O13 0.000000 0.200395 0.322055
O O14 0.753115 0.056562 0.352370
O O15 0.837953 0.000000 0.500000
O O16 0.000000 0.000000 0.349558
O O17 0.000000 0.716088 0.892208
O O18 0.199871 0.763546 0.000000
O O19 0.309475 0.879171 0.500000
O O20 0.500000 0.895583 0.365528
#
# Coordination Sequence:
#
# PCOD8195744 Si02
#       7
#     8   8   8   8   4   8   8
#     4   9  17  30  49  71  94 120 150 189 241 299
#     4  10  21  36  52  70  93 123 161 205 249 292
#     4  10  21  35  50  69  93 122 158 199 244 298
#     4  10  19  32  51  74 100 129 162 201 244 293
#     4   9  17  31  51  73 102 141 178 209 243 284
#     4   9  17  30  50  74  98 124 155 195 244 294
#     4  10  20  32  48  74 107 140 173 208 243 281
#
# _framework density 16.955196999999998
#
# number of rings (size 3 to 8) (size 9 to 14) (size 15 to 20)
#    0.000    2.385    1.538    1.154    0.000    4.923 
#    0.000    3.077    0.000    0.000    0.000    3.769 
#    0.000    4.308    0.000    0.000    0.000    0.000 
#
# Total GULP energy -644706.290148 kJ/mol
# GULP energy per Si atom -12398.197887 kJ/mol
# Density = 1.691661 g / cm^3
# Si number density = 16.955197 Si / 1000 Ang^3
#
#
#
# Elastic Constant Matrix: (Units=GPa)
#
#
# Indices 1 2 3 4 5 6 
#
# 1 61.3102 47.3143 38.1339 0.0000 0.0000 0.0000
# 2 47.3143 98.3174 43.8380 0.0000 0.0000 0.0000
# 3 38.1339 43.8380 82.7195 0.0000 0.0000 0.0000
# 4 0.0000 0.0000 0.0000 11.2796 0.0000 0.0000
# 5 0.0000 0.0000 0.0000 0.0000 23.0445 0.0000
# 6 0.0000 0.0000 0.0000 0.0000 0.0000 442.1465
#
#
#
# Elastic Compliance Matrix: (Units=1/GPa)
#
#
# Indices 1 2 3 4 5 6 
#
# 1 0.029459 -0.010634 -0.007945 0.000000 0.000000 0.000000
# 2 -0.010634 0.017157 -0.004190 0.000000 0.000000 0.000000
# 3 -0.007945 -0.004190 0.017972 0.000000 0.000000 0.000000
# 4 0.000000 0.000000 0.000000 0.088656 0.000000 0.000000
# 5 0.000000 0.000000 0.000000 0.000000 0.043394 0.000000
# 6 0.000000 0.000000 0.000000 0.000000 0.000000 0.002262
#
#
# Mechanical properties :
#
#
# Convention : Reuss Voigt Hill
#
# Bulk Modulus (GPa) = 52.49458 55.65774 54.07616
# Shear Modulus (GPa) = 19.93718 102.83153 61.38436
#
# Velocity S-wave (km/s) = 3.43282 7.79619 6.02349
# Velocity P-wave (km/s) = 6.83669 10.67420 8.96323
#
# Compressibility (1/GPa) = 0.01904959
#
# Stress axis : x y z
#
# Youngs Moduli (GPa) = 33.94583 58.28497 55.64139
#
# Poissons Ratio (x) = 0.61982 0.44206
# Poissons Ratio (y) = 0.36099 0.23314
# Poissons Ratio (z) = 0.26969 0.24422
#
# Static dielectric constant tensor:
#      x y z
#    x 3.209060 0.000000 0.000000 
#    y 0.000000 3.052750 0.000000 
#    z 0.000000 0.000000 3.349110 
# 
# 
# High freq. dielectric constant tensor:
#      x y z
#    x 1.656320 0.000000 0.000000 
#    y 0.000000 1.633890 0.000000 
#    z 0.000000 0.000000 1.650570 
# 
# From -- ./inp_files/7083.got.cif
#   From: 2010.03.12/outbox.cif.g09.slc.cpg/sg47_4_cif.got.tgz:7083.got - 2010.04.14 03:12:58.
