data_PCOD8195421
_publ_section_title
;
Structure prediction by ZEFSAII (Michael W. Deem and Ramdas Pophale) SiO2 
 PCOD8195421
Probable space group: P M M M
;
_chemical_formula_sum "Si O2"
_cell_formula_units_Z 52
_cell_length_a 9.520360
_cell_length_b 14.468135
_cell_length_c 20.989197
_cell_angle_alpha 90.000000
_cell_angle_beta 90.000000
_cell_angle_gamma 90.000000
_cell_volume 2891.090903
_symmetry_space_group_name_H-M "P M M M"
_symmetry_group_IT_number 47
_symmetry_cell_setting 'orthorhombic'
loop_
_space_group_symop_operation_xyz
x,y,z
-x,-y,z
x,-y,-z
-x,y,-z
-x,-y,-z
x,y,-z
-x,y,z
x,-y,z
loop_
_atom_site_type_symbol
_atom_site_label
_atom_site_fract_x
_atom_site_fract_y
_atom_site_fract_z
Si Si1 0.833473 0.600082 0.127965
Si Si2 0.159697 0.892075 0.808618
Si Si3 0.667064 0.606487 0.500000
Si Si4 0.840212 0.607124 0.271773
Si Si5 0.167393 0.215197 0.930375
Si Si6 0.662281 0.104221 0.314111
Si Si7 0.336443 0.289858 0.374835
O O1 0.770060 0.500000 0.107751
O O2 0.789000 0.625402 0.199840
O O3 0.779907 0.679526 0.080510
O O4 0.000000 0.592866 0.126418
O O5 0.225250 0.847511 0.872795
O O6 0.249343 0.863521 0.747216
O O7 0.000000 0.857689 0.797076
O O8 0.165348 0.000000 0.820244
O O9 0.723652 0.500000 0.500000
O O10 0.500000 0.605226 0.500000
O O11 0.724231 0.664235 0.439336
O O12 0.826681 0.500000 0.289641
O O13 0.738487 0.665346 0.315336
O O14 0.000000 0.640775 0.281642
O O15 0.000000 0.210287 0.929909
O O16 0.223687 0.182594 0.000000
O O17 0.500000 0.105652 0.293645
O O18 0.689182 0.178187 0.371270
O O19 0.705590 0.000000 0.336485
O O20 0.500000 0.312918 0.369467
#
# Coordination Sequence:
#
# PCOD8195421 Si02
#       7
#     8   8   4   8   8   8   8
#     4   8  14  24  37  55  81 112 144 178 219 265
#     4   9  17  29  46  67  89 115 147 182 224 273
#     4   9  18  32  48  68  96 125 151 181 218 263
#     4   9  17  29  46  68  93 120 150 188 232 271
#     4   9  16  24  36  57  84 113 145 181 219 260
#     4   9  18  32  49  70  94 117 147 190 232 266
#     4  10  19  31  49  70  92 122 155 184 220 266
#
# _framework density 17.98629
#
# number of rings (size 3 to 8) (size 9 to 14) (size 15 to 20)
#    0.000    3.000    0.000    2.308    0.000    3.385 
#    0.000    3.846    0.000    4.154    0.000    2.154 
#    0.000    3.692    0.000   13.231    0.000   10.769 
#
# Total GULP energy -644373.235380 kJ/mol
# GULP energy per Si atom -12391.792988 kJ/mol
# Density = 1.794535 g / cm^3
# Si number density = 17.986290 Si / 1000 Ang^3
#
#
#
# Elastic Constant Matrix: (Units=GPa)
#
#
# Indices 1 2 3 4 5 6 
#
# 1 23.9092 20.4454 18.2772 0.0000 0.0000 0.0000
# 2 20.4454 92.6670 66.9496 0.0000 0.0000 0.0000
# 3 18.2772 66.9496 88.3473 0.0000 0.0000 0.0000
# 4 0.0000 0.0000 0.0000 28.8980 0.0000 0.0000
# 5 0.0000 0.0000 0.0000 0.0000 10.2773 0.0000
# 6 0.0000 0.0000 0.0000 0.0000 0.0000 16.5049
#
#
#
# Elastic Compliance Matrix: (Units=1/GPa)
#
#
# Indices 1 2 3 4 5 6 
#
# 1 0.052381 -0.008238 -0.004594 0.000000 0.000000 0.000000
# 2 -0.008238 0.025144 -0.017349 0.000000 0.000000 0.000000
# 3 -0.004594 -0.017349 0.025417 0.000000 0.000000 0.000000
# 4 0.000000 0.000000 0.000000 0.034604 0.000000 0.000000
# 5 0.000000 0.000000 0.000000 0.000000 0.097301 0.000000
# 6 0.000000 0.000000 0.000000 0.000000 0.000000 0.060588
#
#
# Mechanical properties :
#
#
# Convention : Reuss Voigt Hill
#
# Bulk Modulus (GPa) = 23.48583 46.25198 34.86890
# Shear Modulus (GPa) = 13.51384 17.75279 15.63331
#
# Velocity S-wave (km/s) = 2.74403 3.14509 2.95138
# Velocity P-wave (km/s) = 4.80891 6.24178 5.57160
#
# Compressibility (1/GPa) = 0.04257886
#
# Stress axis : x y z
#
# Youngs Moduli (GPa) = 19.09079 39.77169 39.34419
#
# Poissons Ratio (x) = 0.32765 0.18073
# Poissons Ratio (y) = 0.15727 0.68260
# Poissons Ratio (z) = 0.08770 0.69002
#
# Static dielectric constant tensor:
#      x y z
#    x 2.928430 0.000000 0.000000 
#    y 0.000000 3.714780 0.000000 
#    z 0.000000 0.000000 3.413210 
# 
# 
# High freq. dielectric constant tensor:
#      x y z
#    x 1.642250 0.000000 0.000000 
#    y 0.000000 1.714000 0.000000 
#    z 0.000000 0.000000 1.685570 
# 
# From -- ./inp_files/21469.got.cif
#   From: 2010.03.12/outbox.cif.g09.slc.cpg/sg47_11_cif.got.tgz:21469.got - 2010.04.14 03:12:58.
