data_PCOD8195599
_publ_section_title
;
Structure prediction by ZEFSAII (Michael W. Deem and Ramdas Pophale) SiO2 
 PCOD8195599
Probable space group: P M M M
;
_chemical_formula_sum "Si O2"
_cell_formula_units_Z 52
_cell_length_a 9.188885
_cell_length_b 19.568283
_cell_length_c 15.691224
_cell_angle_alpha 90.000000
_cell_angle_beta 90.000000
_cell_angle_gamma 90.000000
_cell_volume 2821.450005
_symmetry_space_group_name_H-M "P M M M"
_symmetry_group_IT_number 47
_symmetry_cell_setting 'orthorhombic'
loop_
_space_group_symop_operation_xyz
x,y,z
-x,-y,z
x,-y,-z
-x,y,-z
-x,-y,-z
x,y,-z
-x,y,z
x,-y,z
loop_
_atom_site_type_symbol
_atom_site_label
_atom_site_fract_x
_atom_site_fract_y
_atom_site_fract_z
Si Si1 0.842272 0.500000 0.401197
Si Si2 0.659408 0.367496 0.636940
Si Si3 0.660905 0.685821 0.179131
Si Si4 0.173702 0.816558 0.236524
Si Si5 0.159131 0.574166 0.901151
Si Si6 0.328649 0.782177 0.404575
Si Si7 0.172651 0.923125 0.094921
O O1 0.865783 0.500000 0.500000
O O2 0.761815 0.569014 0.377484
O O3 0.000000 0.500000 0.355462
O O4 0.500000 0.383045 0.597424
O O5 0.646411 0.358500 0.736782
O O6 0.721905 0.297194 0.596250
O O7 0.500000 0.711655 0.150694
O O8 0.770561 0.748186 0.191893
O O9 0.725354 0.634230 0.110615
O O10 0.242705 0.824889 0.331731
O O11 0.228982 0.876654 0.173250
O O12 0.000000 0.815096 0.245734
O O13 0.210347 0.500000 0.863180
O O14 0.000000 0.593174 0.861522
O O15 0.139808 0.564936 0.000000
O O16 0.297247 0.811710 0.500000
O O17 0.500000 0.785993 0.382049
O O18 0.000000 0.921845 0.095271
O O19 0.229909 0.000000 0.111115
O O20 0.225760 0.898267 0.000000
#
# Coordination Sequence:
#
# PCOD8195599 Si02
#       7
#     4   8   8   8   8   8   8
#     4  11  23  33  43  65  92 115 146 195 253 304
#     4   9  19  34  49  65  87 120 162 203 246 301
#     4  10  21  35  50  70  98 131 169 208 251 307
#     4  10  19  31  52  82 109 134 171 218 265 308
#     4   9  19  35  52  70  93 123 163 213 267 316
#     4   9  18  34  54  73  98 136 177 216 261 314
#     4   8  15  30  53  81 112 144 175 207 249 305
#
# _framework density 18.430239
#
# number of rings (size 3 to 8) (size 9 to 14) (size 15 to 20)
#    0.000    2.692    0.000    3.462    1.077    5.846 
#    0.000    2.308    0.000    3.692    0.000    7.538 
#    0.000    0.000    0.000    0.000    0.000    0.000 
#
# Total GULP energy -644227.836249 kJ/mol
# GULP energy per Si atom -12388.996851 kJ/mol
# Density = 1.838829 g / cm^3
# Si number density = 18.430239 Si / 1000 Ang^3
#
#
#
# Elastic Constant Matrix: (Units=GPa)
#
#
# Indices 1 2 3 4 5 6 
#
# 1 79.4043 40.4905 41.3993 0.0000 0.0000 0.0000
# 2 40.4905 87.5014 63.3735 0.0000 0.0000 0.0000
# 3 41.3993 63.3735 102.1573 0.0000 0.0000 0.0000
# 4 0.0000 0.0000 0.0000 17.1021 0.0000 0.0000
# 5 0.0000 0.0000 0.0000 0.0000 21.7178 0.0000
# 6 0.0000 0.0000 0.0000 0.0000 0.0000 11.5500
#
#
#
# Elastic Compliance Matrix: (Units=1/GPa)
#
#
# Indices 1 2 3 4 5 6 
#
# 1 0.017219 -0.005291 -0.003695 0.000000 0.000000 0.000000
# 2 -0.005291 0.022378 -0.011738 0.000000 0.000000 0.000000
# 3 -0.003695 -0.011738 0.018568 0.000000 0.000000 0.000000
# 4 0.000000 0.000000 0.000000 0.058472 0.000000 0.000000
# 5 0.000000 0.000000 0.000000 0.000000 0.046045 0.000000
# 6 0.000000 0.000000 0.000000 0.000000 0.000000 0.086580
#
#
# Mechanical properties :
#
#
# Convention : Reuss Voigt Hill
#
# Bulk Modulus (GPa) = 59.82498 62.17663 61.00080
# Shear Modulus (GPa) = 16.87568 18.32730 17.60149
#
# Velocity S-wave (km/s) = 3.02926 3.15685 3.09371
# Velocity P-wave (km/s) = 6.69073 6.86273 6.77728
#
# Compressibility (1/GPa) = 0.01671543
#
# Stress axis : x y z
#
# Youngs Moduli (GPa) = 58.07649 44.68608 53.85576
#
# Poissons Ratio (x) = 0.23645 0.19902
# Poissons Ratio (y) = 0.30731 0.63216
# Poissons Ratio (z) = 0.21461 0.52453
#
# Static dielectric constant tensor:
#      x y z
#    x 3.842330 0.000000 0.000000 
#    y 0.000000 3.302350 0.000000 
#    z 0.000000 0.000000 3.542730 
# 
# 
# High freq. dielectric constant tensor:
#      x y z
#    x 1.702830 0.000000 0.000000 
#    y 0.000000 1.690040 0.000000 
#    z 0.000000 0.000000 1.717690 
# 
# From -- ./inp_files/21491.got.cif
#   From: 2010.03.12/outbox.cif.g09.slc.cpg/sg47_11_cif.got.tgz:21491.got - 2010.04.14 03:12:58.
