data_PCOD8195571
_publ_section_title
;
Structure prediction by ZEFSAII (Michael W. Deem and Ramdas Pophale) SiO2 
 PCOD8195571
Probable space group: P M M M
;
_chemical_formula_sum "Si O2"
_cell_formula_units_Z 64
_cell_length_a 27.632521
_cell_length_b 14.566471
_cell_length_c 8.860528
_cell_angle_alpha 90.000000
_cell_angle_beta 90.000000
_cell_angle_gamma 90.000000
_cell_volume 3566.436202
_symmetry_space_group_name_H-M "P M M M"
_symmetry_group_IT_number 47
_symmetry_cell_setting 'orthorhombic'
loop_
_space_group_symop_operation_xyz
x,y,z
-x,-y,z
x,-y,-z
-x,y,-z
-x,-y,-z
x,y,-z
-x,y,z
x,-y,z
loop_
_atom_site_type_symbol
_atom_site_label
_atom_site_fract_x
_atom_site_fract_y
_atom_site_fract_z
Si Si1 0.444024 0.895806 0.675050
Si Si2 0.137375 0.284173 0.322647
Si Si3 0.167297 0.100470 0.820996
Si Si4 0.324276 0.601782 0.673311
Si Si5 0.267679 0.148614 0.837281
Si Si6 0.635995 0.777873 0.179890
Si Si7 0.055962 0.605513 0.826617
Si Si8 0.230073 0.648369 0.165504
O O1 0.432064 0.881427 0.500000
O O2 0.500000 0.875925 0.707870
O O3 0.414266 0.822604 0.771809
O O4 0.431164 0.000000 0.723500
O O5 0.144838 0.280059 0.500000
O O6 0.137065 0.179710 0.260243
O O7 0.086109 0.328578 0.282381
O O8 0.179041 0.348459 0.252405
O O9 0.223099 0.096822 0.755260
O O10 0.143950 0.000000 0.789394
O O11 0.168989 0.121878 0.000000
O O12 0.320426 0.632429 0.500000
O O13 0.347633 0.500000 0.688941
O O14 0.358922 0.674514 0.757544
O O15 0.270075 0.593861 0.739558
O O16 0.319995 0.156840 0.754430
O O17 0.249520 0.250960 0.859713
O O18 0.276325 0.101312 0.000000
O O19 0.639536 0.772320 0.000000
O O20 0.066686 0.500000 0.785418
O O21 0.000000 0.628420 0.798999
O O22 0.070057 0.624915 0.000000
O O23 0.222439 0.602324 0.000000
#
# Coordination Sequence:
#
# PCOD8195571 Si02
#       8
#     8   8   8   8   8   8   8   8
#     4   9  19  36  55  74  99 132 168 208 258 312
#     4  11  21  32  50  76 107 139 169 206 254 307
#     4   9  17  31  51  72  99 139 181 214 244 287
#     4  10  20  33  50  74 105 139 174 211 251 298
#     4   7  13  26  43  66  93 122 159 200 240 280
#     4  10  19  31  51  77 104 135 169 207 253 305
#     4   9  19  37  59  79  98 124 162 208 257 309
#     4   9  17  31  49  68  95 132 173 211 244 284
#
# _framework density 17.945084999999999
#
# number of rings (size 3 to 8) (size 9 to 14) (size 15 to 20)
#    0.000    2.750    0.000    4.500    0.000    3.250 
#    0.000    3.125    0.000    0.750    0.000    5.250 
#    0.000    0.000    0.000    0.000    0.000    0.000 
#
# Total GULP energy -792963.136941 kJ/mol
# GULP energy per Si atom -12390.049015 kJ/mol
# Density = 1.790424 g / cm^3
# Si number density = 17.945085 Si / 1000 Ang^3
#
#
#
# Elastic Constant Matrix: (Units=GPa)
#
#
# Indices 1 2 3 4 5 6 
#
# 1 85.3305 49.5153 41.8607 0.0000 0.0000 0.0000
# 2 49.5153 97.1659 44.7508 0.0000 0.0000 0.0000
# 3 41.8607 44.7508 99.1196 0.0000 0.0000 0.0000
# 4 0.0000 0.0000 0.0000 12.1864 0.0000 0.0000
# 5 0.0000 0.0000 0.0000 0.0000 27.6681 0.0000
# 6 0.0000 0.0000 0.0000 0.0000 0.0000 25.2304
#
#
#
# Elastic Compliance Matrix: (Units=1/GPa)
#
#
# Indices 1 2 3 4 5 6 
#
# 1 0.018027 -0.007171 -0.004376 0.000000 0.000000 0.000000
# 2 -0.007171 0.015846 -0.004126 0.000000 0.000000 0.000000
# 3 -0.004376 -0.004126 0.013799 0.000000 0.000000 0.000000
# 4 0.000000 0.000000 0.000000 0.082058 0.000000 0.000000
# 5 0.000000 0.000000 0.000000 0.000000 0.036143 0.000000
# 6 0.000000 0.000000 0.000000 0.000000 0.000000 0.039635
#
#
# Mechanical properties :
#
#
# Convention : Reuss Voigt Hill
#
# Bulk Modulus (GPa) = 61.24593 61.54107 61.39350
# Shear Modulus (GPa) = 20.63592 22.71627 21.67609
#
# Velocity S-wave (km/s) = 3.39477 3.56178 3.47927
# Velocity P-wave (km/s) = 7.04057 7.16125 7.10117
#
# Compressibility (1/GPa) = 0.01632762
#
# Stress axis : x y z
#
# Youngs Moduli (GPa) = 55.47248 63.10638 72.46690
#
# Poissons Ratio (x) = 0.45255 0.31708
# Poissons Ratio (y) = 0.39781 0.29898
# Poissons Ratio (z) = 0.24272 0.26036
#
# Static dielectric constant tensor:
#      x y z
#    x 3.290040 0.000000 0.000000 
#    y 0.000000 3.329800 0.000000 
#    z 0.000000 0.000000 3.229360 
# 
# 
# High freq. dielectric constant tensor:
#      x y z
#    x 1.674480 0.000000 0.000000 
#    y 0.000000 1.688770 0.000000 
#    z 0.000000 0.000000 1.683240 
# 
# From -- ./inp_files/14316.got.cif
#   From: 2010.03.12/outbox.cif.g09.slc.cpg/sg47_8_cif.got.tgz:14316.got - 2010.04.14 03:12:58.
