data_PCOD8195540
_publ_section_title
;
Structure prediction by ZEFSAII (Michael W. Deem and Ramdas Pophale) SiO2 
 PCOD8195540
Probable space group: P M M M
;
_chemical_formula_sum "Si O2"
_cell_formula_units_Z 52
_cell_length_a 8.053764
_cell_length_b 27.610239
_cell_length_c 12.748224
_cell_angle_alpha 90.000000
_cell_angle_beta 90.000000
_cell_angle_gamma 90.000000
_cell_volume 2834.776026
_symmetry_space_group_name_H-M "P M M M"
_symmetry_group_IT_number 47
_symmetry_cell_setting 'orthorhombic'
loop_
_space_group_symop_operation_xyz
x,y,z
-x,-y,z
x,-y,-z
-x,y,-z
-x,-y,-z
x,y,-z
-x,y,z
x,-y,z
loop_
_atom_site_type_symbol
_atom_site_label
_atom_site_fract_x
_atom_site_fract_y
_atom_site_fract_z
Si Si1 0.306402 0.377630 0.618145
Si Si2 0.812724 0.116832 0.122565
Si Si3 0.190698 0.726874 0.381301
Si Si4 0.308930 0.783767 0.190214
Si Si5 0.304300 0.445057 0.194964
Si Si6 0.309167 0.278798 0.000000
Si Si7 0.813135 0.384815 0.000000
Si Si8 0.500000 0.945806 0.875515
O O1 0.260542 0.393872 0.500000
O O2 0.500000 0.365916 0.629124
O O3 0.209884 0.329212 0.651135
O O4 0.252668 0.420854 0.694959
O O5 0.795960 0.167082 0.184666
O O6 0.669985 0.080127 0.163630
O O7 0.000000 0.096081 0.142486
O O8 0.784535 0.127472 0.000000
O O9 0.256914 0.734219 0.500000
O O10 0.295894 0.761055 0.305532
O O11 0.000000 0.741782 0.371721
O O12 0.500000 0.796427 0.166970
O O13 0.233747 0.745592 0.105184
O O14 0.500000 0.443178 0.176803
O O15 0.239079 0.500000 0.196556
O O16 0.218331 0.416895 0.101449
O O17 0.295266 0.336520 0.000000
O O18 0.500000 0.265736 0.000000
O O19 0.000000 0.366348 0.000000
O O20 0.500000 0.000000 0.828469
O O21 0.500000 0.947782 0.000000
#
# Coordination Sequence:
#
# PCOD8195540 Si02
#       8
#     8   8   8   8   8   4   4   4
#     4   9  18  34  55  77  99 123 157 202 254 312
#     4  10  19  31  50  75 109 147 186 232 278 324
#     4  10  21  35  50  72 104 139 174 213 259 314
#     4  11  20  33  53  76 106 140 179 221 266 320
#     4  10  21  37  56  74  95 125 159 200 253 309
#     4  10  22  35  53  76 102 136 169 210 259 312
#     4  12  25  37  50  71 100 128 165 209 246 299
#     4   9  18  32  50  72 107 151 195 237 274 320
#
# _framework density 18.343601
#
# number of rings (size 3 to 8) (size 9 to 14) (size 15 to 20)
#    0.000    1.923    1.538    2.769    0.000    8.308 
#    0.000    3.077    0.000    0.000    0.000    3.231 
#    0.000    1.231    0.000    3.231    0.000    0.154 
#
# Total GULP energy -644833.990172 kJ/mol
# GULP energy per Si atom -12400.653657 kJ/mol
# Density = 1.830185 g / cm^3
# Si number density = 18.343601 Si / 1000 Ang^3
#
#
#
# Elastic Constant Matrix: (Units=GPa)
#
#
# Indices 1 2 3 4 5 6 
#
# 1 75.2203 37.2303 24.3106 0.0000 0.0000 0.0000
# 2 37.2303 122.4316 48.6794 0.0000 0.0000 0.0000
# 3 24.3106 48.6794 83.3653 0.0000 0.0000 0.0000
# 4 0.0000 0.0000 0.0000 28.4266 0.0000 0.0000
# 5 0.0000 0.0000 0.0000 0.0000 10.8246 0.0000
# 6 0.0000 0.0000 0.0000 0.0000 0.0000 14.6074
#
#
#
# Elastic Compliance Matrix: (Units=1/GPa)
#
#
# Indices 1 2 3 4 5 6 
#
# 1 0.016003 -0.003921 -0.002377 0.000000 0.000000 0.000000
# 2 -0.003921 0.011598 -0.005629 0.000000 0.000000 0.000000
# 3 -0.002377 -0.005629 0.015976 0.000000 0.000000 0.000000
# 4 0.000000 0.000000 0.000000 0.035178 0.000000 0.000000
# 5 0.000000 0.000000 0.000000 0.000000 0.092382 0.000000
# 6 0.000000 0.000000 0.000000 0.000000 0.000000 0.068458
#
#
# Mechanical properties :
#
#
# Convention : Reuss Voigt Hill
#
# Bulk Modulus (GPa) = 50.70386 55.71754 53.21070
# Shear Modulus (GPa) = 18.51675 22.15817 20.33746
#
# Velocity S-wave (km/s) = 3.18061 3.47933 3.33332
# Velocity P-wave (km/s) = 6.41791 6.82505 6.62461
#
# Compressibility (1/GPa) = 0.01972236
#
# Stress axis : x y z
#
# Youngs Moduli (GPa) = 62.48665 86.21843 62.59551
#
# Poissons Ratio (x) = 0.33809 0.14879
# Poissons Ratio (y) = 0.24503 0.35236
# Poissons Ratio (z) = 0.14853 0.48534
#
# Static dielectric constant tensor:
#      x y z
#    x 3.382300 0.000000 0.000000 
#    y 0.000000 3.286630 0.000000 
#    z 0.000000 0.000000 3.753810 
# 
# 
# High freq. dielectric constant tensor:
#      x y z
#    x 1.713690 0.000000 0.000000 
#    y 0.000000 1.696160 0.000000 
#    z 0.000000 0.000000 1.692050 
# 
# From -- ./inp_files/15523.got.cif
#   From: 2010.03.12/outbox.cif.g09.slc.cpg/sg47_8_cif.got.tgz:15523.got - 2010.04.14 03:12:58.
