data_PCOD8195850
_publ_section_title
;
Structure prediction by ZEFSAII (Michael W. Deem and Ramdas Pophale) SiO2 
 PCOD8195850
Probable space group: P M M M
;
_chemical_formula_sum "Si O2"
_cell_formula_units_Z 56
_cell_length_a 19.456770
_cell_length_b 8.922796
_cell_length_c 15.957969
_cell_angle_alpha 90.000000
_cell_angle_beta 90.000000
_cell_angle_gamma 90.000000
_cell_volume 2770.443681
_symmetry_space_group_name_H-M "P M M M"
_symmetry_group_IT_number 47
_symmetry_cell_setting 'orthorhombic'
loop_
_space_group_symop_operation_xyz
x,y,z
-x,-y,z
x,-y,-z
-x,y,-z
-x,-y,-z
x,y,-z
-x,y,z
x,-y,z
loop_
_atom_site_type_symbol
_atom_site_label
_atom_site_fract_x
_atom_site_fract_y
_atom_site_fract_z
Si Si1 0.574845 0.177678 0.093622
Si Si2 0.425863 0.322028 0.405512
Si Si3 0.851425 0.828145 0.906142
Si Si4 0.919236 0.672698 0.748196
Si Si5 0.287793 0.171982 0.825272
Si Si6 0.282780 0.323095 0.658329
Si Si7 0.844850 0.174201 0.406153
O O1 0.500000 0.222857 0.132532
O O2 0.638739 0.241509 0.146482
O O3 0.582038 0.000000 0.089299
O O4 0.579495 0.243571 0.000000
O O5 0.419261 0.262526 0.500000
O O6 0.500000 0.267327 0.367987
O O7 0.423856 0.500000 0.405063
O O8 0.360519 0.260139 0.354424
O O9 0.889051 0.733037 0.835275
O O10 0.768616 0.815200 0.898382
O O11 0.874359 0.000000 0.894524
O O12 0.871082 0.771780 0.000000
O O13 0.898104 0.500000 0.739928
O O14 0.892686 0.754622 0.664878
O O15 0.000000 0.696602 0.751958
O O16 0.258926 0.273350 0.750248
O O17 0.295859 0.000000 0.795537
O O18 0.278794 0.500000 0.647035
O O19 0.230678 0.248500 0.592995
O O20 0.875942 0.198358 0.500000
O O21 0.837408 0.000000 0.385049
#
# Coordination Sequence:
#
# PCOD8195850 Si02
#       7
#     8   8   8   8   8   8   8
#     4   8  14  26  46  73 105 144 193 246 296 346
#     4   8  15  29  48  71 102 143 192 242 290 344
#     4  10  21  38  62  90 121 162 208 249 292 346
#     4  11  25  44  66  94 127 159 193 239 293 350
#     4  10  19  32  52  79 113 151 196 247 295 345
#     4  11  21  33  54  83 115 152 197 246 296 351
#     4  11  24  42  65  92 122 158 199 244 296 354
#
# _framework density 20.213369
#
# number of rings (size 3 to 8) (size 9 to 14) (size 15 to 20)
#    0.000    2.143    1.429    3.000    0.000    6.000 
#    0.000    2.857    0.000    2.571    0.000    6.000 
#    0.000    0.000    0.000    0.000    0.000    0.000 
#
# Total GULP energy -694069.461278 kJ/mol
# GULP energy per Si atom -12394.097523 kJ/mol
# Density = 2.016736 g / cm^3
# Si number density = 20.213369 Si / 1000 Ang^3
#
#
#
# Elastic Constant Matrix: (Units=GPa)
#
#
# Indices 1 2 3 4 5 6 
#
# 1 102.5821 47.8268 49.6788 0.0000 0.0000 0.0000
# 2 47.8268 83.3846 50.0241 0.0000 0.0000 0.0000
# 3 49.6788 50.0241 125.5275 0.0000 0.0000 0.0000
# 4 0.0000 0.0000 0.0000 12.2344 0.0000 0.0000
# 5 0.0000 0.0000 0.0000 0.0000 28.8358 0.0000
# 6 0.0000 0.0000 0.0000 0.0000 0.0000 23.2790
#
#
#
# Elastic Compliance Matrix: (Units=1/GPa)
#
#
# Indices 1 2 3 4 5 6 
#
# 1 0.014177 -0.006263 -0.003115 0.000000 0.000000 0.000000
# 2 -0.006263 0.018527 -0.004905 0.000000 0.000000 0.000000
# 3 -0.003115 -0.004905 0.011154 0.000000 0.000000 0.000000
# 4 0.000000 0.000000 0.000000 0.081737 0.000000 0.000000
# 5 0.000000 0.000000 0.000000 0.000000 0.034679 0.000000
# 6 0.000000 0.000000 0.000000 0.000000 0.000000 0.042957
#
#
# Mechanical properties :
#
#
# Convention : Reuss Voigt Hill
#
# Bulk Modulus (GPa) = 65.38928 67.39485 66.39206
# Shear Modulus (GPa) = 21.10664 23.80081 22.45373
#
# Velocity S-wave (km/s) = 3.23490 3.43516 3.33654
# Velocity P-wave (km/s) = 6.80974 7.01056 6.91088
#
# Compressibility (1/GPa) = 0.01529303
#
# Stress axis : x y z
#
# Youngs Moduli (GPa) = 70.53912 53.97493 89.65629
#
# Poissons Ratio (x) = 0.33802 0.27926
# Poissons Ratio (y) = 0.44176 0.43975
# Poissons Ratio (z) = 0.21971 0.26474
#
# Static dielectric constant tensor:
#      x y z
#    x 3.989130 0.000000 0.000000 
#    y 0.000000 3.338680 0.000000 
#    z 0.000000 0.000000 3.633750 
# 
# 
# High freq. dielectric constant tensor:
#      x y z
#    x 1.802280 0.000000 0.000000 
#    y 0.000000 1.755750 0.000000 
#    z 0.000000 0.000000 1.787390 
# 
# From -- ./inp_files/25137.got.cif
#   From: 2010.03.12/outbox.cif.g09.slc.cpg/sg47_13_cif.got.tgz:25137.got - 2010.04.14 03:12:58.
