data_PCOD8195576
_publ_section_title
;
Structure prediction by ZEFSAII (Michael W. Deem and Ramdas Pophale) SiO2 
 PCOD8195576
Probable space group: P M M M
;
_chemical_formula_sum "Si O2"
_cell_formula_units_Z 44
_cell_length_a 30.006379
_cell_length_b 7.981911
_cell_length_c 9.498846
_cell_angle_alpha 90.000000
_cell_angle_beta 90.000000
_cell_angle_gamma 90.000000
_cell_volume 2275.051950
_symmetry_space_group_name_H-M "P M M M"
_symmetry_group_IT_number 47
_symmetry_cell_setting 'orthorhombic'
loop_
_space_group_symop_operation_xyz
x,y,z
-x,-y,z
x,-y,-z
-x,y,-z
-x,-y,-z
x,y,-z
-x,y,z
x,-y,z
loop_
_atom_site_type_symbol
_atom_site_label
_atom_site_fract_x
_atom_site_fract_y
_atom_site_fract_z
Si Si1 0.950404 0.000000 0.166507
Si Si2 0.808214 0.802559 0.336270
Si Si3 0.109302 0.689507 0.836969
Si Si4 0.627555 0.188217 0.834910
Si Si5 0.548264 0.693950 0.653378
Si Si6 0.274758 0.800668 0.843277
O O1 0.925806 0.170411 0.216825
O O2 0.000000 0.000000 0.232786
O O3 0.953724 0.000000 0.000000
O O4 0.808487 0.754610 0.500000
O O5 0.846942 0.703530 0.257380
O O6 0.761654 0.740081 0.269611
O O7 0.815137 0.000000 0.312611
O O8 0.089817 0.500000 0.819483
O O9 0.121719 0.723998 0.000000
O O10 0.587599 0.284390 0.763279
O O11 0.676262 0.267811 0.798870
O O12 0.626024 0.000000 0.778070
O O13 0.619643 0.196587 0.000000
O O14 0.560399 0.772803 0.500000
O O15 0.500000 0.768481 0.704999
O O16 0.541720 0.500000 0.633393
O O17 0.277528 0.000000 0.848000
O O18 0.261871 0.735129 0.000000
#
# Coordination Sequence:
#
# PCOD8195576 Si02
#       6
#     4   8   8   8   8   8
#     4   9  18  34  57  85 115 145 181 229 278 321
#     4  10  19  31  51  78 106 139 179 220 263 312
#     4  10  20  34  55  82 111 146 185 224 271 324
#     4   9  18  32  50  75 103 128 160 205 256 308
#     4   9  19  35  51  67  91 126 167 208 252 305
#     4   8  15  29  49  72 101 137 172 208 254 309
#
# _framework density 19.340216000000002
#
# number of rings (size 3 to 8) (size 9 to 14) (size 15 to 20)
#    0.000    2.818    0.909    2.182    0.000    3.636 
#    0.000    7.273    0.000    2.182    0.000    1.273 
#    0.000    0.000    0.000    0.000    0.000    0.000 
#
# Total GULP energy -545225.352800 kJ/mol
# GULP energy per Si atom -12391.485291 kJ/mol
# Density = 1.929620 g / cm^3
# Si number density = 19.340216 Si / 1000 Ang^3
#
#
#
# Elastic Constant Matrix: (Units=GPa)
#
#
# Indices 1 2 3 4 5 6 
#
# 1 160.3614 45.6939 63.6178 0.0000 0.0000 0.0000
# 2 45.6939 70.0441 28.1387 0.0000 0.0000 0.0000
# 3 63.6178 28.1387 73.9104 0.0000 0.0000 0.0000
# 4 0.0000 0.0000 0.0000 17.7105 0.0000 0.0000
# 5 0.0000 0.0000 0.0000 0.0000 3.7036 0.0000
# 6 0.0000 0.0000 0.0000 0.0000 0.0000 -37.5788
#
#
#
# Elastic Compliance Matrix: (Units=1/GPa)
#
#
# Indices 1 2 3 4 5 6 
#
# 1 0.010222 -0.003700 -0.007390 0.000000 0.000000 0.000000
# 2 -0.003700 0.018193 -0.003742 0.000000 0.000000 0.000000
# 3 -0.007390 -0.003742 0.021315 0.000000 0.000000 0.000000
# 4 0.000000 0.000000 0.000000 0.056464 0.000000 0.000000
# 5 0.000000 0.000000 0.000000 0.000000 0.270005 0.000000
# 6 0.000000 0.000000 0.000000 0.000000 0.000000 -0.026611
#
#
# Mechanical properties :
#
#
# Convention : Reuss Voigt Hill
#
# Bulk Modulus (GPa) = 49.83183 64.35741 57.09462
# Shear Modulus (GPa) = 12.95537 7.89145 10.42341
#
# Velocity S-wave (km/s) = 2.59099 2.02217 2.32405
# Velocity P-wave (km/s) = 5.89685 6.22904 6.06522
#
# Compressibility (1/GPa) = 0.02006749
#
# Stress axis : x y z
#
# Youngs Moduli (GPa) = 97.83095 54.96477 46.91469
#
# Poissons Ratio (x) = 0.20334 0.34669
# Poissons Ratio (y) = 0.36193 0.17556
# Poissons Ratio (z) = 0.72295 0.20569
#
# Static dielectric constant tensor:
#      x y z
#    x 3.750850 0.000000 0.000000 
#    y 0.000000 3.339820 0.000000 
#    z 0.000000 0.000000 3.374230 
# 
# 
# High freq. dielectric constant tensor:
#      x y z
#    x 1.757220 0.000000 0.000000 
#    y 0.000000 1.732420 0.000000 
#    z 0.000000 0.000000 1.733020 
# 
# From -- ./inp_files/2040.got.cif
#   From: 2010.03.12/outbox.cif.g09.slc.cpg/sg47_2_cif.got.tgz:2040.got - 2010.04.14 03:12:58.
