data_PCOD8195680
_publ_section_title
;
Structure prediction by ZEFSAII (Michael W. Deem and Ramdas Pophale) SiO2 
 PCOD8195680
Probable space group: P M M M
;
_chemical_formula_sum "Si O2"
_cell_formula_units_Z 48
_cell_length_a 12.946590
_cell_length_b 19.808139
_cell_length_c 10.586500
_cell_angle_alpha 90.000000
_cell_angle_beta 90.000000
_cell_angle_gamma 90.000000
_cell_volume 2714.885210
_symmetry_space_group_name_H-M "P M M M"
_symmetry_group_IT_number 47
_symmetry_cell_setting 'orthorhombic'
loop_
_space_group_symop_operation_xyz
x,y,z
-x,-y,z
x,-y,-z
-x,y,-z
-x,-y,-z
x,y,-z
-x,y,z
x,-y,z
loop_
_atom_site_type_symbol
_atom_site_label
_atom_site_fract_x
_atom_site_fract_y
_atom_site_fract_z
Si Si1 0.686757 0.859312 0.145232
Si Si2 0.500000 0.646129 0.648108
Si Si3 0.500000 0.234129 0.847950
Si Si4 0.617465 0.000000 0.150405
Si Si5 0.121854 0.924154 0.500000
Si Si6 0.881039 0.175679 0.279874
Si Si7 0.286674 0.574891 0.351673
Si Si8 0.887253 0.672372 0.646809
O O1 0.601462 0.807004 0.195274
O O2 0.672323 0.933309 0.207920
O O3 0.803325 0.832381 0.163017
O O4 0.663275 0.867928 0.000000
O O5 0.500000 0.671818 0.500000
O O6 0.500000 0.702733 0.754825
O O7 0.599119 0.600663 0.676810
O O8 0.500000 0.252274 0.000000
O O9 0.500000 0.000000 0.195992
O O10 0.625348 0.000000 0.000000
O O11 0.155408 0.881470 0.378109
O O12 0.000000 0.930095 0.500000
O O13 0.170400 0.000000 0.500000
O O14 0.861794 0.248959 0.338223
O O15 0.000000 0.165904 0.236598
O O16 0.268391 0.571598 0.500000
O O17 0.273143 0.500000 0.292815
O O18 0.201041 0.625368 0.290066
O O19 0.891972 0.656280 0.500000
O O20 0.000000 0.656030 0.707699
#
# Coordination Sequence:
#
# PCOD8195680 Si02
#       8
#     8   4   4   4   4   8   8   8
#     4  10  20  33  51  73  96 126 166 210 254 300
#     4  10  19  32  51  75 103 131 162 202 250 301
#     4  10  20  36  55  75 100 133 174 212 248 303
#     4   9  16  32  53  68  87 122 165 205 250 303
#     4   9  18  32  48  67  94 134 175 201 239 301
#     4  10  19  32  50  71 100 132 166 207 251 299
#     4   9  17  28  45  70  99 130 162 199 248 303
#     4   9  16  28  45  66  94 128 165 203 243 289
#
# _framework density 17.680305000000001
#
# number of rings (size 3 to 8) (size 9 to 14) (size 15 to 20)
#    0.000    2.500    1.667    1.250    1.167    1.667 
#    1.500    1.667    0.000    2.500    0.000    1.750 
#    0.000    0.000    0.000   14.333    0.000    2.833 
#
# Total GULP energy -594731.686594 kJ/mol
# GULP energy per Si atom -12390.243471 kJ/mol
# Density = 1.764006 g / cm^3
# Si number density = 17.680305 Si / 1000 Ang^3
#
#
#
# Elastic Constant Matrix: (Units=GPa)
#
#
# Indices 1 2 3 4 5 6 
#
# 1 134.7644 71.4230 15.3370 0.0000 0.0000 0.0000
# 2 71.4230 150.8162 25.7042 0.0000 0.0000 0.0000
# 3 15.3370 25.7042 21.6919 0.0000 0.0000 0.0000
# 4 0.0000 0.0000 0.0000 14.6880 0.0000 0.0000
# 5 0.0000 0.0000 0.0000 0.0000 16.6003 0.0000
# 6 0.0000 0.0000 0.0000 0.0000 0.0000 54.1778
#
#
#
# Elastic Compliance Matrix: (Units=1/GPa)
#
#
# Indices 1 2 3 4 5 6 
#
# 1 0.009964 -0.004408 -0.001821 0.000000 0.000000 0.000000
# 2 -0.004408 0.010259 -0.009040 0.000000 0.000000 0.000000
# 3 -0.001821 -0.009040 0.058100 0.000000 0.000000 0.000000
# 4 0.000000 0.000000 0.000000 0.068083 0.000000 0.000000
# 5 0.000000 0.000000 0.000000 0.000000 0.060240 0.000000
# 6 0.000000 0.000000 0.000000 0.000000 0.000000 0.018458
#
#
# Mechanical properties :
#
#
# Convention : Reuss Voigt Hill
#
# Bulk Modulus (GPa) = 20.92744 59.13340 40.03042
# Shear Modulus (GPa) = 18.41149 30.08042 24.24596
#
# Velocity S-wave (km/s) = 3.23051 4.12922 3.70720
# Velocity P-wave (km/s) = 5.07712 7.50016 6.40428
#
# Compressibility (1/GPa) = 0.04778414
#
# Stress axis : x y z
#
# Youngs Moduli (GPa) = 100.36184 97.47614 17.21183
#
# Poissons Ratio (x) = 0.42970 0.03135
# Poissons Ratio (y) = 0.44242 0.15559
# Poissons Ratio (z) = 0.18278 0.88115
#
# Static dielectric constant tensor:
#      x y z
#    x 3.434090 0.000000 0.000000 
#    y 0.000000 3.635410 0.000000 
#    z 0.000000 0.000000 2.777240 
# 
# 
# High freq. dielectric constant tensor:
#      x y z
#    x 1.694590 0.000000 0.000000 
#    y 0.000000 1.696360 0.000000 
#    z 0.000000 0.000000 1.622280 
# 
# From -- ./inp_files/6601.got.cif
#   From: 2010.03.12/outbox.cif.g09.slc.cpg/sg47_4_cif.got.tgz:6601.got - 2010.04.14 03:12:58.
