data_PCOD8195030
_publ_section_title
;
Structure prediction by ZEFSAII (Michael W. Deem and Ramdas Pophale) SiO2 
 PCOD8195030
Probable space group: P M M M
;
_chemical_formula_sum "Si O2"
_cell_formula_units_Z 64
_cell_length_a 9.454849
_cell_length_b 13.864446
_cell_length_c 29.154655
_cell_angle_alpha 90.000000
_cell_angle_beta 90.000000
_cell_angle_gamma 90.000000
_cell_volume 3821.774202
_symmetry_space_group_name_H-M "P M M M"
_symmetry_group_IT_number 47
_symmetry_cell_setting 'orthorhombic'
loop_
_space_group_symop_operation_xyz
x,y,z
-x,-y,z
x,-y,-z
-x,y,-z
-x,-y,-z
x,y,-z
-x,y,z
x,-y,z
loop_
_atom_site_type_symbol
_atom_site_label
_atom_site_fract_x
_atom_site_fract_y
_atom_site_fract_z
Si Si1 0.839925 0.114132 0.369816
Si Si2 0.339340 0.608668 0.607554
Si Si3 0.159007 0.614551 0.050327
Si Si4 0.662244 0.209849 0.552161
Si Si5 0.664469 0.389146 0.135475
Si Si6 0.662136 0.890816 0.717258
Si Si7 0.337340 0.706259 0.770724
Si Si8 0.158838 0.385867 0.692490
O O1 0.762412 0.147429 0.415706
O O2 0.758119 0.149871 0.324221
O O3 0.000000 0.154441 0.368728
O O4 0.838922 0.000000 0.370095
O O5 0.500000 0.610917 0.626148
O O6 0.295652 0.500000 0.593402
O O7 0.321620 0.676482 0.563356
O O8 0.240018 0.652419 0.647414
O O9 0.164411 0.500000 0.050592
O O10 0.258015 0.654217 0.090786
O O11 0.000000 0.650863 0.059554
O O12 0.210240 0.651556 0.000000
O O13 0.710582 0.193442 0.500000
O O14 0.500000 0.176806 0.559360
O O15 0.500000 0.383557 0.124726
O O16 0.709324 0.500000 0.146277
O O17 0.707332 0.319927 0.177595
O O18 0.500000 0.887385 0.700271
O O19 0.684512 0.820588 0.760978
O O20 0.704364 0.000000 0.731682
O O21 0.500000 0.675758 0.762236
O O22 0.239027 0.644501 0.737971
O O23 0.157378 0.500000 0.690832
O O24 0.000000 0.343736 0.692563
#
# Coordination Sequence:
#
# PCOD8195030 Si02
#       8
#     8   8   8   8   8   8   8   8
#     4  10  21  36  53  72  93 116 142 175 217 264
#     4   9  18  33  51  68  88 116 147 178 213 253
#     4   8  14  25  40  57  80 114 154 191 224 258
#     4  10  21  35  51  72  94 115 142 176 214 257
#     4   9  17  27  39  59  88 120 152 184 218 258
#     4   9  18  33  52  71  90 115 148 183 219 262
#     4  10  19  30  45  65  91 121 150 182 222 266
#     4  10  20  31  44  65  91 118 149 182 214 253
#
# _framework density 16.746148000000002
#
# number of rings (size 3 to 8) (size 9 to 14) (size 15 to 20)
#    0.000    2.625    0.000    2.250    0.000    7.500 
#    0.000    5.000    0.000    0.000    0.000    2.625 
#    0.000    0.500    0.000    6.250    0.000    1.250 
#
# Total GULP energy -793465.050366 kJ/mol
# GULP energy per Si atom -12397.891412 kJ/mol
# Density = 1.670803 g / cm^3
# Si number density = 16.746148 Si / 1000 Ang^3
#
#
#
# Elastic Constant Matrix: (Units=GPa)
#
#
# Indices 1 2 3 4 5 6 
#
# 1 79.8625 25.5621 60.8633 0.0000 0.0000 0.0000
# 2 25.5621 35.7672 41.4180 0.0000 0.0000 0.0000
# 3 60.8633 41.4180 136.3770 0.0000 0.0000 0.0000
# 4 0.0000 0.0000 0.0000 19.1159 0.0000 0.0000
# 5 0.0000 0.0000 0.0000 0.0000 10.3728 0.0000
# 6 0.0000 0.0000 0.0000 0.0000 0.0000 16.0344
#
#
#
# Elastic Compliance Matrix: (Units=1/GPa)
#
#
# Indices 1 2 3 4 5 6 
#
# 1 0.019786 -0.006039 -0.006996 0.000000 0.000000 0.000000
# 2 -0.006039 0.044968 -0.010962 0.000000 0.000000 0.000000
# 3 -0.006996 -0.010962 0.013784 0.000000 0.000000 0.000000
# 4 0.000000 0.000000 0.000000 0.052312 0.000000 0.000000
# 5 0.000000 0.000000 0.000000 0.000000 0.096406 0.000000
# 6 0.000000 0.000000 0.000000 0.000000 0.000000 0.062366
#
#
# Mechanical properties :
#
#
# Convention : Reuss Voigt Hill
#
# Bulk Modulus (GPa) = 32.73949 56.41039 44.57494
# Shear Modulus (GPa) = 14.37612 17.38218 15.87915
#
# Velocity S-wave (km/s) = 2.93315 3.22527 3.08267
# Velocity P-wave (km/s) = 5.57351 6.90134 6.27266
#
# Compressibility (1/GPa) = 0.03054416
#
# Stress axis : x y z
#
# Youngs Moduli (GPa) = 50.53963 22.23789 72.54757
#
# Poissons Ratio (x) = 0.13430 0.50756
# Poissons Ratio (y) = 0.30523 0.79524
# Poissons Ratio (z) = 0.35359 0.24376
#
# Static dielectric constant tensor:
#      x y z
#    x 3.347140 0.000000 0.000000 
#    y 0.000000 3.049310 0.000000 
#    z 0.000000 0.000000 3.184670 
# 
# 
# High freq. dielectric constant tensor:
#      x y z
#    x 1.648630 0.000000 0.000000 
#    y 0.000000 1.625640 0.000000 
#    z 0.000000 0.000000 1.630630 
# 
# From -- ./inp_files/8292.got.cif
#   From: 2010.03.12/outbox.cif.g09.slc.cpg/sg47_5_cif.got.tgz:8292.got - 2010.04.14 03:12:58.
