data_PCOD8195813
_publ_section_title
;
Structure prediction by ZEFSAII (Michael W. Deem and Ramdas Pophale) SiO2 
 PCOD8195813
Probable space group: P M M M
;
_chemical_formula_sum "Si O2"
_cell_formula_units_Z 52
_cell_length_a 9.248665
_cell_length_b 17.582607
_cell_length_c 17.042607
_cell_angle_alpha 90.000000
_cell_angle_beta 90.000000
_cell_angle_gamma 90.000000
_cell_volume 2771.394478
_symmetry_space_group_name_H-M "P M M M"
_symmetry_group_IT_number 47
_symmetry_cell_setting 'orthorhombic'
loop_
_space_group_symop_operation_xyz
x,y,z
-x,-y,z
x,-y,-z
-x,y,-z
-x,-y,-z
x,y,-z
-x,y,z
x,-y,z
loop_
_atom_site_type_symbol
_atom_site_label
_atom_site_fract_x
_atom_site_fract_y
_atom_site_fract_z
Si Si1 0.663425 0.000000 0.906140
Si Si2 0.329832 0.300890 0.307765
Si Si3 0.670763 0.706264 0.871906
Si Si4 0.160545 0.857257 0.090297
Si Si5 0.837303 0.589103 0.412137
Si Si6 0.329500 0.585630 0.000000
Si Si7 0.657647 0.000000 0.407196
Si Si8 0.326876 0.163025 0.588420
O O1 0.745783 0.925679 0.871880
O O2 0.500000 0.000000 0.872784
O O3 0.658698 0.000000 0.000000
O O4 0.500000 0.302641 0.316486
O O5 0.282284 0.305549 0.217713
O O6 0.269065 0.374715 0.349705
O O7 0.267439 0.225207 0.350116
O O8 0.500000 0.721372 0.881132
O O9 0.754803 0.778703 0.903295
O O10 0.718786 0.632295 0.922273
O O11 0.000000 0.852259 0.129214
O O12 0.140438 0.877315 0.000000
O O13 0.786066 0.610194 0.500000
O O14 0.830472 0.500000 0.398976
O O15 0.000000 0.618817 0.398555
O O16 0.260798 0.500000 0.000000
O O17 0.500000 0.577084 0.000000
O O18 0.736879 0.079845 0.384860
O O19 0.500000 0.000000 0.366492
O O20 0.637042 0.000000 0.500000
O O21 0.274826 0.184103 0.500000
O O22 0.500000 0.158729 0.589668
#
# Coordination Sequence:
#
# PCOD8195813 Si02
#       8
#     4   8   8   8   8   4   4   8
#     4   9  17  29  50  79 106 134 170 213 262 316
#     4  10  20  31  48  78 107 130 164 214 265 311
#     4  10  20  34  52  74 102 136 173 215 269 328
#     4  10  19  32  52  76 103 135 175 219 263 311
#     4   9  19  36  55  74 100 137 175 206 248 315
#     4   9  18  34  55  72  89 124 171 215 262 321
#     4   7  10  18  35  58  86 125 162 189 226 278
#     4   8  13  23  40  64  96 129 161 199 244 291
#
# _framework density 18.763117999999999
#
# number of rings (size 3 to 8) (size 9 to 14) (size 15 to 20)
#    0.000    2.846    0.769    2.538    0.000    4.000 
#    0.000    3.077    0.000    3.692    0.000    0.538 
#    0.000    3.077    0.000    0.000    0.000    0.000 
#
# Total GULP energy -644400.370028 kJ/mol
# GULP energy per Si atom -12392.314808 kJ/mol
# Density = 1.872041 g / cm^3
# Si number density = 18.763118 Si / 1000 Ang^3
#
#
#
# Elastic Constant Matrix: (Units=GPa)
#
#
# Indices 1 2 3 4 5 6 
#
# 1 42.7822 38.4330 20.2059 0.0000 0.0000 0.0000
# 2 38.4330 138.1432 57.3827 0.0000 0.0000 0.0000
# 3 20.2059 57.3827 101.2718 0.0000 0.0000 0.0000
# 4 0.0000 0.0000 0.0000 5.3609 0.0000 0.0000
# 5 0.0000 0.0000 0.0000 0.0000 13.2855 0.0000
# 6 0.0000 0.0000 0.0000 0.0000 0.0000 11.6741
#
#
#
# Elastic Compliance Matrix: (Units=1/GPa)
#
#
# Indices 1 2 3 4 5 6 
#
# 1 0.031390 -0.008019 -0.001719 0.000000 0.000000 0.000000
# 2 -0.008019 0.011516 -0.004925 0.000000 0.000000 0.000000
# 3 -0.001719 -0.004925 0.013008 0.000000 0.000000 0.000000
# 4 0.000000 0.000000 0.000000 0.186537 0.000000 0.000000
# 5 0.000000 0.000000 0.000000 0.000000 0.075270 0.000000
# 6 0.000000 0.000000 0.000000 0.000000 0.000000 0.085660
#
#
# Mechanical properties :
#
#
# Convention : Reuss Voigt Hill
#
# Bulk Modulus (GPa) = 37.61210 57.13783 47.37497
# Shear Modulus (GPa) = 11.32324 17.14246 14.23285
#
# Velocity S-wave (km/s) = 2.45926 3.02590 2.75718
# Velocity P-wave (km/s) = 5.30596 6.53655 5.95313
#
# Compressibility (1/GPa) = 0.02658719
#
# Stress axis : x y z
#
# Youngs Moduli (GPa) = 31.85737 86.83867 76.87526
#
# Poissons Ratio (x) = 0.69635 0.13217
# Poissons Ratio (y) = 0.25546 0.37861
# Poissons Ratio (z) = 0.05477 0.42768
#
# Static dielectric constant tensor:
#      x y z
#    x 3.185870 0.000000 0.000000 
#    y 0.000000 3.721830 0.000000 
#    z 0.000000 0.000000 3.514140 
# 
# 
# High freq. dielectric constant tensor:
#      x y z
#    x 1.690550 0.000000 0.000000 
#    y 0.000000 1.742130 0.000000 
#    z 0.000000 0.000000 1.706190 
# 
# From -- ./inp_files/26826.got.cif
#   From: 2010.03.12/outbox.cif.g09.slc.cpg/sg47_14_cif.got.tgz:26826.got - 2010.04.14 03:12:58.
