data_PCOD8195023
_publ_section_title
;
Structure prediction by ZEFSAII (Michael W. Deem and Ramdas Pophale) SiO2 
 PCOD8195023
Probable space group: P M M M
;
_chemical_formula_sum "Si O2"
_cell_formula_units_Z 36
_cell_length_a 12.534895
_cell_length_b 19.476222
_cell_length_c 8.959049
_cell_angle_alpha 90.000000
_cell_angle_beta 90.000000
_cell_angle_gamma 90.000000
_cell_volume 2187.194114
_symmetry_space_group_name_H-M "P M M M"
_symmetry_group_IT_number 47
_symmetry_cell_setting 'orthorhombic'
loop_
_space_group_symop_operation_xyz
x,y,z
-x,-y,z
x,-y,-z
-x,y,-z
-x,-y,-z
x,y,-z
-x,y,z
x,-y,z
loop_
_atom_site_type_symbol
_atom_site_label
_atom_site_fract_x
_atom_site_fract_y
_atom_site_fract_z
Si Si1 0.626072 0.209782 0.671482
Si Si2 0.305961 0.655930 0.175780
Si Si3 0.500000 0.581209 0.329126
Si Si4 0.373335 0.924680 0.832405
Si Si5 0.876833 0.420890 0.328827
O O1 0.656988 0.219836 0.500000
O O2 0.500000 0.217948 0.697584
O O3 0.686280 0.266008 0.769583
O O4 0.668199 0.134931 0.722878
O O5 0.395046 0.609118 0.251146
O O6 0.190594 0.626974 0.219442
O O7 0.321768 0.653498 0.000000
O O8 0.500000 0.500000 0.317520
O O9 0.500000 0.606633 0.500000
O O10 0.500000 0.924731 0.831776
O O11 0.332429 0.000000 0.778143
O O12 0.331856 0.910180 0.000000
O O13 0.843103 0.407426 0.500000
O O14 0.855692 0.500000 0.287659
O O15 0.000000 0.402120 0.304574
#
# Coordination Sequence:
#
# PCOD8195023 Si02
#       5
#     8   8   4   8   8
#     4  10  19  30  45  64  92 129 166 201 236 281
#     4  12  23  33  49  72  99 128 159 200 246 291
#     4  11  23  37  51  67  92 127 164 199 237 289
#     4   8  14  25  41  61  88 122 158 196 237 280
#     4   9  19  37  58  75  93 122 159 199 245 295
#
# _framework density 16.459444999999999
#
# number of rings (size 3 to 8) (size 9 to 14) (size 15 to 20)
#    0.000    2.111    1.111    5.000    0.000    5.778 
#    0.000    3.333    0.000    0.000    0.000    0.000 
#    0.000    0.889    0.000    9.333    0.000    4.444 
#
# Total GULP energy -446400.737957 kJ/mol
# GULP energy per Si atom -12400.020499 kJ/mol
# Density = 1.642198 g / cm^3
# Si number density = 16.459445 Si / 1000 Ang^3
#
#
#
# Elastic Constant Matrix: (Units=GPa)
#
#
# Indices 1 2 3 4 5 6 
#
# 1 53.4946 38.9003 38.5348 0.0000 0.0000 0.0000
# 2 38.9003 116.9939 68.3091 0.0000 0.0000 0.0000
# 3 38.5348 68.3091 126.1462 0.0000 0.0000 0.0000
# 4 0.0000 0.0000 0.0000 32.6486 0.0000 0.0000
# 5 0.0000 0.0000 0.0000 0.0000 16.5236 0.0000
# 6 0.0000 0.0000 0.0000 0.0000 0.0000 12.3475
#
#
#
# Elastic Compliance Matrix: (Units=1/GPa)
#
#
# Indices 1 2 3 4 5 6 
#
# 1 0.026555 -0.005986 -0.004871 0.000000 0.000000 0.000000
# 2 -0.005986 0.013849 -0.005671 0.000000 0.000000 0.000000
# 3 -0.004871 -0.005671 0.012486 0.000000 0.000000 0.000000
# 4 0.000000 0.000000 0.000000 0.030629 0.000000 0.000000
# 5 0.000000 0.000000 0.000000 0.000000 0.060519 0.000000
# 6 0.000000 0.000000 0.000000 0.000000 0.000000 0.080988
#
#
# Mechanical properties :
#
#
# Convention : Reuss Voigt Hill
#
# Bulk Modulus (GPa) = 50.41491 65.34700 57.88096
# Shear Modulus (GPa) = 18.88996 22.36332 20.62664
#
# Velocity S-wave (km/s) = 3.39140 3.69004 3.54387
# Velocity P-wave (km/s) = 6.78467 7.61205 7.21023
#
# Compressibility (1/GPa) = 0.01983540
#
# Stress axis : x y z
#
# Youngs Moduli (GPa) = 37.65827 72.20965 80.09058
#
# Poissons Ratio (x) = 0.43222 0.39009
# Poissons Ratio (y) = 0.22541 0.45417
# Poissons Ratio (z) = 0.18342 0.40948
#
# Static dielectric constant tensor:
#      x y z
#    x 2.738650 0.000000 0.000000 
#    y 0.000000 3.382280 0.000000 
#    z 0.000000 0.000000 3.179360 
# 
# 
# High freq. dielectric constant tensor:
#      x y z
#    x 1.583240 0.000000 0.000000 
#    y 0.000000 1.644190 0.000000 
#    z 0.000000 0.000000 1.640880 
# 
# From -- ./inp_files/3732.got.cif
#   From: 2010.03.12/outbox.cif.g09.slc.cpg/sg47_2_cif.got.tgz:3732.got - 2010.04.14 03:12:58.
