data_PCOD8195379
_publ_section_title
;
Structure prediction by ZEFSAII (Michael W. Deem and Ramdas Pophale) SiO2 
 PCOD8195379
Probable space group: P M M M
;
_chemical_formula_sum "Si O2"
_cell_formula_units_Z 56
_cell_length_a 18.604387
_cell_length_b 9.432363
_cell_length_c 18.784015
_cell_angle_alpha 90.000000
_cell_angle_beta 90.000000
_cell_angle_gamma 90.000000
_cell_volume 3296.281533
_symmetry_space_group_name_H-M "P M M M"
_symmetry_group_IT_number 47
_symmetry_cell_setting 'orthorhombic'
loop_
_space_group_symop_operation_xyz
x,y,z
-x,-y,z
x,-y,-z
-x,y,-z
-x,-y,-z
x,y,-z
-x,y,z
x,-y,z
loop_
_atom_site_type_symbol
_atom_site_label
_atom_site_fract_x
_atom_site_fract_y
_atom_site_fract_z
Si Si1 0.781341 0.164278 0.779307
Si Si2 0.080182 0.835857 0.696811
Si Si3 0.154883 0.335985 0.580791
Si Si4 0.298457 0.666323 0.336530
Si Si5 0.416583 0.163555 0.417922
Si Si6 0.288810 0.163828 0.079290
Si Si7 0.578488 0.658048 0.084507
O O1 0.862876 0.205890 0.758273
O O2 0.723845 0.260198 0.737567
O O3 0.774820 0.192895 0.864211
O O4 0.765171 0.000000 0.761334
O O5 0.096465 0.750386 0.625256
O O6 0.000000 0.798288 0.724106
O O7 0.086786 0.000000 0.677118
O O8 0.149488 0.284194 0.500000
O O9 0.135395 0.500000 0.589028
O O10 0.235495 0.305504 0.606812
O O11 0.311528 0.500000 0.323189
O O12 0.370885 0.735490 0.366605
O O13 0.401172 0.203201 0.500000
O O14 0.500000 0.189204 0.400032
O O15 0.395818 0.000000 0.404010
O O16 0.359697 0.237776 0.111459
O O17 0.307934 0.000000 0.074431
O O18 0.267024 0.220348 0.000000
O O19 0.500000 0.707983 0.112904
O O20 0.594982 0.500000 0.112791
O O21 0.577431 0.658481 0.000000
#
# Coordination Sequence:
#
# PCOD8195379 Si02
#       7
#     8   8   8   8   8   8   8
#     4   9  18  33  50  67  91 122 152 185 231 283
#     4   9  18  32  49  68  90 119 154 187 219 262
#     4   9  18  31  46  67  95 123 149 181 225 272
#     4  10  19  31  48  69  93 121 157 198 234 272
#     4   9  18  32  49  69  94 126 163 200 238 278
#     4   9  17  29  47  70  92 116 150 191 231 273
#     4   8  14  25  41  62  89 118 144 173 214 262
#
# _framework density 16.988841000000001
#
# number of rings (size 3 to 8) (size 9 to 14) (size 15 to 20)
#    0.000    3.000    0.000    1.714    0.000    3.429 
#    0.000    4.286    0.000    1.286    0.000    3.000 
#    0.000    0.000    0.000   10.714    0.000   11.143 
#
# Total GULP energy -694167.883139 kJ/mol
# GULP energy per Si atom -12395.855056 kJ/mol
# Density = 1.695017 g / cm^3
# Si number density = 16.988841 Si / 1000 Ang^3
#
#
#
# Elastic Constant Matrix: (Units=GPa)
#
#
# Indices 1 2 3 4 5 6 
#
# 1 101.1678 45.5360 59.8541 0.0000 0.0000 0.0000
# 2 45.5360 61.4487 43.1859 0.0000 0.0000 0.0000
# 3 59.8541 43.1859 102.0367 0.0000 0.0000 0.0000
# 4 0.0000 0.0000 0.0000 17.5601 0.0000 0.0000
# 5 0.0000 0.0000 0.0000 0.0000 17.9700 0.0000
# 6 0.0000 0.0000 0.0000 0.0000 0.0000 22.9906
#
#
#
# Elastic Compliance Matrix: (Units=1/GPa)
#
#
# Indices 1 2 3 4 5 6 
#
# 1 0.017667 -0.008268 -0.006864 0.000000 0.000000 0.000000
# 2 -0.008268 0.027033 -0.006592 0.000000 0.000000 0.000000
# 3 -0.006864 -0.006592 0.016617 0.000000 0.000000 0.000000
# 4 0.000000 0.000000 0.000000 0.056947 0.000000 0.000000
# 5 0.000000 0.000000 0.000000 0.000000 0.055648 0.000000
# 6 0.000000 0.000000 0.000000 0.000000 0.000000 0.043496
#
#
# Mechanical properties :
#
#
# Convention : Reuss Voigt Hill
#
# Bulk Modulus (GPa) = 55.96075 62.42281 59.19178
# Shear Modulus (GPa) = 18.73979 19.44263 19.09121
#
# Velocity S-wave (km/s) = 3.32485 3.38662 3.35587
# Velocity P-wave (km/s) = 6.91019 7.21910 7.06633
#
# Compressibility (1/GPa) = 0.01786967
#
# Stress axis : x y z
#
# Youngs Moduli (GPa) = 56.60276 36.99162 60.18078
#
# Poissons Ratio (x) = 0.30584 0.41308
# Poissons Ratio (y) = 0.46799 0.39669
# Poissons Ratio (z) = 0.38852 0.24383
#
# Static dielectric constant tensor:
#      x y z
#    x 3.257470 0.000000 0.000000 
#    y 0.000000 3.227750 0.000000 
#    z 0.000000 0.000000 3.101790 
# 
# 
# High freq. dielectric constant tensor:
#      x y z
#    x 1.646020 0.000000 0.000000 
#    y 0.000000 1.655250 0.000000 
#    z 0.000000 0.000000 1.636430 
# 
# From -- ./inp_files/11513.got.cif
#   From: 2010.03.12/outbox.cif.g09.slc.cpg/sg47_6_cif.got.tgz:11513.got - 2010.04.14 03:12:58.
