data_PCOD8195220
_publ_section_title
;
Structure prediction by ZEFSAII (Michael W. Deem and Ramdas Pophale) SiO2 
 PCOD8195220
Probable space group: P M M M
;
_chemical_formula_sum "Si O2"
_cell_formula_units_Z 60
_cell_length_a 18.591326
_cell_length_b 18.965953
_cell_length_c 9.558249
_cell_angle_alpha 90.000000
_cell_angle_beta 90.000000
_cell_angle_gamma 90.000000
_cell_volume 3370.259770
_symmetry_space_group_name_H-M "P M M M"
_symmetry_group_IT_number 47
_symmetry_cell_setting 'orthorhombic'
loop_
_space_group_symop_operation_xyz
x,y,z
-x,-y,z
x,-y,-z
-x,y,-z
-x,-y,-z
x,y,-z
-x,y,z
x,-y,z
loop_
_atom_site_type_symbol
_atom_site_label
_atom_site_fract_x
_atom_site_fract_y
_atom_site_fract_z
Si Si1 0.919715 0.579141 0.834014
Si Si2 0.663106 0.080472 0.661086
Si Si3 0.792118 0.678927 0.835429
Si Si4 0.201841 0.178915 0.336601
Si Si5 0.367446 0.330628 0.163614
Si Si6 0.500000 0.579198 0.167260
Si Si7 0.416520 0.817513 0.157513
Si Si8 0.080013 0.077684 0.333819
O O1 0.906540 0.500000 0.776345
O O2 0.856579 0.629801 0.775992
O O3 0.000000 0.605113 0.787432
O O4 0.915381 0.577779 0.000000
O O5 0.640508 0.084024 0.500000
O O6 0.733175 0.126176 0.692393
O O7 0.598405 0.113358 0.750492
O O8 0.677210 0.000000 0.707253
O O9 0.792388 0.751536 0.753786
O O10 0.714082 0.642230 0.806965
O O11 0.802016 0.693833 0.000000
O O12 0.196132 0.199015 0.500000
O O13 0.132171 0.138154 0.277848
O O14 0.427677 0.383070 0.227196
O O15 0.376472 0.251097 0.223337
O O16 0.383264 0.325428 0.000000
O O17 0.500000 0.500000 0.226374
O O18 0.500000 0.578591 0.000000
O O19 0.500000 0.799815 0.159565
O O20 0.389542 0.832748 0.000000
O O21 0.084778 0.075214 0.500000
O O22 0.000000 0.097093 0.283281
O O23 0.101754 0.000000 0.276468
#
# Coordination Sequence:
#
# PCOD8195220 Si02
#       8
#     8   8   8   8   8   4   8   8
#     4   8  15  29  48  71 100 131 162 198 240 285
#     4  10  21  35  50  70  97 127 162 206 249 287
#     4  10  19  30  49  73  97 126 161 197 236 285
#     4  10  19  31  48  71  98 126 159 198 243 290
#     4   9  16  28  44  66  97 128 155 190 236 285
#     4   9  16  26  44  72 102 127 152 192 245 287
#     4  10  19  33  53  71  94 129 163 194 240 297
#     4   8  14  26  45  67  90 120 159 200 241 284
#
# _framework density 17.802782000000001
#
# number of rings (size 3 to 8) (size 9 to 14) (size 15 to 20)
#    0.000    2.733    2.000    1.200    0.000    3.467 
#    0.000    4.000    0.000    1.600    0.000    1.867 
#    0.000    2.667    0.000    0.000    0.000    0.000 
#
# Total GULP energy -743621.968247 kJ/mol
# GULP energy per Si atom -12393.699471 kJ/mol
# Density = 1.776226 g / cm^3
# Si number density = 17.802782 Si / 1000 Ang^3
#
#
#
# Elastic Constant Matrix: (Units=GPa)
#
#
# Indices 1 2 3 4 5 6 
#
# 1 126.1947 69.6942 25.8080 0.0000 0.0000 0.0000
# 2 69.6942 127.3184 31.7587 0.0000 0.0000 0.0000
# 3 25.8080 31.7587 24.9150 0.0000 0.0000 0.0000
# 4 0.0000 0.0000 0.0000 14.5278 0.0000 0.0000
# 5 0.0000 0.0000 0.0000 0.0000 13.9788 0.0000
# 6 0.0000 0.0000 0.0000 0.0000 0.0000 36.1690
#
#
#
# Elastic Compliance Matrix: (Units=1/GPa)
#
#
# Indices 1 2 3 4 5 6 
#
# 1 0.011923 -0.005053 -0.005910 0.000000 0.000000 0.000000
# 2 -0.005053 0.013657 -0.012175 0.000000 0.000000 0.000000
# 3 -0.005910 -0.012175 0.061777 0.000000 0.000000 0.000000
# 4 0.000000 0.000000 0.000000 0.068834 0.000000 0.000000
# 5 0.000000 0.000000 0.000000 0.000000 0.071537 0.000000
# 6 0.000000 0.000000 0.000000 0.000000 0.000000 0.027648
#
#
# Mechanical properties :
#
#
# Convention : Reuss Voigt Hill
#
# Bulk Modulus (GPa) = 24.34116 59.21667 41.77892
# Shear Modulus (GPa) = 15.85562 23.01293 19.43427
#
# Velocity S-wave (km/s) = 2.98757 3.59926 3.30759
# Velocity P-wave (km/s) = 5.05996 7.11391 6.17296
#
# Compressibility (1/GPa) = 0.04108267
#
# Stress axis : x y z
#
# Youngs Moduli (GPa) = 83.86873 73.22265 16.18717
#
# Poissons Ratio (x) = 0.36996 0.09567
# Poissons Ratio (y) = 0.42375 0.19707
# Poissons Ratio (z) = 0.49569 0.89146
#
# Static dielectric constant tensor:
#      x y z
#    x 3.616020 0.000000 0.000000 
#    y 0.000000 3.453740 0.000000 
#    z 0.000000 0.000000 2.823520 
# 
# 
# High freq. dielectric constant tensor:
#      x y z
#    x 1.704390 0.000000 0.000000 
#    y 0.000000 1.688210 0.000000 
#    z 0.000000 0.000000 1.628780 
# 
# From -- ./inp_files/18769.got.cif
#   From: 2010.03.12/outbox.cif.g09.slc.cpg/sg47_10_cif.got.tgz:18769.got - 2010.04.14 03:12:58.
