data_PCOD8195520
_publ_section_title
;
Structure prediction by ZEFSAII (Michael W. Deem and Ramdas Pophale) SiO2 
 PCOD8195520
Probable space group: P M M M
;
_chemical_formula_sum "Si O2"
_cell_formula_units_Z 60
_cell_length_a 9.201637
_cell_length_b 17.997252
_cell_length_c 20.390727
_cell_angle_alpha 90.000000
_cell_angle_beta 90.000000
_cell_angle_gamma 90.000000
_cell_volume 3376.789622
_symmetry_space_group_name_H-M "P M M M"
_symmetry_group_IT_number 47
_symmetry_cell_setting 'orthorhombic'
loop_
_space_group_symop_operation_xyz
x,y,z
-x,-y,z
x,-y,-z
-x,y,-z
-x,-y,-z
x,y,-z
-x,y,z
x,-y,z
loop_
_atom_site_type_symbol
_atom_site_label
_atom_site_fract_x
_atom_site_fract_y
_atom_site_fract_z
Si Si1 0.341049 0.585476 0.500000
Si Si2 0.171635 0.917440 0.304643
Si Si3 0.172320 0.822304 0.426125
Si Si4 0.830735 0.206562 0.204996
Si Si5 0.171798 0.656805 0.386643
Si Si6 0.332363 0.344782 0.258470
Si Si7 0.832656 0.723693 0.927774
Si Si8 0.332341 0.583308 0.876983
O O1 0.373548 0.500000 0.500000
O O2 0.500000 0.626150 0.500000
O O3 0.244734 0.603504 0.437944
O O4 0.234591 0.879251 0.371183
O O5 0.209583 0.872783 0.237422
O O6 0.000000 0.922121 0.312177
O O7 0.239118 0.000000 0.298254
O O8 0.233227 0.839181 0.500000
O O9 0.219962 0.740804 0.402945
O O10 0.000000 0.827367 0.428331
O O11 0.724843 0.264330 0.238579
O O12 0.798769 0.212055 0.126463
O O13 0.000000 0.225776 0.220127
O O14 0.233665 0.628150 0.317896
O O15 0.000000 0.647474 0.388136
O O16 0.500000 0.338042 0.279620
O O17 0.311432 0.403748 0.200424
O O18 0.750654 0.646149 0.917324
O O19 0.000000 0.701873 0.923601
O O20 0.791996 0.755412 0.000000
O O21 0.500000 0.590489 0.896632
O O22 0.275340 0.500000 0.893757
#
# Coordination Sequence:
#
# PCOD8195520 Si02
#       8
#     4   8   8   8   8   8   8   8
#     4  11  25  41  53  71 100 131 168 216 266 310
#     4   9  16  26  45  74 103 131 166 207 250 294
#     4   9  16  27  45  71 100 129 161 203 247 291
#     4   9  16  30  50  70  97 131 167 207 245 292
#     4  11  20  34  55  75  97 129 171 215 257 305
#     4  10  19  31  50  74  97 126 166 208 252 301
#     4   9  18  31  48  71  97 128 166 207 250 294
#     4   9  19  34  49  68  97 130 162 200 249 302
#
# _framework density 17.768355
#
# number of rings (size 3 to 8) (size 9 to 14) (size 15 to 20)
#    0.000    2.467    2.000    1.000    0.000    2.667 
#    0.000    4.000    0.000    0.800    0.000    2.800 
#    0.000    1.600    0.000    6.667    0.000    6.933 
#
# Total GULP energy -743538.129331 kJ/mol
# GULP energy per Si atom -12392.302156 kJ/mol
# Density = 1.772791 g / cm^3
# Si number density = 17.768355 Si / 1000 Ang^3
#
#
#
# Elastic Constant Matrix: (Units=GPa)
#
#
# Indices 1 2 3 4 5 6 
#
# 1 55.0627 19.8814 33.9266 0.0000 0.0000 0.0000
# 2 19.8814 81.1907 40.5551 0.0000 0.0000 0.0000
# 3 33.9266 40.5551 137.4570 0.0000 0.0000 0.0000
# 4 0.0000 0.0000 0.0000 21.2828 0.0000 0.0000
# 5 0.0000 0.0000 0.0000 0.0000 19.6279 0.0000
# 6 0.0000 0.0000 0.0000 0.0000 0.0000 10.2316
#
#
#
# Elastic Compliance Matrix: (Units=1/GPa)
#
#
# Indices 1 2 3 4 5 6 
#
# 1 0.022084 -0.003149 -0.004522 0.000000 0.000000 0.000000
# 2 -0.003149 0.014895 -0.003617 0.000000 0.000000 0.000000
# 3 -0.004522 -0.003617 0.009458 0.000000 0.000000 0.000000
# 4 0.000000 0.000000 0.000000 0.046986 0.000000 0.000000
# 5 0.000000 0.000000 0.000000 0.000000 0.050948 0.000000
# 6 0.000000 0.000000 0.000000 0.000000 0.000000 0.097736
#
#
# Mechanical properties :
#
#
# Convention : Reuss Voigt Hill
#
# Bulk Modulus (GPa) = 41.90950 51.38186 46.64568
# Shear Modulus (GPa) = 18.33937 22.18495 20.26216
#
# Velocity S-wave (km/s) = 3.21617 3.53734 3.38057
# Velocity P-wave (km/s) = 6.11797 6.75752 6.44568
#
# Compressibility (1/GPa) = 0.02386094
#
# Stress axis : x y z
#
# Youngs Moduli (GPa) = 45.28133 67.13819 105.72820
#
# Poissons Ratio (x) = 0.21144 0.47806
# Poissons Ratio (y) = 0.14260 0.38244
# Poissons Ratio (z) = 0.20474 0.24285
#
# Static dielectric constant tensor:
#      x y z
#    x 3.127300 0.000000 0.000000 
#    y 0.000000 3.272310 0.000000 
#    z 0.000000 0.000000 3.739670 
# 
# 
# High freq. dielectric constant tensor:
#      x y z
#    x 1.663710 0.000000 0.000000 
#    y 0.000000 1.663300 0.000000 
#    z 0.000000 0.000000 1.699220 
# 
# From -- ./inp_files/29954.got.cif
#   From: 2010.03.12/outbox.cif.g09.slc.cpg/sg47_15_cif.got.tgz:29954.got - 2010.04.14 03:12:58.
