data_PCOD8195980
_publ_section_title
;
Structure prediction by ZEFSAII (Michael W. Deem and Ramdas Pophale) SiO2 
 PCOD8195980
Probable space group: P M M M
;
_chemical_formula_sum "Si O2"
_cell_formula_units_Z 64
_cell_length_a 20.099626
_cell_length_b 8.836012
_cell_length_c 20.092672
_cell_angle_alpha 90.000000
_cell_angle_beta 90.000000
_cell_angle_gamma 90.000000
_cell_volume 3568.469328
_symmetry_space_group_name_H-M "P M M M"
_symmetry_group_IT_number 47
_symmetry_cell_setting 'orthorhombic'
loop_
_space_group_symop_operation_xyz
x,y,z
-x,-y,z
x,-y,-z
-x,y,-z
-x,-y,-z
x,y,-z
-x,y,z
x,-y,z
loop_
_atom_site_type_symbol
_atom_site_label
_atom_site_fract_x
_atom_site_fract_y
_atom_site_fract_z
Si Si1 0.332917 0.177253 0.684295
Si Si2 0.879678 0.673947 0.927507
Si Si3 0.753681 0.175436 0.881727
Si Si4 0.786439 0.321232 0.254164
Si Si5 0.071451 0.678399 0.786466
Si Si6 0.574287 0.673547 0.788133
Si Si7 0.575426 0.324334 0.423037
Si Si8 0.372740 0.671913 0.072586
O O1 0.258256 0.247845 0.687330
O O2 0.374176 0.220188 0.750111
O O3 0.371135 0.231953 0.618902
O O4 0.324479 0.000000 0.680697
O O5 0.856727 0.500000 0.918252
O O6 0.815652 0.781383 0.927770
O O7 0.925981 0.719879 0.865244
O O8 0.915361 0.694858 0.000000
O O9 0.752959 0.277158 0.815438
O O10 0.687947 0.211744 0.923029
O O11 0.756225 0.000000 0.861763
O O12 0.785211 0.500000 0.263414
O O13 0.863574 0.259057 0.253401
O O14 0.071433 0.500000 0.777533
O O15 0.000000 0.743682 0.759835
O O16 0.500000 0.710877 0.763227
O O17 0.592468 0.500000 0.771325
O O18 0.576108 0.704284 0.867418
O O19 0.591221 0.294532 0.500000
O O20 0.500000 0.271391 0.406494
O O21 0.582815 0.500000 0.405178
O O22 0.345876 0.500000 0.078316
O O23 0.407269 0.696297 0.000000
#
# Coordination Sequence:
#
# PCOD8195980 Si02
#       8
#     8   8   8   8   8   8   8   8
#     4  12  23  34  53  81 110 141 175 214 254 296
#     4   9  17  28  43  63  88 120 156 194 245 314
#     4  11  20  30  45  66  90 118 155 204 259 310
#     4  10  19  33  53  73  97 129 166 210 255 304
#     4   8  15  28  47  71  95 120 157 210 265 309
#     4  10  21  36  53  71  94 128 169 213 261 313
#     4   9  19  37  60  85 115 152 188 216 247 294
#     4  10  20  33  49  66  87 119 160 208 263 320
#
# _framework density 17.934861000000001
#
# number of rings (size 3 to 8) (size 9 to 14) (size 15 to 20)
#    0.000    2.125    1.250    4.500    0.000    4.750 
#    0.000    3.125    0.000    9.375    0.000    5.250 
#    0.000    0.500    0.000    5.750    0.000    1.625 
#
# Total GULP energy -793120.528728 kJ/mol
# GULP energy per Si atom -12392.508261 kJ/mol
# Density = 1.789404 g / cm^3
# Si number density = 17.934861 Si / 1000 Ang^3
#
#
#
# Elastic Constant Matrix: (Units=GPa)
#
#
# Indices 1 2 3 4 5 6 
#
# 1 117.9082 41.1950 43.1685 0.0000 0.0000 0.0000
# 2 41.1950 75.0081 27.5723 0.0000 0.0000 0.0000
# 3 43.1685 27.5723 72.6629 0.0000 0.0000 0.0000
# 4 0.0000 0.0000 0.0000 8.0671 0.0000 0.0000
# 5 0.0000 0.0000 0.0000 0.0000 19.2511 0.0000
# 6 0.0000 0.0000 0.0000 0.0000 0.0000 5.4756
#
#
#
# Elastic Compliance Matrix: (Units=1/GPa)
#
#
# Indices 1 2 3 4 5 6 
#
# 1 0.012089 -0.004647 -0.005418 0.000000 0.000000 0.000000
# 2 -0.004647 0.017280 -0.003796 0.000000 0.000000 0.000000
# 3 -0.005418 -0.003796 0.018421 0.000000 0.000000 0.000000
# 4 0.000000 0.000000 0.000000 0.123961 0.000000 0.000000
# 5 0.000000 0.000000 0.000000 0.000000 0.051945 0.000000
# 6 0.000000 0.000000 0.000000 0.000000 0.000000 0.182627
#
#
# Mechanical properties :
#
#
# Convention : Reuss Voigt Hill
#
# Bulk Modulus (GPa) = 49.83392 54.38341 52.10866
# Shear Modulus (GPa) = 11.34468 16.80164 14.07316
#
# Velocity S-wave (km/s) = 2.51778 3.06406 2.80426
# Velocity P-wave (km/s) = 6.02484 6.55031 6.29306
#
# Compressibility (1/GPa) = 0.02006665
#
# Stress axis : x y z
#
# Youngs Moduli (GPa) = 82.72216 57.87160 54.28447
#
# Poissons Ratio (x) = 0.26896 0.29413
# Poissons Ratio (y) = 0.38445 0.20605
# Poissons Ratio (z) = 0.44821 0.21967
#
# Static dielectric constant tensor:
#      x y z
#    x 3.548980 0.000000 0.000000 
#    y 0.000000 3.109240 0.000000 
#    z 0.000000 0.000000 3.133030 
# 
# 
# High freq. dielectric constant tensor:
#      x y z
#    x 1.687260 0.000000 0.000000 
#    y 0.000000 1.674950 0.000000 
#    z 0.000000 0.000000 1.660930 
# 
# From -- ./inp_files/31535.got.cif
#   From: 2010.03.12/outbox.cif.g09.slc.cpg/sg47_16_cif.got.tgz:31535.got - 2010.04.14 03:12:58.
