data_PCOD8195996
_publ_section_title
;
Structure prediction by ZEFSAII (Michael W. Deem and Ramdas Pophale) SiO2 
 PCOD8195996
Probable space group: P M M M
;
_chemical_formula_sum "Si O2"
_cell_formula_units_Z 60
_cell_length_a 19.497882
_cell_length_b 8.871951
_cell_length_c 19.634497
_cell_angle_alpha 90.000000
_cell_angle_beta 90.000000
_cell_angle_gamma 90.000000
_cell_volume 3396.458810
_symmetry_space_group_name_H-M "P M M M"
_symmetry_group_IT_number 47
_symmetry_cell_setting 'orthorhombic'
loop_
_space_group_symop_operation_xyz
x,y,z
-x,-y,z
x,-y,-z
-x,y,-z
-x,-y,-z
x,y,-z
-x,y,z
x,-y,z
loop_
_atom_site_type_symbol
_atom_site_label
_atom_site_fract_x
_atom_site_fract_y
_atom_site_fract_z
Si Si1 0.378008 0.822075 0.136722
Si Si2 0.076837 0.322664 0.313500
Si Si3 0.179721 0.822476 0.783672
Si Si4 0.187099 0.323729 0.578009
Si Si5 0.500000 0.336523 0.924337
Si Si6 0.291891 0.177053 0.326789
Si Si7 0.421218 0.321853 0.276745
Si Si8 0.234813 0.178346 0.075663
O O1 0.436553 0.773035 0.085983
O O2 0.392113 0.732684 0.205291
O O3 0.309194 0.767577 0.099865
O O4 0.377436 0.000000 0.152384
O O5 0.074958 0.500000 0.304248
O O6 0.112760 0.255545 0.246743
O O7 0.118485 0.276659 0.381259
O O8 0.000000 0.256963 0.319928
O O9 0.248749 0.776962 0.741531
O O10 0.184010 0.770402 0.863162
O O11 0.169880 0.000000 0.778008
O O12 0.175100 0.278730 0.500000
O O13 0.202598 0.500000 0.586923
O O14 0.251546 0.232190 0.606647
O O15 0.500000 0.500000 0.882485
O O16 0.500000 0.391924 0.000000
O O17 0.367437 0.252264 0.330618
O O18 0.302197 0.000000 0.330179
O O19 0.500000 0.265288 0.288279
O O20 0.418504 0.500000 0.282070
O O21 0.233964 0.000000 0.069734
O O22 0.216640 0.246073 0.000000
#
# Coordination Sequence:
#
# PCOD8195996 Si02
#       8
#     8   8   8   8   4   8   8   8
#     4  11  20  32  49  68  91 123 167 213 263 320
#     4   9  18  32  51  78 109 140 172 204 242 292
#     4   9  17  31  50  73  99 130 171 214 257 302
#     4   9  18  33  54  81 111 142 171 200 243 298
#     4  11  23  35  43  59  93 131 166 207 262 325
#     4  10  19  33  53  76 102 134 174 216 255 300
#     4  11  22  34  50  72 100 133 169 214 268 314
#     4   9  17  30  48  70  95 123 163 217 267 307
#
# _framework density 17.665457
#
# number of rings (size 3 to 8) (size 9 to 14) (size 15 to 20)
#    0.000    2.200    2.000    1.800    0.000    3.200 
#    0.000    1.333    0.000    2.800    0.000    9.333 
#    0.000    0.000    0.000    0.000    0.000    0.000 
#
# Total GULP energy -743549.203936 kJ/mol
# GULP energy per Si atom -12392.486732 kJ/mol
# Density = 1.762525 g / cm^3
# Si number density = 17.665457 Si / 1000 Ang^3
#
#
#
# Elastic Constant Matrix: (Units=GPa)
#
#
# Indices 1 2 3 4 5 6 
#
# 1 124.7215 34.8929 74.9611 0.0000 0.0000 0.0000
# 2 34.8929 36.2205 27.5096 0.0000 0.0000 0.0000
# 3 74.9611 27.5096 122.0557 0.0000 0.0000 0.0000
# 4 0.0000 0.0000 0.0000 22.2176 0.0000 0.0000
# 5 0.0000 0.0000 0.0000 0.0000 15.9289 0.0000
# 6 0.0000 0.0000 0.0000 0.0000 0.0000 24.4764
#
#
#
# Elastic Compliance Matrix: (Units=1/GPa)
#
#
# Indices 1 2 3 4 5 6 
#
# 1 0.014729 -0.008830 -0.007056 0.000000 0.000000 0.000000
# 2 -0.008830 0.038605 -0.003278 0.000000 0.000000 0.000000
# 3 -0.007056 -0.003278 0.013265 0.000000 0.000000 0.000000
# 4 0.000000 0.000000 0.000000 0.045009 0.000000 0.000000
# 5 0.000000 0.000000 0.000000 0.000000 0.062779 0.000000
# 6 0.000000 0.000000 0.000000 0.000000 0.000000 0.040856
#
#
# Mechanical properties :
#
#
# Convention : Reuss Voigt Hill
#
# Bulk Modulus (GPa) = 35.37156 61.96942 48.67049
# Shear Modulus (GPa) = 19.01187 22.23354 20.62270
#
# Velocity S-wave (km/s) = 3.28413 3.55151 3.42043
# Velocity P-wave (km/s) = 5.86917 7.20924 6.57345
#
# Compressibility (1/GPa) = 0.02827130
#
# Stress axis : x y z
#
# Youngs Moduli (GPa) = 67.89380 25.90352 75.38647
#
# Poissons Ratio (x) = 0.22874 0.53190
# Poissons Ratio (y) = 0.59952 0.24710
# Poissons Ratio (z) = 0.47903 0.08491
#
# Static dielectric constant tensor:
#      x y z
#    x 3.713820 0.000000 0.000000 
#    y 0.000000 3.235420 0.000000 
#    z 0.000000 0.000000 3.368290 
# 
# 
# High freq. dielectric constant tensor:
#      x y z
#    x 1.673510 0.000000 0.000000 
#    y 0.000000 1.674690 0.000000 
#    z 0.000000 0.000000 1.670890 
# 
# From -- ./inp_files/28790.got.cif
#   From: 2010.03.12/outbox.cif.g09.slc.cpg/sg47_15_cif.got.tgz:28790.got - 2010.04.14 03:12:58.
