data_PCOD8195527
_publ_section_title
;
Structure prediction by ZEFSAII (Michael W. Deem and Ramdas Pophale) SiO2 
 PCOD8195527
Probable space group: P M M M
;
_chemical_formula_sum "Si O2"
_cell_formula_units_Z 52
_cell_length_a 22.932193
_cell_length_b 9.185655
_cell_length_c 13.368113
_cell_angle_alpha 90.000000
_cell_angle_beta 90.000000
_cell_angle_gamma 90.000000
_cell_volume 2815.955750
_symmetry_space_group_name_H-M "P M M M"
_symmetry_group_IT_number 47
_symmetry_cell_setting 'orthorhombic'
loop_
_space_group_symop_operation_xyz
x,y,z
-x,-y,z
x,-y,-z
-x,y,-z
-x,-y,-z
x,y,-z
-x,y,z
x,-y,z
loop_
_atom_site_type_symbol
_atom_site_label
_atom_site_fract_x
_atom_site_fract_y
_atom_site_fract_z
Si Si1 0.364781 0.826523 0.696252
Si Si2 0.065305 0.829474 0.204472
Si Si3 0.141666 0.834435 0.611459
Si Si4 0.242769 0.328500 0.295209
Si Si5 0.434520 0.172556 0.500000
Si Si6 0.833447 0.333667 0.888657
Si Si7 0.565572 0.172754 0.889082
O O1 0.302386 0.754062 0.686455
O O2 0.402156 0.773877 0.600566
O O3 0.394160 0.767722 0.799182
O O4 0.357981 0.000000 0.697435
O O5 0.089178 0.791259 0.314860
O O6 0.107304 0.757249 0.122983
O O7 0.000000 0.765949 0.194642
O O8 0.065062 0.000000 0.184024
O O9 0.116808 0.817349 0.500000
O O10 0.196497 0.727228 0.623389
O O11 0.162542 0.000000 0.632539
O O12 0.252598 0.500000 0.307089
O O13 0.217714 0.283995 0.186137
O O14 0.500000 0.237174 0.500000
O O15 0.437160 0.000000 0.500000
O O16 0.850135 0.500000 0.866973
O O17 0.808944 0.310101 0.000000
O O18 0.500000 0.232398 0.873016
O O19 0.564432 0.000000 0.883687
O O20 0.588353 0.222027 0.000000
#
# Coordination Sequence:
#
# PCOD8195527 Si02
#       7
#     8   8   8   8   4   8   8
#     4  10  19  31  50  75 100 128 165 206 247 297
#     4   9  18  32  50  76 106 130 158 201 252 302
#     4   9  18  33  53  73  96 129 166 203 243 291
#     4  10  21  35  50  71  99 130 165 206 250 295
#     4   9  18  32  51  75 101 131 166 203 242 291
#     4   9  19  36  54  70  94 133 175 209 244 290
#     4   8  14  26  46  72  99 125 157 202 251 293
#
# _framework density 18.466199
#
# number of rings (size 3 to 8) (size 9 to 14) (size 15 to 20)
#    0.000    2.846    0.000    1.385    1.077    4.615 
#    0.000    3.077    0.000    2.308    0.000    5.385 
#    0.000    0.000    0.000    0.000    0.000    0.000 
#
# Total GULP energy -644647.692546 kJ/mol
# GULP energy per Si atom -12397.071010 kJ/mol
# Density = 1.842417 g / cm^3
# Si number density = 18.466199 Si / 1000 Ang^3
#
#
#
# Elastic Constant Matrix: (Units=GPa)
#
#
# Indices 1 2 3 4 5 6 
#
# 1 113.8444 27.1324 35.7519 0.0000 0.0000 0.0000
# 2 27.1324 30.4185 17.8509 0.0000 0.0000 0.0000
# 3 35.7519 17.8509 106.4675 0.0000 0.0000 0.0000
# 4 0.0000 0.0000 0.0000 17.7544 0.0000 0.0000
# 5 0.0000 0.0000 0.0000 0.0000 15.5978 0.0000
# 6 0.0000 0.0000 0.0000 0.0000 0.0000 7.3196
#
#
#
# Elastic Compliance Matrix: (Units=1/GPa)
#
#
# Indices 1 2 3 4 5 6 
#
# 1 0.011690 -0.009010 -0.002415 0.000000 0.000000 0.000000
# 2 -0.009010 0.043407 -0.004252 0.000000 0.000000 0.000000
# 3 -0.002415 -0.004252 0.010916 0.000000 0.000000 0.000000
# 4 0.000000 0.000000 0.000000 0.056324 0.000000 0.000000
# 5 0.000000 0.000000 0.000000 0.000000 0.064111 0.000000
# 6 0.000000 0.000000 0.000000 0.000000 0.000000 0.136619
#
#
# Mechanical properties :
#
#
# Convention : Reuss Voigt Hill
#
# Bulk Modulus (GPa) = 28.85252 45.80010 37.32631
# Shear Modulus (GPa) = 13.66220 19.46738 16.56479
#
# Velocity S-wave (km/s) = 2.72297 3.25039 2.99830
# Velocity P-wave (km/s) = 5.05416 6.24041 5.67834
#
# Compressibility (1/GPa) = 0.03465902
#
# Stress axis : x y z
#
# Youngs Moduli (GPa) = 85.54680 23.03802 91.60543
#
# Poissons Ratio (x) = 0.20756 0.22120
# Poissons Ratio (y) = 0.77074 0.38953
# Poissons Ratio (z) = 0.20657 0.09796
#
# Static dielectric constant tensor:
#      x y z
#    x 3.391600 0.000000 0.000000 
#    y 0.000000 3.111890 0.000000 
#    z 0.000000 0.000000 3.630370 
# 
# 
# High freq. dielectric constant tensor:
#      x y z
#    x 1.710870 0.000000 0.000000 
#    y 0.000000 1.682940 0.000000 
#    z 0.000000 0.000000 1.727780 
# 
# From -- ./inp_files/10987.got.cif
#   From: 2010.03.12/outbox.cif.g09.slc.cpg/sg47_6_cif.got.tgz:10987.got - 2010.04.14 03:12:58.
