data_PCOD8195997
_publ_section_title
;
Structure prediction by ZEFSAII (Michael W. Deem and Ramdas Pophale) SiO2 
 PCOD8195997
Probable space group: P M M M
;
_chemical_formula_sum "Si O2"
_cell_formula_units_Z 48
_cell_length_a 16.538682
_cell_length_b 18.642395
_cell_length_c 8.683068
_cell_angle_alpha 90.000000
_cell_angle_beta 90.000000
_cell_angle_gamma 90.000000
_cell_volume 2677.169106
_symmetry_space_group_name_H-M "P M M M"
_symmetry_group_IT_number 47
_symmetry_cell_setting 'orthorhombic'
loop_
_space_group_symop_operation_xyz
x,y,z
-x,-y,z
x,-y,-z
-x,y,-z
-x,-y,-z
x,y,-z
-x,y,z
x,-y,z
loop_
_atom_site_type_symbol
_atom_site_label
_atom_site_fract_x
_atom_site_fract_y
_atom_site_fract_z
Si Si1 0.000000 0.646650 0.318553
Si Si2 0.740248 0.297907 0.682341
Si Si3 0.160727 0.417589 0.820581
Si Si4 0.165845 0.832901 0.818611
Si Si5 0.589025 0.210959 0.682025
Si Si6 0.303137 0.918659 0.679665
Si Si7 0.000000 0.188684 0.317125
O O1 0.921265 0.606202 0.259863
O O2 0.000000 0.728605 0.262058
O O3 0.000000 0.643251 0.500000
O O4 0.745262 0.305201 0.500000
O O5 0.761977 0.373617 0.758659
O O6 0.805170 0.239157 0.734207
O O7 0.650521 0.273398 0.737414
O O8 0.178423 0.500000 0.782078
O O9 0.150222 0.403705 0.000000
O O10 0.223324 0.899557 0.776238
O O11 0.077179 0.851125 0.755336
O O12 0.164960 0.820083 0.000000
O O13 0.581545 0.213867 0.500000
O O14 0.500000 0.222042 0.756841
O O15 0.623648 0.133227 0.731877
O O16 0.283292 0.906729 0.500000
O O17 0.329278 0.000000 0.715002
O O18 0.000000 0.180505 0.500000
#
# Coordination Sequence:
#
# PCOD8195997 Si02
#       7
#     4   8   8   8   8   8   4
#     4  11  22  34  53  77 104 137 172 215 260 303
#     4  10  19  33  53  76 102 135 174 213 256 306
#     4  11  23  36  51  74 106 141 175 213 258 306
#     4  11  21  33  52  75 101 136 175 215 257 302
#     4   8  15  29  52  82 109 131 164 212 259 303
#     4   9  18  33  53  77 107 140 171 207 254 306
#     4  11  21  34  53  76 101 131 173 221 260 299
#
# _framework density 17.929386000000001
#
# number of rings (size 3 to 8) (size 9 to 14) (size 15 to 20)
#    0.000    2.000    1.667    4.250    0.000    3.667 
#    0.000    2.083    0.000   15.500    0.000    8.167 
#    0.000    0.000    0.000    0.000    0.000    0.000 
#
# Total GULP energy -595220.068684 kJ/mol
# GULP energy per Si atom -12400.418098 kJ/mol
# Density = 1.788858 g / cm^3
# Si number density = 17.929386 Si / 1000 Ang^3
#
#
#
# Elastic Constant Matrix: (Units=GPa)
#
#
# Indices 1 2 3 4 5 6 
#
# 1 152.6768 55.6295 20.6177 0.0000 0.0000 0.0000
# 2 55.6295 96.6446 25.1488 0.0000 0.0000 0.0000
# 3 20.6177 25.1488 44.0246 0.0000 0.0000 0.0000
# 4 0.0000 0.0000 0.0000 23.3783 0.0000 0.0000
# 5 0.0000 0.0000 0.0000 0.0000 0.3044 0.0000
# 6 0.0000 0.0000 0.0000 0.0000 0.0000 20.1708
#
#
#
# Elastic Compliance Matrix: (Units=1/GPa)
#
#
# Indices 1 2 3 4 5 6 
#
# 1 0.008358 -0.004454 -0.001370 0.000000 0.000000 0.000000
# 2 -0.004454 0.014528 -0.006213 0.000000 0.000000 0.000000
# 3 -0.001370 -0.006213 0.026905 0.000000 0.000000 0.000000
# 4 0.000000 0.000000 0.000000 0.042775 0.000000 0.000000
# 5 0.000000 0.000000 0.000000 0.000000 3.285319 0.000000
# 6 0.000000 0.000000 0.000000 0.000000 0.000000 0.049577
#
#
# Mechanical properties :
#
#
# Convention : Reuss Voigt Hill
#
# Bulk Modulus (GPa) = 38.88483 55.12643 47.00563
# Shear Modulus (GPa) = 1.44504 21.56737 11.50620
#
# Velocity S-wave (km/s) = 0.89873 3.47206 2.53603
# Velocity P-wave (km/s) = 4.77617 6.84739 5.90333
#
# Compressibility (1/GPa) = 0.02571697
#
# Stress axis : x y z
#
# Youngs Moduli (GPa) = 119.64951 68.83312 37.16780
#
# Poissons Ratio (x) = 0.30661 0.05090
# Poissons Ratio (y) = 0.53297 0.23092
# Poissons Ratio (z) = 0.16387 0.42765
#
# Static dielectric constant tensor:
#      x y z
#    x 3.591080 0.000000 0.000000 
#    y 0.000000 3.316470 0.000000 
#    z 0.000000 0.000000 3.228270 
# 
# 
# High freq. dielectric constant tensor:
#      x y z
#    x 1.691390 0.000000 0.000000 
#    y 0.000000 1.679960 0.000000 
#    z 0.000000 0.000000 1.687940 
# 
# From -- ./inp_files/6533.got.cif
#   From: 2010.03.12/outbox.cif.g09.slc.cpg/sg47_4_cif.got.tgz:6533.got - 2010.04.14 03:12:58.
