data_PCOD8195483
_publ_section_title
;
Structure prediction by ZEFSAII (Michael W. Deem and Ramdas Pophale) SiO2 
 PCOD8195483
Probable space group: P M M M
;
_chemical_formula_sum "Si O2"
_cell_formula_units_Z 56
_cell_length_a 9.463111
_cell_length_b 25.251767
_cell_length_c 14.250374
_cell_angle_alpha 90.000000
_cell_angle_beta 90.000000
_cell_angle_gamma 90.000000
_cell_volume 3405.273277
_symmetry_space_group_name_H-M "P M M M"
_symmetry_group_IT_number 47
_symmetry_cell_setting 'orthorhombic'
loop_
_space_group_symop_operation_xyz
x,y,z
-x,-y,z
x,-y,-z
-x,y,-z
-x,-y,-z
x,y,-z
-x,y,z
x,-y,z
loop_
_atom_site_type_symbol
_atom_site_label
_atom_site_fract_x
_atom_site_fract_y
_atom_site_fract_z
Si Si1 0.838164 0.697494 0.895885
Si Si2 0.834729 0.350721 0.295970
Si Si3 0.663214 0.256637 0.610395
Si Si4 0.661711 0.561436 0.608015
Si Si5 0.662320 0.800580 0.895981
Si Si6 0.835519 0.060470 0.393321
Si Si7 0.336901 0.147961 0.708214
O O1 0.810269 0.653421 0.816450
O O2 0.748982 0.748759 0.869512
O O3 0.000000 0.715759 0.893951
O O4 0.797627 0.675492 0.000000
O O5 0.760842 0.302672 0.349597
O O6 0.767083 0.406006 0.326652
O O7 0.000000 0.350337 0.321604
O O8 0.686337 0.252917 0.500000
O O9 0.500000 0.268921 0.635683
O O10 0.711737 0.201041 0.654811
O O11 0.689392 0.576670 0.500000
O O12 0.500000 0.574910 0.634206
O O13 0.693470 0.500000 0.625224
O O14 0.500000 0.782992 0.890707
O O15 0.692824 0.845889 0.819537
O O16 0.701844 0.822014 0.000000
O O17 0.788277 0.071726 0.500000
O O18 0.751023 0.097791 0.323856
O O19 0.000000 0.072401 0.381359
O O20 0.801507 0.000000 0.366402
O O21 0.500000 0.136430 0.686568
#
# Coordination Sequence:
#
# PCOD8195483 Si02
#       7
#     8   8   8   8   8   8   8
#     4   9  18  32  48  68  97 130 162 196 236 285
#     4  11  21  31  48  74 100 126 160 201 241 283
#     4  10  20  32  45  66 100 135 160 188 234 290
#     4   9  19  36  55  72  93 127 167 201 238 287
#     4   9  17  30  49  72  97 125 159 199 240 282
#     4   9  19  35  52  70  94 126 164 204 244 286
#     4  10  19  31  49  73  99 126 160 200 240 287
#
# _framework density 16.445084000000001
#
# number of rings (size 3 to 8) (size 9 to 14) (size 15 to 20)
#    0.000    2.429    1.429    2.143    0.000    5.429 
#    0.000    1.429    0.000    0.857    0.000    6.000 
#    0.000    0.000    0.000    0.000    0.000    0.000 
#
# Total GULP energy -694346.427476 kJ/mol
# GULP energy per Si atom -12399.043348 kJ/mol
# Density = 1.640765 g / cm^3
# Si number density = 16.445084 Si / 1000 Ang^3
#
#
#
# Elastic Constant Matrix: (Units=GPa)
#
#
# Indices 1 2 3 4 5 6 
#
# 1 74.0763 55.5385 52.6276 0.0000 0.0000 0.0000
# 2 55.5385 93.1112 59.3496 0.0000 0.0000 0.0000
# 3 52.6276 59.3496 106.6402 0.0000 0.0000 0.0000
# 4 0.0000 0.0000 0.0000 20.7286 0.0000 0.0000
# 5 0.0000 0.0000 0.0000 0.0000 24.6765 0.0000
# 6 0.0000 0.0000 0.0000 0.0000 0.0000 44.0763
#
#
#
# Elastic Compliance Matrix: (Units=1/GPa)
#
#
# Indices 1 2 3 4 5 6 
#
# 1 0.027296 -0.011925 -0.006834 0.000000 0.000000 0.000000
# 2 -0.011925 0.021854 -0.006278 0.000000 0.000000 0.000000
# 3 -0.006834 -0.006278 0.016244 0.000000 0.000000 0.000000
# 4 0.000000 0.000000 0.000000 0.048243 0.000000 0.000000
# 5 0.000000 0.000000 0.000000 0.000000 0.040524 0.000000
# 6 0.000000 0.000000 0.000000 0.000000 0.000000 0.022688
#
#
# Mechanical properties :
#
#
# Convention : Reuss Voigt Hill
#
# Bulk Modulus (GPa) = 65.27276 67.65102 66.46189
# Shear Modulus (GPa) = 21.54910 24.98375 23.26642
#
# Velocity S-wave (km/s) = 3.62383 3.90195 3.76546
# Velocity P-wave (km/s) = 7.56882 7.84392 7.70760
#
# Compressibility (1/GPa) = 0.01532033
#
# Stress axis : x y z
#
# Youngs Moduli (GPa) = 36.63602 45.75734 61.56306
#
# Poissons Ratio (x) = 0.54567 0.42070
# Poissons Ratio (y) = 0.43690 0.38647
# Poissons Ratio (z) = 0.25036 0.28725
#
# Static dielectric constant tensor:
#      x y z
#    x 3.126030 0.000000 0.000000 
#    y 0.000000 2.891360 0.000000 
#    z 0.000000 0.000000 3.356840 
# 
# 
# High freq. dielectric constant tensor:
#      x y z
#    x 1.636260 0.000000 0.000000 
#    y 0.000000 1.610570 0.000000 
#    z 0.000000 0.000000 1.640090 
# 
# From -- ./inp_files/7343.got.cif
#   From: 2010.03.12/outbox.cif.g09.slc.cpg/sg47_4_cif.got.tgz:7343.got - 2010.04.14 03:12:58.
