data_PCOD8195530
_publ_section_title
;
Structure prediction by ZEFSAII (Michael W. Deem and Ramdas Pophale) SiO2 
 PCOD8195530
Probable space group: P M M M
;
_chemical_formula_sum "Si O2"
_cell_formula_units_Z 40
_cell_length_a 13.711448
_cell_length_b 9.004016
_cell_length_c 18.637743
_cell_angle_alpha 90.000000
_cell_angle_beta 90.000000
_cell_angle_gamma 90.000000
_cell_volume 2300.980286
_symmetry_space_group_name_H-M "P M M M"
_symmetry_group_IT_number 47
_symmetry_cell_setting 'orthorhombic'
loop_
_space_group_symop_operation_xyz
x,y,z
-x,-y,z
x,-y,-z
-x,y,-z
-x,-y,-z
x,y,-z
-x,y,z
x,-y,z
loop_
_atom_site_type_symbol
_atom_site_label
_atom_site_fract_x
_atom_site_fract_y
_atom_site_fract_z
Si Si1 0.893551 0.325135 0.157149
Si Si2 0.223166 0.674824 0.704683
Si Si3 0.296692 0.675634 0.918811
Si Si4 0.612181 0.828618 0.212483
Si Si5 0.888915 0.171648 0.582806
O O1 0.904649 0.500000 0.152503
O O2 0.857029 0.279162 0.236112
O O3 0.814300 0.272172 0.098502
O O4 0.000000 0.251398 0.142748
O O5 0.240230 0.500000 0.701978
O O6 0.325641 0.749720 0.725331
O O7 0.186207 0.730603 0.628071
O O8 0.306768 0.500000 0.906447
O O9 0.371009 0.756098 0.865602
O O10 0.322365 0.720960 0.000000
O O11 0.500000 0.808538 0.233753
O O12 0.642516 0.000000 0.208050
O O13 0.863017 0.198232 0.500000
O O14 0.000000 0.222041 0.598121
O O15 0.875782 0.000000 0.603373
#
# Coordination Sequence:
#
# PCOD8195530 Si02
#       5
#     8   8   8   8   8
#     4   8  14  25  42  66  95 125 157 192 231 278
#     4  10  19  31  50  75 101 128 162 206 251 293
#     4   9  18  31  47  70  98 126 158 199 248 297
#     4  10  21  36  53  71  91 121 163 207 253 306
#     4   9  18  32  50  75 109 145 173 196 229 276
#
# _framework density 17.383896
#
# number of rings (size 3 to 8) (size 9 to 14) (size 15 to 20)
#    0.000    2.800    0.000    3.600    0.000    4.400 
#    0.000    5.000    0.000    6.000    0.000    9.800 
#    0.000    0.000    0.000    0.000    0.000    0.000 
#
# Total GULP energy -495907.691774 kJ/mol
# GULP energy per Si atom -12397.692294 kJ/mol
# Density = 1.734433 g / cm^3
# Si number density = 17.383896 Si / 1000 Ang^3
#
#
#
# Elastic Constant Matrix: (Units=GPa)
#
#
# Indices 1 2 3 4 5 6 
#
# 1 95.1149 46.2628 43.7804 0.0000 0.0000 0.0000
# 2 46.2628 75.6049 49.0396 0.0000 0.0000 0.0000
# 3 43.7804 49.0396 98.7264 0.0000 0.0000 0.0000
# 4 0.0000 0.0000 0.0000 27.2826 0.0000 0.0000
# 5 0.0000 0.0000 0.0000 0.0000 26.3678 0.0000
# 6 0.0000 0.0000 0.0000 0.0000 0.0000 23.4046
#
#
#
# Elastic Compliance Matrix: (Units=1/GPa)
#
#
# Indices 1 2 3 4 5 6 
#
# 1 0.015632 -0.007478 -0.003217 0.000000 0.000000 0.000000
# 2 -0.007478 0.023091 -0.008154 0.000000 0.000000 0.000000
# 3 -0.003217 -0.008154 0.015606 0.000000 0.000000 0.000000
# 4 0.000000 0.000000 0.000000 0.036653 0.000000 0.000000
# 5 0.000000 0.000000 0.000000 0.000000 0.037925 0.000000
# 6 0.000000 0.000000 0.000000 0.000000 0.000000 0.042727
#
#
# Mechanical properties :
#
#
# Convention : Reuss Voigt Hill
#
# Bulk Modulus (GPa) = 60.13094 60.84575 60.48834
# Shear Modulus (GPa) = 23.26918 24.10190 23.68554
#
# Velocity S-wave (km/s) = 3.66259 3.72755 3.69521
# Velocity P-wave (km/s) = 7.24922 7.32143 7.28541
#
# Compressibility (1/GPa) = 0.01663037
#
# Stress axis : x y z
#
# Youngs Moduli (GPa) = 63.97179 43.30614 64.07849
#
# Poissons Ratio (x) = 0.32386 0.20616
# Poissons Ratio (y) = 0.47840 0.52248
# Poissons Ratio (z) = 0.20582 0.35311
#
# Static dielectric constant tensor:
#      x y z
#    x 3.554000 0.000000 0.000000 
#    y 0.000000 3.085150 0.000000 
#    z 0.000000 0.000000 3.161180 
# 
# 
# High freq. dielectric constant tensor:
#      x y z
#    x 1.667200 0.000000 0.000000 
#    y 0.000000 1.657320 0.000000 
#    z 0.000000 0.000000 1.661620 
# 
# From -- ./inp_files/5951.got.cif
#   From: 2010.03.12/outbox.cif.g09.slc.cpg/sg47_3_cif.got.tgz:5951.got - 2010.04.14 03:12:58.
