data_PCOD8195363
_publ_section_title
;
Structure prediction by ZEFSAII (Michael W. Deem and Ramdas Pophale) SiO2 
 PCOD8195363
Probable space group: P M M M
;
_chemical_formula_sum "Si O2"
_cell_formula_units_Z 52
_cell_length_a 9.219878
_cell_length_b 26.664056
_cell_length_c 13.628469
_cell_angle_alpha 90.000000
_cell_angle_beta 90.000000
_cell_angle_gamma 90.000000
_cell_volume 3350.413869
_symmetry_space_group_name_H-M "P M M M"
_symmetry_group_IT_number 47
_symmetry_cell_setting 'orthorhombic'
loop_
_space_group_symop_operation_xyz
x,y,z
-x,-y,z
x,-y,-z
-x,y,-z
-x,-y,-z
x,y,-z
-x,y,z
x,-y,z
loop_
_atom_site_type_symbol
_atom_site_label
_atom_site_fract_x
_atom_site_fract_y
_atom_site_fract_z
Si Si1 0.163513 0.945159 0.383389
Si Si2 0.329043 0.645817 0.387920
Si Si3 0.331000 0.849627 0.614576
Si Si4 0.331407 0.251411 0.702938
Si Si5 0.827385 0.398164 0.788348
Si Si6 0.828384 0.500000 0.890086
Si Si7 0.667518 0.690566 0.889293
O O1 0.169727 0.943749 0.500000
O O2 0.259753 0.899950 0.340749
O O3 0.000000 0.937301 0.346283
O O4 0.220757 0.000000 0.347478
O O5 0.291265 0.633311 0.500000
O O6 0.500000 0.640888 0.366501
O O7 0.273819 0.701967 0.362071
O O8 0.242946 0.606895 0.319481
O O9 0.297120 0.842989 0.500000
O O10 0.500000 0.854966 0.635386
O O11 0.260620 0.801277 0.669736
O O12 0.500000 0.245857 0.680570
O O13 0.298882 0.262443 0.817646
O O14 0.775557 0.451208 0.831432
O O15 0.769120 0.355859 0.862063
O O16 0.000000 0.393785 0.780428
O O17 0.000000 0.500000 0.898168
O O18 0.761498 0.500000 0.000000
O O19 0.500000 0.673902 0.875916
O O20 0.700547 0.707906 0.000000
#
# Coordination Sequence:
#
# PCOD8195363 Si02
#       7
#     8   8   8   8   8   4   8
#     4   8  14  24  35  47  69 103 136 163 196 237
#     4   9  17  31  49  65  86 117 146 171 203 246
#     4   9  15  22  35  55  77 102 133 166 196 230
#     4   8  14  25  41  61  83 107 136 167 201 243
#     4  10  19  31  48  68  88 110 139 175 211 249
#     4   9  18  32  48  65  86 112 139 169 212 261
#     4   9  17  30  47  65  86 112 140 169 205 252
#
# _framework density 15.520472
#
# number of rings (size 3 to 8) (size 9 to 14) (size 15 to 20)
#    0.000    3.154    0.000    2.769    0.000    3.385 
#    0.000    6.538    0.000    8.769    0.000    0.000 
#    0.000    0.615    0.000    7.692    0.000    1.538 
#
# Total GULP energy -644468.227262 kJ/mol
# GULP energy per Si atom -12393.619755 kJ/mol
# Density = 1.548515 g / cm^3
# Si number density = 15.520472 Si / 1000 Ang^3
#
#
#
# Elastic Constant Matrix: (Units=GPa)
#
#
# Indices 1 2 3 4 5 6 
#
# 1 43.8724 43.7114 33.7795 0.0000 0.0000 0.0000
# 2 43.7114 143.4337 59.3049 0.0000 0.0000 0.0000
# 3 33.7795 59.3049 103.8929 0.0000 0.0000 0.0000
# 4 0.0000 0.0000 0.0000 17.5726 0.0000 0.0000
# 5 0.0000 0.0000 0.0000 0.0000 17.1082 0.0000
# 6 0.0000 0.0000 0.0000 0.0000 0.0000 21.3656
#
#
#
# Elastic Compliance Matrix: (Units=1/GPa)
#
#
# Indices 1 2 3 4 5 6 
#
# 1 0.036439 -0.008123 -0.007211 0.000000 0.000000 0.000000
# 2 -0.008123 0.010937 -0.003602 0.000000 0.000000 0.000000
# 3 -0.007211 -0.003602 0.014026 0.000000 0.000000 0.000000
# 4 0.000000 0.000000 0.000000 0.056907 0.000000 0.000000
# 5 0.000000 0.000000 0.000000 0.000000 0.058452 0.000000
# 6 0.000000 0.000000 0.000000 0.000000 0.000000 0.046804
#
#
# Mechanical properties :
#
#
# Convention : Reuss Voigt Hill
#
# Bulk Modulus (GPa) = 42.49945 62.75453 52.62699
# Shear Modulus (GPa) = 18.56818 21.50283 20.03550
#
# Velocity S-wave (km/s) = 3.46261 3.72620 3.59682
# Velocity P-wave (km/s) = 6.59003 7.68335 7.15760
#
# Compressibility (1/GPa) = 0.02352972
#
# Stress axis : x y z
#
# Youngs Moduli (GPa) = 27.44337 91.43564 71.29782
#
# Poissons Ratio (x) = 0.74277 0.51410
# Poissons Ratio (y) = 0.22293 0.25680
# Poissons Ratio (z) = 0.19788 0.32933
#
# Static dielectric constant tensor:
#      x y z
#    x 2.807690 0.000000 0.000000 
#    y 0.000000 3.221130 0.000000 
#    z 0.000000 0.000000 2.899480 
# 
# 
# High freq. dielectric constant tensor:
#      x y z
#    x 1.575480 0.000000 0.000000 
#    y 0.000000 1.592930 0.000000 
#    z 0.000000 0.000000 1.571830 
# 
# From -- ./inp_files/22027.got.cif
#   From: 2010.03.12/outbox.cif.g09.slc.cpg/sg47_12_cif.got.tgz:22027.got - 2010.04.14 03:12:58.
