data_PCOD8195300
_publ_section_title
;
Structure prediction by ZEFSAII (Michael W. Deem and Ramdas Pophale) SiO2 
 PCOD8195300
Probable space group: P M M M
;
_chemical_formula_sum "Si O2"
_cell_formula_units_Z 52
_cell_length_a 26.881038
_cell_length_b 12.134459
_cell_length_c 8.799023
_cell_angle_alpha 90.000000
_cell_angle_beta 90.000000
_cell_angle_gamma 90.000000
_cell_volume 2870.125626
_symmetry_space_group_name_H-M "P M M M"
_symmetry_group_IT_number 47
_symmetry_cell_setting 'orthorhombic'
loop_
_space_group_symop_operation_xyz
x,y,z
-x,-y,z
x,-y,-z
-x,y,-z
-x,-y,-z
x,y,-z
-x,y,z
x,-y,z
loop_
_atom_site_type_symbol
_atom_site_label
_atom_site_fract_x
_atom_site_fract_y
_atom_site_fract_z
Si Si1 0.944583 0.376240 0.319076
Si Si2 0.668748 0.624221 0.675265
Si Si3 0.372958 0.826933 0.178483
Si Si4 0.710798 0.000000 0.824922
Si Si5 0.855657 0.230730 0.679270
Si Si6 0.441492 0.000000 0.675972
Si Si7 0.818170 0.000000 0.680395
Si Si8 0.773678 0.373878 0.826931
O O1 0.942489 0.375209 0.500000
O O2 0.931515 0.500000 0.261492
O O3 0.905219 0.288110 0.250646
O O4 0.000000 0.343146 0.263512
O O5 0.681040 0.648832 0.500000
O O6 0.648204 0.500000 0.695439
O O7 0.627838 0.708622 0.738893
O O8 0.717565 0.642050 0.774920
O O9 0.321862 0.892326 0.214380
O O10 0.419989 0.891424 0.244405
O O11 0.380676 0.811749 0.000000
O O12 0.760733 0.000000 0.728024
O O13 0.726450 0.000000 0.000000
O O14 0.860918 0.226241 0.500000
O O15 0.808002 0.302409 0.719112
O O16 0.847505 0.107212 0.744019
O O17 0.500000 0.000000 0.699476
O O18 0.426143 0.000000 0.500000
O O19 0.818373 0.000000 0.500000
O O20 0.790492 0.500000 0.810910
O O21 0.778252 0.332520 0.000000
#
# Coordination Sequence:
#
# PCOD8195300 Si02
#       8
#     8   8   8   4   8   4   4   8
#     4   8  14  26  46  69  87 107 144 195 246 294
#     4  10  20  33  50  74 105 140 175 208 247 301
#     4  10  20  34  54  79 106 137 174 216 261 305
#     4   9  19  33  48  69  96 129 168 204 240 285
#     4  10  19  31  46  65  92 124 158 195 238 291
#     4  10  21  37  58  83 109 138 175 220 266 307
#     4  10  21  31  41  64  96 128 160 194 230 273
#     4  10  20  32  47  70  99 128 161 203 247 291
#
# _framework density 18.117674999999998
#
# number of rings (size 3 to 8) (size 9 to 14) (size 15 to 20)
#    0.000    2.385    0.000    3.923    0.000    8.000 
#    0.000    0.385    0.000    3.231    0.000    5.385 
#    0.000    1.846    0.000    0.000    0.000    0.000 
#
# Total GULP energy -644740.800212 kJ/mol
# GULP energy per Si atom -12398.861543 kJ/mol
# Density = 1.807644 g / cm^3
# Si number density = 18.117675 Si / 1000 Ang^3
#
#
#
# Elastic Constant Matrix: (Units=GPa)
#
#
# Indices 1 2 3 4 5 6 
#
# 1 81.9103 58.8333 18.7936 0.0000 0.0000 0.0000
# 2 58.8333 124.9333 31.2941 0.0000 0.0000 0.0000
# 3 18.7936 31.2941 31.9051 0.0000 0.0000 0.0000
# 4 0.0000 0.0000 0.0000 24.4207 0.0000 0.0000
# 5 0.0000 0.0000 0.0000 0.0000 3.5499 0.0000
# 6 0.0000 0.0000 0.0000 0.0000 0.0000 13.0500
#
#
#
# Elastic Compliance Matrix: (Units=1/GPa)
#
#
# Indices 1 2 3 4 5 6 
#
# 1 0.018684 -0.008010 -0.003149 0.000000 0.000000 0.000000
# 2 -0.008010 0.014045 -0.009058 0.000000 0.000000 0.000000
# 3 -0.003149 -0.009058 0.042083 0.000000 0.000000 0.000000
# 4 0.000000 0.000000 0.000000 0.040949 0.000000 0.000000
# 5 0.000000 0.000000 0.000000 0.000000 0.281696 0.000000
# 6 0.000000 0.000000 0.000000 0.000000 0.000000 0.076628
#
#
# Mechanical properties :
#
#
# Convention : Reuss Voigt Hill
#
# Bulk Modulus (GPa) = 29.08882 50.73229 39.91056
# Shear Modulus (GPa) = 9.50608 16.85930 13.18269
#
# Velocity S-wave (km/s) = 2.29309 3.05379 2.70036
# Velocity P-wave (km/s) = 4.80639 6.36369 5.63905
#
# Compressibility (1/GPa) = 0.03437747
#
# Stress axis : x y z
#
# Youngs Moduli (GPa) = 53.52084 71.19890 23.76274
#
# Poissons Ratio (x) = 0.57029 0.07484
# Poissons Ratio (y) = 0.42869 0.21524
# Poissons Ratio (z) = 0.16856 0.64492
#
# Static dielectric constant tensor:
#      x y z
#    x 3.213460 0.000000 0.000000 
#    y 0.000000 3.748320 0.000000 
#    z 0.000000 0.000000 3.194390 
# 
# 
# High freq. dielectric constant tensor:
#      x y z
#    x 1.679550 0.000000 0.000000 
#    y 0.000000 1.709450 0.000000 
#    z 0.000000 0.000000 1.689910 
# 
# From -- ./inp_files/13297.got.cif
#   From: 2010.03.12/outbox.cif.g09.slc.cpg/sg47_7_cif.got.tgz:13297.got - 2010.04.14 03:12:58.
