data_PCOD8195858
_publ_section_title
;
Structure prediction by ZEFSAII (Michael W. Deem and Ramdas Pophale) SiO2 
 PCOD8195858
Probable space group: P M M M
;
_chemical_formula_sum "Si O2"
_cell_formula_units_Z 48
_cell_length_a 14.251445
_cell_length_b 9.617505
_cell_length_c 19.029054
_cell_angle_alpha 90.000000
_cell_angle_beta 90.000000
_cell_angle_gamma 90.000000
_cell_volume 2608.185766
_symmetry_space_group_name_H-M "P M M M"
_symmetry_group_IT_number 47
_symmetry_cell_setting 'orthorhombic'
loop_
_space_group_symop_operation_xyz
x,y,z
-x,-y,z
x,-y,-z
-x,y,-z
-x,-y,-z
x,y,-z
-x,y,z
x,-y,z
loop_
_atom_site_type_symbol
_atom_site_label
_atom_site_fract_x
_atom_site_fract_y
_atom_site_fract_z
Si Si1 0.390588 0.163422 0.682993
Si Si2 0.896086 0.655016 0.916558
Si Si3 0.230993 0.246193 0.416930
Si Si4 0.727475 0.840176 0.916549
Si Si5 0.610451 0.658990 0.181939
Si Si6 0.896723 0.000000 0.416704
Si Si7 0.106949 0.500000 0.583396
O O1 0.500000 0.186366 0.665695
O O2 0.332552 0.226801 0.618023
O O3 0.358495 0.252601 0.750172
O O4 0.369366 0.000000 0.695233
O O5 0.866049 0.500000 0.890778
O O6 0.824967 0.772771 0.888927
O O7 0.000000 0.690963 0.887796
O O8 0.897132 0.656424 0.000000
O O9 0.249241 0.247511 0.500000
O O10 0.171313 0.375501 0.389949
O O11 0.161946 0.128490 0.390042
O O12 0.645500 0.744027 0.885731
O O13 0.720952 0.000000 0.890351
O O14 0.718804 0.833531 0.000000
O O15 0.500000 0.653340 0.175903
O O16 0.649980 0.500000 0.184898
O O17 0.906811 0.000000 0.500000
O O18 0.000000 0.000000 0.382264
O O19 0.096608 0.500000 0.500000
O O20 0.000000 0.500000 0.614874
#
# Coordination Sequence:
#
# PCOD8195858 Si02
#       7
#     8   8   8   8   8   4   4
#     4  10  21  37  56  78 107 144 183 225 276 332
#     4   8  14  26  46  73 105 140 175 209 248 299
#     4  10  19  32  52  82 112 144 185 225 271 319
#     4  10  20  33  53  83 113 140 172 215 268 321
#     4  10  22  39  58  78 101 137 182 223 268 325
#     4   9  16  28  49  77 109 141 179 226 270 320
#     4   9  18  32  51  77 111 147 181 222 272 324
#
# _framework density 18.403597000000001
#
# number of rings (size 3 to 8) (size 9 to 14) (size 15 to 20)
#    0.000    2.500    0.833    2.000    1.167    5.000 
#    0.000    4.167    0.000    3.500    0.000    0.000 
#    0.000    0.000    0.000    0.000    0.000    0.000 
#
# Total GULP energy -594803.987012 kJ/mol
# GULP energy per Si atom -12391.749729 kJ/mol
# Density = 1.836171 g / cm^3
# Si number density = 18.403597 Si / 1000 Ang^3
#
#
#
# Elastic Constant Matrix: (Units=GPa)
#
#
# Indices 1 2 3 4 5 6 
#
# 1 82.7039 57.0142 36.6952 0.0000 0.0000 0.0000
# 2 57.0142 168.3303 41.4727 0.0000 0.0000 0.0000
# 3 36.6952 41.4727 43.5293 0.0000 0.0000 0.0000
# 4 0.0000 0.0000 0.0000 26.1353 0.0000 0.0000
# 5 0.0000 0.0000 0.0000 0.0000 9.1136 0.0000
# 6 0.0000 0.0000 0.0000 0.0000 0.0000 41.9497
#
#
#
# Elastic Compliance Matrix: (Units=1/GPa)
#
#
# Indices 1 2 3 4 5 6 
#
# 1 0.020836 -0.003567 -0.014166 0.000000 0.000000 0.000000
# 2 -0.003567 0.008374 -0.004971 0.000000 0.000000 0.000000
# 3 -0.014166 -0.004971 0.039651 0.000000 0.000000 0.000000
# 4 0.000000 0.000000 0.000000 0.038262 0.000000 0.000000
# 5 0.000000 0.000000 0.000000 0.000000 0.109726 0.000000
# 6 0.000000 0.000000 0.000000 0.000000 0.000000 0.023838
#
#
# Mechanical properties :
#
#
# Convention : Reuss Voigt Hill
#
# Bulk Modulus (GPa) = 42.63959 62.76975 52.70467
# Shear Modulus (GPa) = 17.01186 26.06515 21.53850
#
# Velocity S-wave (km/s) = 3.04365 3.76747 3.42474
# Velocity P-wave (km/s) = 5.96416 7.28742 6.65874
#
# Compressibility (1/GPa) = 0.02345238
#
# Stress axis : x y z
#
# Youngs Moduli (GPa) = 47.99450 119.42307 25.21990
#
# Poissons Ratio (x) = 0.42598 0.35727
# Poissons Ratio (y) = 0.17119 0.12537
# Poissons Ratio (z) = 0.67989 0.59366
#
# Static dielectric constant tensor:
#      x y z
#    x 3.541870 0.000000 0.000000 
#    y 0.000000 3.751000 0.000000 
#    z 0.000000 0.000000 2.972230 
# 
# 
# High freq. dielectric constant tensor:
#      x y z
#    x 1.720650 0.000000 0.000000 
#    y 0.000000 1.732220 0.000000 
#    z 0.000000 0.000000 1.667940 
# 
# From -- ./inp_files/27983.got.cif
#   From: 2010.03.12/outbox.cif.g09.slc.cpg/sg47_14_cif.got.tgz:27983.got - 2010.04.14 03:12:58.
