data_PCOD8195805
_publ_section_title
;
Structure prediction by ZEFSAII (Michael W. Deem and Ramdas Pophale) SiO2 
 PCOD8195805
Probable space group: P M M M
;
_chemical_formula_sum "Si O2"
_cell_formula_units_Z 64
_cell_length_a 9.744783
_cell_length_b 19.675586
_cell_length_c 19.984536
_cell_angle_alpha 90.000000
_cell_angle_beta 90.000000
_cell_angle_gamma 90.000000
_cell_volume 3831.721340
_symmetry_space_group_name_H-M "P M M M"
_symmetry_group_IT_number 47
_symmetry_cell_setting 'orthorhombic'
loop_
_space_group_symop_operation_xyz
x,y,z
-x,-y,z
x,-y,-z
-x,y,-z
-x,-y,-z
x,y,-z
-x,y,z
x,-y,z
loop_
_atom_site_type_symbol
_atom_site_label
_atom_site_fract_x
_atom_site_fract_y
_atom_site_fract_z
Si Si1 0.346977 0.876794 0.753016
Si Si2 0.153714 0.196559 0.425523
Si Si3 0.656551 0.924490 0.390847
Si Si4 0.841214 0.755134 0.785261
Si Si5 0.840224 0.323832 0.339138
Si Si6 0.157984 0.200473 0.072680
Si Si7 0.657410 0.420197 0.575868
Si Si8 0.343113 0.924368 0.896642
O O1 0.500000 0.845036 0.753814
O O2 0.323768 0.923509 0.688899
O O3 0.240825 0.815444 0.750858
O O4 0.323902 0.924268 0.816921
O O5 0.156583 0.227629 0.500000
O O6 0.248170 0.130445 0.425639
O O7 0.207266 0.254716 0.375766
O O8 0.000000 0.174464 0.405072
O O9 0.500000 0.907845 0.410662
O O10 0.696560 0.000000 0.415882
O O11 0.812595 0.686771 0.741235
O O12 0.800434 0.749783 0.864798
O O13 0.000000 0.774116 0.778112
O O14 0.751239 0.385169 0.368072
O O15 0.000000 0.339652 0.353176
O O16 0.245752 0.131673 0.070692
O O17 0.000000 0.178921 0.081039
O O18 0.180467 0.237103 0.000000
O O19 0.701289 0.399890 0.500000
O O20 0.500000 0.398686 0.587908
O O21 0.675612 0.500000 0.585868
O O22 0.500000 0.907322 0.916627
O O23 0.303996 0.000000 0.922354
#
# Coordination Sequence:
#
# PCOD8195805 Si02
#       8
#     8   8   8   8   8   8   8   8
#     4   9  16  28  45  63  83 108 142 187 238 288
#     4  10  21  35  48  64  88 117 150 190 237 285
#     4  10  20  32  46  63  83 109 146 195 247 293
#     4   9  17  30  48  68  91 117 150 192 233 273
#     4  10  19  32  52  75  98 125 160 199 234 271
#     4   9  18  31  45  62  87 118 149 185 233 286
#     4   9  19  35  53  76 108 141 167 190 221 267
#     4   9  17  28  42  60  82 109 143 184 233 289
#
# _framework density 16.702674999999999
#
# number of rings (size 3 to 8) (size 9 to 14) (size 15 to 20)
#    0.000    2.625    1.250    1.125    0.000    5.000 
#    0.000    3.125    0.000    2.250    0.000    0.000 
#    0.000    0.500    0.000    6.250    0.000    1.000 
#
# Total GULP energy -793093.025655 kJ/mol
# GULP energy per Si atom -12392.078526 kJ/mol
# Density = 1.666466 g / cm^3
# Si number density = 16.702675 Si / 1000 Ang^3
#
#
#
# Elastic Constant Matrix: (Units=GPa)
#
#
# Indices 1 2 3 4 5 6 
#
# 1 57.1245 34.5989 32.6752 0.0000 0.0000 0.0000
# 2 34.5989 55.8232 36.4802 0.0000 0.0000 0.0000
# 3 32.6752 36.4802 106.9564 0.0000 0.0000 0.0000
# 4 0.0000 0.0000 0.0000 15.3297 0.0000 0.0000
# 5 0.0000 0.0000 0.0000 0.0000 18.8030 0.0000
# 6 0.0000 0.0000 0.0000 0.0000 0.0000 15.6399
#
#
#
# Elastic Compliance Matrix: (Units=1/GPa)
#
#
# Indices 1 2 3 4 5 6 
#
# 1 0.029018 -0.015689 -0.003514 0.000000 0.000000 0.000000
# 2 -0.015689 0.031534 -0.005963 0.000000 0.000000 0.000000
# 3 -0.003514 -0.005963 0.012457 0.000000 0.000000 0.000000
# 4 0.000000 0.000000 0.000000 0.065233 0.000000 0.000000
# 5 0.000000 0.000000 0.000000 0.000000 0.053183 0.000000
# 6 0.000000 0.000000 0.000000 0.000000 0.000000 0.063939
#
#
# Mechanical properties :
#
#
# Convention : Reuss Voigt Hill
#
# Bulk Modulus (GPa) = 44.09523 47.49029 45.79276
# Shear Modulus (GPa) = 15.96152 17.69785 16.82969
#
# Velocity S-wave (km/s) = 3.09467 3.25865 3.17772
# Velocity P-wave (km/s) = 6.26313 6.53092 6.39842
#
# Compressibility (1/GPa) = 0.02267819
#
# Stress axis : x y z
#
# Youngs Moduli (GPa) = 34.46148 31.71177 80.27760
#
# Poissons Ratio (x) = 0.49752 0.28209
# Poissons Ratio (y) = 0.54066 0.47866
# Poissons Ratio (z) = 0.12109 0.18908
#
# Static dielectric constant tensor:
#      x y z
#    x 3.171510 0.000000 0.000000 
#    y 0.000000 2.742880 0.000000 
#    z 0.000000 0.000000 3.413170 
# 
# 
# High freq. dielectric constant tensor:
#      x y z
#    x 1.645400 0.000000 0.000000 
#    y 0.000000 1.592750 0.000000 
#    z 0.000000 0.000000 1.655450 
# 
# From -- ./inp_files/24701.got.cif
#   From: 2010.03.12/outbox.cif.g09.slc.cpg/sg47_13_cif.got.tgz:24701.got - 2010.04.14 03:12:58.
