data_PCOD8195601
_publ_section_title
;
Structure prediction by ZEFSAII (Michael W. Deem and Ramdas Pophale) SiO2 
 PCOD8195601
Probable space group: P M M M
;
_chemical_formula_sum "Si O2"
_cell_formula_units_Z 28
_cell_length_a 19.576969
_cell_length_b 8.976256
_cell_length_c 7.882407
_cell_angle_alpha 90.000000
_cell_angle_beta 90.000000
_cell_angle_gamma 90.000000
_cell_volume 1385.158714
_symmetry_space_group_name_H-M "P M M M"
_symmetry_group_IT_number 47
_symmetry_cell_setting 'orthorhombic'
loop_
_space_group_symop_operation_xyz
x,y,z
-x,-y,z
x,-y,-z
-x,y,-z
-x,-y,-z
x,y,-z
-x,y,z
x,-y,z
loop_
_atom_site_type_symbol
_atom_site_label
_atom_site_fract_x
_atom_site_fract_y
_atom_site_fract_z
Si Si1 0.426492 0.823735 0.693595
Si Si2 0.919597 0.828257 0.000000
Si Si3 0.716883 0.170652 0.192567
Si Si4 0.154603 0.672818 0.691310
O O1 0.417583 0.774105 0.500000
O O2 0.500000 0.761393 0.763103
O O3 0.360422 0.763830 0.795050
O O4 0.428728 0.000000 0.710436
O O5 0.891882 0.756732 0.172777
O O6 0.000000 0.806378 0.000000
O O7 0.897462 0.000000 0.000000
O O8 0.767781 0.267931 0.305218
O O9 0.718660 0.000000 0.257673
O O10 0.742441 0.181302 0.000000
O O11 0.126173 0.698527 0.500000
O O12 0.154587 0.500000 0.739038
#
# Coordination Sequence:
#
# PCOD8195601 Si02
#       4
#     8   4   8   8
#     4   8  14  25  42  68 105 148 194 246 301 352
#     4  11  25  45  69  97 126 155 192 241 295 350
#     4  10  19  31  52  82 114 152 200 252 302 350
#     4  11  24  41  63  91 124 164 204 242 291 352
#
# _framework density 20.214290999999999
#
# number of rings (size 3 to 8) (size 9 to 14) (size 15 to 20)
#    0.000    2.143    1.429    3.000    0.000    5.714 
#    0.000    5.714    0.000    0.857    0.000    6.000 
#    0.000    0.000    0.000    0.000    0.000    0.000 
#
# Total GULP energy -347033.823570 kJ/mol
# GULP energy per Si atom -12394.065128 kJ/mol
# Density = 2.016828 g / cm^3
# Si number density = 20.214291 Si / 1000 Ang^3
#
#
#
# Elastic Constant Matrix: (Units=GPa)
#
#
# Indices 1 2 3 4 5 6 
#
# 1 112.6042 59.5144 52.3160 0.0000 0.0000 0.0000
# 2 59.5144 98.7120 55.9251 0.0000 0.0000 0.0000
# 3 52.3160 55.9251 104.6350 0.0000 0.0000 0.0000
# 4 0.0000 0.0000 0.0000 24.4210 0.0000 0.0000
# 5 0.0000 0.0000 0.0000 0.0000 28.9996 0.0000
# 6 0.0000 0.0000 0.0000 0.0000 0.0000 0.1138
#
#
#
# Elastic Compliance Matrix: (Units=1/GPa)
#
#
# Indices 1 2 3 4 5 6 
#
# 1 0.013893 -0.006369 -0.003542 0.000000 0.000000 0.000000
# 2 -0.006369 0.017451 -0.006142 0.000000 0.000000 0.000000
# 3 -0.003542 -0.006142 0.014611 0.000000 0.000000 0.000000
# 4 0.000000 0.000000 0.000000 0.040948 0.000000 0.000000
# 5 0.000000 0.000000 0.000000 0.000000 0.034483 0.000000
# 6 0.000000 0.000000 0.000000 0.000000 0.000000 8.788320
#
#
# Mechanical properties :
#
#
# Convention : Reuss Voigt Hill
#
# Bulk Modulus (GPa) = 72.21815 72.38470 72.30142
# Shear Modulus (GPa) = 0.55888 20.58659 10.57274
#
# Velocity S-wave (km/s) = 0.52638 3.19473 2.28947
# Velocity P-wave (km/s) = 6.01442 7.03525 6.54477
#
# Compressibility (1/GPa) = 0.01384694
#
# Stress axis : x y z
#
# Youngs Moduli (GPa) = 71.98097 57.30474 68.44238
#
# Poissons Ratio (x) = 0.36499 0.24241
# Poissons Ratio (y) = 0.45847 0.42040
# Poissons Ratio (z) = 0.25494 0.35199
#
# Static dielectric constant tensor:
#      x y z
#    x 3.312690 0.000000 0.000000 
#    y 0.000000 3.328500 0.000000 
#    z 0.000000 0.000000 3.628160 
# 
# 
# High freq. dielectric constant tensor:
#      x y z
#    x 1.804560 0.000000 0.000000 
#    y 0.000000 1.745600 0.000000 
#    z 0.000000 0.000000 1.789250 
# 
# From -- ./inp_files/833.got.cif
#   From: 2010.03.12/outbox.cif.g09.slc.cpg/sg47_1_cif.got.tgz:833.got - 2010.04.14 03:12:58.
