data_PCOD8195057
_publ_section_title
;
Structure prediction by ZEFSAII (Michael W. Deem and Ramdas Pophale) SiO2 
 PCOD8195057
Probable space group: P M M M
;
_chemical_formula_sum "Si O2"
_cell_formula_units_Z 46
_cell_length_a 8.716204
_cell_length_b 24.831981
_cell_length_c 12.011616
_cell_angle_alpha 90.000000
_cell_angle_beta 90.000000
_cell_angle_gamma 90.000000
_cell_volume 2599.801520
_symmetry_space_group_name_H-M "P M M M"
_symmetry_group_IT_number 47
_symmetry_cell_setting 'orthorhombic'
loop_
_space_group_symop_operation_xyz
x,y,z
-x,-y,z
x,-y,-z
-x,y,-z
-x,-y,-z
x,y,-z
-x,y,z
x,-y,z
loop_
_atom_site_type_symbol
_atom_site_label
_atom_site_fract_x
_atom_site_fract_y
_atom_site_fract_z
Si Si1 0.671975 0.392043 0.367757
Si Si2 0.335264 0.121344 0.500000
Si Si3 0.682605 0.000000 0.261032
Si Si4 0.172912 0.500000 0.367097
Si Si5 0.286056 0.000000 0.500000
Si Si6 0.821399 0.282185 0.629757
Si Si7 0.821595 0.902955 0.129771
Si Si8 0.318738 0.177497 0.283308
O O1 0.671445 0.395323 0.500000
O O2 0.500000 0.385569 0.321351
O O3 0.743748 0.446945 0.319177
O O4 0.773160 0.341379 0.328515
O O5 0.500000 0.151063 0.500000
O O6 0.370075 0.057652 0.500000
O O7 0.252356 0.142277 0.388048
O O8 0.719416 0.052302 0.189901
O O9 0.500000 0.000000 0.293121
O O10 0.788945 0.000000 0.375578
O O11 0.176593 0.500000 0.500000
O O12 0.000000 0.500000 0.322565
O O13 0.780967 0.274546 0.500000
O O14 0.724174 0.239624 0.700613
O O15 0.000000 0.273718 0.652670
O O16 0.769602 0.844751 0.175124
O O17 0.000000 0.913690 0.153276
O O18 0.784965 0.905287 0.000000
O O19 0.500000 0.170758 0.266222
#
# Coordination Sequence:
#
# PCOD8195057 Si02
#       8
#     8   4   4   4   2   8   8   8
#     4   9  16  25  38  57  84 122 167 211 250 294
#     4  10  19  32  52  77 106 130 156 200 254 301
#     4  12  23  38  62  85 106 133 167 203 247 305
#     4   9  15  23  35  53  81 119 164 211 254 297
#     4  12  21  36  57  86 113 132 155 202 259 300
#     4  10  19  30  45  68  98 131 165 205 253 305
#     4  11  25  43  58  75 103 135 167 208 257 303
#     4  11  21  35  56  78 100 130 168 210 253 304
#
# _framework density 17.693657999999999
#
# number of rings (size 3 to 8) (size 9 to 14) (size 15 to 20)
#    0.000    1.652    2.609    3.652    0.000    6.261 
#    0.000    1.739    0.000    0.000    0.000    0.000 
#    0.000    0.000    0.000    0.783    0.000   14.522 
#
# Total GULP energy -570072.732175 kJ/mol
# GULP energy per Si atom -12392.885482 kJ/mol
# Density = 1.765339 g / cm^3
# Si number density = 17.693658 Si / 1000 Ang^3
#
#
#
# Elastic Constant Matrix: (Units=GPa)
#
#
# Indices 1 2 3 4 5 6 
#
# 1 72.0639 31.1096 32.5727 0.0000 0.0000 0.0000
# 2 31.1096 130.9881 37.4526 0.0000 0.0000 0.0000
# 3 32.5727 37.4526 77.6915 0.0000 0.0000 0.0000
# 4 0.0000 0.0000 0.0000 5.1968 0.0000 0.0000
# 5 0.0000 0.0000 0.0000 0.0000 15.1737 0.0000
# 6 0.0000 0.0000 0.0000 0.0000 0.0000 25.6439
#
#
#
# Elastic Compliance Matrix: (Units=1/GPa)
#
#
# Indices 1 2 3 4 5 6 
#
# 1 0.017760 -0.002423 -0.006278 0.000000 0.000000 0.000000
# 2 -0.002423 0.009185 -0.003412 0.000000 0.000000 0.000000
# 3 -0.006278 -0.003412 0.017148 0.000000 0.000000 0.000000
# 4 0.000000 0.000000 0.000000 0.192427 0.000000 0.000000
# 5 0.000000 0.000000 0.000000 0.000000 0.065904 0.000000
# 6 0.000000 0.000000 0.000000 0.000000 0.000000 0.038996
#
#
# Mechanical properties :
#
#
# Convention : Reuss Voigt Hill
#
# Bulk Modulus (GPa) = 50.33303 53.66816 52.00059
# Shear Modulus (GPa) = 13.43116 21.17677 17.30396
#
# Velocity S-wave (km/s) = 2.75816 3.46331 3.13065
# Velocity P-wave (km/s) = 6.21707 6.81105 6.52083
#
# Compressibility (1/GPa) = 0.01986767
#
# Stress axis : x y z
#
# Youngs Moduli (GPa) = 56.30554 108.86903 58.31446
#
# Poissons Ratio (x) = 0.26379 0.36610
# Poissons Ratio (y) = 0.13643 0.19898
# Poissons Ratio (z) = 0.35349 0.37147
#
# Static dielectric constant tensor:
#      x y z
#    x 3.231650 0.000000 0.000000 
#    y 0.000000 3.417880 0.000000 
#    z 0.000000 0.000000 2.995510 
# 
# 
# High freq. dielectric constant tensor:
#      x y z
#    x 1.684180 0.000000 0.000000 
#    y 0.000000 1.695640 0.000000 
#    z 0.000000 0.000000 1.627730 
# 
# From -- ./inp_files/15349.got.cif
#   From: 2010.03.12/outbox.cif.g09.slc.cpg/sg47_8_cif.got.tgz:15349.got - 2010.04.14 03:12:58.
