data_PCOD8195932
_publ_section_title
;
Structure prediction by ZEFSAII (Michael W. Deem and Ramdas Pophale) SiO2 
 PCOD8195932
Probable space group: P M M M
;
_chemical_formula_sum "Si O2"
_cell_formula_units_Z 44
_cell_length_a 15.248707
_cell_length_b 8.502605
_cell_length_c 17.827420
_cell_angle_alpha 90.000000
_cell_angle_beta 90.000000
_cell_angle_gamma 90.000000
_cell_volume 2311.391542
_symmetry_space_group_name_H-M "P M M M"
_symmetry_group_IT_number 47
_symmetry_cell_setting 'orthorhombic'
loop_
_space_group_symop_operation_xyz
x,y,z
-x,-y,z
x,-y,-z
-x,y,-z
-x,-y,-z
x,y,-z
-x,y,z
x,-y,z
loop_
_atom_site_type_symbol
_atom_site_label
_atom_site_fract_x
_atom_site_fract_y
_atom_site_fract_z
Si Si1 0.228269 0.185049 0.711406
Si Si2 0.902160 0.813490 0.583645
Si Si3 0.821977 0.318422 0.866035
Si Si4 0.000000 0.826673 0.912850
Si Si5 0.650411 0.182410 0.916581
Si Si6 0.402078 0.682844 0.761637
O O1 0.176073 0.245714 0.637857
O O2 0.186947 0.283062 0.778516
O O3 0.332826 0.221737 0.709957
O O4 0.214500 0.000000 0.724002
O O5 0.883294 0.747674 0.500000
O O6 0.000000 0.757492 0.610121
O O7 0.901154 0.000000 0.581863
O O8 0.802073 0.500000 0.882097
O O9 0.918602 0.276887 0.889632
O O10 0.754468 0.213815 0.913932
O O11 0.000000 0.000000 0.873655
O O12 0.000000 0.853772 0.000000
O O13 0.603996 0.279596 0.850566
O O14 0.631956 0.000000 0.901487
O O15 0.615566 0.229480 0.000000
O O16 0.500000 0.726000 0.734004
O O17 0.382218 0.500000 0.751182
#
# Coordination Sequence:
#
# PCOD8195932 Si02
#       6
#     8   8   8   4   8   8
#     4  10  19  32  55  81 105 138 173 211 256 304
#     4   8  15  29  51  82 115 142 170 205 248 301
#     4  11  22  34  49  71 100 135 172 213 259 309
#     4  11  23  37  51  67  92 129 176 225 265 304
#     4  10  20  34  52  73  98 129 167 215 268 317
#     4  10  21  36  53  73 100 136 176 219 267 316
#
# _framework density 19.036152000000001
#
# number of rings (size 3 to 8) (size 9 to 14) (size 15 to 20)
#    0.000    2.091    0.000    6.818    1.273    6.182 
#    0.000    1.818    0.000    2.727    0.000    8.909 
#    0.000    0.000    0.000    0.000    0.000    0.000 
#
# Total GULP energy -545380.823741 kJ/mol
# GULP energy per Si atom -12395.018721 kJ/mol
# Density = 1.899283 g / cm^3
# Si number density = 19.036152 Si / 1000 Ang^3
#
#
#
# Elastic Constant Matrix: (Units=GPa)
#
#
# Indices 1 2 3 4 5 6 
#
# 1 120.5690 15.4135 46.1464 0.0000 0.0000 0.0000
# 2 15.4135 47.6850 13.8163 0.0000 0.0000 0.0000
# 3 46.1464 13.8163 84.8711 0.0000 0.0000 0.0000
# 4 0.0000 0.0000 0.0000 0.2607 0.0000 0.0000
# 5 0.0000 0.0000 0.0000 0.0000 28.7615 0.0000
# 6 0.0000 0.0000 0.0000 0.0000 0.0000 28.5445
#
#
#
# Elastic Compliance Matrix: (Units=1/GPa)
#
#
# Indices 1 2 3 4 5 6 
#
# 1 0.010627 -0.001848 -0.005477 0.000000 0.000000 0.000000
# 2 -0.001848 0.022330 -0.002630 0.000000 0.000000 0.000000
# 3 -0.005477 -0.002630 0.015189 0.000000 0.000000 0.000000
# 4 0.000000 0.000000 0.000000 3.835287 0.000000 0.000000
# 5 0.000000 0.000000 0.000000 0.000000 0.034769 0.000000
# 6 0.000000 0.000000 0.000000 0.000000 0.000000 0.035033
#
#
# Mechanical properties :
#
#
# Convention : Reuss Voigt Hill
#
# Bulk Modulus (GPa) = 35.41721 44.87527 40.14624
# Shear Modulus (GPa) = 1.25547 23.36327 12.30937
#
# Velocity S-wave (km/s) = 0.81299 3.50710 2.54565
# Velocity P-wave (km/s) = 4.41892 6.32650 5.45671
#
# Compressibility (1/GPa) = 0.02823486
#
# Stress axis : x y z
#
# Youngs Moduli (GPa) = 94.10413 44.78199 65.83804
#
# Poissons Ratio (x) = 0.08275 0.36060
# Poissons Ratio (y) = 0.17390 0.17318
# Poissons Ratio (z) = 0.51541 0.11780
#
# Static dielectric constant tensor:
#      x y z
#    x 3.679650 0.000000 0.000000 
#    y 0.000000 3.471390 0.000000 
#    z 0.000000 0.000000 3.504670 
# 
# 
# High freq. dielectric constant tensor:
#      x y z
#    x 1.745690 0.000000 0.000000 
#    y 0.000000 1.733270 0.000000 
#    z 0.000000 0.000000 1.714710 
# 
# From -- ./inp_files/27885.got.cif
#   From: 2010.03.12/outbox.cif.g09.slc.cpg/sg47_14_cif.got.tgz:27885.got - 2010.04.14 03:12:58.
