data_PCOD8195808
_publ_section_title
;
Structure prediction by ZEFSAII (Michael W. Deem and Ramdas Pophale) SiO2 
 PCOD8195808
Probable space group: P M M M
;
_chemical_formula_sum "Si O2"
_cell_formula_units_Z 48
_cell_length_a 15.087021
_cell_length_b 9.524090
_cell_length_c 18.903309
_cell_angle_alpha 90.000000
_cell_angle_beta 90.000000
_cell_angle_gamma 90.000000
_cell_volume 2716.219227
_symmetry_space_group_name_H-M "P M M M"
_symmetry_group_IT_number 47
_symmetry_cell_setting 'orthorhombic'
loop_
_space_group_symop_operation_xyz
x,y,z
-x,-y,z
x,-y,-z
-x,y,-z
-x,-y,-z
x,y,-z
-x,y,z
x,-y,z
loop_
_atom_site_type_symbol
_atom_site_label
_atom_site_fract_x
_atom_site_fract_y
_atom_site_fract_z
Si Si1 0.500000 0.666584 0.421843
Si Si2 0.337756 0.664138 0.671066
Si Si3 0.739157 0.162132 0.919430
Si Si4 0.097723 0.658377 0.915945
Si Si5 0.602081 0.836530 0.198794
Si Si6 0.000000 0.157784 0.583910
Si Si7 0.834924 0.661617 0.581586
O O1 0.500000 0.500000 0.427921
O O2 0.500000 0.733730 0.500000
O O3 0.585796 0.720118 0.380569
O O4 0.349101 0.500000 0.688116
O O5 0.343796 0.749372 0.743376
O O6 0.246616 0.696824 0.631937
O O7 0.823427 0.244427 0.886217
O O8 0.649949 0.193912 0.875784
O O9 0.765341 0.000000 0.915424
O O10 0.719698 0.209048 0.000000
O O11 0.115502 0.500000 0.889774
O O12 0.000000 0.708091 0.888798
O O13 0.098167 0.665420 0.000000
O O14 0.500000 0.786142 0.193216
O O15 0.606970 0.000000 0.218784
O O16 0.086400 0.240572 0.610114
O O17 0.000000 0.154765 0.500000
O O18 0.000000 0.000000 0.615158
O O19 0.809503 0.694338 0.500000
O O20 0.864493 0.500000 0.588678
#
# Coordination Sequence:
#
# PCOD8195808 Si02
#       7
#     4   8   8   8   8   4   8
#     4   9  16  28  49  77 104 127 160 206 247 287
#     4  10  19  32  52  76 100 131 168 205 248 298
#     4   9  18  32  51  75  99 127 168 211 246 287
#     4   8  14  26  46  73 103 130 154 188 242 299
#     4  10  21  36  52  70  98 135 168 204 254 304
#     4   9  17  29  47  73 103 135 168 203 248 297
#     4   9  17  30  50  76 103 131 166 208 249 289
#
# _framework density 17.671623
#
# number of rings (size 3 to 8) (size 9 to 14) (size 15 to 20)
#    0.000    2.833    0.833    1.250    0.000    5.000 
#    0.000    3.333    1.833    2.000    0.000    3.500 
#    0.000    0.000    0.000    0.000    0.000    0.000 
#
# Total GULP energy -595084.870010 kJ/mol
# GULP energy per Si atom -12397.601459 kJ/mol
# Density = 1.763140 g / cm^3
# Si number density = 17.671623 Si / 1000 Ang^3
#
#
#
# Elastic Constant Matrix: (Units=GPa)
#
#
# Indices 1 2 3 4 5 6 
#
# 1 147.9719 68.7736 54.8345 0.0000 0.0000 0.0000
# 2 68.7736 70.9440 40.1303 0.0000 0.0000 0.0000
# 3 54.8345 40.1303 77.7042 0.0000 0.0000 0.0000
# 4 0.0000 0.0000 0.0000 23.0185 0.0000 0.0000
# 5 0.0000 0.0000 0.0000 0.0000 308.0831 0.0000
# 6 0.0000 0.0000 0.0000 0.0000 0.0000 24.9874
#
#
#
# Elastic Compliance Matrix: (Units=1/GPa)
#
#
# Indices 1 2 3 4 5 6 
#
# 1 0.013040 -0.010504 -0.003777 0.000000 0.000000 0.000000
# 2 -0.010504 0.028375 -0.007241 0.000000 0.000000 0.000000
# 3 -0.003777 -0.007241 0.019275 0.000000 0.000000 0.000000
# 4 0.000000 0.000000 0.000000 0.043443 0.000000 0.000000
# 5 0.000000 0.000000 0.000000 0.000000 0.003246 0.000000
# 6 0.000000 0.000000 0.000000 0.000000 0.000000 0.040020
#
#
# Mechanical properties :
#
#
# Convention : Reuss Voigt Hill
#
# Bulk Modulus (GPa) = 56.67785 69.34411 63.01098
# Shear Modulus (GPa) = 25.46790 80.07658 52.77224
#
# Velocity S-wave (km/s) = 3.80040 6.73884 5.47061
# Velocity P-wave (km/s) = 7.16937 9.99374 8.69697
#
# Compressibility (1/GPa) = 0.01764358
#
# Stress axis : x y z
#
# Youngs Moduli (GPa) = 76.68770 35.24240 51.88200
#
# Poissons Ratio (x) = 0.37020 0.19596
# Poissons Ratio (y) = 0.80556 0.37570
# Poissons Ratio (z) = 0.28965 0.25520
#
# Static dielectric constant tensor:
#      x y z
#    x 3.492810 0.000000 0.000000 
#    y 0.000000 3.249930 0.000000 
#    z 0.000000 0.000000 3.069210 
# 
# 
# High freq. dielectric constant tensor:
#      x y z
#    x 1.694450 0.000000 0.000000 
#    y 0.000000 1.670220 0.000000 
#    z 0.000000 0.000000 1.655390 
# 
# From -- ./inp_files/28044.got.cif
#   From: 2010.03.12/outbox.cif.g09.slc.cpg/sg47_15_cif.got.tgz:28044.got - 2010.04.14 03:12:58.
