data_PCOD8195881
_publ_section_title
;
Structure prediction by ZEFSAII (Michael W. Deem and Ramdas Pophale) SiO2 
 PCOD8195881
Probable space group: P M M M
;
_chemical_formula_sum "Si O2"
_cell_formula_units_Z 48
_cell_length_a 32.730150
_cell_length_b 7.842703
_cell_length_c 9.068050
_cell_angle_alpha 90.000000
_cell_angle_beta 90.000000
_cell_angle_gamma 90.000000
_cell_volume 2327.703559
_symmetry_space_group_name_H-M "P M M M"
_symmetry_group_IT_number 47
_symmetry_cell_setting 'orthorhombic'
loop_
_space_group_symop_operation_xyz
x,y,z
-x,-y,z
x,-y,-z
-x,y,-z
-x,-y,-z
x,y,-z
-x,y,z
x,-y,z
loop_
_atom_site_type_symbol
_atom_site_label
_atom_site_fract_x
_atom_site_fract_y
_atom_site_fract_z
Si Si1 0.579731 0.202080 0.166404
Si Si2 0.180247 0.301121 0.671877
Si Si3 0.500000 0.203242 0.666532
Si Si4 0.738600 0.296835 0.166057
Si Si5 0.339547 0.699278 0.663702
Si Si6 0.045543 0.500000 0.825041
Si Si7 0.898893 0.809049 0.830117
O O1 0.539961 0.274043 0.250250
O O2 0.619455 0.267075 0.248289
O O3 0.579110 0.000000 0.166179
O O4 0.579660 0.273623 0.000000
O O5 0.184614 0.262764 0.500000
O O6 0.173381 0.500000 0.704445
O O7 0.221028 0.232619 0.750437
O O8 0.142159 0.198838 0.735814
O O9 0.500000 0.274107 0.500000
O O10 0.500000 0.000000 0.666849
O O11 0.737068 0.500000 0.165141
O O12 0.698930 0.220695 0.249185
O O13 0.738939 0.224680 0.000000
O O14 0.342381 0.781270 0.500000
O O15 0.332314 0.500000 0.648550
O O16 0.068660 0.329434 0.769707
O O17 0.000000 0.500000 0.756588
O O18 0.042713 0.500000 0.000000
O O19 0.917403 0.000000 0.813813
O O20 0.888091 0.768551 0.000000
#
# Coordination Sequence:
#
# PCOD8195881 Si02
#       7
#     8   8   4   8   8   4   8
#     4  10  20  34  53  76 101 131 169 214 264 319
#     4  10  19  32  53  79 107 142 183 226 273 326
#     4   9  17  31  52  75  98 127 166 212 264 323
#     4   9  17  30  51  77 105 140 180 220 264 317
#     4  10  20  34  52  76 107 141 177 217 263 318
#     4   9  18  34  57  85 117 151 189 237 289 340
#     4  10  20  34  55  83 114 149 189 234 285 339
#
# _framework density 20.621184
#
# number of rings (size 3 to 8) (size 9 to 14) (size 15 to 20)
#    0.000    2.333    0.833    2.250    0.000    6.333 
#    0.000    2.917    0.000    8.500    0.000    1.167 
#    0.000    0.000    0.000    0.000    0.000    0.000 
#
# Total GULP energy -595234.207642 kJ/mol
# GULP energy per Si atom -12400.712659 kJ/mol
# Density = 2.057425 g / cm^3
# Si number density = 20.621184 Si / 1000 Ang^3
#
#
#
# Elastic Constant Matrix: (Units=GPa)
#
#
# Indices 1 2 3 4 5 6 
#
# 1 181.5798 38.6225 74.0043 0.0000 0.0000 0.0000
# 2 38.6225 57.2613 27.4222 0.0000 0.0000 0.0000
# 3 74.0043 27.4222 152.7120 0.0000 0.0000 0.0000
# 4 0.0000 0.0000 0.0000 16.5508 0.0000 0.0000
# 5 0.0000 0.0000 0.0000 0.0000 14.4465 0.0000
# 6 0.0000 0.0000 0.0000 0.0000 0.0000 -16.4129
#
#
#
# Elastic Compliance Matrix: (Units=1/GPa)
#
#
# Indices 1 2 3 4 5 6 
#
# 1 0.007493 -0.003627 -0.002980 0.000000 0.000000 0.000000
# 2 -0.003627 0.020863 -0.001989 0.000000 0.000000 0.000000
# 3 -0.002980 -0.001989 0.008349 0.000000 0.000000 0.000000
# 4 0.000000 0.000000 0.000000 0.060420 0.000000 0.000000
# 5 0.000000 0.000000 0.000000 0.000000 0.069221 0.000000
# 6 0.000000 0.000000 0.000000 0.000000 0.000000 -0.060928
#
#
# Mechanical properties :
#
#
# Convention : Reuss Voigt Hill
#
# Bulk Modulus (GPa) = 51.24497 74.62786 62.93642
# Shear Modulus (GPa) = 38.72544 19.68382 29.20463
#
# Velocity S-wave (km/s) = 4.33823 3.09292 3.76738
# Velocity P-wave (km/s) = 7.07094 7.00167 7.03639
#
# Compressibility (1/GPa) = 0.01951411
#
# Stress axis : x y z
#
# Youngs Moduli (GPa) = 133.45460 47.93275 119.76883
#
# Poissons Ratio (x) = 0.17385 0.35690
# Poissons Ratio (y) = 0.48405 0.23817
# Poissons Ratio (z) = 0.39768 0.09532
#
# Static dielectric constant tensor:
#      x y z
#    x 3.933190 0.000000 0.000000 
#    y 0.000000 3.444000 0.000000 
#    z 0.000000 0.000000 3.854510 
# 
# 
# High freq. dielectric constant tensor:
#      x y z
#    x 1.810910 0.000000 0.000000 
#    y 0.000000 1.779890 0.000000 
#    z 0.000000 0.000000 1.807300 
# 
# From -- ./inp_files/13907.got.cif
#   From: 2010.03.12/outbox.cif.g09.slc.cpg/sg47_7_cif.got.tgz:13907.got - 2010.04.14 03:12:58.
