data_PCOD8195916
_publ_section_title
;
Structure prediction by ZEFSAII (Michael W. Deem and Ramdas Pophale) SiO2 
 PCOD8195916
Probable space group: P M M M
;
_chemical_formula_sum "Si O2"
_cell_formula_units_Z 64
_cell_length_a 16.066002
_cell_length_b 22.989180
_cell_length_c 9.672930
_cell_angle_alpha 90.000000
_cell_angle_beta 90.000000
_cell_angle_gamma 90.000000
_cell_volume 3572.640707
_symmetry_space_group_name_H-M "P M M M"
_symmetry_group_IT_number 47
_symmetry_cell_setting 'orthorhombic'
loop_
_space_group_symop_operation_xyz
x,y,z
-x,-y,z
x,-y,-z
-x,y,-z
-x,-y,-z
x,y,-z
-x,y,z
x,-y,z
loop_
_atom_site_type_symbol
_atom_site_label
_atom_site_fract_x
_atom_site_fract_y
_atom_site_fract_z
Si Si1 0.856102 0.567297 0.658330
Si Si2 0.788667 0.742781 0.657318
Si Si3 0.908401 0.934260 0.336018
Si Si4 0.093853 0.329071 0.156113
Si Si5 0.258795 0.127771 0.336565
Si Si6 0.404080 0.068114 0.839330
Si Si7 0.596446 0.562301 0.851177
Si Si8 0.313104 0.368690 0.649489
O O1 0.886813 0.577379 0.500000
O O2 0.869272 0.500000 0.701440
O O3 0.905150 0.609350 0.762746
O O4 0.760174 0.584722 0.670535
O O5 0.824727 0.743464 0.500000
O O6 0.859935 0.722785 0.762751
O O7 0.748883 0.804196 0.696883
O O8 0.714404 0.697129 0.670382
O O9 0.906776 0.932040 0.500000
O O10 0.828568 0.898972 0.279971
O O11 0.000000 0.910078 0.286219
O O12 0.898633 0.000000 0.282568
O O13 0.000000 0.307652 0.146204
O O14 0.130529 0.336737 0.000000
O O15 0.271427 0.115521 0.500000
O O16 0.338713 0.103019 0.255638
O O17 0.500000 0.084965 0.801568
O O18 0.390349 0.000000 0.811540
O O19 0.387090 0.082752 0.000000
O O20 0.500000 0.562161 0.875461
O O21 0.624176 0.500000 0.785338
O O22 0.616688 0.617573 0.758975
O O23 0.640862 0.569614 0.000000
O O24 0.353566 0.376803 0.500000
#
# Coordination Sequence:
#
# PCOD8195916 Si02
#       8
#     8   8   8   8   8   8   8   8
#     4   9  18  32  50  72  96 123 157 199 252 312
#     4   9  20  36  51  70  97 129 167 208 249 296
#     4   8  14  25  43  72 108 136 159 198 254 308
#     4  10  21  35  50  70  97 129 167 211 253 295
#     4  10  19  32  54  81 104 133 178 225 262 299
#     4   9  19  36  56  79 110 146 178 209 255 316
#     4   9  18  31  46  67  93 116 142 182 232 286
#     4   9  17  31  48  65  89 120 154 193 235 282
#
# _framework density 17.913920000000001
#
# number of rings (size 3 to 8) (size 9 to 14) (size 15 to 20)
#    0.000    2.875    0.000    3.000    0.000    6.500 
#    0.000    4.375    0.000    4.125    0.000    1.750 
#    0.000    0.000    0.000    0.000    0.000    0.000 
#
# Total GULP energy -792932.450424 kJ/mol
# GULP energy per Si atom -12389.569538 kJ/mol
# Density = 1.787315 g / cm^3
# Si number density = 17.913920 Si / 1000 Ang^3
#
#
#
# Elastic Constant Matrix: (Units=GPa)
#
#
# Indices 1 2 3 4 5 6 
#
# 1 94.7445 62.6718 55.2428 0.0000 0.0000 0.0000
# 2 62.6718 109.1246 61.4594 0.0000 0.0000 0.0000
# 3 55.2428 61.4594 96.4899 0.0000 0.0000 0.0000
# 4 0.0000 0.0000 0.0000 7.8535 0.0000 0.0000
# 5 0.0000 0.0000 0.0000 0.0000 29.5116 0.0000
# 6 0.0000 0.0000 0.0000 0.0000 0.0000 14.9147
#
#
#
# Elastic Compliance Matrix: (Units=1/GPa)
#
#
# Indices 1 2 3 4 5 6 
#
# 1 0.019113 -0.007507 -0.006161 0.000000 0.000000 0.000000
# 2 -0.007507 0.017239 -0.006682 0.000000 0.000000 0.000000
# 3 -0.006161 -0.006682 0.018147 0.000000 0.000000 0.000000
# 4 0.000000 0.000000 0.000000 0.127332 0.000000 0.000000
# 5 0.000000 0.000000 0.000000 0.000000 0.033885 0.000000
# 6 0.000000 0.000000 0.000000 0.000000 0.000000 0.067048
#
#
# Mechanical properties :
#
#
# Convention : Reuss Voigt Hill
#
# Bulk Modulus (GPa) = 72.47199 73.23412 72.85305
# Shear Modulus (GPa) = 15.24097 18.52163 16.88130
#
# Velocity S-wave (km/s) = 2.91999 3.21896 3.07311
# Velocity P-wave (km/s) = 7.20500 7.40172 7.30402
#
# Compressibility (1/GPa) = 0.01379844
#
# Stress axis : x y z
#
# Youngs Moduli (GPa) = 52.32161 58.00944 55.10417
#
# Poissons Ratio (x) = 0.43546 0.33950
# Poissons Ratio (y) = 0.39276 0.36823
# Poissons Ratio (z) = 0.32235 0.38764
#
# Static dielectric constant tensor:
#      x y z
#    x 3.251840 0.000000 0.000000 
#    y 0.000000 3.338790 0.000000 
#    z 0.000000 0.000000 3.321550 
# 
# 
# High freq. dielectric constant tensor:
#      x y z
#    x 1.684230 0.000000 0.000000 
#    y 0.000000 1.686630 0.000000 
#    z 0.000000 0.000000 1.681580 
# 
# From -- ./inp_files/10035.got.cif
#   From: 2010.03.12/outbox.cif.g09.slc.cpg/sg47_6_cif.got.tgz:10035.got - 2010.04.14 03:12:58.
