data_PCOD8195319
_publ_section_title
;
Structure prediction by ZEFSAII (Michael W. Deem and Ramdas Pophale) SiO2 
 PCOD8195319
Probable space group: P M M M
;
_chemical_formula_sum "Si O2"
_cell_formula_units_Z 64
_cell_length_a 30.955155
_cell_length_b 14.092865
_cell_length_c 9.030611
_cell_angle_alpha 90.000000
_cell_angle_beta 90.000000
_cell_angle_gamma 90.000000
_cell_volume 3939.575336
_symmetry_space_group_name_H-M "P M M M"
_symmetry_group_IT_number 47
_symmetry_cell_setting 'orthorhombic'
loop_
_space_group_symop_operation_xyz
x,y,z
-x,-y,z
x,-y,-z
-x,y,-z
-x,-y,-z
x,y,-z
-x,y,z
x,-y,z
loop_
_atom_site_type_symbol
_atom_site_label
_atom_site_fract_x
_atom_site_fract_y
_atom_site_fract_z
Si Si1 0.342280 0.392214 0.673018
Si Si2 0.213589 0.223828 0.326450
Si Si3 0.376864 0.218237 0.825271
Si Si4 0.700200 0.110201 0.328499
Si Si5 0.450239 0.890039 0.669306
Si Si6 0.047102 0.887308 0.832497
Si Si7 0.131149 0.107443 0.674770
Si Si8 0.251784 0.392182 0.171518
O O1 0.340319 0.368817 0.500000
O O2 0.357158 0.500000 0.703106
O O3 0.375932 0.322805 0.752734
O O4 0.295224 0.372296 0.738288
O O5 0.210803 0.246206 0.500000
O O6 0.254630 0.158892 0.288365
O O7 0.171181 0.169686 0.268576
O O8 0.215506 0.322493 0.236726
O O9 0.337357 0.154608 0.769622
O O10 0.422054 0.171509 0.780910
O O11 0.374213 0.228281 0.000000
O O12 0.688224 0.125613 0.500000
O O13 0.704548 0.000000 0.289509
O O14 0.437542 0.866715 0.500000
O O15 0.500000 0.864729 0.698280
O O16 0.441390 0.000000 0.702235
O O17 0.086440 0.846981 0.734519
O O18 0.000000 0.850275 0.775616
O O19 0.047108 0.000000 0.823037
O O20 0.054373 0.853061 0.000000
O O21 0.129052 0.107820 0.500000
O O22 0.137543 0.000000 0.733799
O O23 0.235815 0.500000 0.194168
O O24 0.260737 0.370158 0.000000
#
# Coordination Sequence:
#
# PCOD8195319 Si02
#       8
#     8   8   8   8   8   8   8   8
#     4  10  20  35  55  75  95 124 163 202 240 285
#     4  10  19  31  47  66  92 128 164 196 233 281
#     4  12  23  33  50  77 106 131 158 197 244 288
#     4  10  20  33  48  66  93 132 171 201 229 269
#     4   9  19  37  59  79 100 131 169 203 236 279
#     4   8  14  25  40  58  82 115 156 198 238 280
#     4   9  17  28  42  63  91 123 160 198 236 277
#     4  10  20  33  49  70  95 121 153 198 247 287
#
# _framework density 16.245405999999999
#
# number of rings (size 3 to 8) (size 9 to 14) (size 15 to 20)
#    0.000    2.250    1.250    3.375    0.000    6.000 
#    0.000    1.875    0.000    2.625    0.000    2.625 
#    0.000    0.500    0.000    5.500    0.000    4.250 
#
# Total GULP energy -793598.296664 kJ/mol
# GULP energy per Si atom -12399.973385 kJ/mol
# Density = 1.620843 g / cm^3
# Si number density = 16.245406 Si / 1000 Ang^3
#
#
#
# Elastic Constant Matrix: (Units=GPa)
#
#
# Indices 1 2 3 4 5 6 
#
# 1 110.7020 53.6253 49.2673 0.0000 0.0000 0.0000
# 2 53.6253 94.5267 48.5561 0.0000 0.0000 0.0000
# 3 49.2673 48.5561 80.1663 0.0000 0.0000 0.0000
# 4 0.0000 0.0000 0.0000 21.4240 0.0000 0.0000
# 5 0.0000 0.0000 0.0000 0.0000 15.0358 0.0000
# 6 0.0000 0.0000 0.0000 0.0000 0.0000 10.9601
#
#
#
# Elastic Compliance Matrix: (Units=1/GPa)
#
#
# Indices 1 2 3 4 5 6 
#
# 1 0.013940 -0.005092 -0.005483 0.000000 0.000000 0.000000
# 2 -0.005092 0.017217 -0.007299 0.000000 0.000000 0.000000
# 3 -0.005483 -0.007299 0.020265 0.000000 0.000000 0.000000
# 4 0.000000 0.000000 0.000000 0.046677 0.000000 0.000000
# 5 0.000000 0.000000 0.000000 0.000000 0.066508 0.000000
# 6 0.000000 0.000000 0.000000 0.000000 0.000000 0.091240
#
#
# Mechanical properties :
#
#
# Convention : Reuss Voigt Hill
#
# Bulk Modulus (GPa) = 63.79919 65.36579 64.58249
# Shear Modulus (GPa) = 16.84536 18.41374 17.62955
#
# Velocity S-wave (km/s) = 3.22363 3.37036 3.29781
# Velocity P-wave (km/s) = 7.29473 7.44779 7.37166
#
# Compressibility (1/GPa) = 0.01567418
#
# Stress axis : x y z
#
# Youngs Moduli (GPa) = 71.73666 58.08275 49.34715
#
# Poissons Ratio (x) = 0.29574 0.27057
# Poissons Ratio (y) = 0.36526 0.36018
# Poissons Ratio (z) = 0.39333 0.42394
#
# Static dielectric constant tensor:
#      x y z
#    x 3.170390 0.000000 0.000000 
#    y 0.000000 3.073980 0.000000 
#    z 0.000000 0.000000 3.053630 
# 
# 
# High freq. dielectric constant tensor:
#      x y z
#    x 1.614030 0.000000 0.000000 
#    y 0.000000 1.607410 0.000000 
#    z 0.000000 0.000000 1.626000 
# 
# From -- ./inp_files/14276.got.cif
#   From: 2010.03.12/outbox.cif.g09.slc.cpg/sg47_8_cif.got.tgz:14276.got - 2010.04.14 03:12:58.
