data_PCOD8195992
_publ_section_title
;
Structure prediction by ZEFSAII (Michael W. Deem and Ramdas Pophale) SiO2 
 PCOD8195992
Probable space group: P M M M
;
_chemical_formula_sum "Si O2"
_cell_formula_units_Z 44
_cell_length_a 8.043853
_cell_length_b 28.304337
_cell_length_c 10.115112
_cell_angle_alpha 90.000000
_cell_angle_beta 90.000000
_cell_angle_gamma 90.000000
_cell_volume 2302.967492
_symmetry_space_group_name_H-M "P M M M"
_symmetry_group_IT_number 47
_symmetry_cell_setting 'orthorhombic'
loop_
_space_group_symop_operation_xyz
x,y,z
-x,-y,z
x,-y,-z
-x,y,-z
-x,-y,-z
x,y,-z
-x,y,z
x,-y,z
loop_
_atom_site_type_symbol
_atom_site_label
_atom_site_fract_x
_atom_site_fract_y
_atom_site_fract_z
Si Si1 0.683865 0.610480 0.344654
Si Si2 0.300911 0.947229 0.000000
Si Si3 0.698857 0.054103 0.500000
Si Si4 0.000000 0.553837 0.342249
Si Si5 0.808541 0.204768 0.849595
Si Si6 0.306425 0.107428 0.247364
Si Si7 0.693616 0.719078 0.350497
O O1 0.674147 0.602168 0.500000
O O2 0.500000 0.597476 0.285220
O O3 0.727161 0.664724 0.314630
O O4 0.832430 0.578471 0.284530
O O5 0.225783 0.919811 0.124536
O O6 0.500000 0.946636 0.000000
O O7 0.231243 0.000000 0.000000
O O8 0.500000 0.053528 0.500000
O O9 0.772549 0.083758 0.622862
O O10 0.765040 0.000000 0.500000
O O11 0.000000 0.500000 0.293791
O O12 0.000000 0.557821 0.500000
O O13 0.721425 0.163205 0.767027
O O14 0.786298 0.251771 0.763031
O O15 0.000000 0.192420 0.861303
O O16 0.735045 0.210300 0.000000
O O17 0.500000 0.097269 0.251940
O O18 0.759851 0.730131 0.500000
O O19 0.500000 0.731161 0.344914
#
# Coordination Sequence:
#
# PCOD8195992 Si02
#       7
#     8   4   4   4   8   8   8
#     4   8  15  28  44  67 101 137 178 229 272 321
#     4   9  16  28  51  77  95 123 169 209 249 302
#     4   9  18  32  53  81 105 125 159 211 261 304
#     4   9  16  24  40  68 103 147 189 223 266 323
#     4  11  24  38  51  73 107 141 173 214 263 320
#     4  10  19  33  53  75 102 131 161 208 259 305
#     4   9  19  35  56  79 101 133 179 224 270 321
#
# _framework density 19.105784
#
# number of rings (size 3 to 8) (size 9 to 14) (size 15 to 20)
#    0.000    2.636    0.909    2.182    2.545    4.000 
#    0.000    1.818    0.000    3.273    0.000    0.000 
#    0.000    1.455    0.000    4.000    0.000    4.000 
#
# Total GULP energy -545308.928457 kJ/mol
# GULP energy per Si atom -12393.384738 kJ/mol
# Density = 1.906230 g / cm^3
# Si number density = 19.105784 Si / 1000 Ang^3
#
#
#
# Elastic Constant Matrix: (Units=GPa)
#
#
# Indices 1 2 3 4 5 6 
#
# 1 58.2684 42.2048 28.0866 0.0000 0.0000 0.0000
# 2 42.2048 126.9144 59.3300 0.0000 0.0000 0.0000
# 3 28.0866 59.3300 116.7573 0.0000 0.0000 0.0000
# 4 0.0000 0.0000 0.0000 17.2456 0.0000 0.0000
# 5 0.0000 0.0000 0.0000 0.0000 12.1173 0.0000
# 6 0.0000 0.0000 0.0000 0.0000 0.0000 -2.5784
#
#
#
# Elastic Compliance Matrix: (Units=1/GPa)
#
#
# Indices 1 2 3 4 5 6 
#
# 1 0.023015 -0.006644 -0.002161 0.000000 0.000000 0.000000
# 2 -0.006644 0.012252 -0.004628 0.000000 0.000000 0.000000
# 3 -0.002161 -0.004628 0.011436 0.000000 0.000000 0.000000
# 4 0.000000 0.000000 0.000000 0.057986 0.000000 0.000000
# 5 0.000000 0.000000 0.000000 0.000000 0.082527 0.000000
# 6 0.000000 0.000000 0.000000 0.000000 0.000000 -0.387845
#
#
# Mechanical properties :
#
#
# Convention : Reuss Voigt Hill
#
# Bulk Modulus (GPa) = 50.40376 62.35367 56.37871
# Shear Modulus (GPa) = -29.91297 16.84483 -6.53407
#
# Velocity S-wave (km/s) = -3.96112 2.97250 -1.85132
# Velocity P-wave (km/s) = 2.34905 6.66992 5.00030
#
# Compressibility (1/GPa) = 0.01983979
#
# Stress axis : x y z
#
# Youngs Moduli (GPa) = 43.44898 81.61936 87.44290
#
# Poissons Ratio (x) = 0.54225 0.18892
# Poissons Ratio (y) = 0.28866 0.40466
# Poissons Ratio (z) = 0.09387 0.37771
#
# Static dielectric constant tensor:
#      x y z
#    x 3.422540 0.000000 0.000000 
#    y 0.000000 3.476070 0.000000 
#    z 0.000000 0.000000 3.482340 
# 
# 
# High freq. dielectric constant tensor:
#      x y z
#    x 1.727470 0.000000 0.000000 
#    y 0.000000 1.742310 0.000000 
#    z 0.000000 0.000000 1.712170 
# 
# From -- ./inp_files/2395.got.cif
#   From: 2010.03.12/outbox.cif.g09.slc.cpg/sg47_2_cif.got.tgz:2395.got - 2010.04.14 03:12:58.
