data_PCOD8195575
_publ_section_title
;
Structure prediction by ZEFSAII (Michael W. Deem and Ramdas Pophale) SiO2 
 PCOD8195575
Probable space group: P M M M
;
_chemical_formula_sum "Si O2"
_cell_formula_units_Z 44
_cell_length_a 29.879711
_cell_length_b 8.068431
_cell_length_c 9.775478
_cell_angle_alpha 90.000000
_cell_angle_beta 90.000000
_cell_angle_gamma 90.000000
_cell_volume 2356.695565
_symmetry_space_group_name_H-M "P M M M"
_symmetry_group_IT_number 47
_symmetry_cell_setting 'orthorhombic'
loop_
_space_group_symop_operation_xyz
x,y,z
-x,-y,z
x,-y,-z
-x,y,-z
-x,-y,-z
x,y,-z
-x,y,z
x,-y,z
loop_
_atom_site_type_symbol
_atom_site_label
_atom_site_fract_x
_atom_site_fract_y
_atom_site_fract_z
Si Si1 0.549911 0.500000 0.838025
Si Si2 0.683651 0.688769 0.342178
Si Si3 0.222753 0.816253 0.337771
Si Si4 0.126939 0.806430 0.349968
Si Si5 0.392024 0.186825 0.158552
Si Si6 0.950012 0.304914 0.154027
O O1 0.500000 0.500000 0.774806
O O2 0.574002 0.329904 0.788788
O O3 0.547245 0.500000 0.000000
O O4 0.678658 0.746316 0.500000
O O5 0.668370 0.500000 0.323817
O O6 0.735190 0.704495 0.292551
O O7 0.652954 0.803321 0.247527
O O8 0.220027 0.825490 0.500000
O O9 0.174649 0.738038 0.289746
O O10 0.230344 0.000000 0.276157
O O11 0.116230 0.728624 0.500000
O O12 0.085886 0.777014 0.251019
O O13 0.134558 0.000000 0.367088
O O14 0.412216 0.000000 0.177220
O O15 0.379897 0.218261 0.000000
O O16 0.944530 0.500000 0.161065
O O17 0.000000 0.253096 0.201412
O O18 0.941736 0.241703 0.000000
#
# Coordination Sequence:
#
# PCOD8195575 Si02
#       6
#     4   8   8   8   8   8
#     4   9  18  34  55  79 109 141 175 221 268 311
#     4  10  19  31  51  78 105 136 175 214 254 305
#     4   8  15  29  47  68  97 131 164 200 244 295
#     4   9  18  32  50  73  99 124 155 200 249 295
#     4  10  20  34  54  79 107 140 176 217 266 313
#     4   9  19  35  51  67  91 124 161 200 243 295
#
# _framework density 18.670209
#
# number of rings (size 3 to 8) (size 9 to 14) (size 15 to 20)
#    0.000    2.818    0.909    2.182    0.000    3.636 
#    0.000    7.273    0.000    2.182    0.000    1.273 
#    0.000    0.000    0.000    0.000    0.000    0.000 
#
# Total GULP energy -545210.564099 kJ/mol
# GULP energy per Si atom -12391.149184 kJ/mol
# Density = 1.862772 g / cm^3
# Si number density = 18.670209 Si / 1000 Ang^3
#
#
#
# Elastic Constant Matrix: (Units=GPa)
#
#
# Indices 1 2 3 4 5 6 
#
# 1 146.7596 46.3739 49.4217 0.0000 0.0000 0.0000
# 2 46.3739 77.8607 24.7564 0.0000 0.0000 0.0000
# 3 49.4217 24.7564 50.8816 0.0000 0.0000 0.0000
# 4 0.0000 0.0000 0.0000 17.0733 0.0000 0.0000
# 5 0.0000 0.0000 0.0000 0.0000 29.7229 0.0000
# 6 0.0000 0.0000 0.0000 0.0000 0.0000 29.6343
#
#
#
# Elastic Compliance Matrix: (Units=1/GPa)
#
#
# Indices 1 2 3 4 5 6 
#
# 1 0.010967 -0.003721 -0.008842 0.000000 0.000000 0.000000
# 2 -0.003721 0.016456 -0.004393 0.000000 0.000000 0.000000
# 3 -0.008842 -0.004393 0.030379 0.000000 0.000000 0.000000
# 4 0.000000 0.000000 0.000000 0.058571 0.000000 0.000000
# 5 0.000000 0.000000 0.000000 0.000000 0.033644 0.000000
# 6 0.000000 0.000000 0.000000 0.000000 0.000000 0.033745
#
#
# Mechanical properties :
#
#
# Convention : Reuss Voigt Hill
#
# Bulk Modulus (GPa) = 41.85633 57.40066 49.62850
# Shear Modulus (GPa) = 22.15941 25.61610 23.88775
#
# Velocity S-wave (km/s) = 3.44886 3.70811 3.58083
# Velocity P-wave (km/s) = 6.19088 7.01033 6.61331
#
# Compressibility (1/GPa) = 0.02389125
#
# Stress axis : x y z
#
# Youngs Moduli (GPa) = 91.18119 60.76742 32.91711
#
# Poissons Ratio (x) = 0.22609 0.29106
# Poissons Ratio (y) = 0.33925 0.14460
# Poissons Ratio (z) = 0.80625 0.26694
#
# Static dielectric constant tensor:
#      x y z
#    x 4.041210 0.000000 0.000000 
#    y 0.000000 3.381860 0.000000 
#    z 0.000000 0.000000 3.747050 
# 
# 
# High freq. dielectric constant tensor:
#      x y z
#    x 1.731040 0.000000 0.000000 
#    y 0.000000 1.721050 0.000000 
#    z 0.000000 0.000000 1.685270 
# 
# From -- ./inp_files/13644.got.cif
#   From: 2010.03.12/outbox.cif.g09.slc.cpg/sg47_7_cif.got.tgz:13644.got - 2010.04.14 03:12:58.
