data_PCOD8195217
_publ_section_title
;
Structure prediction by ZEFSAII (Michael W. Deem and Ramdas Pophale) SiO2 
 PCOD8195217
Probable space group: P M M M
;
_chemical_formula_sum "Si O2"
_cell_formula_units_Z 44
_cell_length_a 31.384017
_cell_length_b 7.902506
_cell_length_c 9.148035
_cell_angle_alpha 90.000000
_cell_angle_beta 90.000000
_cell_angle_gamma 90.000000
_cell_volume 2268.825957
_symmetry_space_group_name_H-M "P M M M"
_symmetry_group_IT_number 47
_symmetry_cell_setting 'orthorhombic'
loop_
_space_group_symop_operation_xyz
x,y,z
-x,-y,z
x,-y,-z
-x,y,-z
-x,-y,-z
x,y,-z
-x,y,z
x,-y,z
loop_
_atom_site_type_symbol
_atom_site_label
_atom_site_fract_x
_atom_site_fract_y
_atom_site_fract_z
Si Si1 0.160111 0.302793 0.833177
Si Si2 0.000000 0.691750 0.157680
Si Si3 0.396882 0.000000 0.825704
Si Si4 0.079665 0.807180 0.338199
Si Si5 0.692109 0.000000 0.669719
Si Si6 0.547873 0.687869 0.826360
Si Si7 0.246397 0.693083 0.331089
O O1 0.149836 0.500000 0.822234
O O2 0.124426 0.204846 0.743869
O O3 0.205795 0.260016 0.765618
O O4 0.159867 0.239694 0.000000
O O5 0.042374 0.722467 0.248217
O O6 0.000000 0.500000 0.115075
O O7 0.000000 0.790925 0.000000
O O8 0.420843 0.832574 0.764616
O O9 0.349473 0.000000 0.767296
O O10 0.395815 0.000000 0.000000
O O11 0.083201 0.723920 0.500000
O O12 0.066847 0.000000 0.355113
O O13 0.717467 0.828586 0.710004
O O14 0.679589 0.000000 0.500000
O O15 0.500000 0.722698 0.768455
O O16 0.563040 0.500000 0.774854
O O17 0.547600 0.695467 0.000000
O O18 0.233191 0.711670 0.500000
O O19 0.262111 0.500000 0.298407
#
# Coordination Sequence:
#
# PCOD8195217 Si02
#       7
#     8   4   4   8   4   8   8
#     4  10  21  37  58  85 112 137 171 218 272 324
#     4  11  24  41  60  82 110 143 180 223 268 314
#     4  10  19  30  48  76 104 134 175 223 270 319
#     4  11  24  39  57  83 113 145 181 217 257 314
#     4  10  22  37  53  75 106 143 183 220 268 333
#     4   8  14  26  46  73 104 137 175 221 270 318
#     4   9  19  37  58  77 102 139 181 225 269 319
#
# _framework density 19.393291999999999
#
# number of rings (size 3 to 8) (size 9 to 14) (size 15 to 20)
#    0.000    2.273    0.000    3.000    1.273    9.091 
#    0.000    0.000    0.000    1.091    0.000    1.273 
#    0.000    0.000    0.000    0.000    0.000    0.000 
#
# Total GULP energy -545489.343684 kJ/mol
# GULP energy per Si atom -12397.485084 kJ/mol
# Density = 1.934915 g / cm^3
# Si number density = 19.393292 Si / 1000 Ang^3
#
#
#
# Elastic Constant Matrix: (Units=GPa)
#
#
# Indices 1 2 3 4 5 6 
#
# 1 130.6742 69.7711 58.9025 0.0000 0.0000 0.0000
# 2 69.7711 115.2173 38.6527 0.0000 0.0000 0.0000
# 3 58.9025 38.6527 102.8153 0.0000 0.0000 0.0000
# 4 0.0000 0.0000 0.0000 18.4458 0.0000 0.0000
# 5 0.0000 0.0000 0.0000 0.0000 41.4032 0.0000
# 6 0.0000 0.0000 0.0000 0.0000 0.0000 32.1787
#
#
#
# Elastic Compliance Matrix: (Units=1/GPa)
#
#
# Indices 1 2 3 4 5 6 
#
# 1 0.013441 -0.006358 -0.005310 0.000000 0.000000 0.000000
# 2 -0.006358 0.012939 -0.001222 0.000000 0.000000 0.000000
# 3 -0.005310 -0.001222 0.013228 0.000000 0.000000 0.000000
# 4 0.000000 0.000000 0.000000 0.054213 0.000000 0.000000
# 5 0.000000 0.000000 0.000000 0.000000 0.024153 0.000000
# 6 0.000000 0.000000 0.000000 0.000000 0.000000 0.031076
#
#
# Mechanical properties :
#
#
# Convention : Reuss Voigt Hill
#
# Bulk Modulus (GPa) = 72.31714 75.92881 74.12298
# Shear Modulus (GPa) = 27.86464 30.49758 29.18111
#
# Velocity S-wave (km/s) = 3.79465 3.96988 3.88326
# Velocity P-wave (km/s) = 7.52130 7.76211 7.64265
#
# Compressibility (1/GPa) = 0.01382798
#
# Stress axis : x y z
#
# Youngs Moduli (GPa) = 74.40031 77.28409 75.59907
#
# Poissons Ratio (x) = 0.49136 0.40143
# Poissons Ratio (y) = 0.47303 0.09239
# Poissons Ratio (z) = 0.39507 0.09444
#
# Static dielectric constant tensor:
#      x y z
#    x 3.500090 0.000000 0.000000 
#    y 0.000000 3.822620 0.000000 
#    z 0.000000 0.000000 3.562420 
# 
# 
# High freq. dielectric constant tensor:
#      x y z
#    x 1.748740 0.000000 0.000000 
#    y 0.000000 1.765460 0.000000 
#    z 0.000000 0.000000 1.740910 
# 
# From -- ./inp_files/13714.got.cif
#   From: 2010.03.12/outbox.cif.g09.slc.cpg/sg47_7_cif.got.tgz:13714.got - 2010.04.14 03:12:58.
