data_PCOD8195632
_publ_section_title
;
Structure prediction by ZEFSAII (Michael W. Deem and Ramdas Pophale) SiO2 
 PCOD8195632
Probable space group: P M M M
;
_chemical_formula_sum "Si O2"
_cell_formula_units_Z 52
_cell_length_a 25.888050
_cell_length_b 8.859996
_cell_length_c 16.693348
_cell_angle_alpha 90.000000
_cell_angle_beta 90.000000
_cell_angle_gamma 90.000000
_cell_volume 3828.920169
_symmetry_space_group_name_H-M "P M M M"
_symmetry_group_IT_number 47
_symmetry_cell_setting 'orthorhombic'
loop_
_space_group_symop_operation_xyz
x,y,z
-x,-y,z
x,-y,-z
-x,y,-z
-x,-y,-z
x,y,-z
-x,y,z
x,-y,z
loop_
_atom_site_type_symbol
_atom_site_label
_atom_site_fract_x
_atom_site_fract_y
_atom_site_fract_z
Si Si1 0.809672 0.324921 0.405954
Si Si2 0.938684 0.169821 0.000000
Si Si3 0.060529 0.676331 0.837636
Si Si4 0.500000 0.170018 0.404512
Si Si5 0.000000 0.671057 0.594755
Si Si6 0.904480 0.178450 0.678977
Si Si7 0.705069 0.169226 0.595065
Si Si8 0.602877 0.670121 0.404424
O O1 0.817822 0.296304 0.500000
O O2 0.817051 0.500000 0.384411
O O3 0.850066 0.224414 0.358074
O O4 0.753027 0.272297 0.377962
O O5 0.919132 0.257627 0.078401
O O6 0.000000 0.167602 0.000000
O O7 0.916424 0.000000 0.000000
O O8 0.072471 0.500000 0.836079
O O9 0.092395 0.758613 0.768607
O O10 0.000000 0.709511 0.824388
O O11 0.500000 0.172611 0.500000
O O12 0.449101 0.252782 0.371169
O O13 0.500000 0.000000 0.371913
O O14 0.050717 0.754081 0.624383
O O15 0.000000 0.500000 0.628578
O O16 0.000000 0.671203 0.500000
O O17 0.910065 0.000000 0.680578
O O18 0.701746 0.164703 0.500000
O O19 0.652466 0.240929 0.629782
O O20 0.711550 0.000000 0.629312
O O21 0.603102 0.672332 0.500000
O O22 0.604994 0.500000 0.371968
#
# Coordination Sequence:
#
# PCOD8195632 Si02
#       8
#     8   4   8   4   4   8   8   8
#     4  10  20  33  46  58  74  98 128 161 197 236
#     4   9  17  29  47  69  91 107 125 149 176 213
#     4  10  19  32  49  66  86 108 129 149 179 224
#     4   9  15  21  29  43  63  85 109 139 177 220
#     4  11  23  37  49  60  77 102 129 157 193 237
#     4  12  23  33  47  64  82 101 126 159 194 229
#     4   9  16  26  39  53  68  87 115 151 188 225
#     4   9  15  22  32  46  64  86 111 140 178 224
#
# _framework density 13.580852999999999
#
# number of rings (size 3 to 8) (size 9 to 14) (size 15 to 20)
#    0.000    2.077    0.769    4.385    0.000    9.538 
#    0.000    0.000    0.000    0.000    0.000    0.000 
#    0.000    0.000    0.000    0.000    0.000    0.000 
#
# Total GULP energy -644866.006547 kJ/mol
# GULP energy per Si atom -12401.269357 kJ/mol
# Density = 1.354994 g / cm^3
# Si number density = 13.580853 Si / 1000 Ang^3
#
#
#
# Elastic Constant Matrix: (Units=GPa)
#
#
# Indices 1 2 3 4 5 6 
#
# 1 89.4985 40.7417 26.3910 0.0000 0.0000 0.0000
# 2 40.7417 118.1959 33.9015 0.0000 0.0000 0.0000
# 3 26.3910 33.9015 49.1478 0.0000 0.0000 0.0000
# 4 0.0000 0.0000 0.0000 17.1159 0.0000 0.0000
# 5 0.0000 0.0000 0.0000 0.0000 0.3120 0.0000
# 6 0.0000 0.0000 0.0000 0.0000 0.0000 15.9704
#
#
#
# Elastic Compliance Matrix: (Units=1/GPa)
#
#
# Indices 1 2 3 4 5 6 
#
# 1 0.014292 -0.003397 -0.005331 0.000000 0.000000 0.000000
# 2 -0.003397 0.011355 -0.006008 0.000000 0.000000 0.000000
# 3 -0.005331 -0.006008 0.027354 0.000000 0.000000 0.000000
# 4 0.000000 0.000000 0.000000 0.058425 0.000000 0.000000
# 5 0.000000 0.000000 0.000000 0.000000 3.205524 0.000000
# 6 0.000000 0.000000 0.000000 0.000000 0.000000 0.062616
#
#
# Mechanical properties :
#
#
# Convention : Reuss Voigt Hill
#
# Bulk Modulus (GPa) = 42.50322 50.99006 46.74664
# Shear Modulus (GPa) = 1.46332 17.06686 9.26509
#
# Velocity S-wave (km/s) = 1.03915 3.54882 2.61476
# Velocity P-wave (km/s) = 5.72749 7.37694 6.60391
#
# Compressibility (1/GPa) = 0.02352763
#
# Stress axis : x y z
#
# Youngs Moduli (GPa) = 69.96987 88.06804 36.55820
#
# Poissons Ratio (x) = 0.29920 0.19489
# Poissons Ratio (y) = 0.23771 0.21965
# Poissons Ratio (z) = 0.37300 0.52913
#
# Static dielectric constant tensor:
#      x y z
#    x 2.747160 0.000000 0.000000 
#    y 0.000000 2.940510 0.000000 
#    z 0.000000 0.000000 2.372010 
# 
# 
# High freq. dielectric constant tensor:
#      x y z
#    x 1.507260 0.000000 0.000000 
#    y 0.000000 1.542950 0.000000 
#    z 0.000000 0.000000 1.458390 
# 
# From -- ./inp_files/25473.got.cif
#   From: 2010.03.12/outbox.cif.g09.slc.cpg/sg47_13_cif.got.tgz:25473.got - 2010.04.14 03:12:58.
