data_PCOD8195893
_publ_section_title
;
Structure prediction by ZEFSAII (Michael W. Deem and Ramdas Pophale) SiO2 
 PCOD8195893
Probable space group: P M M M
;
_chemical_formula_sum "Si O2"
_cell_formula_units_Z 56
_cell_length_a 9.119779
_cell_length_b 14.634717
_cell_length_c 20.621305
_cell_angle_alpha 90.000000
_cell_angle_beta 90.000000
_cell_angle_gamma 90.000000
_cell_volume 2752.230406
_symmetry_space_group_name_H-M "P M M M"
_symmetry_group_IT_number 47
_symmetry_cell_setting 'orthorhombic'
loop_
_space_group_symop_operation_xyz
x,y,z
-x,-y,z
x,-y,-z
-x,y,-z
-x,-y,-z
x,y,-z
-x,y,z
x,-y,z
loop_
_atom_site_type_symbol
_atom_site_label
_atom_site_fract_x
_atom_site_fract_y
_atom_site_fract_z
Si Si1 0.169083 0.642354 0.144984
Si Si2 0.169366 0.151843 0.173417
Si Si3 0.326313 0.104890 0.693202
Si Si4 0.340644 0.500000 0.926433
Si Si5 0.332163 0.775073 0.429402
Si Si6 0.173231 0.605624 0.394166
Si Si7 0.341085 0.602670 0.728982
Si Si8 0.825974 0.000000 0.925927
O O1 0.190303 0.750114 0.140784
O O2 0.247016 0.591728 0.085713
O O3 0.249596 0.602413 0.206523
O O4 0.000000 0.614213 0.147462
O O5 0.256976 0.146035 0.240953
O O6 0.229296 0.085850 0.116681
O O7 0.000000 0.130515 0.189648
O O8 0.500000 0.111006 0.700529
O O9 0.272535 0.159939 0.628912
O O10 0.275087 0.000000 0.685335
O O11 0.500000 0.500000 0.888746
O O12 0.381146 0.500000 0.000000
O O13 0.321145 0.825814 0.500000
O O14 0.500000 0.748665 0.414087
O O15 0.241500 0.680798 0.441645
O O16 0.216034 0.500000 0.411657
O O17 0.238594 0.644085 0.326464
O O18 0.000000 0.614248 0.392530
O O19 0.500000 0.654190 0.734264
O O20 0.373800 0.500000 0.708671
O O21 0.000000 0.000000 0.932024
O O22 0.760494 0.000000 0.000000
#
# Coordination Sequence:
#
# PCOD8195893 Si02
#       8
#     8   8   8   4   8   8   8   4
#     4  11  22  35  57  87 117 151 196 249 299 348
#     4  10  21  37  61  92 120 153 195 243 299 357
#     4  10  21  38  62  90 119 154 195 244 303 363
#     4  11  25  43  59  79 115 165 210 245 292 355
#     4  10  22  39  58  83 116 155 201 250 301 361
#     4  10  21  36  55  81 115 154 196 243 295 353
#     4  10  19  32  53  80 111 147 189 236 288 345
#     4   9  18  36  61  87 118 153 190 234 287 353
#
# _framework density 20.347135000000002
#
# number of rings (size 3 to 8) (size 9 to 14) (size 15 to 20)
#    0.000    1.857    1.429    2.357    0.000    7.429 
#    0.000    4.286    0.000    0.857    0.000    2.000 
#    0.000    0.000    0.000    0.000    0.000    0.000 
#
# Total GULP energy -693843.503390 kJ/mol
# GULP energy per Si atom -12390.062561 kJ/mol
# Density = 2.030082 g / cm^3
# Si number density = 20.347135 Si / 1000 Ang^3
#
#
#
# Elastic Constant Matrix: (Units=GPa)
#
#
# Indices 1 2 3 4 5 6 
#
# 1 92.8058 42.8563 37.8418 0.0000 0.0000 0.0000
# 2 42.8563 109.9548 41.9407 0.0000 0.0000 0.0000
# 3 37.8418 41.9407 130.2994 0.0000 0.0000 0.0000
# 4 0.0000 0.0000 0.0000 38.9554 0.0000 0.0000
# 5 0.0000 0.0000 0.0000 0.0000 13.1940 0.0000
# 6 0.0000 0.0000 0.0000 0.0000 0.0000 15.6640
#
#
#
# Elastic Compliance Matrix: (Units=1/GPa)
#
#
# Indices 1 2 3 4 5 6 
#
# 1 0.013877 -0.004413 -0.002610 0.000000 0.000000 0.000000
# 2 -0.004413 0.011771 -0.002507 0.000000 0.000000 0.000000
# 3 -0.002610 -0.002507 0.009240 0.000000 0.000000 0.000000
# 4 0.000000 0.000000 0.000000 0.025670 0.000000 0.000000
# 5 0.000000 0.000000 0.000000 0.000000 0.075792 0.000000
# 6 0.000000 0.000000 0.000000 0.000000 0.000000 0.063841
#
#
# Mechanical properties :
#
#
# Convention : Reuss Voigt Hill
#
# Bulk Modulus (GPa) = 63.18115 64.25975 63.72045
# Shear Modulus (GPa) = 22.26897 27.59076 24.92987
#
# Velocity S-wave (km/s) = 3.31184 3.68639 3.50412
# Velocity P-wave (km/s) = 6.76339 7.05475 6.91061
#
# Compressibility (1/GPa) = 0.01582751
#
# Stress axis : x y z
#
# Youngs Moduli (GPa) = 72.05987 84.95349 108.23056
#
# Poissons Ratio (x) = 0.37494 0.28245
# Poissons Ratio (y) = 0.31803 0.27135
# Poissons Ratio (z) = 0.18805 0.21299
#
# Static dielectric constant tensor:
#      x y z
#    x 3.725440 0.000000 0.000000 
#    y 0.000000 4.037360 0.000000 
#    z 0.000000 0.000000 3.745140 
# 
# 
# High freq. dielectric constant tensor:
#      x y z
#    x 1.788150 0.000000 0.000000 
#    y 0.000000 1.794200 0.000000 
#    z 0.000000 0.000000 1.795530 
# 
# From -- ./inp_files/11338.got.cif
#   From: 2010.03.12/outbox.cif.g09.slc.cpg/sg47_6_cif.got.tgz:11338.got - 2010.04.14 03:12:58.
