data_PCOD8195971
_publ_section_title
;
Structure prediction by ZEFSAII (Michael W. Deem and Ramdas Pophale) SiO2 
 PCOD8195971
Probable space group: P M M M
;
_chemical_formula_sum "Si O2"
_cell_formula_units_Z 48
_cell_length_a 15.337198
_cell_length_b 18.541237
_cell_length_c 9.294768
_cell_angle_alpha 90.000000
_cell_angle_beta 90.000000
_cell_angle_gamma 90.000000
_cell_volume 2643.158967
_symmetry_space_group_name_H-M "P M M M"
_symmetry_group_IT_number 47
_symmetry_cell_setting 'orthorhombic'
loop_
_space_group_symop_operation_xyz
x,y,z
-x,-y,z
x,-y,-z
-x,y,-z
-x,-y,-z
x,y,-z
-x,y,z
x,-y,z
loop_
_atom_site_type_symbol
_atom_site_label
_atom_site_fract_x
_atom_site_fract_y
_atom_site_fract_z
Si Si1 0.601142 0.174812 0.832263
Si Si2 0.262379 0.914377 0.664070
Si Si3 0.096541 0.085705 0.162302
Si Si4 0.500000 0.419611 0.171237
Si Si5 0.000000 0.417419 0.668191
Si Si6 0.187918 0.583800 0.329041
Si Si7 0.334666 0.333534 0.168364
O O1 0.500000 0.177062 0.784419
O O2 0.651553 0.114101 0.743298
O O3 0.647219 0.250408 0.798027
O O4 0.607954 0.155891 0.000000
O O5 0.262959 0.887764 0.500000
O O6 0.173362 0.883606 0.736391
O O7 0.265182 0.000000 0.674949
O O8 0.000000 0.112130 0.214181
O O9 0.098260 0.000000 0.165745
O O10 0.113898 0.113153 0.000000
O O11 0.500000 0.500000 0.234016
O O12 0.415433 0.379083 0.229358
O O13 0.500000 0.418526 0.000000
O O14 0.092450 0.387232 0.725719
O O15 0.000000 0.500000 0.709834
O O16 0.000000 0.406634 0.500000
O O17 0.197265 0.590358 0.500000
O O18 0.204093 0.500000 0.283575
O O19 0.251450 0.639283 0.253158
O O20 0.320458 0.347094 0.000000
#
# Coordination Sequence:
#
# PCOD8195971 Si02
#       7
#     8   8   8   4   4   8   8
#     4  10  21  38  57  74  97 134 179 221 261 313
#     4  10  21  35  53  80 110 137 169 213 262 312
#     4   8  14  27  50  79 108 137 168 203 247 299
#     4   9  16  28  49  75 102 131 162 200 251 305
#     4   7  12  26  47  69  97 135 172 203 242 295
#     4   9  17  30  50  76 104 135 172 211 251 300
#     4  10  19  33  52  75 101 132 171 213 257 306
#
# _framework density 18.160087999999998
#
# number of rings (size 3 to 8) (size 9 to 14) (size 15 to 20)
#    0.000    2.833    0.833    2.500    0.000    3.667 
#    0.000    4.167    1.833    3.000    0.000    0.000 
#    0.000    0.000    0.000    0.000    0.000    0.000 
#
# Total GULP energy -594828.997577 kJ/mol
# GULP energy per Si atom -12392.270783 kJ/mol
# Density = 1.811875 g / cm^3
# Si number density = 18.160088 Si / 1000 Ang^3
#
#
#
# Elastic Constant Matrix: (Units=GPa)
#
#
# Indices 1 2 3 4 5 6 
#
# 1 174.7708 38.4717 64.9139 0.0000 0.0000 0.0000
# 2 38.4717 36.3896 28.6875 0.0000 0.0000 0.0000
# 3 64.9139 28.6875 68.4350 0.0000 0.0000 0.0000
# 4 0.0000 0.0000 0.0000 21.1903 0.0000 0.0000
# 5 0.0000 0.0000 0.0000 0.0000 26.4867 0.0000
# 6 0.0000 0.0000 0.0000 0.0000 0.0000 -22.8753
#
#
#
# Elastic Compliance Matrix: (Units=1/GPa)
#
#
# Indices 1 2 3 4 5 6 
#
# 1 0.009260 -0.004280 -0.006989 0.000000 0.000000 0.000000
# 2 -0.004280 0.043022 -0.013975 0.000000 0.000000 0.000000
# 3 -0.006989 -0.013975 0.027101 0.000000 0.000000 0.000000
# 4 0.000000 0.000000 0.000000 0.047191 0.000000 0.000000
# 5 0.000000 0.000000 0.000000 0.000000 0.037755 0.000000
# 6 0.000000 0.000000 0.000000 0.000000 0.000000 -0.043715
#
#
# Mechanical properties :
#
#
# Convention : Reuss Voigt Hill
#
# Bulk Modulus (GPa) = 34.60918 60.41573 47.51246
# Shear Modulus (GPa) = 27.66505 14.79517 21.23011
#
# Velocity S-wave (km/s) = 3.90731 2.85741 3.42285
# Velocity P-wave (km/s) = 6.28134 6.65034 6.46847
#
# Compressibility (1/GPa) = 0.02889407
#
# Stress axis : x y z
#
# Youngs Moduli (GPa) = 107.99273 23.24383 36.89955
#
# Poissons Ratio (x) = 0.09947 0.25791
# Poissons Ratio (y) = 0.46216 0.51568
# Poissons Ratio (z) = 0.75481 0.32484
#
# Static dielectric constant tensor:
#      x y z
#    x 3.750640 0.000000 0.000000 
#    y 0.000000 3.056930 0.000000 
#    z 0.000000 0.000000 3.156690 
# 
# 
# High freq. dielectric constant tensor:
#      x y z
#    x 1.725330 0.000000 0.000000 
#    y 0.000000 1.672930 0.000000 
#    z 0.000000 0.000000 1.680080 
# 
# From -- ./inp_files/6390.got.cif
#   From: 2010.03.12/outbox.cif.g09.slc.cpg/sg47_4_cif.got.tgz:6390.got - 2010.04.14 03:12:58.
