data_PCOD8195585
_publ_section_title
;
Structure prediction by ZEFSAII (Michael W. Deem and Ramdas Pophale) SiO2 
 PCOD8195585
Probable space group: P M M M
;
_chemical_formula_sum "Si O2"
_cell_formula_units_Z 56
_cell_length_a 22.069878
_cell_length_b 9.963138
_cell_length_c 13.525174
_cell_angle_alpha 90.000000
_cell_angle_beta 90.000000
_cell_angle_gamma 90.000000
_cell_volume 2973.986133
_symmetry_space_group_name_H-M "P M M M"
_symmetry_group_IT_number 47
_symmetry_cell_setting 'orthorhombic'
loop_
_space_group_symop_operation_xyz
x,y,z
-x,-y,z
x,-y,-z
-x,y,-z
-x,-y,-z
x,y,-z
-x,y,z
x,-y,z
loop_
_atom_site_type_symbol
_atom_site_label
_atom_site_fract_x
_atom_site_fract_y
_atom_site_fract_z
Si Si1 0.931926 0.846770 0.200322
Si Si2 0.166065 0.647955 0.116575
Si Si3 0.571814 0.000000 0.616865
Si Si4 0.301538 0.658062 0.112148
Si Si5 0.570613 0.500000 0.390063
Si Si6 0.862485 0.848592 0.612006
Si Si7 0.635531 0.258005 0.700783
Si Si8 0.759219 0.650931 0.383913
O O1 0.884295 0.756369 0.142643
O O2 0.921245 0.837072 0.318375
O O3 0.000000 0.796709 0.177877
O O4 0.923501 0.000000 0.164113
O O5 0.147173 0.500000 0.156964
O O6 0.233628 0.686670 0.155325
O O7 0.172780 0.640119 0.000000
O O8 0.602776 0.877084 0.671406
O O9 0.500000 0.000000 0.635208
O O10 0.586115 0.000000 0.500000
O O11 0.314763 0.500000 0.116860
O O12 0.348915 0.736521 0.182183
O O13 0.309563 0.711363 0.000000
O O14 0.500000 0.500000 0.405328
O O15 0.601384 0.500000 0.500000
O O16 0.588639 0.627569 0.327044
O O17 0.881920 0.813434 0.500000
O O18 0.813953 0.743150 0.656553
O O19 0.835237 0.000000 0.617066
O O20 0.696572 0.277105 0.639046
O O21 0.766933 0.641921 0.500000
O O22 0.761668 0.500000 0.337660
#
# Coordination Sequence:
#
# PCOD8195585 Si02
#       8
#     8   8   4   8   4   8   8   8
#     4  10  21  35  51  74 107 145 185 228 273 323
#     4   9  19  37  60  83 109 140 176 222 278 335
#     4  11  26  44  59  81 119 161 195 230 276 330
#     4   9  18  36  62  92 119 144 183 237 291 340
#     4  11  22  36  57  85 115 147 191 236 270 324
#     4   9  19  34  51  73 104 143 185 227 272 327
#     4  12  21  36  60  84 112 154 192 232 282 333
#     4  10  19  31  51  81 111 137 176 232 290 341
#
# _framework density 18.829946
#
# number of rings (size 3 to 8) (size 9 to 14) (size 15 to 20)
#    0.000    2.000    1.429    3.429    1.000    4.000 
#    1.286    3.214    0.000    2.571    0.000    3.000 
#    0.000    0.000    0.000    0.000    0.000    0.000 
#
# Total GULP energy -694221.947922 kJ/mol
# GULP energy per Si atom -12396.820499 kJ/mol
# Density = 1.878709 g / cm^3
# Si number density = 18.829946 Si / 1000 Ang^3
#
#
#
# Elastic Constant Matrix: (Units=GPa)
#
#
# Indices 1 2 3 4 5 6 
#
# 1 104.8887 62.3628 43.8601 0.0000 0.0000 0.0000
# 2 62.3628 121.3712 41.9988 0.0000 0.0000 0.0000
# 3 43.8601 41.9988 67.4096 0.0000 0.0000 0.0000
# 4 0.0000 0.0000 0.0000 26.6486 0.0000 0.0000
# 5 0.0000 0.0000 0.0000 0.0000 26.5944 0.0000
# 6 0.0000 0.0000 0.0000 0.0000 0.0000 27.5681
#
#
#
# Elastic Compliance Matrix: (Units=1/GPa)
#
#
# Indices 1 2 3 4 5 6 
#
# 1 0.015759 -0.005799 -0.006640 0.000000 0.000000 0.000000
# 2 -0.005799 0.012638 -0.004101 0.000000 0.000000 0.000000
# 3 -0.006640 -0.004101 0.021710 0.000000 0.000000 0.000000
# 4 0.000000 0.000000 0.000000 0.037525 0.000000 0.000000
# 5 0.000000 0.000000 0.000000 0.000000 0.037602 0.000000
# 6 0.000000 0.000000 0.000000 0.000000 0.000000 0.036274
#
#
# Mechanical properties :
#
#
# Convention : Reuss Voigt Hill
#
# Bulk Modulus (GPa) = 58.73251 65.56809 62.15030
# Shear Modulus (GPa) = 24.96713 25.85873 25.41293
#
# Velocity S-wave (km/s) = 3.64528 3.70980 3.67768
# Velocity P-wave (km/s) = 6.99829 7.29705 7.14923
#
# Compressibility (1/GPa) = 0.01702635
#
# Stress axis : x y z
#
# Youngs Moduli (GPa) = 63.45734 79.12673 46.06190
#
# Poissons Ratio (x) = 0.45888 0.30586
# Poissons Ratio (y) = 0.36801 0.18888
# Poissons Ratio (z) = 0.42137 0.32447
#
# Static dielectric constant tensor:
#      x y z
#    x 3.357750 0.000000 0.000000 
#    y 0.000000 3.565490 0.000000 
#    z 0.000000 0.000000 3.561990 
# 
# 
# High freq. dielectric constant tensor:
#      x y z
#    x 1.719260 0.000000 0.000000 
#    y 0.000000 1.726320 0.000000 
#    z 0.000000 0.000000 1.740170 
# 
# From -- ./inp_files/25171.got.cif
#   From: 2010.03.12/outbox.cif.g09.slc.cpg/sg47_13_cif.got.tgz:25171.got - 2010.04.14 03:12:58.
