data_PCOD8195706
_publ_section_title
;
Structure prediction by ZEFSAII (Michael W. Deem and Ramdas Pophale) SiO2 
 PCOD8195706
Probable space group: P M M M
;
_chemical_formula_sum "Si O2"
_cell_formula_units_Z 44
_cell_length_a 12.171182
_cell_length_b 14.791269
_cell_length_c 13.412594
_cell_angle_alpha 90.000000
_cell_angle_beta 90.000000
_cell_angle_gamma 90.000000
_cell_volume 2414.632105
_symmetry_space_group_name_H-M "P M M M"
_symmetry_group_IT_number 47
_symmetry_cell_setting 'orthorhombic'
loop_
_space_group_symop_operation_xyz
x,y,z
-x,-y,z
x,-y,-z
-x,y,-z
-x,-y,-z
x,y,-z
-x,y,z
x,-y,z
loop_
_atom_site_type_symbol
_atom_site_label
_atom_site_fract_x
_atom_site_fract_y
_atom_site_fract_z
Si Si1 0.789995 0.278797 0.114934
Si Si2 0.381501 0.000000 0.382130
Si Si3 0.874361 0.896735 0.796752
Si Si4 0.371782 0.500000 0.610164
Si Si5 0.000000 0.395896 0.118111
Si Si6 0.630833 0.682911 0.286385
Si Si7 0.761599 0.834573 0.614725
O O1 0.813242 0.171366 0.127461
O O2 0.892070 0.340478 0.154155
O O3 0.680369 0.303734 0.176240
O O4 0.764788 0.299310 0.000000
O O5 0.320104 0.911489 0.346944
O O6 0.500000 0.000000 0.330134
O O7 0.392491 0.000000 0.500000
O O8 0.866270 0.850905 0.686099
O O9 0.000000 0.899860 0.828230
O O10 0.826884 0.000000 0.801622
O O11 0.500000 0.500000 0.591173
O O12 0.314853 0.500000 0.500000
O O13 0.337320 0.584233 0.676640
O O14 0.000000 0.500000 0.159591
O O15 0.000000 0.398384 0.000000
O O16 0.500000 0.701894 0.285612
O O17 0.694317 0.743683 0.367157
O O18 0.799099 0.842305 0.500000
#
# Coordination Sequence:
#
# PCOD8195706 Si02
#       7
#     8   4   8   4   4   8   8
#     4  10  21  37  57  81 108 139 181 227 271 321
#     4   9  16  26  43  67  94 125 165 211 253 297
#     4  10  20  34  53  78 107 138 175 222 274 326
#     4   9  18  34  55  80 111 144 179 216 257 310
#     4   9  18  34  57  81 103 134 176 222 271 314
#     4  10  21  35  54  81 110 143 181 221 268 321
#     4  10  19  32  50  75 105 140 179 216 261 316
#
# _framework density 18.222238000000001
#
# number of rings (size 3 to 8) (size 9 to 14) (size 15 to 20)
#    0.000    2.273    1.818    1.091    1.273    2.909 
#    0.000    1.818    0.000    1.636    0.000    3.182 
#    0.000    0.000    0.000    0.000    0.000    0.000 
#
# Total GULP energy -545272.261370 kJ/mol
# GULP energy per Si atom -12392.551395 kJ/mol
# Density = 1.818076 g / cm^3
# Si number density = 18.222238 Si / 1000 Ang^3
#
#
#
# Elastic Constant Matrix: (Units=GPa)
#
#
# Indices 1 2 3 4 5 6 
#
# 1 44.3376 22.1346 13.4231 0.0000 0.0000 0.0000
# 2 22.1346 137.4529 23.1358 0.0000 0.0000 0.0000
# 3 13.4231 23.1358 76.8370 0.0000 0.0000 0.0000
# 4 0.0000 0.0000 0.0000 24.1634 0.0000 0.0000
# 5 0.0000 0.0000 0.0000 0.0000 14.0898 0.0000
# 6 0.0000 0.0000 0.0000 0.0000 0.0000 28.0903
#
#
#
# Elastic Compliance Matrix: (Units=1/GPa)
#
#
# Indices 1 2 3 4 5 6 
#
# 1 0.025327 -0.003512 -0.003367 0.000000 0.000000 0.000000
# 2 -0.003512 0.008151 -0.001841 0.000000 0.000000 0.000000
# 3 -0.003367 -0.001841 0.014157 0.000000 0.000000 0.000000
# 4 0.000000 0.000000 0.000000 0.041385 0.000000 0.000000
# 5 0.000000 0.000000 0.000000 0.000000 0.070973 0.000000
# 6 0.000000 0.000000 0.000000 0.000000 0.000000 0.035600
#
#
# Mechanical properties :
#
#
# Convention : Reuss Voigt Hill
#
# Bulk Modulus (GPa) = 33.11768 41.77940 37.44854
# Shear Modulus (GPa) = 22.41185 26.59761 24.50473
#
# Velocity S-wave (km/s) = 3.51082 3.82465 3.67109
# Velocity P-wave (km/s) = 5.88628 6.51777 6.21006
#
# Compressibility (1/GPa) = 0.03019535
#
# Stress axis : x y z
#
# Youngs Moduli (GPa) = 39.48392 122.69114 70.63639
#
# Poissons Ratio (x) = 0.43086 0.23784
# Poissons Ratio (y) = 0.13866 0.13002
# Poissons Ratio (z) = 0.13295 0.22583
#
# Static dielectric constant tensor:
#      x y z
#    x 3.280350 0.000000 0.000000 
#    y 0.000000 3.854180 0.000000 
#    z 0.000000 0.000000 3.146830 
# 
# 
# High freq. dielectric constant tensor:
#      x y z
#    x 1.687710 0.000000 0.000000 
#    y 0.000000 1.723540 0.000000 
#    z 0.000000 0.000000 1.688980 
# 
# From -- ./inp_files/22659.got.cif
#   From: 2010.03.12/outbox.cif.g09.slc.cpg/sg47_12_cif.got.tgz:22659.got - 2010.04.14 03:12:58.
