data_PCOD8195994
_publ_section_title
;
Structure prediction by ZEFSAII (Michael W. Deem and Ramdas Pophale) SiO2 
 PCOD8195994
Probable space group: P M M M
;
_chemical_formula_sum "Si O2"
_cell_formula_units_Z 64
_cell_length_a 9.096917
_cell_length_b 14.942314
_cell_length_c 25.021947
_cell_angle_alpha 90.000000
_cell_angle_beta 90.000000
_cell_angle_gamma 90.000000
_cell_volume 3401.207990
_symmetry_space_group_name_H-M "P M M M"
_symmetry_group_IT_number 47
_symmetry_cell_setting 'orthorhombic'
loop_
_space_group_symop_operation_xyz
x,y,z
-x,-y,z
x,-y,-z
-x,y,-z
-x,-y,-z
x,y,-z
-x,y,z
x,-y,z
loop_
_atom_site_type_symbol
_atom_site_label
_atom_site_fract_x
_atom_site_fract_y
_atom_site_fract_z
Si Si1 0.832086 0.340967 0.337851
Si Si2 0.331284 0.602190 0.061949
Si Si3 0.327278 0.286442 0.559504
Si Si4 0.174471 0.713374 0.149135
Si Si5 0.825699 0.902059 0.186208
Si Si6 0.166862 0.861399 0.303389
Si Si7 0.329870 0.904385 0.405637
Si Si8 0.667890 0.600427 0.760798
O O1 0.761338 0.344223 0.397119
O O2 0.820872 0.243860 0.312115
O O3 0.740725 0.403748 0.297990
O O4 0.000000 0.374208 0.342334
O O5 0.500000 0.615160 0.079759
O O6 0.282671 0.500000 0.072894
O O7 0.229399 0.669688 0.094450
O O8 0.311700 0.625758 0.000000
O O9 0.290495 0.322092 0.500000
O O10 0.500000 0.295268 0.571568
O O11 0.274390 0.181993 0.561441
O O12 0.223730 0.818448 0.149036
O O13 0.243082 0.664681 0.200084
O O14 0.000000 0.703335 0.153401
O O15 0.764476 0.886081 0.245949
O O16 0.000000 0.901757 0.188900
O O17 0.769924 0.000000 0.164917
O O18 0.255623 0.912990 0.348211
O O19 0.000000 0.894386 0.307072
O O20 0.500000 0.891064 0.394769
O O21 0.299945 0.000000 0.435731
O O22 0.500000 0.634337 0.756239
O O23 0.672552 0.500000 0.784453
#
# Coordination Sequence:
#
# PCOD8195994 Si02
#       8
#     8   8   8   8   8   8   8   8
#     4  10  19  33  53  76 101 129 168 217 265 310
#     4   9  19  37  59  82 111 149 189 225 269 328
#     4   9  18  32  49  68  93 130 171 209 258 321
#     4  11  21  34  54  84 117 146 183 228 270 309
#     4   9  17  30  48  71 104 145 184 220 262 312
#     4   9  16  29  47  66  92 130 172 210 256 310
#     4   9  17  27  40  63  93 123 162 213 262 307
#     4  11  23  37  55  80 111 146 176 205 258 330
#
# _framework density 18.816845000000001
#
# number of rings (size 3 to 8) (size 9 to 14) (size 15 to 20)
#    0.000    2.375    1.250    2.250    0.000    4.750 
#    0.000    1.875    0.000    3.000    0.000    8.750 
#    0.000    0.000    0.000    0.000    0.000    0.000 
#
# Total GULP energy -793213.280662 kJ/mol
# GULP energy per Si atom -12393.957510 kJ/mol
# Density = 1.877402 g / cm^3
# Si number density = 18.816845 Si / 1000 Ang^3
#
#
#
# Elastic Constant Matrix: (Units=GPa)
#
#
# Indices 1 2 3 4 5 6 
#
# 1 72.2799 33.9709 40.4557 0.0000 0.0000 0.0000
# 2 33.9709 91.9837 43.5449 0.0000 0.0000 0.0000
# 3 40.4557 43.5449 93.6663 0.0000 0.0000 0.0000
# 4 0.0000 0.0000 0.0000 15.9243 0.0000 0.0000
# 5 0.0000 0.0000 0.0000 0.0000 30.7039 0.0000
# 6 0.0000 0.0000 0.0000 0.0000 0.0000 18.0732
#
#
#
# Elastic Compliance Matrix: (Units=1/GPa)
#
#
# Indices 1 2 3 4 5 6 
#
# 1 0.019379 -0.004096 -0.006466 0.000000 0.000000 0.000000
# 2 -0.004096 0.014805 -0.005114 0.000000 0.000000 0.000000
# 3 -0.006466 -0.005114 0.015846 0.000000 0.000000 0.000000
# 4 0.000000 0.000000 0.000000 0.062797 0.000000 0.000000
# 5 0.000000 0.000000 0.000000 0.000000 0.032569 0.000000
# 6 0.000000 0.000000 0.000000 0.000000 0.000000 0.055330
#
#
# Mechanical properties :
#
#
# Convention : Reuss Voigt Hill
#
# Bulk Modulus (GPa) = 53.53533 54.87476 54.20505
# Shear Modulus (GPa) = 20.98155 22.27085 21.62620
#
# Velocity S-wave (km/s) = 3.34284 3.44402 3.39381
# Velocity P-wave (km/s) = 6.58878 6.71125 6.65030
#
# Compressibility (1/GPa) = 0.01867925
#
# Stress axis : x y z
#
# Youngs Moduli (GPa) = 51.60149 67.54470 63.10663
#
# Poissons Ratio (x) = 0.27667 0.40804
# Poissons Ratio (y) = 0.21136 0.32270
# Poissons Ratio (z) = 0.33365 0.34540
#
# Static dielectric constant tensor:
#      x y z
#    x 3.354430 0.000000 0.000000 
#    y 0.000000 3.617580 0.000000 
#    z 0.000000 0.000000 3.311490 
# 
# 
# High freq. dielectric constant tensor:
#      x y z
#    x 1.716930 0.000000 0.000000 
#    y 0.000000 1.727420 0.000000 
#    z 0.000000 0.000000 1.712190 
# 
# From -- ./inp_files/32125.got.cif
#   From: 2010.03.12/outbox.cif.g09.slc.cpg/sg47_17_cif.got.tgz:32125.got - 2010.04.14 03:12:58.
