data_PCOD8195419
_publ_section_title
;
Structure prediction by ZEFSAII (Michael W. Deem and Ramdas Pophale) SiO2 
 PCOD8195419
Probable space group: P M M M
;
_chemical_formula_sum "Si O2"
_cell_formula_units_Z 64
_cell_length_a 30.866453
_cell_length_b 9.464792
_cell_length_c 14.248722
_cell_angle_alpha 90.000000
_cell_angle_beta 90.000000
_cell_angle_gamma 90.000000
_cell_volume 4162.686583
_symmetry_space_group_name_H-M "P M M M"
_symmetry_group_IT_number 47
_symmetry_cell_setting 'orthorhombic'
loop_
_space_group_symop_operation_xyz
x,y,z
-x,-y,z
x,-y,-z
-x,y,-z
-x,-y,-z
x,y,-z
-x,y,z
x,-y,z
loop_
_atom_site_type_symbol
_atom_site_label
_atom_site_fract_x
_atom_site_fract_y
_atom_site_fract_z
Si Si1 0.950851 0.334206 0.204232
Si Si2 0.182672 0.663678 0.606025
Si Si3 0.206866 0.834160 0.223411
Si Si4 0.877222 0.836645 0.891605
Si Si5 0.708639 0.162988 0.109086
Si Si6 0.084027 0.667333 0.398726
Si Si7 0.626977 0.340717 0.111880
Si Si8 0.548031 0.841436 0.888386
O O1 0.940140 0.500000 0.198127
O O2 0.919534 0.253079 0.133753
O O3 0.944407 0.278179 0.311321
O O4 0.000000 0.302705 0.173807
O O5 0.199373 0.689285 0.500000
O O6 0.186729 0.500000 0.633416
O O7 0.211244 0.755056 0.677368
O O8 0.133312 0.716625 0.615923
O O9 0.163807 0.784178 0.168559
O O10 0.248193 0.790471 0.162462
O O11 0.205672 0.000000 0.242121
O O12 0.887473 0.000000 0.871214
O O13 0.865741 0.812002 0.000000
O O14 0.669127 0.256970 0.147676
O O15 0.696778 0.000000 0.127351
O O16 0.717277 0.191144 0.000000
O O17 0.066841 0.726347 0.500000
O O18 0.082441 0.500000 0.403442
O O19 0.628501 0.500000 0.150967
O O20 0.583955 0.265057 0.152912
O O21 0.625732 0.339291 0.000000
O O22 0.500000 0.792890 0.855327
O O23 0.557695 0.000000 0.851947
O O24 0.550180 0.840906 0.000000
#
# Coordination Sequence:
#
# PCOD8195419 Si02
#       8
#     8   8   8   8   8   8   8   8
#     4  10  20  33  50  71  91 111 139 173 205 241
#     4   9  17  30  49  70  91 114 136 161 200 251
#     4  10  19  31  49  70  87 107 140 179 212 246
#     4  10  21  36  51  66  86 113 143 174 210 251
#     4   9  17  29  43  58  80 111 144 178 217 258
#     4   8  14  27  47  69  91 112 133 159 196 243
#     4   9  16  24  34  51  76 104 137 179 223 262
#     4   8  13  21  33  48  67  97 139 182 222 263
#
# _framework density 15.374687
#
# number of rings (size 3 to 8) (size 9 to 14) (size 15 to 20)
#    0.000    2.875    1.250    1.875    0.000    5.000 
#    0.000    3.750    0.000    2.625    0.000    0.875 
#    0.000    0.000    0.000    0.000    0.000    0.625 
#
# Total GULP energy -793363.510086 kJ/mol
# GULP energy per Si atom -12396.304845 kJ/mol
# Density = 1.533969 g / cm^3
# Si number density = 15.374687 Si / 1000 Ang^3
#
#
#
# Elastic Constant Matrix: (Units=GPa)
#
#
# Indices 1 2 3 4 5 6 
#
# 1 111.5773 57.3928 35.1067 0.0000 0.0000 0.0000
# 2 57.3928 65.3597 30.8968 0.0000 0.0000 0.0000
# 3 35.1067 30.8968 58.3961 0.0000 0.0000 0.0000
# 4 0.0000 0.0000 0.0000 20.1686 0.0000 0.0000
# 5 0.0000 0.0000 0.0000 0.0000 4.4077 0.0000
# 6 0.0000 0.0000 0.0000 0.0000 0.0000 22.1873
#
#
#
# Elastic Compliance Matrix: (Units=1/GPa)
#
#
# Indices 1 2 3 4 5 6 
#
# 1 0.016743 -0.013260 -0.003050 0.000000 0.000000 0.000000
# 2 -0.013260 0.030905 -0.008380 0.000000 0.000000 0.000000
# 3 -0.003050 -0.008380 0.023391 0.000000 0.000000 0.000000
# 4 0.000000 0.000000 0.000000 0.049582 0.000000 0.000000
# 5 0.000000 0.000000 0.000000 0.000000 0.226877 0.000000
# 6 0.000000 0.000000 0.000000 0.000000 0.000000 0.045071
#
#
# Mechanical properties :
#
#
# Convention : Reuss Voigt Hill
#
# Bulk Modulus (GPa) = 46.16784 53.56954 49.86869
# Shear Modulus (GPa) = 11.13167 16.81516 13.97342
#
# Velocity S-wave (km/s) = 2.69369 3.31069 3.01800
# Velocity P-wave (km/s) = 6.30621 7.03794 6.68210
#
# Compressibility (1/GPa) = 0.02166010
#
# Stress axis : x y z
#
# Youngs Moduli (GPa) = 59.72754 32.35701 42.75074
#
# Poissons Ratio (x) = 0.42906 0.13037
# Poissons Ratio (y) = 0.79201 0.35824
# Poissons Ratio (z) = 0.18214 0.27114
#
# Static dielectric constant tensor:
#      x y z
#    x 2.985530 0.000000 0.000000 
#    y 0.000000 2.880020 0.000000 
#    z 0.000000 0.000000 2.842360 
# 
# 
# High freq. dielectric constant tensor:
#      x y z
#    x 1.581900 0.000000 0.000000 
#    y 0.000000 1.579520 0.000000 
#    z 0.000000 0.000000 1.553090 
# 
# From -- ./inp_files/14251.got.cif
#   From: 2010.03.12/outbox.cif.g09.slc.cpg/sg47_8_cif.got.tgz:14251.got - 2010.04.14 03:12:58.
