data_PCOD8195137
_publ_section_title
;
Structure prediction by ZEFSAII (Michael W. Deem and Ramdas Pophale) SiO2 
 PCOD8195137
Probable space group: P M M M
;
_chemical_formula_sum "Si O2"
_cell_formula_units_Z 64
_cell_length_a 9.625567
_cell_length_b 13.961830
_cell_length_c 28.611186
_cell_angle_alpha 90.000000
_cell_angle_beta 90.000000
_cell_angle_gamma 90.000000
_cell_volume 3845.072454
_symmetry_space_group_name_H-M "P M M M"
_symmetry_group_IT_number 47
_symmetry_cell_setting 'orthorhombic'
loop_
_space_group_symop_operation_xyz
x,y,z
-x,-y,z
x,-y,-z
-x,y,-z
-x,-y,-z
x,y,-z
-x,y,z
x,-y,z
loop_
_atom_site_type_symbol
_atom_site_label
_atom_site_fract_x
_atom_site_fract_y
_atom_site_fract_z
Si Si1 0.664558 0.774577 0.616766
Si Si2 0.837164 0.711581 0.858037
Si Si3 0.657144 0.392131 0.785086
Si Si4 0.152913 0.887583 0.551452
Si Si5 0.335009 0.393977 0.447867
Si Si6 0.838106 0.109612 0.201777
Si Si7 0.660408 0.784977 0.276843
Si Si8 0.835341 0.392553 0.051517
O O1 0.500000 0.782598 0.613093
O O2 0.732201 0.862103 0.589518
O O3 0.721273 0.677981 0.591823
O O4 0.713934 0.781583 0.670174
O O5 0.761518 0.634167 0.826134
O O6 0.799608 0.820495 0.842075
O O7 0.786765 0.688082 0.910978
O O8 0.000000 0.693054 0.852627
O O9 0.500000 0.381164 0.804080
O O10 0.686710 0.500000 0.767988
O O11 0.681658 0.322748 0.741339
O O12 0.196546 0.848952 0.500000
O O13 0.000000 0.846405 0.564782
O O14 0.144089 0.000000 0.549876
O O15 0.284688 0.363360 0.500000
O O16 0.500000 0.394614 0.446921
O O17 0.278162 0.500000 0.435975
O O18 0.750729 0.139512 0.247293
O O19 0.000000 0.120023 0.214513
O O20 0.802052 0.000000 0.187771
O O21 0.500000 0.817447 0.273324
O O22 0.782573 0.500000 0.065017
O O23 0.000000 0.394330 0.049723
O O24 0.777332 0.364223 0.000000
#
# Coordination Sequence:
#
# PCOD8195137 Si02
#       8
#     8   8   8   8   8   8   8   8
#     4  10  19  30  47  70  92 113 140 177 216 251
#     4   9  16  27  45  66  86 112 150 190 220 253
#     4   9  17  29  44  62  88 120 148 177 216 259
#     4   9  19  35  51  66  86 113 142 170 207 259
#     4   8  14  25  42  65  90 113 138 168 202 243
#     4   9  18  32  48  64  83 111 148 188 226 261
#     4   9  19  32  44  64  91 115 142 176 216 262
#     4   8  13  21  36  62  93 119 143 175 217 263
#
# _framework density 16.644680000000001
#
# number of rings (size 3 to 8) (size 9 to 14) (size 15 to 20)
#    0.000    3.125    0.000    1.875    0.000    3.500 
#    0.000    5.625    0.000    1.125    0.000    7.875 
#    0.000    0.000    0.000    6.250    0.000    6.750 
#
# Total GULP energy -793091.730224 kJ/mol
# GULP energy per Si atom -12392.058285 kJ/mol
# Density = 1.660680 g / cm^3
# Si number density = 16.644680 Si / 1000 Ang^3
#
#
#
# Elastic Constant Matrix: (Units=GPa)
#
#
# Indices 1 2 3 4 5 6 
#
# 1 29.4913 29.2816 35.7483 0.0000 0.0000 0.0000
# 2 29.2816 100.0773 62.5159 0.0000 0.0000 0.0000
# 3 35.7483 62.5159 141.7912 0.0000 0.0000 0.0000
# 4 0.0000 0.0000 0.0000 13.8676 0.0000 0.0000
# 5 0.0000 0.0000 0.0000 0.0000 14.9781 0.0000
# 6 0.0000 0.0000 0.0000 0.0000 0.0000 16.8581
#
#
#
# Elastic Compliance Matrix: (Units=1/GPa)
#
#
# Indices 1 2 3 4 5 6 
#
# 1 0.055687 -0.010383 -0.009462 0.000000 0.000000 0.000000
# 2 -0.010383 0.015726 -0.004316 0.000000 0.000000 0.000000
# 3 -0.009462 -0.004316 0.011341 0.000000 0.000000 0.000000
# 4 0.000000 0.000000 0.000000 0.072111 0.000000 0.000000
# 5 0.000000 0.000000 0.000000 0.000000 0.066764 0.000000
# 6 0.000000 0.000000 0.000000 0.000000 0.000000 0.059319
#
#
# Mechanical properties :
#
#
# Convention : Reuss Voigt Hill
#
# Bulk Modulus (GPa) = 29.04219 58.49460 43.76840
# Shear Modulus (GPa) = 14.67367 18.72835 16.70101
#
# Velocity S-wave (km/s) = 2.97237 3.35802 3.17106
# Velocity P-wave (km/s) = 5.40982 7.08904 6.30558
#
# Compressibility (1/GPa) = 0.03443266
#
# Stress axis : x y z
#
# Youngs Moduli (GPa) = 17.95764 63.58779 88.17475
#
# Poissons Ratio (x) = 0.66021 0.83430
# Poissons Ratio (y) = 0.18645 0.38057
# Poissons Ratio (z) = 0.16991 0.27445
#
# Static dielectric constant tensor:
#      x y z
#    x 2.946580 0.000000 0.000000 
#    y 0.000000 3.202220 0.000000 
#    z 0.000000 0.000000 3.322760 
# 
# 
# High freq. dielectric constant tensor:
#      x y z
#    x 1.615490 0.000000 0.000000 
#    y 0.000000 1.637750 0.000000 
#    z 0.000000 0.000000 1.635010 
# 
# From -- ./inp_files/34405.got.cif
#   From: 2010.03.12/outbox.cif.g09.slc.cpg/sg47_18_cif.got.tgz:34405.got - 2010.04.14 03:12:58.
