data_PCOD8195770
_publ_section_title
;
Structure prediction by ZEFSAII (Michael W. Deem and Ramdas Pophale) SiO2 
 PCOD8195770
Probable space group: P M M M
;
_chemical_formula_sum "Si O2"
_cell_formula_units_Z 64
_cell_length_a 13.594342
_cell_length_b 13.598679
_cell_length_c 19.958166
_cell_angle_alpha 90.000000
_cell_angle_beta 90.000000
_cell_angle_gamma 90.000000
_cell_volume 3689.568215
_symmetry_space_group_name_H-M "P M M M"
_symmetry_group_IT_number 47
_symmetry_cell_setting 'orthorhombic'
loop_
_space_group_symop_operation_xyz
x,y,z
-x,-y,z
x,-y,-z
-x,y,-z
-x,-y,-z
x,y,-z
-x,y,z
x,-y,z
loop_
_atom_site_type_symbol
_atom_site_label
_atom_site_fract_x
_atom_site_fract_y
_atom_site_fract_z
Si Si1 0.270539 0.114642 0.573719
Si Si2 0.611166 0.815484 0.310518
Si Si3 0.696150 0.112874 0.826113
Si Si4 0.389148 0.606072 0.728302
Si Si5 0.890687 0.888067 0.675403
Si Si6 0.888501 0.212823 0.814261
Si Si7 0.241856 0.388898 0.850409
Si Si8 0.610885 0.264441 0.075569
O O1 0.275587 0.165227 0.500000
O O2 0.367298 0.137577 0.617268
O O3 0.177408 0.153530 0.616003
O O4 0.260429 0.000000 0.562903
O O5 0.500000 0.841305 0.290314
O O6 0.681079 0.859327 0.252345
O O7 0.628105 0.698188 0.320617
O O8 0.809204 0.137886 0.847055
O O9 0.623061 0.174740 0.872535
O O10 0.673118 0.000000 0.838814
O O11 0.500000 0.610956 0.757337
O O12 0.372103 0.500000 0.691705
O O13 0.315776 0.616915 0.789105
O O14 0.886530 0.809442 0.735255
O O15 0.000000 0.892057 0.645725
O O16 0.859666 0.000000 0.698763
O O17 0.854114 0.323871 0.832103
O O18 0.000000 0.196761 0.842081
O O19 0.206737 0.500000 0.865827
O O20 0.305351 0.347207 0.912544
O O21 0.500000 0.306866 0.084974
O O22 0.624940 0.225197 0.000000
#
# Coordination Sequence:
#
# PCOD8195770 Si02
#       8
#     8   8   8   8   8   8   8   8
#     4  10  20  32  45  66 100 138 173 210 254 307
#     4  11  20  32  50  72  99 133 172 213 257 305
#     4  11  21  34  53  76 102 136 177 215 257 308
#     4   9  16  28  50  76  98 123 161 207 253 301
#     4   9  16  28  48  72  98 130 169 212 260 311
#     4  10  19  32  52  77 103 130 167 217 265 306
#     4  10  19  32  51  75 105 137 168 206 253 306
#     4  10  21  36  53  78 111 141 171 209 254 305
#
# _framework density 17.346202999999999
#
# number of rings (size 3 to 8) (size 9 to 14) (size 15 to 20)
#    0.000    2.000    3.750    1.500    0.000    4.500 
#    0.000    3.125    0.000    6.375    0.000    8.750 
#    0.000    0.000    0.000   10.750    0.000    0.250 
#
# Total GULP energy -793047.493624 kJ/mol
# GULP energy per Si atom -12391.367088 kJ/mol
# Density = 1.730672 g / cm^3
# Si number density = 17.346203 Si / 1000 Ang^3
#
#
#
# Elastic Constant Matrix: (Units=GPa)
#
#
# Indices 1 2 3 4 5 6 
#
# 1 91.0722 23.6861 19.6642 0.0000 0.0000 0.0000
# 2 23.6861 79.7890 21.2580 0.0000 0.0000 0.0000
# 3 19.6642 21.2580 78.6486 0.0000 0.0000 0.0000
# 4 0.0000 0.0000 0.0000 15.3903 0.0000 0.0000
# 5 0.0000 0.0000 0.0000 0.0000 16.9398 0.0000
# 6 0.0000 0.0000 0.0000 0.0000 0.0000 21.1219
#
#
#
# Elastic Compliance Matrix: (Units=1/GPa)
#
#
# Indices 1 2 3 4 5 6 
#
# 1 0.012255 -0.003041 -0.002242 0.000000 0.000000 0.000000
# 2 -0.003041 0.014260 -0.003094 0.000000 0.000000 0.000000
# 3 -0.002242 -0.003094 0.014112 0.000000 0.000000 0.000000
# 4 0.000000 0.000000 0.000000 0.064976 0.000000 0.000000
# 5 0.000000 0.000000 0.000000 0.000000 0.059033 0.000000
# 6 0.000000 0.000000 0.000000 0.000000 0.000000 0.047344
#
#
# Mechanical properties :
#
#
# Convention : Reuss Voigt Hill
#
# Bulk Modulus (GPa) = 41.88847 42.08071 41.98459
# Shear Modulus (GPa) = 21.12454 23.01716 22.07085
#
# Velocity S-wave (km/s) = 3.49351 3.64665 3.57090
# Velocity P-wave (km/s) = 6.36190 6.48404 6.42326
#
# Compressibility (1/GPa) = 0.02387292
#
# Stress axis : x y z
#
# Youngs Moduli (GPa) = 81.59752 70.12582 70.86303
#
# Poissons Ratio (x) = 0.21323 0.15889
# Poissons Ratio (y) = 0.24811 0.21926
# Poissons Ratio (z) = 0.18296 0.21698
#
# Static dielectric constant tensor:
#      x y z
#    x 3.442740 0.000000 0.000000 
#    y 0.000000 3.419330 0.000000 
#    z 0.000000 0.000000 3.128390 
# 
# 
# High freq. dielectric constant tensor:
#      x y z
#    x 1.677180 0.000000 0.000000 
#    y 0.000000 1.660080 0.000000 
#    z 0.000000 0.000000 1.634800 
# 
# From -- ./inp_files/28323.got.cif
#   From: 2010.03.12/outbox.cif.g09.slc.cpg/sg47_15_cif.got.tgz:28323.got - 2010.04.14 03:12:58.
