data_PCOD8195862
_publ_section_title
;
Structure prediction by ZEFSAII (Michael W. Deem and Ramdas Pophale) SiO2 
 PCOD8195862
Probable space group: P M M M
;
_chemical_formula_sum "Si O2"
_cell_formula_units_Z 52
_cell_length_a 11.889288
_cell_length_b 9.249602
_cell_length_c 28.062580
_cell_angle_alpha 90.000000
_cell_angle_beta 90.000000
_cell_angle_gamma 90.000000
_cell_volume 3086.075094
_symmetry_space_group_name_H-M "P M M M"
_symmetry_group_IT_number 47
_symmetry_cell_setting 'orthorhombic'
loop_
_space_group_symop_operation_xyz
x,y,z
-x,-y,z
x,-y,-z
-x,y,-z
-x,-y,-z
x,y,-z
-x,y,z
x,-y,z
loop_
_atom_site_type_symbol
_atom_site_label
_atom_site_fract_x
_atom_site_fract_y
_atom_site_fract_z
Si Si1 0.874849 0.171125 0.000000
Si Si2 0.871022 0.168207 0.822241
Si Si3 0.866262 0.662773 0.270627
Si Si4 0.722537 0.829691 0.913293
Si Si5 0.129635 0.833669 0.360732
Si Si6 0.500000 0.338899 0.556579
Si Si7 0.500000 0.671937 0.943986
Si Si8 0.714714 0.167843 0.553995
O O1 0.807542 0.224125 0.046043
O O2 0.000000 0.239930 0.000000
O O3 0.885889 0.000000 0.000000
O O4 0.825919 0.254887 0.776600
O O5 0.785338 0.207333 0.864285
O O6 0.000000 0.210764 0.836013
O O7 0.866125 0.000000 0.809598
O O8 0.819865 0.500000 0.269023
O O9 0.817060 0.740225 0.317779
O O10 0.000000 0.667644 0.272731
O O11 0.608094 0.739699 0.917906
O O12 0.695177 0.000000 0.917938
O O13 0.182754 0.793292 0.411518
O O14 0.000000 0.796731 0.366997
O O15 0.150194 0.000000 0.347429
O O16 0.500000 0.500000 0.577915
O O17 0.500000 0.340612 0.500000
O O18 0.609523 0.255615 0.574638
O O19 0.500000 0.500000 0.936832
O O20 0.500000 0.713416 0.000000
O O21 0.747154 0.213832 0.500000
O O22 0.682719 0.000000 0.555668
#
# Coordination Sequence:
#
# PCOD8195862 Si02
#       8
#     4   8   8   8   8   4   4   8
#     4   9  16  27  47  76 104 125 150 189 234 277
#     4   9  17  30  50  77 103 124 152 195 246 292
#     4   9  17  29  46  68  95 129 164 195 231 282
#     4  10  19  32  53  76  98 127 163 200 236 280
#     4   9  17  29  46  69  97 128 160 195 236 283
#     4   9  17  29  45  64  87 118 157 197 234 274
#     4  11  23  37  51  68  97 136 175 207 235 275
#     4   9  17  29  46  68  94 124 158 197 241 288
#
# _framework density 16.849881
#
# number of rings (size 3 to 8) (size 9 to 14) (size 15 to 20)
#    0.000    2.692    0.769    1.385    0.000    6.462 
#    0.000    1.538    0.000    2.769    0.000   10.769 
#    0.000    0.000    0.000    0.000    0.000    0.000 
#
# Total GULP energy -644707.353114 kJ/mol
# GULP energy per Si atom -12398.218329 kJ/mol
# Density = 1.681153 g / cm^3
# Si number density = 16.849881 Si / 1000 Ang^3
#
#
#
# Elastic Constant Matrix: (Units=GPa)
#
#
# Indices 1 2 3 4 5 6 
#
# 1 96.2809 48.2296 61.4270 0.0000 0.0000 0.0000
# 2 48.2296 77.2573 62.9550 0.0000 0.0000 0.0000
# 3 61.4270 62.9550 133.4844 0.0000 0.0000 0.0000
# 4 0.0000 0.0000 0.0000 19.0737 0.0000 0.0000
# 5 0.0000 0.0000 0.0000 0.0000 -2.3283 0.0000
# 6 0.0000 0.0000 0.0000 0.0000 0.0000 15.7705
#
#
#
# Elastic Compliance Matrix: (Units=1/GPa)
#
#
# Indices 1 2 3 4 5 6 
#
# 1 0.016607 -0.006724 -0.004471 0.000000 0.000000 0.000000
# 2 -0.006724 0.023746 -0.008105 0.000000 0.000000 0.000000
# 3 -0.004471 -0.008105 0.013372 0.000000 0.000000 0.000000
# 4 0.000000 0.000000 0.000000 0.052428 0.000000 0.000000
# 5 0.000000 0.000000 0.000000 0.000000 -0.429502 0.000000
# 6 0.000000 0.000000 0.000000 0.000000 0.000000 0.063409
#
#
# Mechanical properties :
#
#
# Convention : Reuss Voigt Hill
#
# Bulk Modulus (GPa) = 66.11800 72.47175 69.29487
# Shear Modulus (GPa) = -23.11619 15.46392 -3.82614
#
# Velocity S-wave (km/s) = -3.70792 3.03272 -1.50853
# Velocity P-wave (km/s) = 4.58182 7.44089 6.17899
#
# Compressibility (1/GPa) = 0.01512447
#
# Stress axis : x y z
#
# Youngs Moduli (GPa) = 60.21565 42.11254 74.78578
#
# Poissons Ratio (x) = 0.28316 0.33437
# Poissons Ratio (y) = 0.40489 0.60614
# Poissons Ratio (z) = 0.26922 0.34132
#
# Static dielectric constant tensor:
#      x y z
#    x 3.031250 0.000000 0.000000 
#    y 0.000000 3.149850 0.000000 
#    z 0.000000 0.000000 3.209430 
# 
# 
# High freq. dielectric constant tensor:
#      x y z
#    x 1.627280 0.000000 0.000000 
#    y 0.000000 1.642040 0.000000 
#    z 0.000000 0.000000 1.647930 
# 
# From -- ./inp_files/34563.got.cif
#   From: 2010.03.12/outbox.cif.g09.slc.cpg/sg47_18_cif.got.tgz:34563.got - 2010.04.14 03:12:58.
