data_PCOD8195998
_publ_section_title
;
Structure prediction by ZEFSAII (Michael W. Deem and Ramdas Pophale) SiO2 
 PCOD8195998
Probable space group: P M M M
;
_chemical_formula_sum "Si O2"
_cell_formula_units_Z 56
_cell_length_a 10.338295
_cell_length_b 14.087612
_cell_length_c 21.067987
_cell_angle_alpha 90.000000
_cell_angle_beta 90.000000
_cell_angle_gamma 90.000000
_cell_volume 3068.381418
_symmetry_space_group_name_H-M "P M M M"
_symmetry_group_IT_number 47
_symmetry_cell_setting 'orthorhombic'
loop_
_space_group_symop_operation_xyz
x,y,z
-x,-y,z
x,-y,-z
-x,y,-z
-x,-y,-z
x,y,-z
-x,y,z
x,-y,z
loop_
_atom_site_type_symbol
_atom_site_label
_atom_site_fract_x
_atom_site_fract_y
_atom_site_fract_z
Si Si1 0.350285 0.603579 0.691259
Si Si2 0.357217 0.893914 0.925278
Si Si3 0.500000 0.388241 0.928610
Si Si4 0.349261 0.107397 0.500000
Si Si5 0.346148 0.798316 0.368729
Si Si6 0.145141 0.890612 0.720663
Si Si7 0.273263 0.391724 0.835258
Si Si8 0.856813 0.209924 0.149042
O O1 0.500000 0.594655 0.677207
O O2 0.286120 0.500000 0.673843
O O3 0.298743 0.690280 0.647209
O O4 0.331223 0.625168 0.765414
O O5 0.500000 0.855624 0.904931
O O6 0.246194 0.825572 0.901232
O O7 0.337667 0.000000 0.897694
O O8 0.347115 0.897398 0.000000
O O9 0.500000 0.500000 0.936071
O O10 0.375282 0.357916 0.888395
O O11 0.500000 0.341829 0.000000
O O12 0.500000 0.089525 0.500000
O O13 0.310311 0.172454 0.559739
O O14 0.285529 0.000000 0.500000
O O15 0.500000 0.811472 0.354194
O O16 0.259501 0.869782 0.328203
O O17 0.177389 0.832402 0.783153
O O18 0.000000 0.864485 0.694947
O O19 0.150510 0.000000 0.738864
O O20 0.229639 0.500000 0.845122
O O21 0.149905 0.324191 0.844820
O O22 0.000000 0.180849 0.126377
#
# Coordination Sequence:
#
# PCOD8195998 Si02
#       8
#     8   8   4   4   8   8   8   8
#     4   9  16  29  51  80 109 138 175 226 277 316
#     4   9  20  39  60  81 105 136 179 229 274 322
#     4   9  18  32  52  78 105 138 179 224 279 330
#     4   9  18  32  50  78 114 145 179 223 272 317
#     4  10  19  33  56  80 106 143 183 222 261 324
#     4  10  21  36  52  75 109 141 173 222 274 316
#     4  10  19  33  53  76 108 141 179 227 271 322
#     4  11  23  36  53  79 111 143 177 218 275 335
#
# _framework density 18.250664
#
# number of rings (size 3 to 8) (size 9 to 14) (size 15 to 20)
#    0.000    2.286    2.143    1.286    1.000    3.429 
#    0.000    1.429    0.000    3.857    0.000    3.000 
#    0.000    1.143    0.000    0.000    0.000    0.000 
#
# Total GULP energy -693916.604740 kJ/mol
# GULP energy per Si atom -12391.367942 kJ/mol
# Density = 1.820912 g / cm^3
# Si number density = 18.250664 Si / 1000 Ang^3
#
#
#
# Elastic Constant Matrix: (Units=GPa)
#
#
# Indices 1 2 3 4 5 6 
#
# 1 71.3667 38.5687 34.2504 0.0000 0.0000 0.0000
# 2 38.5687 108.8846 54.4618 0.0000 0.0000 0.0000
# 3 34.2504 54.4618 90.1305 0.0000 0.0000 0.0000
# 4 0.0000 0.0000 0.0000 24.8741 0.0000 0.0000
# 5 0.0000 0.0000 0.0000 0.0000 15.4820 0.0000
# 6 0.0000 0.0000 0.0000 0.0000 0.0000 21.5223
#
#
#
# Elastic Compliance Matrix: (Units=1/GPa)
#
#
# Indices 1 2 3 4 5 6 
#
# 1 0.018468 -0.004345 -0.004393 0.000000 0.000000 0.000000
# 2 -0.004345 0.014184 -0.006920 0.000000 0.000000 0.000000
# 3 -0.004393 -0.006920 0.016946 0.000000 0.000000 0.000000
# 4 0.000000 0.000000 0.000000 0.040202 0.000000 0.000000
# 5 0.000000 0.000000 0.000000 0.000000 0.064591 0.000000
# 6 0.000000 0.000000 0.000000 0.000000 0.000000 0.046463
#
#
# Mechanical properties :
#
#
# Convention : Reuss Voigt Hill
#
# Bulk Modulus (GPa) = 54.69405 58.32709 56.51057
# Shear Modulus (GPa) = 20.98510 21.91574 21.45042
#
# Velocity S-wave (km/s) = 3.39459 3.46904 3.43202
# Velocity P-wave (km/s) = 6.73778 6.93354 6.83636
#
# Compressibility (1/GPa) = 0.01828352
#
# Stress axis : x y z
#
# Youngs Moduli (GPa) = 54.14685 70.50143 59.01191
#
# Poissons Ratio (x) = 0.30630 0.25923
# Poissons Ratio (y) = 0.23524 0.40835
# Poissons Ratio (z) = 0.23786 0.48786
#
# Static dielectric constant tensor:
#      x y z
#    x 3.204460 0.000000 0.000000 
#    y 0.000000 3.812920 0.000000 
#    z 0.000000 0.000000 3.402090 
# 
# 
# High freq. dielectric constant tensor:
#      x y z
#    x 1.682840 0.000000 0.000000 
#    y 0.000000 1.725360 0.000000 
#    z 0.000000 0.000000 1.689820 
# 
# From -- ./inp_files/29741.got.cif
#   From: 2010.03.12/outbox.cif.g09.slc.cpg/sg47_15_cif.got.tgz:29741.got - 2010.04.14 03:12:58.
