data_PCOD8195958
_publ_section_title
;
Structure prediction by ZEFSAII (Michael W. Deem and Ramdas Pophale) SiO2 
 PCOD8195958
Probable space group: P M M M
;
_chemical_formula_sum "Si O2"
_cell_formula_units_Z 52
_cell_length_a 31.025199
_cell_length_b 9.411414
_cell_length_c 11.607340
_cell_angle_alpha 90.000000
_cell_angle_beta 90.000000
_cell_angle_gamma 90.000000
_cell_volume 3389.238724
_symmetry_space_group_name_H-M "P M M M"
_symmetry_group_IT_number 47
_symmetry_cell_setting 'orthorhombic'
loop_
_space_group_symop_operation_xyz
x,y,z
-x,-y,z
x,-y,-z
-x,y,-z
-x,-y,-z
x,y,-z
-x,y,z
x,-y,z
loop_
_atom_site_type_symbol
_atom_site_label
_atom_site_fract_x
_atom_site_fract_y
_atom_site_fract_z
Si Si1 0.000000 0.159576 0.862292
Si Si2 0.500000 0.836802 0.863798
Si Si3 0.664621 0.335968 0.132877
Si Si4 0.547952 0.332796 0.500000
Si Si5 0.253526 0.840148 0.862726
Si Si6 0.424002 0.332979 0.747713
Si Si7 0.079193 0.659383 0.863058
Si Si8 0.174539 0.340415 0.137032
O O1 0.957349 0.236732 0.812753
O O2 0.000000 0.000000 0.814719
O O3 0.000000 0.162276 0.000000
O O4 0.542188 0.757308 0.819567
O O5 0.500000 0.000000 0.820811
O O6 0.500000 0.829334 0.000000
O O7 0.677432 0.500000 0.147966
O O8 0.704242 0.243100 0.180013
O O9 0.623384 0.294871 0.208204
O O10 0.654092 0.301392 0.000000
O O11 0.542747 0.500000 0.500000
O O12 0.500000 0.264056 0.500000
O O13 0.573637 0.285551 0.385941
O O14 0.210773 0.764478 0.811781
O O15 0.255118 0.000000 0.814517
O O16 0.251972 0.838586 0.000000
O O17 0.434358 0.500000 0.764474
O O18 0.070223 0.500000 0.817936
O O19 0.126844 0.710343 0.822759
O O20 0.077112 0.659957 0.000000
O O21 0.183472 0.500000 0.182020
O O22 0.176812 0.339810 0.000000
#
# Coordination Sequence:
#
# PCOD8195958 Si02
#       8
#     4   4   8   4   8   8   8   8
#     4   9  15  19  23  33  49  69  95 133 179 222
#     4  11  23  34  45  66  94 117 136 165 202 235
#     4   9  17  28  42  60  80 103 131 159 187 227
#     4   9  16  30  52  74  90 106 134 174 206 227
#     4   9  16  24  35  51  71  94 116 143 184 229
#     4  10  19  33  52  69  86 111 141 168 197 236
#     4   8  13  20  28  36  48  70 100 134 174 219
#     4   8  13  21  32  44  58  79 109 143 177 219
#
# _framework density 15.342679
#
# number of rings (size 3 to 8) (size 9 to 14) (size 15 to 20)
#    0.000    3.000    0.769    2.308    0.000    5.231 
#    0.000    5.385    0.000    0.000    0.000    0.000 
#    0.000    0.000    0.000    0.000    0.000    0.000 
#
# Total GULP energy -644535.037687 kJ/mol
# GULP energy per Si atom -12394.904571 kJ/mol
# Density = 1.530776 g / cm^3
# Si number density = 15.342679 Si / 1000 Ang^3
#
#
#
# Elastic Constant Matrix: (Units=GPa)
#
#
# Indices 1 2 3 4 5 6 
#
# 1 161.7031 86.0440 33.6944 0.0000 0.0000 0.0000
# 2 86.0440 102.1819 21.3650 0.0000 0.0000 0.0000
# 3 33.6944 21.3650 36.8522 0.0000 0.0000 0.0000
# 4 0.0000 0.0000 0.0000 6.5294 0.0000 0.0000
# 5 0.0000 0.0000 0.0000 0.0000 -1.0490 0.0000
# 6 0.0000 0.0000 0.0000 0.0000 0.0000 15.2404
#
#
#
# Elastic Compliance Matrix: (Units=1/GPa)
#
#
# Indices 1 2 3 4 5 6 
#
# 1 0.012250 -0.009073 -0.005940 0.000000 0.000000 0.000000
# 2 -0.009073 0.017857 -0.002057 0.000000 0.000000 0.000000
# 3 -0.005940 -0.002057 0.033759 0.000000 0.000000 0.000000
# 4 0.000000 0.000000 0.000000 0.153153 0.000000 0.000000
# 5 0.000000 0.000000 0.000000 0.000000 -0.953285 0.000000
# 6 0.000000 0.000000 0.000000 0.000000 0.000000 0.065615
#
#
# Mechanical properties :
#
#
# Convention : Reuss Voigt Hill
#
# Bulk Modulus (GPa) = 33.64105 64.77155 49.20630
# Shear Modulus (GPa) = -7.97953 14.78642 3.40344
#
# Velocity S-wave (km/s) = -2.28302 3.10779 1.49101
# Velocity P-wave (km/s) = 3.87615 7.42873 5.92497
#
# Compressibility (1/GPa) = 0.02972558
#
# Stress axis : x y z
#
# Youngs Moduli (GPa) = 81.63348 56.00117 29.62196
#
# Poissons Ratio (x) = 0.50811 0.17595
# Poissons Ratio (y) = 0.74068 0.06092
# Poissons Ratio (z) = 0.48490 0.11518
#
# Static dielectric constant tensor:
#      x y z
#    x 3.225400 0.000000 0.000000 
#    y 0.000000 3.051940 0.000000 
#    z 0.000000 0.000000 2.441600 
# 
# 
# High freq. dielectric constant tensor:
#      x y z
#    x 1.603400 0.000000 0.000000 
#    y 0.000000 1.586950 0.000000 
#    z 0.000000 0.000000 1.508660 
# 
# From -- ./inp_files/20073.got.cif
#   From: 2010.03.12/outbox.cif.g09.slc.cpg/sg47_11_cif.got.tgz:20073.got - 2010.04.14 03:12:58.
