data_PCOD8195325
_publ_section_title
;
Structure prediction by ZEFSAII (Michael W. Deem and Ramdas Pophale) SiO2 
 PCOD8195325
Probable space group: P M M M
;
_chemical_formula_sum "Si O2"
_cell_formula_units_Z 44
_cell_length_a 10.026039
_cell_length_b 7.988979
_cell_length_c 29.692597
_cell_angle_alpha 90.000000
_cell_angle_beta 90.000000
_cell_angle_gamma 90.000000
_cell_volume 2378.312142
_symmetry_space_group_name_H-M "P M M M"
_symmetry_group_IT_number 47
_symmetry_cell_setting 'orthorhombic'
loop_
_space_group_symop_operation_xyz
x,y,z
-x,-y,z
x,-y,-z
-x,y,-z
-x,-y,-z
x,y,-z
-x,y,z
x,-y,z
loop_
_atom_site_type_symbol
_atom_site_label
_atom_site_fract_x
_atom_site_fract_y
_atom_site_fract_z
Si Si1 0.149100 0.699215 0.949880
Si Si2 0.840710 0.000000 0.448965
Si Si3 0.149266 0.191233 0.701193
Si Si4 0.347046 0.303955 0.775712
Si Si5 0.647903 0.699267 0.123142
Si Si6 0.841608 0.684539 0.606497
O O1 0.152314 0.500000 0.947604
O O2 0.249134 0.777195 0.912931
O O3 0.000000 0.763659 0.939146
O O4 0.192112 0.758235 0.000000
O O5 0.782933 0.832132 0.425007
O O6 0.788263 0.000000 0.500000
O O7 0.000000 0.000000 0.447319
O O8 0.248238 0.207980 0.742888
O O9 0.204579 0.293614 0.658304
O O10 0.000000 0.252285 0.715002
O O11 0.143378 0.000000 0.685637
O O12 0.500000 0.258768 0.764011
O O13 0.322219 0.500000 0.770442
O O14 0.313109 0.243990 0.826446
O O15 0.500000 0.765248 0.111098
O O16 0.648921 0.500000 0.121116
O O17 0.793463 0.500000 0.589822
O O18 0.000000 0.696393 0.604916
#
# Coordination Sequence:
#
# PCOD8195325 Si02
#       6
#     8   4   8   8   8   8
#     4   8  13  20  30  47  73 105 141 181 224 271
#     4   9  16  26  40  62  95 131 167 207 248 295
#     4  10  19  31  47  67  92 122 159 201 242 290
#     4   9  18  31  45  64  91 120 153 195 240 289
#     4   8  14  24  36  51  75 107 141 180 226 275
#     4   9  16  27  43  63  91 127 164 204 250 295
#
# _framework density 18.500516999999999
#
# number of rings (size 3 to 8) (size 9 to 14) (size 15 to 20)
#    0.000    3.182    0.909    2.182    0.000    2.909 
#    0.000    5.455    0.000    0.000    0.000    0.000 
#    0.000    2.182    0.000   11.818    0.000   16.727 
#
# Total GULP energy -545304.848149 kJ/mol
# GULP energy per Si atom -12393.292003 kJ/mol
# Density = 1.845841 g / cm^3
# Si number density = 18.500517 Si / 1000 Ang^3
#
#
#
# Elastic Constant Matrix: (Units=GPa)
#
#
# Indices 1 2 3 4 5 6 
#
# 1 68.7053 22.1631 65.7098 0.0000 0.0000 0.0000
# 2 22.1631 71.4857 44.8653 0.0000 0.0000 0.0000
# 3 65.7098 44.8653 141.9839 0.0000 0.0000 0.0000
# 4 0.0000 0.0000 0.0000 13.9861 0.0000 0.0000
# 5 0.0000 0.0000 0.0000 0.0000 6.0542 0.0000
# 6 0.0000 0.0000 0.0000 0.0000 0.0000 10.2240
#
#
#
# Elastic Compliance Matrix: (Units=1/GPa)
#
#
# Indices 1 2 3 4 5 6 
#
# 1 0.026136 -0.000638 -0.011894 0.000000 0.000000 0.000000
# 2 -0.000638 0.017465 -0.005223 0.000000 0.000000 0.000000
# 3 -0.011894 -0.005223 0.014198 0.000000 0.000000 0.000000
# 4 0.000000 0.000000 0.000000 0.071500 0.000000 0.000000
# 5 0.000000 0.000000 0.000000 0.000000 0.165174 0.000000
# 6 0.000000 0.000000 0.000000 0.000000 0.000000 0.097809
#
#
# Mechanical properties :
#
#
# Convention : Reuss Voigt Hill
#
# Bulk Modulus (GPa) = 44.86736 60.85013 52.85874
# Shear Modulus (GPa) = 11.48836 16.01530 13.75183
#
# Velocity S-wave (km/s) = 2.49464 2.94542 2.72935
# Velocity P-wave (km/s) = 5.70984 6.67306 6.21015
#
# Compressibility (1/GPa) = 0.02228792
#
# Stress axis : x y z
#
# Youngs Moduli (GPa) = 38.26079 57.25764 70.43176
#
# Poissons Ratio (x) = 0.03655 0.83773
# Poissons Ratio (y) = 0.02442 0.36789
# Poissons Ratio (z) = 0.45508 0.29907
#
# Static dielectric constant tensor:
#      x y z
#    x 3.240470 0.000000 0.000000 
#    y 0.000000 3.175610 0.000000 
#    z 0.000000 0.000000 3.542550 
# 
# 
# High freq. dielectric constant tensor:
#      x y z
#    x 1.676950 0.000000 0.000000 
#    y 0.000000 1.697810 0.000000 
#    z 0.000000 0.000000 1.718490 
# 
# From -- ./inp_files/33940.got.cif
#   From: 2010.03.12/outbox.cif.g09.slc.cpg/sg47_17_cif.got.tgz:33940.got - 2010.04.14 03:12:58.
