data_PCOD8195847
_publ_section_title
;
Structure prediction by ZEFSAII (Michael W. Deem and Ramdas Pophale) SiO2 
 PCOD8195847
Probable space group: P M M M
;
_chemical_formula_sum "Si O2"
_cell_formula_units_Z 52
_cell_length_a 17.856022
_cell_length_b 13.464599
_cell_length_c 12.139632
_cell_angle_alpha 90.000000
_cell_angle_beta 90.000000
_cell_angle_gamma 90.000000
_cell_volume 2918.661020
_symmetry_space_group_name_H-M "P M M M"
_symmetry_group_IT_number 47
_symmetry_cell_setting 'orthorhombic'
loop_
_space_group_symop_operation_xyz
x,y,z
-x,-y,z
x,-y,-z
-x,y,-z
-x,-y,-z
x,y,-z
-x,y,z
x,-y,z
loop_
_atom_site_type_symbol
_atom_site_label
_atom_site_fract_x
_atom_site_fract_y
_atom_site_fract_z
Si Si1 0.913624 0.881919 0.000000
Si Si2 0.420093 0.383999 0.500000
Si Si3 0.415453 0.114952 0.289045
Si Si4 0.135805 0.884889 0.233932
Si Si5 0.734429 0.194560 0.373533
Si Si6 0.319554 0.613822 0.297078
Si Si7 0.415015 0.287389 0.125115
Si Si8 0.000000 0.118793 0.623456
O O1 0.871262 0.839703 0.890258
O O2 0.000000 0.845739 0.000000
O O3 0.910723 0.000000 0.000000
O O4 0.431649 0.500000 0.500000
O O5 0.500000 0.329062 0.500000
O O6 0.378035 0.352784 0.609524
O O7 0.500000 0.129322 0.338503
O O8 0.351186 0.153673 0.372156
O O9 0.406767 0.178263 0.177266
O O10 0.401874 0.000000 0.259807
O O11 0.215992 0.871587 0.291712
O O12 0.072540 0.838364 0.313278
O O13 0.118744 0.000000 0.222171
O O14 0.762612 0.190205 0.500000
O O15 0.745542 0.306433 0.322548
O O16 0.291180 0.500000 0.306674
O O17 0.360310 0.631619 0.181029
O O18 0.500000 0.326921 0.135393
O O19 0.389103 0.278127 0.000000
O O20 0.000000 0.162283 0.500000
O O21 0.000000 0.000000 0.619617
#
# Coordination Sequence:
#
# PCOD8195847 Si02
#       8
#     4   4   8   8   8   8   8   4
#     4   9  16  32  56  80 108 140 172 205 246 306
#     4   9  16  28  50  74  91 116 161 216 273 324
#     4   9  19  35  51  69  98 140 186 223 256 297
#     4  10  19  32  52  79 110 141 172 207 252 304
#     4  11  22  35  50  75 105 138 176 221 265 315
#     4  10  20  35  51  70  97 129 168 215 269 321
#     4   9  18  32  50  72  95 121 160 213 271 325
#     4   9  16  27  47  77 110 141 165 196 251 314
#
# _framework density 17.816389000000001
#
# number of rings (size 3 to 8) (size 9 to 14) (size 15 to 20)
#    0.000    2.385    1.538    1.385    0.000    4.308 
#    5.538    3.077    0.000    0.000    0.000    0.538 
#    0.000    2.462    0.000    0.000    0.000    0.000 
#
# Total GULP energy -644348.472836 kJ/mol
# GULP energy per Si atom -12391.316785 kJ/mol
# Density = 1.777584 g / cm^3
# Si number density = 17.816389 Si / 1000 Ang^3
#
#
#
# Elastic Constant Matrix: (Units=GPa)
#
#
# Indices 1 2 3 4 5 6 
#
# 1 68.7767 9.7563 38.9105 0.0000 0.0000 0.0000
# 2 9.7563 55.6944 17.2076 0.0000 0.0000 0.0000
# 3 38.9105 17.2076 143.2397 0.0000 0.0000 0.0000
# 4 0.0000 0.0000 0.0000 14.6652 0.0000 0.0000
# 5 0.0000 0.0000 0.0000 0.0000 28.8145 0.0000
# 6 0.0000 0.0000 0.0000 0.0000 0.0000 8.0992
#
#
#
# Elastic Compliance Matrix: (Units=1/GPa)
#
#
# Indices 1 2 3 4 5 6 
#
# 1 0.017323 -0.001642 -0.004509 0.000000 0.000000 0.000000
# 2 -0.001642 0.018803 -0.001813 0.000000 0.000000 0.000000
# 3 -0.004509 -0.001813 0.008424 0.000000 0.000000 0.000000
# 4 0.000000 0.000000 0.000000 0.068189 0.000000 0.000000
# 5 0.000000 0.000000 0.000000 0.000000 0.034705 0.000000
# 6 0.000000 0.000000 0.000000 0.000000 0.000000 0.123469
#
#
# Mechanical properties :
#
#
# Convention : Reuss Voigt Hill
#
# Bulk Modulus (GPa) = 34.93595 44.38442 39.66018
# Shear Modulus (GPa) = 16.87025 23.77153 20.32089
#
# Velocity S-wave (km/s) = 3.08050 3.65670 3.38090
# Velocity P-wave (km/s) = 5.68367 6.54178 6.12776
#
# Compressibility (1/GPa) = 0.02862381
#
# Stress axis : x y z
#
# Youngs Moduli (GPa) = 57.72519 53.18353 118.71069
#
# Poissons Ratio (x) = 0.08731 0.53522
# Poissons Ratio (y) = 0.09476 0.21521
# Poissons Ratio (z) = 0.26026 0.09641
#
# Static dielectric constant tensor:
#      x y z
#    x 3.227190 0.000000 0.000000 
#    y 0.000000 3.081210 0.000000 
#    z 0.000000 0.000000 3.434650 
# 
# 
# High freq. dielectric constant tensor:
#      x y z
#    x 1.664620 0.000000 0.000000 
#    y 0.000000 1.656490 0.000000 
#    z 0.000000 0.000000 1.698320 
# 
# From -- ./inp_files/18627.got.cif
#   From: 2010.03.12/outbox.cif.g09.slc.cpg/sg47_10_cif.got.tgz:18627.got - 2010.04.14 03:12:58.
