data_PCOD8195427
_publ_section_title
;
Structure prediction by ZEFSAII (Michael W. Deem and Ramdas Pophale) SiO2 
 PCOD8195427
Probable space group: P M M M
;
_chemical_formula_sum "Si O2"
_cell_formula_units_Z 56
_cell_length_a 15.087962
_cell_length_b 14.270654
_cell_length_c 14.942585
_cell_angle_alpha 90.000000
_cell_angle_beta 90.000000
_cell_angle_gamma 90.000000
_cell_volume 3217.363963
_symmetry_space_group_name_H-M "P M M M"
_symmetry_group_IT_number 47
_symmetry_cell_setting 'orthorhombic'
loop_
_space_group_symop_operation_xyz
x,y,z
-x,-y,z
x,-y,-z
-x,y,-z
-x,-y,-z
x,y,-z
-x,y,z
x,-y,z
loop_
_atom_site_type_symbol
_atom_site_label
_atom_site_fract_x
_atom_site_fract_y
_atom_site_fract_z
Si Si1 0.402827 0.605435 0.893905
Si Si2 0.101460 0.744407 0.601807
Si Si3 0.103824 0.606639 0.242303
Si Si4 0.701200 0.104115 0.899602
Si Si5 0.249066 0.892166 0.397075
Si Si6 0.403475 0.891507 0.272739
Si Si7 0.226790 0.704215 0.103176
O O1 0.500000 0.639189 0.858081
O O2 0.384265 0.500000 0.859704
O O3 0.323367 0.671604 0.859495
O O4 0.404624 0.607029 0.000000
O O5 0.116739 0.710493 0.500000
O O6 0.128496 0.658190 0.665255
O O7 0.160311 0.834854 0.624552
O O8 0.000000 0.774827 0.617743
O O9 0.137463 0.500000 0.250056
O O10 0.149260 0.657355 0.158954
O O11 0.000000 0.610587 0.223255
O O12 0.621094 0.121473 0.831292
O O13 0.777295 0.182685 0.885458
O O14 0.742886 0.000000 0.885011
O O15 0.661686 0.114066 0.000000
O O16 0.277572 0.882452 0.500000
O O17 0.328399 0.848001 0.337502
O O18 0.229435 0.000000 0.371341
O O19 0.500000 0.844298 0.289055
O O20 0.410138 0.000000 0.297880
O O21 0.213596 0.674013 0.000000
#
# Coordination Sequence:
#
# PCOD8195427 Si02
#       7
#     8   8   8   8   8   8   8
#     4   8  14  25  41  62  88 117 151 191 232 273
#     4   9  18  33  52  72  94 121 154 194 240 285
#     4  10  21  35  51  73  98 122 152 190 231 282
#     4   9  18  31  46  65  90 124 166 206 240 275
#     4   9  17  29  47  72 100 128 158 194 235 280
#     4   9  17  28  42  62  92 131 168 198 230 270
#     4  10  19  31  49  70  95 128 159 191 236 285
#
# _framework density 17.405553000000001
#
# number of rings (size 3 to 8) (size 9 to 14) (size 15 to 20)
#    0.000    2.857    0.000    1.714    0.000    2.857 
#    0.000    7.857    0.000    1.286    0.000    2.000 
#    0.000    0.000    0.000   10.429    0.000    1.000 
#
# Total GULP energy -694076.887582 kJ/mol
# GULP energy per Si atom -12394.230135 kJ/mol
# Density = 1.736594 g / cm^3
# Si number density = 17.405553 Si / 1000 Ang^3
#
#
#
# Elastic Constant Matrix: (Units=GPa)
#
#
# Indices 1 2 3 4 5 6 
#
# 1 80.7972 51.2163 56.6431 0.0000 0.0000 0.0000
# 2 51.2163 102.8187 48.7412 0.0000 0.0000 0.0000
# 3 56.6431 48.7412 89.7783 0.0000 0.0000 0.0000
# 4 0.0000 0.0000 0.0000 22.2886 0.0000 0.0000
# 5 0.0000 0.0000 0.0000 0.0000 21.0836 0.0000
# 6 0.0000 0.0000 0.0000 0.0000 0.0000 19.9662
#
#
#
# Elastic Compliance Matrix: (Units=1/GPa)
#
#
# Indices 1 2 3 4 5 6 
#
# 1 0.025268 -0.006772 -0.012266 0.000000 0.000000 0.000000
# 2 -0.006772 0.014911 -0.003823 0.000000 0.000000 0.000000
# 3 -0.012266 -0.003823 0.020953 0.000000 0.000000 0.000000
# 4 0.000000 0.000000 0.000000 0.044866 0.000000 0.000000
# 5 0.000000 0.000000 0.000000 0.000000 0.047430 0.000000
# 6 0.000000 0.000000 0.000000 0.000000 0.000000 0.050085
#
#
# Mechanical properties :
#
#
# Convention : Reuss Voigt Hill
#
# Bulk Modulus (GPa) = 64.88826 65.17726 65.03276
# Shear Modulus (GPa) = 19.65628 20.45394 20.05511
#
# Velocity S-wave (km/s) = 3.36417 3.43175 3.39813
# Velocity P-wave (km/s) = 7.24233 7.29589 7.26916
#
# Compressibility (1/GPa) = 0.01541111
#
# Stress axis : x y z
#
# Youngs Moduli (GPa) = 39.57509 67.06272 47.72656
#
# Poissons Ratio (x) = 0.45416 0.58540
# Poissons Ratio (y) = 0.26801 0.18245
# Poissons Ratio (z) = 0.48542 0.25637
#
# Static dielectric constant tensor:
#      x y z
#    x 3.317240 0.000000 0.000000 
#    y 0.000000 3.321510 0.000000 
#    z 0.000000 0.000000 3.183030 
# 
# 
# High freq. dielectric constant tensor:
#      x y z
#    x 1.657300 0.000000 0.000000 
#    y 0.000000 1.665720 0.000000 
#    z 0.000000 0.000000 1.661120 
# 
# From -- ./inp_files/17668.got.cif
#   From: 2010.03.12/outbox.cif.g09.slc.cpg/sg47_9_cif.got.tgz:17668.got - 2010.04.14 03:12:58.
