data_PCOD8195315
_publ_section_title
;
Structure prediction by ZEFSAII (Michael W. Deem and Ramdas Pophale) SiO2 
 PCOD8195315
Probable space group: P M M M
;
_chemical_formula_sum "Si O2"
_cell_formula_units_Z 52
_cell_length_a 28.096498
_cell_length_b 9.094306
_cell_length_c 12.502080
_cell_angle_alpha 90.000000
_cell_angle_beta 90.000000
_cell_angle_gamma 90.000000
_cell_volume 3194.508357
_symmetry_space_group_name_H-M "P M M M"
_symmetry_group_IT_number 47
_symmetry_cell_setting 'orthorhombic'
loop_
_space_group_symop_operation_xyz
x,y,z
-x,-y,z
x,-y,-z
-x,y,-z
-x,-y,-z
x,y,-z
-x,y,z
x,-y,z
loop_
_atom_site_type_symbol
_atom_site_label
_atom_site_fract_x
_atom_site_fract_y
_atom_site_fract_z
Si Si1 0.144056 0.332086 0.626831
Si Si2 0.500000 0.165734 0.627167
Si Si3 0.406340 0.672213 0.623616
Si Si4 0.782085 0.170870 0.000000
Si Si5 0.052351 0.165041 0.372967
Si Si6 0.311375 0.336201 0.000000
Si Si7 0.679922 0.668754 0.766878
Si Si8 0.780357 0.175629 0.231707
O O1 0.147697 0.314804 0.500000
O O2 0.149293 0.500000 0.663193
O O3 0.093148 0.273587 0.670231
O O4 0.185976 0.236423 0.676409
O O5 0.500000 0.171735 0.500000
O O6 0.547111 0.246928 0.669702
O O7 0.500000 0.000000 0.670752
O O8 0.397339 0.710924 0.500000
O O9 0.414364 0.500000 0.641144
O O10 0.360753 0.730493 0.688861
O O11 0.801737 0.229481 0.885091
O O12 0.726617 0.206842 0.000000
O O13 0.789948 0.000000 0.000000
O O14 0.052454 0.165793 0.500000
O O15 0.000000 0.216847 0.332049
O O16 0.062903 0.000000 0.331380
O O17 0.340590 0.319134 0.889167
O O18 0.287231 0.500000 0.000000
O O19 0.691919 0.500000 0.737702
O O20 0.727545 0.762453 0.750043
O O21 0.778106 0.000000 0.238861
#
# Coordination Sequence:
#
# PCOD8195315 Si02
#       8
#     8   4   8   4   8   4   8   8
#     4  10  20  31  43  63  93 125 153 182 219 264
#     4   9  17  29  45  64  85 108 138 177 212 245
#     4   9  17  29  45  64  86 112 140 171 211 257
#     4   8  16  30  46  64  84 110 148 190 225 258
#     4   8  14  26  44  64  86 114 149 186 221 260
#     4   8  14  26  44  63  83 109 142 178 212 249
#     4   9  17  29  45  65  88 114 144 177 214 257
#     4  10  19  31  47  66  90 119 151 186 223 264
#
# _framework density 16.277934999999999
#
# number of rings (size 3 to 8) (size 9 to 14) (size 15 to 20)
#    0.000    3.000    0.000    1.615    0.000    4.000 
#    0.000    3.077    0.000    0.462    0.000    3.769 
#    0.000    4.308    0.000    0.000    0.000    0.000 
#
# Total GULP energy -644233.280272 kJ/mol
# GULP energy per Si atom -12389.101544 kJ/mol
# Density = 1.624089 g / cm^3
# Si number density = 16.277935 Si / 1000 Ang^3
#
#
#
# Elastic Constant Matrix: (Units=GPa)
#
#
# Indices 1 2 3 4 5 6 
#
# 1 120.0140 54.6929 48.4421 0.0000 0.0000 0.0000
# 2 54.6929 63.1500 28.5687 0.0000 0.0000 0.0000
# 3 48.4421 28.5687 54.4096 0.0000 0.0000 0.0000
# 4 0.0000 0.0000 0.0000 15.8055 0.0000 0.0000
# 5 0.0000 0.0000 0.0000 0.0000 1.9481 0.0000
# 6 0.0000 0.0000 0.0000 0.0000 0.0000 25.3705
#
#
#
# Elastic Compliance Matrix: (Units=1/GPa)
#
#
# Indices 1 2 3 4 5 6 
#
# 1 0.016919 -0.010280 -0.009665 0.000000 0.000000 0.000000
# 2 -0.010280 0.027015 -0.005032 0.000000 0.000000 0.000000
# 3 -0.009665 -0.005032 0.029626 0.000000 0.000000 0.000000
# 4 0.000000 0.000000 0.000000 0.063269 0.000000 0.000000
# 5 0.000000 0.000000 0.000000 0.000000 0.513308 0.000000
# 6 0.000000 0.000000 0.000000 0.000000 0.000000 0.039416
#
#
# Mechanical properties :
#
#
# Convention : Reuss Voigt Hill
#
# Bulk Modulus (GPa) = 42.36343 55.66454 49.01399
# Shear Modulus (GPa) = 6.69007 15.68283 11.18645
#
# Velocity S-wave (km/s) = 2.02949 3.10730 2.62432
# Velocity P-wave (km/s) = 5.61901 6.86617 6.27366
#
# Compressibility (1/GPa) = 0.02360526
#
# Stress axis : x y z
#
# Youngs Moduli (GPa) = 59.10687 37.01590 33.75379
#
# Poissons Ratio (x) = 0.38054 0.32623
# Poissons Ratio (y) = 0.60764 0.16985
# Poissons Ratio (z) = 0.57127 0.18627
#
# Static dielectric constant tensor:
#      x y z
#    x 3.069110 0.000000 0.000000 
#    y 0.000000 3.147770 0.000000 
#    z 0.000000 0.000000 3.135930 
# 
# 
# High freq. dielectric constant tensor:
#      x y z
#    x 1.610000 0.000000 0.000000 
#    y 0.000000 1.629450 0.000000 
#    z 0.000000 0.000000 1.603340 
# 
# From -- ./inp_files/25488.got.cif
#   From: 2010.03.12/outbox.cif.g09.slc.cpg/sg47_13_cif.got.tgz:25488.got - 2010.04.14 03:12:58.
