data_PCOD8195578
_publ_section_title
;
Structure prediction by ZEFSAII (Michael W. Deem and Ramdas Pophale) SiO2 
 PCOD8195578
Probable space group: P M M M
;
_chemical_formula_sum "Si O2"
_cell_formula_units_Z 48
_cell_length_a 17.192667
_cell_length_b 15.833173
_cell_length_c 8.869322
_cell_angle_alpha 90.000000
_cell_angle_beta 90.000000
_cell_angle_gamma 90.000000
_cell_volume 2414.357796
_symmetry_space_group_name_H-M "P M M M"
_symmetry_group_IT_number 47
_symmetry_cell_setting 'orthorhombic'
loop_
_space_group_symop_operation_xyz
x,y,z
-x,-y,z
x,-y,-z
-x,y,-z
-x,-y,-z
x,y,-z
-x,y,z
x,-y,z
loop_
_atom_site_type_symbol
_atom_site_label
_atom_site_fract_x
_atom_site_fract_y
_atom_site_fract_z
Si Si1 0.675982 0.902399 0.678735
Si Si2 0.683972 0.596968 0.321709
Si Si3 0.854069 0.404122 0.336639
Si Si4 0.848751 0.906082 0.678974
Si Si5 0.591364 0.747427 0.826470
Si Si6 0.000000 0.818665 0.324637
Si Si7 0.000000 0.352125 0.826604
O O1 0.668149 0.895285 0.500000
O O2 0.763396 0.876059 0.732008
O O3 0.618334 0.835636 0.753014
O O4 0.657890 0.000000 0.727510
O O5 0.671639 0.600869 0.500000
O O6 0.669415 0.500000 0.264307
O O7 0.771085 0.632088 0.280075
O O8 0.625429 0.662336 0.245727
O O9 0.878683 0.362742 0.500000
O O10 0.834680 0.500000 0.370983
O O11 0.921023 0.401981 0.209982
O O12 0.851161 0.901540 0.500000
O O13 0.919992 0.852893 0.750044
O O14 0.863249 0.000000 0.736820
O O15 0.500000 0.742308 0.803062
O O16 0.615796 0.749511 0.000000
O O17 0.000000 0.840986 0.500000
O O18 0.000000 0.721188 0.293988
O O19 0.000000 0.324188 0.000000
#
# Coordination Sequence:
#
# PCOD8195578 Si02
#       7
#     8   8   8   8   8   4   4
#     4   9  19  37  61  88 116 149 196 250 294 336
#     4   9  20  40  66  92 115 145 191 245 295 344
#     4   9  19  38  61  81 104 140 187 235 281 330
#     4   8  15  30  54  82 107 136 181 234 281 325
#     4  11  25  41  58  85 121 158 192 230 285 357
#     4  10  19  31  51  78 109 147 187 228 274 324
#     4  12  25  34  45  76 119 154 187 228 272 324
#
# _framework density 19.881063000000001
#
# number of rings (size 3 to 8) (size 9 to 14) (size 15 to 20)
#    0.000    2.500    0.000    3.750    2.333    5.667 
#    0.000    5.000    0.000    2.000    0.000    0.000 
#    0.000    0.000    0.000    0.000    0.000    0.000 
#
# Total GULP energy -594661.013737 kJ/mol
# GULP energy per Si atom -12388.771120 kJ/mol
# Density = 1.983581 g / cm^3
# Si number density = 19.881063 Si / 1000 Ang^3
#
#
#
# Elastic Constant Matrix: (Units=GPa)
#
#
# Indices 1 2 3 4 5 6 
#
# 1 109.8717 54.6566 43.5561 0.0000 0.0000 0.0000
# 2 54.6566 105.3481 36.5002 0.0000 0.0000 0.0000
# 3 43.5561 36.5002 51.7720 0.0000 0.0000 0.0000
# 4 0.0000 0.0000 0.0000 8.2931 0.0000 0.0000
# 5 0.0000 0.0000 0.0000 0.0000 5.3078 0.0000
# 6 0.0000 0.0000 0.0000 0.0000 0.0000 38.5312
#
#
#
# Elastic Compliance Matrix: (Units=1/GPa)
#
#
# Indices 1 2 3 4 5 6 
#
# 1 0.015146 -0.004556 -0.009530 0.000000 0.000000 0.000000
# 2 -0.004556 0.013931 -0.005989 0.000000 0.000000 0.000000
# 3 -0.009530 -0.005989 0.031555 0.000000 0.000000 0.000000
# 4 0.000000 0.000000 0.000000 0.120583 0.000000 0.000000
# 5 0.000000 0.000000 0.000000 0.000000 0.188403 0.000000
# 6 0.000000 0.000000 0.000000 0.000000 0.000000 0.025953
#
#
# Mechanical properties :
#
#
# Convention : Reuss Voigt Hill
#
# Bulk Modulus (GPa) = 48.82210 59.60195 54.21202
# Shear Modulus (GPa) = 11.29821 19.24501 15.27161
#
# Velocity S-wave (km/s) = 2.38647 3.11466 2.77456
# Velocity P-wave (km/s) = 5.67486 6.55585 6.13120
#
# Compressibility (1/GPa) = 0.02048253
#
# Stress axis : x y z
#
# Youngs Moduli (GPa) = 66.02379 71.78249 31.69027
#
# Poissons Ratio (x) = 0.32704 0.30202
# Poissons Ratio (y) = 0.30081 0.18978
# Poissons Ratio (z) = 0.62923 0.42987
#
# Static dielectric constant tensor:
#      x y z
#    x 3.992920 0.000000 0.000000 
#    y 0.000000 3.617280 0.000000 
#    z 0.000000 0.000000 3.233690 
# 
# 
# High freq. dielectric constant tensor:
#      x y z
#    x 1.786780 0.000000 0.000000 
#    y 0.000000 1.777430 0.000000 
#    z 0.000000 0.000000 1.737400 
# 
# From -- ./inp_files/9142.got.cif
#   From: 2010.03.12/outbox.cif.g09.slc.cpg/sg47_5_cif.got.tgz:9142.got - 2010.04.14 03:12:58.
