data_PCOD8195138
_publ_section_title
;
Structure prediction by ZEFSAII (Michael W. Deem and Ramdas Pophale) SiO2 
 PCOD8195138
Probable space group: P M M M
;
_chemical_formula_sum "Si O2"
_cell_formula_units_Z 64
_cell_length_a 28.327361
_cell_length_b 9.475944
_cell_length_c 14.093889
_cell_angle_alpha 90.000000
_cell_angle_beta 90.000000
_cell_angle_gamma 90.000000
_cell_volume 3783.201293
_symmetry_space_group_name_H-M "P M M M"
_symmetry_group_IT_number 47
_symmetry_cell_setting 'orthorhombic'
loop_
_space_group_symop_operation_xyz
x,y,z
-x,-y,z
x,-y,-z
-x,y,-z
-x,-y,-z
x,y,-z
-x,y,z
x,-y,z
loop_
_atom_site_type_symbol
_atom_site_label
_atom_site_fract_x
_atom_site_fract_y
_atom_site_fract_z
Si Si1 0.947243 0.340876 0.388087
Si Si2 0.773484 0.835448 0.748937
Si Si3 0.632768 0.338594 0.255377
Si Si4 0.308837 0.166229 0.110503
Si Si5 0.051926 0.832427 0.103690
Si Si6 0.119113 0.833107 0.263653
Si Si7 0.719411 0.341188 0.392903
Si Si8 0.446642 0.332315 0.393991
O O1 0.944362 0.338606 0.500000
O O2 0.939324 0.500000 0.350403
O O3 0.904334 0.241698 0.353878
O O4 0.000000 0.288029 0.356542
O O5 0.741188 0.791849 0.839855
O O6 0.827547 0.789688 0.761827
O O7 0.757717 0.760203 0.653079
O O8 0.768533 0.000000 0.730899
O O9 0.625715 0.500000 0.220507
O O10 0.648193 0.245947 0.164126
O O11 0.670857 0.329420 0.337757
O O12 0.586000 0.275647 0.307332
O O13 0.318258 0.000000 0.119283
O O14 0.306910 0.212673 0.000000
O O15 0.090135 0.772014 0.175069
O O16 0.000000 0.783340 0.136571
O O17 0.054439 0.000000 0.100758
O O18 0.063376 0.770770 0.000000
O O19 0.114432 0.000000 0.278957
O O20 0.710272 0.291686 0.500000
O O21 0.739269 0.500000 0.389032
O O22 0.431973 0.277026 0.500000
O O23 0.500000 0.283870 0.371756
O O24 0.442350 0.500000 0.395287
#
# Coordination Sequence:
#
# PCOD8195138 Si02
#       8
#     8   8   8   8   8   8   8   8
#     4   9  19  35  51  66  87 118 153 183 213 255
#     4   9  19  32  44  64  91 115 143 181 224 267
#     4   9  16  27  46  71  94 116 150 194 230 263
#     4   9  18  33  50  65  86 120 158 193 231 275
#     4   8  14  25  42  65  89 108 128 159 202 252
#     4  10  19  30  47  70  92 113 140 178 222 263
#     4   9  17  29  45  64  87 117 150 181 214 256
#     4   8  13  22  40  69 102 130 153 182 227 280
#
# _framework density 16.916889000000001
#
# number of rings (size 3 to 8) (size 9 to 14) (size 15 to 20)
#    0.000    3.125    0.000    1.875    0.000    4.500 
#    0.000    5.625    0.000    2.250    0.000    7.000 
#    0.000    0.000    0.000    0.000    0.000    0.000 
#
# Total GULP energy -793051.189590 kJ/mol
# GULP energy per Si atom -12391.424837 kJ/mol
# Density = 1.687839 g / cm^3
# Si number density = 16.916889 Si / 1000 Ang^3
#
#
#
# Elastic Constant Matrix: (Units=GPa)
#
#
# Indices 1 2 3 4 5 6 
#
# 1 107.8281 33.9378 54.1339 0.0000 0.0000 0.0000
# 2 33.9378 30.4243 33.2827 0.0000 0.0000 0.0000
# 3 54.1339 33.2827 109.6272 0.0000 0.0000 0.0000
# 4 0.0000 0.0000 0.0000 18.4705 0.0000 0.0000
# 5 0.0000 0.0000 0.0000 0.0000 193.8067 0.0000
# 6 0.0000 0.0000 0.0000 0.0000 0.0000 19.7459
#
#
#
# Elastic Compliance Matrix: (Units=1/GPa)
#
#
# Indices 1 2 3 4 5 6 
#
# 1 0.015147 -0.013047 -0.003518 0.000000 0.000000 0.000000
# 2 -0.013047 0.060452 -0.011910 0.000000 0.000000 0.000000
# 3 -0.003518 -0.011910 0.014475 0.000000 0.000000 0.000000
# 4 0.000000 0.000000 0.000000 0.054140 0.000000 0.000000
# 5 0.000000 0.000000 0.000000 0.000000 0.005160 0.000000
# 6 0.000000 0.000000 0.000000 0.000000 0.000000 0.050643
#
#
# Mechanical properties :
#
#
# Convention : Reuss Voigt Hill
#
# Bulk Modulus (GPa) = 30.19148 54.50982 42.35065
# Shear Modulus (GPa) = 18.65604 54.83965 36.74784
#
# Velocity S-wave (km/s) = 3.32445 5.69978 4.66580
# Velocity P-wave (km/s) = 5.71154 8.69533 7.35630
#
# Compressibility (1/GPa) = 0.03312193
#
# Stress axis : x y z
#
# Youngs Moduli (GPa) = 66.02038 16.54213 69.08360
#
# Poissons Ratio (x) = 0.21583 0.24307
# Poissons Ratio (y) = 0.86137 0.82281
# Poissons Ratio (z) = 0.23229 0.19702
#
# Static dielectric constant tensor:
#      x y z
#    x 3.337600 0.000000 0.000000 
#    y 0.000000 2.961000 0.000000 
#    z 0.000000 0.000000 3.305070 
# 
# 
# High freq. dielectric constant tensor:
#      x y z
#    x 1.649270 0.000000 0.000000 
#    y 0.000000 1.620910 0.000000 
#    z 0.000000 0.000000 1.650360 
# 
# From -- ./inp_files/25857.got.cif
#   From: 2010.03.12/outbox.cif.g09.slc.cpg/sg47_13_cif.got.tgz:25857.got - 2010.04.14 03:12:58.
