data_PCOD8195608
_publ_section_title
;
Structure prediction by ZEFSAII (Michael W. Deem and Ramdas Pophale) SiO2 
 PCOD8195608
Probable space group: P M M M
;
_chemical_formula_sum "Si O2"
_cell_formula_units_Z 36
_cell_length_a 7.891548
_cell_length_b 18.852143
_cell_length_c 12.940517
_cell_angle_alpha 90.000000
_cell_angle_beta 90.000000
_cell_angle_gamma 90.000000
_cell_volume 1925.194248
_symmetry_space_group_name_H-M "P M M M"
_symmetry_group_IT_number 47
_symmetry_cell_setting 'orthorhombic'
loop_
_space_group_symop_operation_xyz
x,y,z
-x,-y,z
x,-y,-z
-x,y,-z
-x,-y,-z
x,y,-z
-x,y,z
x,-y,z
loop_
_atom_site_type_symbol
_atom_site_label
_atom_site_fract_x
_atom_site_fract_y
_atom_site_fract_z
Si Si1 0.190108 0.691017 0.880617
Si Si2 0.500000 0.785849 0.120352
Si Si3 0.500000 0.916177 0.249968
Si Si4 0.197469 0.582162 0.500000
Si Si5 0.186022 0.083928 0.614588
Si Si6 0.695545 0.581284 0.720739
O O1 0.329068 0.747428 0.838959
O O2 0.199334 0.621953 0.808349
O O3 0.000000 0.723262 0.871006
O O4 0.226909 0.669612 0.000000
O O5 0.500000 0.869215 0.147528
O O6 0.500000 0.782447 0.000000
O O7 0.334797 0.890015 0.311699
O O8 0.500000 0.000000 0.223560
O O9 0.246441 0.500000 0.500000
O O10 0.274481 0.614839 0.394097
O O11 0.000000 0.597078 0.500000
O O12 0.214283 0.115814 0.500000
O O13 0.000000 0.107331 0.656694
O O14 0.195351 0.000000 0.607252
O O15 0.500000 0.587125 0.750098
O O16 0.759498 0.500000 0.721961
#
# Coordination Sequence:
#
# PCOD8195608 Si02
#       6
#     8   4   4   4   8   8
#     4  10  21  38  59  79 103 142 186 225 271 323
#     4  10  22  40  56  74 103 137 178 222 269 326
#     4  10  19  31  54  82 104 133 173 219 267 317
#     4   9  17  29  47  75 111 149 185 217 259 316
#     4   8  14  26  47  77 110 138 163 197 247 309
#     4  10  19  32  54  83 113 144 180 223 268 315
#
# _framework density 18.699413
#
# number of rings (size 3 to 8) (size 9 to 14) (size 15 to 20)
#    0.000    2.556    1.111    2.000    0.000    5.556 
#    0.000    2.222    4.889    0.000    0.000    6.222 
#    0.000    0.000    0.000    0.000    0.000    0.000 
#
# Total GULP energy -446150.685448 kJ/mol
# GULP energy per Si atom -12393.074596 kJ/mol
# Density = 1.865685 g / cm^3
# Si number density = 18.699413 Si / 1000 Ang^3
#
#
#
# Elastic Constant Matrix: (Units=GPa)
#
#
# Indices 1 2 3 4 5 6 
#
# 1 114.0015 32.7292 42.2265 0.0000 0.0000 0.0000
# 2 32.7292 62.9715 41.0750 0.0000 0.0000 0.0000
# 3 42.2265 41.0750 64.2915 0.0000 0.0000 0.0000
# 4 0.0000 0.0000 0.0000 18.0678 0.0000 0.0000
# 5 0.0000 0.0000 0.0000 0.0000 -31.6858 0.0000
# 6 0.0000 0.0000 0.0000 0.0000 0.0000 12.1863
#
#
#
# Elastic Compliance Matrix: (Units=1/GPa)
#
#
# Indices 1 2 3 4 5 6 
#
# 1 0.011714 -0.001834 -0.006522 0.000000 0.000000 0.000000
# 2 -0.001834 0.027513 -0.016373 0.000000 0.000000 0.000000
# 3 -0.006522 -0.016373 0.030298 0.000000 0.000000 0.000000
# 4 0.000000 0.000000 0.000000 0.055347 0.000000 0.000000
# 5 0.000000 0.000000 0.000000 0.000000 -0.031560 0.000000
# 6 0.000000 0.000000 0.000000 0.000000 0.000000 0.082059
#
#
# Mechanical properties :
#
#
# Convention : Reuss Voigt Hill
#
# Bulk Modulus (GPa) = 49.83276 52.59176 51.21226
# Shear Modulus (GPa) = 21.59634 8.06257 14.82946
#
# Velocity S-wave (km/s) = 3.40210 2.07871 2.81916
# Velocity P-wave (km/s) = 6.49150 5.82643 6.16794
#
# Compressibility (1/GPa) = 0.02006712
#
# Stress axis : x y z
#
# Youngs Moduli (GPa) = 85.36666 36.34582 33.00500
#
# Poissons Ratio (x) = 0.06667 0.21526
# Poissons Ratio (y) = 0.15658 0.54040
# Poissons Ratio (z) = 0.55676 0.59510
#
# Static dielectric constant tensor:
#      x y z
#    x 3.886560 0.000000 0.000000 
#    y 0.000000 2.952760 0.000000 
#    z 0.000000 0.000000 3.465860 
# 
# 
# High freq. dielectric constant tensor:
#      x y z
#    x 1.746770 0.000000 0.000000 
#    y 0.000000 1.673950 0.000000 
#    z 0.000000 0.000000 1.722340 
# 
# From -- ./inp_files/15044.got.cif
#   From: 2010.03.12/outbox.cif.g09.slc.cpg/sg47_8_cif.got.tgz:15044.got - 2010.04.14 03:12:58.
