data_PCOD8195234
_publ_section_title
;
Structure prediction by ZEFSAII (Michael W. Deem and Ramdas Pophale) SiO2 
 PCOD8195234
Probable space group: P M M M
;
_chemical_formula_sum "Si O2"
_cell_formula_units_Z 52
_cell_length_a 9.658124
_cell_length_b 20.231942
_cell_length_c 14.488703
_cell_angle_alpha 90.000000
_cell_angle_beta 90.000000
_cell_angle_gamma 90.000000
_cell_volume 2831.130303
_symmetry_space_group_name_H-M "P M M M"
_symmetry_group_IT_number 47
_symmetry_cell_setting 'orthorhombic'
loop_
_space_group_symop_operation_xyz
x,y,z
-x,-y,z
x,-y,-z
-x,y,-z
-x,-y,-z
x,y,-z
-x,y,z
x,-y,z
loop_
_atom_site_type_symbol
_atom_site_label
_atom_site_fract_x
_atom_site_fract_y
_atom_site_fract_z
Si Si1 0.164003 0.927557 0.396746
Si Si2 0.340122 0.306707 0.393901
Si Si3 0.658496 0.574824 0.266632
Si Si4 0.835361 0.141749 0.101851
Si Si5 0.844670 0.421429 0.898308
Si Si6 0.836402 0.199796 0.711677
Si Si7 0.149758 0.000000 0.891515
O O1 0.223018 0.916627 0.500000
O O2 0.218121 0.868713 0.332426
O O3 0.000000 0.925693 0.400222
O O4 0.212757 0.000000 0.359265
O O5 0.292502 0.304444 0.500000
O O6 0.500000 0.285305 0.383374
O O7 0.317642 0.381253 0.357508
O O8 0.244909 0.259455 0.333676
O O9 0.500000 0.576146 0.234705
O O10 0.705726 0.500000 0.290637
O O11 0.744468 0.605855 0.181270
O O12 0.797857 0.196290 0.179144
O O13 0.000000 0.132283 0.098070
O O14 0.772379 0.069424 0.132160
O O15 0.780713 0.163980 0.000000
O O16 0.839638 0.500000 0.898449
O O17 0.000000 0.396442 0.876983
O O18 0.798526 0.395574 0.000000
O O19 0.000000 0.210518 0.695839
O O20 0.000000 0.000000 0.839932
O O21 0.124863 0.000000 0.000000
#
# Coordination Sequence:
#
# PCOD8195234 Si02
#       7
#     8   8   8   8   8   8   4
#     4   8  14  24  39  64  96 123 153 201 251 282
#     4  10  22  39  55  71  96 129 161 200 257 317
#     4   9  18  33  54  78  99 123 164 214 255 295
#     4   8  14  24  40  67 102 133 161 199 245 287
#     4   8  14  26  46  74 108 140 163 187 230 288
#     4  10  19  30  50  75  99 130 168 205 240 289
#     4   7  10  18  34  60  96 131 158 192 241 285
#
# _framework density 18.367222000000002
#
# number of rings (size 3 to 8) (size 9 to 14) (size 15 to 20)
#    0.000    3.308    0.000    2.308    1.077    2.154 
#    0.000    3.846    0.000    3.692    0.000    5.385 
#    0.000    1.846    0.000    0.000    0.000    0.000 
#
# Total GULP energy -644205.388452 kJ/mol
# GULP energy per Si atom -12388.565163 kJ/mol
# Density = 1.832542 g / cm^3
# Si number density = 18.367222 Si / 1000 Ang^3
#
#
#
# Elastic Constant Matrix: (Units=GPa)
#
#
# Indices 1 2 3 4 5 6 
#
# 1 40.7459 33.5673 42.9460 0.0000 0.0000 0.0000
# 2 33.5673 85.9826 61.8301 0.0000 0.0000 0.0000
# 3 42.9460 61.8301 132.0563 0.0000 0.0000 0.0000
# 4 0.0000 0.0000 0.0000 30.4191 0.0000 0.0000
# 5 0.0000 0.0000 0.0000 0.0000 21.0667 0.0000
# 6 0.0000 0.0000 0.0000 0.0000 0.0000 11.7017
#
#
#
# Elastic Compliance Matrix: (Units=1/GPa)
#
#
# Indices 1 2 3 4 5 6 
#
# 1 0.042367 -0.009999 -0.009097 0.000000 0.000000 0.000000
# 2 -0.009999 0.019893 -0.006063 0.000000 0.000000 0.000000
# 3 -0.009097 -0.006063 0.013369 0.000000 0.000000 0.000000
# 4 0.000000 0.000000 0.000000 0.032874 0.000000 0.000000
# 5 0.000000 0.000000 0.000000 0.000000 0.047468 0.000000
# 6 0.000000 0.000000 0.000000 0.000000 0.000000 0.085458
#
#
# Mechanical properties :
#
#
# Convention : Reuss Voigt Hill
#
# Bulk Modulus (GPa) = 39.50360 59.49684 49.50022
# Shear Modulus (GPa) = 16.65642 20.66692 18.66167
#
# Velocity S-wave (km/s) = 3.01467 3.35805 3.19098
# Velocity P-wave (km/s) = 5.80276 6.89192 6.37066
#
# Compressibility (1/GPa) = 0.02531415
#
# Stress axis : x y z
#
# Youngs Moduli (GPa) = 23.60306 50.26830 74.79719
#
# Poissons Ratio (x) = 0.50261 0.68042
# Poissons Ratio (y) = 0.23600 0.45347
# Poissons Ratio (z) = 0.21471 0.30476
#
# Static dielectric constant tensor:
#      x y z
#    x 2.951990 0.000000 0.000000 
#    y 0.000000 3.406750 0.000000 
#    z 0.000000 0.000000 3.697600 
# 
# 
# High freq. dielectric constant tensor:
#      x y z
#    x 1.650100 0.000000 0.000000 
#    y 0.000000 1.701150 0.000000 
#    z 0.000000 0.000000 1.721920 
# 
# From -- ./inp_files/21440.got.cif
#   From: 2010.03.12/outbox.cif.g09.slc.cpg/sg47_11_cif.got.tgz:21440.got - 2010.04.14 03:12:58.
