data_PCOD8195942
_publ_section_title
;
Structure prediction by ZEFSAII (Michael W. Deem and Ramdas Pophale) SiO2 
 PCOD8195942
Probable space group: P M M M
;
_chemical_formula_sum "Si O2"
_cell_formula_units_Z 48
_cell_length_a 14.455703
_cell_length_b 20.218289
_cell_length_c 8.986076
_cell_angle_alpha 90.000000
_cell_angle_beta 90.000000
_cell_angle_gamma 90.000000
_cell_volume 2626.356667
_symmetry_space_group_name_H-M "P M M M"
_symmetry_group_IT_number 47
_symmetry_cell_setting 'orthorhombic'
loop_
_space_group_symop_operation_xyz
x,y,z
-x,-y,z
x,-y,-z
-x,y,-z
-x,-y,-z
x,y,-z
-x,y,z
x,-y,z
loop_
_atom_site_type_symbol
_atom_site_label
_atom_site_fract_x
_atom_site_fract_y
_atom_site_fract_z
Si Si1 0.301518 0.075203 0.829681
Si Si2 0.500000 0.873647 0.168796
Si Si3 0.000000 0.783467 0.176744
Si Si4 0.000000 0.632840 0.176435
Si Si5 0.186767 0.814410 0.675310
Si Si6 0.808196 0.424518 0.175650
Si Si7 0.303941 0.312871 0.676003
Si Si8 0.500000 0.263921 0.675779
O O1 0.410685 0.081696 0.798964
O O2 0.246256 0.121922 0.718073
O O3 0.272094 0.000000 0.796950
O O4 0.278292 0.094663 0.000000
O O5 0.500000 0.811424 0.275836
O O6 0.500000 0.847193 0.000000
O O7 0.910282 0.819780 0.240385
O O8 0.000000 0.707921 0.233672
O O9 0.000000 0.788525 0.000000
O O10 0.090985 0.596173 0.238343
O O11 0.000000 0.629846 0.000000
O O12 0.169657 0.814143 0.500000
O O13 0.240129 0.748300 0.727710
O O14 0.788860 0.500000 0.220068
O O15 0.729613 0.380333 0.249996
O O16 0.804291 0.413678 0.000000
O O17 0.300793 0.320955 0.500000
O O18 0.408215 0.300774 0.734617
O O19 0.500000 0.263176 0.500000
#
# Coordination Sequence:
#
# PCOD8195942 Si02
#       8
#     8   4   4   4   8   8   8   4
#     4  10  21  37  57  84 118 153 188 228 280 339
#     4  10  19  32  56  87 117 147 182 232 283 332
#     4  11  21  36  60  86 112 147 186 229 280 339
#     4   9  17  31  54  82 110 140 175 218 271 331
#     4  11  22  37  58  84 114 148 188 235 278 327
#     4  10  20  35  56  82 112 144 182 229 279 333
#     4  10  21  36  56  79 110 147 186 230 273 327
#     4  10  20  37  56  80 110 146 190 231 274 328
#
# _framework density 18.276268999999999
#
# number of rings (size 3 to 8) (size 9 to 14) (size 15 to 20)
#    0.000    1.833    3.333    1.250    0.000    4.000 
#    0.000    1.250    0.000    7.500    0.000    0.000 
#    0.000    0.000    0.000    0.000    0.000    0.000 
#
# Total GULP energy -595356.218001 kJ/mol
# GULP energy per Si atom -12403.254542 kJ/mol
# Density = 1.823467 g / cm^3
# Si number density = 18.276269 Si / 1000 Ang^3
#
#
#
# Elastic Constant Matrix: (Units=GPa)
#
#
# Indices 1 2 3 4 5 6 
#
# 1 125.3491 44.7394 35.4380 0.0000 0.0000 0.0000
# 2 44.7394 103.7578 28.3222 0.0000 0.0000 0.0000
# 3 35.4380 28.3222 38.5844 0.0000 0.0000 0.0000
# 4 0.0000 0.0000 0.0000 28.2289 0.0000 0.0000
# 5 0.0000 0.0000 0.0000 0.0000 22.8681 0.0000
# 6 0.0000 0.0000 0.0000 0.0000 0.0000 27.2864
#
#
#
# Elastic Compliance Matrix: (Units=1/GPa)
#
#
# Indices 1 2 3 4 5 6 
#
# 1 0.011290 -0.002548 -0.008499 0.000000 0.000000 0.000000
# 2 -0.002548 0.012628 -0.006929 0.000000 0.000000 0.000000
# 3 -0.008499 -0.006929 0.038809 0.000000 0.000000 0.000000
# 4 0.000000 0.000000 0.000000 0.035425 0.000000 0.000000
# 5 0.000000 0.000000 0.000000 0.000000 0.043729 0.000000
# 6 0.000000 0.000000 0.000000 0.000000 0.000000 0.036648
#
#
# Mechanical properties :
#
#
# Convention : Reuss Voigt Hill
#
# Bulk Modulus (GPa) = 37.34823 53.85451 45.60137
# Shear Modulus (GPa) = 22.38080 26.28947 24.33514
#
# Velocity S-wave (km/s) = 3.50320 3.79680 3.65295
# Velocity P-wave (km/s) = 6.06984 6.98225 6.54197
#
# Compressibility (1/GPa) = 0.02677503
#
# Stress axis : x y z
#
# Youngs Moduli (GPa) = 88.57417 79.18940 25.76723
#
# Poissons Ratio (x) = 0.20180 0.21899
# Poissons Ratio (y) = 0.22571 0.17854
# Poissons Ratio (z) = 0.75278 0.54869
#
# Static dielectric constant tensor:
#      x y z
#    x 3.558730 0.000000 0.000000 
#    y 0.000000 3.268890 0.000000 
#    z 0.000000 0.000000 3.192640 
# 
# 
# High freq. dielectric constant tensor:
#      x y z
#    x 1.715570 0.000000 0.000000 
#    y 0.000000 1.703330 0.000000 
#    z 0.000000 0.000000 1.695480 
# 
# From -- ./inp_files/6599.got.cif
#   From: 2010.03.12/outbox.cif.g09.slc.cpg/sg47_4_cif.got.tgz:6599.got - 2010.04.14 03:12:58.
