data_PCOD8195384
_publ_section_title
;
Structure prediction by ZEFSAII (Michael W. Deem and Ramdas Pophale) SiO2 
 PCOD8195384
Probable space group: P M M M
;
_chemical_formula_sum "Si O2"
_cell_formula_units_Z 52
_cell_length_a 25.134430
_cell_length_b 7.809907
_cell_length_c 14.668692
_cell_angle_alpha 90.000000
_cell_angle_beta 90.000000
_cell_angle_gamma 90.000000
_cell_volume 2879.428460
_symmetry_space_group_name_H-M "P M M M"
_symmetry_group_IT_number 47
_symmetry_cell_setting 'orthorhombic'
loop_
_space_group_symop_operation_xyz
x,y,z
-x,-y,z
x,-y,-z
-x,y,-z
-x,-y,-z
x,y,-z
-x,y,z
x,-y,z
loop_
_atom_site_type_symbol
_atom_site_label
_atom_site_fract_x
_atom_site_fract_y
_atom_site_fract_z
Si Si1 0.135041 0.196783 0.606885
Si Si2 0.274909 0.798684 0.099266
Si Si3 0.394842 0.298290 0.901009
Si Si4 0.059145 0.500000 0.607831
Si Si5 0.344618 0.301963 0.399618
Si Si6 0.758312 0.201471 0.290937
Si Si7 0.441315 0.295674 0.717064
O O1 0.147068 0.217139 0.500000
O O2 0.088697 0.325813 0.639335
O O3 0.187353 0.256185 0.660631
O O4 0.118808 0.000000 0.629761
O O5 0.334688 0.748496 0.122941
O O6 0.239617 0.733523 0.185179
O O7 0.269714 0.000000 0.091913
O O8 0.257540 0.719456 0.000000
O O9 0.400477 0.500000 0.906026
O O10 0.431677 0.225725 0.820038
O O11 0.411106 0.219506 0.000000
O O12 0.055069 0.500000 0.500000
O O13 0.000000 0.500000 0.651104
O O14 0.338416 0.216786 0.500000
O O15 0.356955 0.500000 0.411450
O O16 0.290862 0.284128 0.342945
O O17 0.395707 0.217886 0.348777
O O18 0.750058 0.000000 0.295506
O O19 0.500000 0.234756 0.684930
O O20 0.437673 0.500000 0.717825
#
# Coordination Sequence:
#
# PCOD8195384 Si02
#       7
#     8   8   8   4   8   8   8
#     4   9  18  31  47  72 104 137 174 211 246 287
#     4   9  17  29  46  67  91 119 148 182 231 289
#     4   9  16  27  44  64  84 107 140 183 231 286
#     4   9  18  32  50  74 105 143 180 210 246 285
#     4  10  20  31  45  65  85 113 153 193 238 288
#     4  10  19  31  48  69  95 124 153 191 239 288
#     4   9  17  29  43  61  85 110 143 189 237 287
#
# _framework density 18.059138999999998
#
# number of rings (size 3 to 8) (size 9 to 14) (size 15 to 20)
#    0.000    2.692    1.538    0.462    1.077    1.846 
#    0.000    4.615    0.000    1.846    0.000    3.231 
#    0.000    1.231    0.000    6.000    0.000    0.154 
#
# Total GULP energy -644293.859538 kJ/mol
# GULP energy per Si atom -12390.266530 kJ/mol
# Density = 1.801804 g / cm^3
# Si number density = 18.059139 Si / 1000 Ang^3
#
#
#
# Elastic Constant Matrix: (Units=GPa)
#
#
# Indices 1 2 3 4 5 6 
#
# 1 133.4088 32.1102 65.1437 0.0000 0.0000 0.0000
# 2 32.1102 35.4599 20.7079 0.0000 0.0000 0.0000
# 3 65.1437 20.7079 125.8386 0.0000 0.0000 0.0000
# 4 0.0000 0.0000 0.0000 11.3954 0.0000 0.0000
# 5 0.0000 0.0000 0.0000 0.0000 17.3001 0.0000
# 6 0.0000 0.0000 0.0000 0.0000 0.0000 1098.2429
#
#
#
# Elastic Compliance Matrix: (Units=1/GPa)
#
#
# Indices 1 2 3 4 5 6 
#
# 1 0.011708 -0.007814 -0.004775 0.000000 0.000000 0.000000
# 2 -0.007814 0.036414 -0.001947 0.000000 0.000000 0.000000
# 3 -0.004775 -0.001947 0.010739 0.000000 0.000000 0.000000
# 4 0.000000 0.000000 0.000000 0.087754 0.000000 0.000000
# 5 0.000000 0.000000 0.000000 0.000000 0.057803 0.000000
# 6 0.000000 0.000000 0.000000 0.000000 0.000000 0.000911
#
#
# Mechanical properties :
#
#
# Convention : Reuss Voigt Hill
#
# Bulk Modulus (GPa) = 33.56977 58.95898 46.26438
# Shear Modulus (GPa) = 20.46408 237.17073 128.81740
#
# Velocity S-wave (km/s) = 3.36991 11.47236 8.45492
# Velocity P-wave (km/s) = 5.81127 14.42933 10.99946
#
# Compressibility (1/GPa) = 0.02978871
#
# Stress axis : x y z
#
# Youngs Moduli (GPa) = 85.41057 27.46233 93.11707
#
# Poissons Ratio (x) = 0.21458 0.44466
# Poissons Ratio (y) = 0.66736 0.18133
# Poissons Ratio (z) = 0.40786 0.05348
#
# Static dielectric constant tensor:
#      x y z
#    x 3.232370 0.000000 0.000000 
#    y 0.000000 3.184840 0.000000 
#    z 0.000000 0.000000 3.908100 
# 
# 
# High freq. dielectric constant tensor:
#      x y z
#    x 1.664280 0.000000 0.000000 
#    y 0.000000 1.684030 0.000000 
#    z 0.000000 0.000000 1.700240 
# 
# From -- ./inp_files/7028.got.cif
#   From: 2010.03.12/outbox.cif.g09.slc.cpg/sg47_4_cif.got.tgz:7028.got - 2010.04.14 03:12:58.
