data_PCOD8195660
_publ_section_title
;
Structure prediction by ZEFSAII (Michael W. Deem and Ramdas Pophale) SiO2 
 PCOD8195660
Probable space group: P M M M
;
_chemical_formula_sum "Si O2"
_cell_formula_units_Z 52
_cell_length_a 8.886064
_cell_length_b 26.335694
_cell_length_c 12.689609
_cell_angle_alpha 90.000000
_cell_angle_beta 90.000000
_cell_angle_gamma 90.000000
_cell_volume 2969.630703
_symmetry_space_group_name_H-M "P M M M"
_symmetry_group_IT_number 47
_symmetry_cell_setting 'orthorhombic'
loop_
_space_group_symop_operation_xyz
x,y,z
-x,-y,z
x,-y,-z
-x,y,-z
-x,-y,-z
x,y,-z
-x,y,z
x,-y,z
loop_
_atom_site_type_symbol
_atom_site_label
_atom_site_fract_x
_atom_site_fract_y
_atom_site_fract_z
Si Si1 0.170751 0.500000 0.125090
Si Si2 0.824717 0.765400 0.378484
Si Si3 0.679072 0.878491 0.000000
Si Si4 0.323032 0.290424 0.193214
Si Si5 0.821147 0.768319 0.000000
Si Si6 0.677904 0.056407 0.198092
Si Si7 0.324850 0.399895 0.880395
Si Si8 0.326108 0.129383 0.380064
O O1 0.244858 0.551175 0.171495
O O2 0.000000 0.500000 0.161001
O O3 0.193539 0.500000 0.000000
O O4 0.789190 0.752737 0.500000
O O5 0.730007 0.726441 0.308462
O O6 0.774392 0.822320 0.351028
O O7 0.000000 0.759954 0.352487
O O8 0.735316 0.909901 0.898891
O O9 0.500000 0.869561 0.000000
O O10 0.761856 0.825249 0.000000
O O11 0.500000 0.280929 0.177891
O O12 0.236754 0.259354 0.104186
O O13 0.283107 0.349910 0.185436
O O14 0.000000 0.768037 0.000000
O O15 0.500000 0.051504 0.191233
O O16 0.726787 0.082969 0.307062
O O17 0.749943 0.000000 0.193708
O O18 0.500000 0.411436 0.878147
O O19 0.269186 0.390754 0.000000
O O20 0.300690 0.111951 0.500000
O O21 0.500000 0.143898 0.358888
#
# Coordination Sequence:
#
# PCOD8195660 Si02
#       8
#     4   8   4   8   4   8   8   8
#     4   9  17  27  43  69 100 137 176 211 247 295
#     4  10  21  36  53  75 104 137 172 211 257 308
#     4  10  19  32  50  68  91 127 166 201 238 293
#     4  11  21  35  54  77 105 137 176 217 257 304
#     4  12  24  35  51  76 107 138 168 207 259 311
#     4   9  17  29  47  71  94 118 155 204 250 289
#     4   9  17  31  48  69 100 137 173 210 253 299
#     4   9  17  30  49  71  94 123 159 200 247 300
#
# _framework density 17.510596
#
# number of rings (size 3 to 8) (size 9 to 14) (size 15 to 20)
#    0.000    2.231    0.769    3.000    0.000    5.538 
#    0.000    1.538    0.000    2.308    0.000    2.692 
#    0.000    4.308    0.000    0.000    0.000    0.000 
#
# Total GULP energy -644851.247939 kJ/mol
# GULP energy per Si atom -12400.985537 kJ/mol
# Density = 1.747074 g / cm^3
# Si number density = 17.510596 Si / 1000 Ang^3
#
#
#
# Elastic Constant Matrix: (Units=GPa)
#
#
# Indices 1 2 3 4 5 6 
#
# 1 71.2098 61.7694 36.2034 0.0000 0.0000 0.0000
# 2 61.7694 164.3149 70.3239 0.0000 0.0000 0.0000
# 3 36.2034 70.3239 92.0277 0.0000 0.0000 0.0000
# 4 0.0000 0.0000 0.0000 20.7216 0.0000 0.0000
# 5 0.0000 0.0000 0.0000 0.0000 20.0455 0.0000
# 6 0.0000 0.0000 0.0000 0.0000 0.0000 0.9910
#
#
#
# Elastic Compliance Matrix: (Units=1/GPa)
#
#
# Indices 1 2 3 4 5 6 
#
# 1 0.021529 -0.006640 -0.003395 0.000000 0.000000 0.000000
# 2 -0.006640 0.011091 -0.005863 0.000000 0.000000 0.000000
# 3 -0.003395 -0.005863 0.016683 0.000000 0.000000 0.000000
# 4 0.000000 0.000000 0.000000 0.048259 0.000000 0.000000
# 5 0.000000 0.000000 0.000000 0.000000 0.049887 0.000000
# 6 0.000000 0.000000 0.000000 0.000000 0.000000 1.009046
#
#
# Mechanical properties :
#
#
# Convention : Reuss Voigt Hill
#
# Bulk Modulus (GPa) = 57.12553 73.79399 65.45976
# Shear Modulus (GPa) = 4.18716 18.96866 11.57791
#
# Velocity S-wave (km/s) = 1.54803 3.29487 2.57416
# Velocity P-wave (km/s) = 5.99078 7.53053 6.80435
#
# Compressibility (1/GPa) = 0.01750531
#
# Stress axis : x y z
#
# Youngs Moduli (GPa) = 46.44900 90.15930 59.94243
#
# Poissons Ratio (x) = 0.59866 0.20353
# Poissons Ratio (y) = 0.30842 0.35147
# Poissons Ratio (z) = 0.15771 0.52865
#
# Static dielectric constant tensor:
#      x y z
#    x 3.141610 0.000000 0.000000 
#    y 0.000000 3.409360 0.000000 
#    z 0.000000 0.000000 3.214640 
# 
# 
# High freq. dielectric constant tensor:
#      x y z
#    x 1.664280 0.000000 0.000000 
#    y 0.000000 1.682270 0.000000 
#    z 0.000000 0.000000 1.660150 
# 
# From -- ./inp_files/15535.got.cif
#   From: 2010.03.12/outbox.cif.g09.slc.cpg/sg47_8_cif.got.tgz:15535.got - 2010.04.14 03:12:58.
