data_PCOD8195912
_publ_section_title
;
Structure prediction by ZEFSAII (Michael W. Deem and Ramdas Pophale) SiO2 
 PCOD8195912
Probable space group: P M M M
;
_chemical_formula_sum "Si O2"
_cell_formula_units_Z 64
_cell_length_a 8.722202
_cell_length_b 23.875667
_cell_length_c 15.520634
_cell_angle_alpha 90.000000
_cell_angle_beta 90.000000
_cell_angle_gamma 90.000000
_cell_volume 3232.147049
_symmetry_space_group_name_H-M "P M M M"
_symmetry_group_IT_number 47
_symmetry_cell_setting 'orthorhombic'
loop_
_space_group_symop_operation_xyz
x,y,z
-x,-y,z
x,-y,-z
-x,y,-z
-x,-y,-z
x,y,-z
-x,y,z
x,-y,z
loop_
_atom_site_type_symbol
_atom_site_label
_atom_site_fract_x
_atom_site_fract_y
_atom_site_fract_z
Si Si1 0.821466 0.758792 0.248219
Si Si2 0.682355 0.562754 0.095457
Si Si3 0.822126 0.063030 0.851555
Si Si4 0.682128 0.362531 0.249677
Si Si5 0.675795 0.827685 0.096604
Si Si6 0.323152 0.823208 0.596466
Si Si7 0.317657 0.437175 0.404349
Si Si8 0.673985 0.938430 0.672175
O O1 0.731713 0.701081 0.247689
O O2 0.779080 0.793940 0.163607
O O3 0.781748 0.791848 0.335058
O O4 0.000000 0.746240 0.246590
O O5 0.500000 0.563390 0.098150
O O6 0.740520 0.500000 0.116940
O O7 0.749353 0.605830 0.165606
O O8 0.739306 0.580761 0.000000
O O9 0.723410 0.107138 0.905656
O O10 0.789363 0.071307 0.750674
O O11 0.000000 0.074926 0.868438
O O12 0.777835 0.000000 0.880810
O O13 0.500000 0.365246 0.249774
O O14 0.748728 0.393410 0.334757
O O15 0.500000 0.822313 0.126134
O O16 0.697857 0.803413 0.000000
O O17 0.277062 0.804408 0.500000
O O18 0.500000 0.808054 0.615288
O O19 0.296559 0.890226 0.602081
O O20 0.260168 0.419745 0.500000
O O21 0.500000 0.436449 0.402014
O O22 0.260194 0.500000 0.382052
O O23 0.500000 0.934207 0.707908
O O24 0.701972 0.000000 0.630291
#
# Coordination Sequence:
#
# PCOD8195912 Si02
#       8
#     8   8   8   8   8   8   8   8
#     4  12  26  42  58  79 113 155 196 241 290 341
#     4   8  14  26  48  81 115 141 171 218 274 327
#     4  10  20  34  56  87 121 153 182 220 278 346
#     4  10  19  32  54  80 107 143 187 232 276 326
#     4  11  24  42  64  86 109 143 191 244 294 344
#     4  10  21  38  61  86 113 148 191 238 287 341
#     4   8  14  26  48  81 115 142 175 225 280 327
#     4   9  17  31  55  85 116 148 182 226 280 338
#
# _framework density 19.801079000000001
#
# number of rings (size 3 to 8) (size 9 to 14) (size 15 to 20)
#    0.000    2.250    1.250    3.000    0.000    5.000 
#    0.000    5.000    0.000    1.500    0.000    4.375 
#    0.000    0.000    0.000    0.000    0.000    0.000 
#
# Total GULP energy -793423.534857 kJ/mol
# GULP energy per Si atom -12397.242732 kJ/mol
# Density = 1.975601 g / cm^3
# Si number density = 19.801079 Si / 1000 Ang^3
#
#
#
# Elastic Constant Matrix: (Units=GPa)
#
#
# Indices 1 2 3 4 5 6 
#
# 1 23.5460 3.1357 15.1133 0.0000 0.0000 0.0000
# 2 3.1357 112.5633 57.7490 0.0000 0.0000 0.0000
# 3 15.1133 57.7490 123.0224 0.0000 0.0000 0.0000
# 4 0.0000 0.0000 0.0000 8.0957 0.0000 0.0000
# 5 0.0000 0.0000 0.0000 0.0000 6.3692 0.0000
# 6 0.0000 0.0000 0.0000 0.0000 0.0000 5.0380
#
#
#
# Elastic Compliance Matrix: (Units=1/GPa)
#
#
# Indices 1 2 3 4 5 6 
#
# 1 0.046499 0.002154 -0.006724 0.000000 0.000000 0.000000
# 2 0.002154 0.011802 -0.005805 0.000000 0.000000 0.000000
# 3 -0.006724 -0.005805 0.011679 0.000000 0.000000 0.000000
# 4 0.000000 0.000000 0.000000 0.123522 0.000000 0.000000
# 5 0.000000 0.000000 0.000000 0.000000 0.157006 0.000000
# 6 0.000000 0.000000 0.000000 0.000000 0.000000 0.198490
#
#
# Mechanical properties :
#
#
# Convention : Reuss Voigt Hill
#
# Bulk Modulus (GPa) = 20.31207 45.68085 32.99646
# Shear Modulus (GPa) = 8.53015 16.10951 12.31983
#
# Velocity S-wave (km/s) = 2.07780 2.85540 2.49706
# Velocity P-wave (km/s) = 4.00458 5.83019 5.00139
#
# Compressibility (1/GPa) = 0.04923182
#
# Stress axis : x y z
#
# Youngs Moduli (GPa) = 21.50597 84.73224 85.62086
#
# Poissons Ratio (x) = -0.18252 0.57567
# Poissons Ratio (y) = -0.04633 0.49700
# Poissons Ratio (z) = 0.14460 0.49184
#
# Static dielectric constant tensor:
#      x y z
#    x 3.249730 0.000000 0.000000 
#    y 0.000000 3.700000 0.000000 
#    z 0.000000 0.000000 3.743480 
# 
# 
# High freq. dielectric constant tensor:
#      x y z
#    x 1.734060 0.000000 0.000000 
#    y 0.000000 1.773790 0.000000 
#    z 0.000000 0.000000 1.774310 
# 
# From -- ./inp_files/21914.got.cif
#   From: 2010.03.12/outbox.cif.g09.slc.cpg/sg47_11_cif.got.tgz:21914.got - 2010.04.14 03:12:58.
