data_PCOD8195103
_publ_section_title
;
Structure prediction by ZEFSAII (Michael W. Deem and Ramdas Pophale) SiO2 
 PCOD8195103
Probable space group: P M M M
;
_chemical_formula_sum "Si O2"
_cell_formula_units_Z 64
_cell_length_a 8.863176
_cell_length_b 19.007410
_cell_length_c 23.594838
_cell_angle_alpha 90.000000
_cell_angle_beta 90.000000
_cell_angle_gamma 90.000000
_cell_volume 3974.928454
_symmetry_space_group_name_H-M "P M M M"
_symmetry_group_IT_number 47
_symmetry_cell_setting 'orthorhombic'
loop_
_space_group_symop_operation_xyz
x,y,z
-x,-y,z
x,-y,-z
-x,y,-z
-x,-y,-z
x,y,-z
-x,y,z
x,-y,z
loop_
_atom_site_type_symbol
_atom_site_label
_atom_site_fract_x
_atom_site_fract_y
_atom_site_fract_z
Si Si1 0.825431 0.919780 0.934741
Si Si2 0.827163 0.420574 0.625171
Si Si3 0.322191 0.837735 0.162757
Si Si4 0.323734 0.786323 0.329311
Si Si5 0.322384 0.076992 0.271011
Si Si6 0.822089 0.285921 0.776202
Si Si7 0.323327 0.579392 0.255726
Si Si8 0.674263 0.699997 0.436514
O O1 0.725827 0.866826 0.898055
O O2 0.000000 0.909822 0.919135
O O3 0.775539 0.000000 0.922700
O O4 0.796212 0.900772 0.000000
O O5 0.808670 0.500000 0.602412
O O6 0.723700 0.407417 0.679538
O O7 0.774087 0.368661 0.575621
O O8 0.000000 0.404945 0.641956
O O9 0.500000 0.827423 0.164787
O O10 0.265326 0.891966 0.211089
O O11 0.246780 0.762164 0.174115
O O12 0.500000 0.776025 0.314574
O O13 0.277936 0.868519 0.321195
O O14 0.230125 0.738962 0.285922
O O15 0.284942 0.763274 0.393293
O O16 0.500000 0.067793 0.268306
O O17 0.247621 0.000000 0.281661
O O18 0.764225 0.365982 0.784858
O O19 0.000000 0.283342 0.780683
O O20 0.500000 0.593315 0.250656
O O21 0.280620 0.500000 0.237014
O O22 0.710296 0.726679 0.500000
O O23 0.500000 0.678554 0.430105
#
# Coordination Sequence:
#
# PCOD8195103 Si02
#       8
#     8   8   8   8   8   8   8   8
#     4   9  18  32  48  68 100 140 175 207 244 283
#     4  10  20  32  46  65  87 112 144 184 227 270
#     4  10  19  30  46  69  97 128 165 204 237 275
#     4   9  17  30  46  63  86 114 147 186 230 281
#     4   8  14  25  43  66  88 112 144 186 233 274
#     4  11  20  30  47  69  94 122 153 192 238 282
#     4  10  19  31  48  68  92 122 152 183 224 278
#     4  10  20  32  46  62  83 115 152 188 227 276
#
# _framework density 16.100918
#
# number of rings (size 3 to 8) (size 9 to 14) (size 15 to 20)
#    0.000    2.375    1.250    3.750    0.000    3.000 
#    0.000    1.875    0.000    3.750    0.000    2.625 
#    0.000    0.500    0.000   10.875    0.000    8.500 
#
# Total GULP energy -793487.920512 kJ/mol
# GULP energy per Si atom -12398.248758 kJ/mol
# Density = 1.606427 g / cm^3
# Si number density = 16.100918 Si / 1000 Ang^3
#
#
#
# Elastic Constant Matrix: (Units=GPa)
#
#
# Indices 1 2 3 4 5 6 
#
# 1 73.3427 45.3630 34.1680 0.0000 0.0000 0.0000
# 2 45.3630 124.7540 54.1773 0.0000 0.0000 0.0000
# 3 34.1680 54.1773 79.2352 0.0000 0.0000 0.0000
# 4 0.0000 0.0000 0.0000 27.0056 0.0000 0.0000
# 5 0.0000 0.0000 0.0000 0.0000 18.2262 0.0000
# 6 0.0000 0.0000 0.0000 0.0000 0.0000 20.9260
#
#
#
# Elastic Compliance Matrix: (Units=1/GPa)
#
#
# Indices 1 2 3 4 5 6 
#
# 1 0.018836 -0.004725 -0.004892 0.000000 0.000000 0.000000
# 2 -0.004725 0.012586 -0.006569 0.000000 0.000000 0.000000
# 3 -0.004892 -0.006569 0.019221 0.000000 0.000000 0.000000
# 4 0.000000 0.000000 0.000000 0.037029 0.000000 0.000000
# 5 0.000000 0.000000 0.000000 0.000000 0.054866 0.000000
# 6 0.000000 0.000000 0.000000 0.000000 0.000000 0.047787
#
#
# Mechanical properties :
#
#
# Convention : Reuss Voigt Hill
#
# Bulk Modulus (GPa) = 54.72465 60.52762 57.62613
# Shear Modulus (GPa) = 21.85433 22.80649 22.33041
#
# Velocity S-wave (km/s) = 3.68820 3.76769 3.72815
# Velocity P-wave (km/s) = 7.22491 7.52340 7.37567
#
# Compressibility (1/GPa) = 0.01827330
#
# Stress axis : x y z
#
# Youngs Moduli (GPa) = 53.09018 79.45158 52.02524
#
# Poissons Ratio (x) = 0.37538 0.25451
# Poissons Ratio (y) = 0.25083 0.34173
# Poissons Ratio (z) = 0.25972 0.52188
#
# Static dielectric constant tensor:
#      x y z
#    x 2.960260 0.000000 0.000000 
#    y 0.000000 3.342640 0.000000 
#    z 0.000000 0.000000 2.814060 
# 
# 
# High freq. dielectric constant tensor:
#      x y z
#    x 1.616410 0.000000 0.000000 
#    y 0.000000 1.621190 0.000000 
#    z 0.000000 0.000000 1.581870 
# 
# From -- ./inp_files/32223.got.cif
#   From: 2010.03.12/outbox.cif.g09.slc.cpg/sg47_17_cif.got.tgz:32223.got - 2010.04.14 03:12:58.
