data_PCOD8195653
_publ_section_title
;
Structure prediction by ZEFSAII (Michael W. Deem and Ramdas Pophale) SiO2 
 PCOD8195653
Probable space group: P M M M
;
_chemical_formula_sum "Si O2"
_cell_formula_units_Z 52
_cell_length_a 12.388065
_cell_length_b 17.786154
_cell_length_c 14.051104
_cell_angle_alpha 90.000000
_cell_angle_beta 90.000000
_cell_angle_gamma 90.000000
_cell_volume 3095.964498
_symmetry_space_group_name_H-M "P M M M"
_symmetry_group_IT_number 47
_symmetry_cell_setting 'orthorhombic'
loop_
_space_group_symop_operation_xyz
x,y,z
-x,-y,z
x,-y,-z
-x,y,-z
-x,-y,-z
x,y,-z
-x,y,z
x,-y,z
loop_
_atom_site_type_symbol
_atom_site_label
_atom_site_fract_x
_atom_site_fract_y
_atom_site_fract_z
Si Si1 0.500000 0.585050 0.887153
Si Si2 0.500000 0.915181 0.886778
Si Si3 0.127402 0.786351 0.394125
Si Si4 0.872229 0.500000 0.605935
Si Si5 0.126699 0.914118 0.254247
Si Si6 0.127972 0.356593 0.724574
Si Si7 0.717768 0.335166 0.109346
Si Si8 0.283285 0.157744 0.109106
O O1 0.500000 0.500000 0.846735
O O2 0.606695 0.628592 0.851739
O O3 0.500000 0.584719 0.000000
O O4 0.393699 0.874723 0.846368
O O5 0.500000 0.000000 0.849740
O O6 0.500000 0.909572 0.000000
O O7 0.178741 0.782295 0.500000
O O8 0.159341 0.866126 0.347432
O O9 0.170276 0.718424 0.328482
O O10 0.000000 0.777908 0.402633
O O11 0.821698 0.500000 0.500000
O O12 0.833136 0.573844 0.660854
O O13 0.000000 0.500000 0.598322
O O14 0.182316 0.878301 0.162497
O O15 0.000000 0.908532 0.234439
O O16 0.163321 0.000000 0.271051
O O17 0.183292 0.364849 0.827400
O O18 0.000000 0.355663 0.741337
O O19 0.710841 0.246365 0.119957
O O20 0.739915 0.358775 0.000000
O O21 0.269778 0.133174 0.000000
#
# Coordination Sequence:
#
# PCOD8195653 Si02
#       8
#     4   4   8   4   8   8   8   8
#     4   9  19  35  53  73  98 131 172 209 240 286
#     4   9  17  29  47  69  91 120 163 212 254 286
#     4   9  17  31  50  70  96 131 169 209 251 294
#     4   9  18  32  51  76 103 130 163 206 249 291
#     4  10  20  32  46  70 103 135 170 208 250 304
#     4  10  19  32  51  78 107 133 164 200 245 301
#     4  10  20  33  51  74 102 136 170 203 240 289
#     4  10  19  32  49  70  99 132 167 206 246 290
#
# _framework density 16.796057999999999
#
# number of rings (size 3 to 8) (size 9 to 14) (size 15 to 20)
#    0.000    2.385    1.538    1.385    1.077    5.538 
#    0.000    3.846    0.000    1.385    0.000    4.308 
#    0.000    1.846    0.000    0.000    0.000    0.000 
#
# Total GULP energy -644760.756862 kJ/mol
# GULP energy per Si atom -12399.245324 kJ/mol
# Density = 1.675783 g / cm^3
# Si number density = 16.796058 Si / 1000 Ang^3
#
#
#
# Elastic Constant Matrix: (Units=GPa)
#
#
# Indices 1 2 3 4 5 6 
#
# 1 59.9621 35.9467 45.9610 0.0000 0.0000 0.0000
# 2 35.9467 120.4008 50.3396 0.0000 0.0000 0.0000
# 3 45.9610 50.3396 102.1335 0.0000 0.0000 0.0000
# 4 0.0000 0.0000 0.0000 24.5855 0.0000 0.0000
# 5 0.0000 0.0000 0.0000 0.0000 4.6391 0.0000
# 6 0.0000 0.0000 0.0000 0.0000 0.0000 24.6059
#
#
#
# Elastic Compliance Matrix: (Units=1/GPa)
#
#
# Indices 1 2 3 4 5 6 
#
# 1 0.026716 -0.003715 -0.010191 0.000000 0.000000 0.000000
# 2 -0.003715 0.010978 -0.003739 0.000000 0.000000 0.000000
# 3 -0.010191 -0.003739 0.016220 0.000000 0.000000 0.000000
# 4 0.000000 0.000000 0.000000 0.040674 0.000000 0.000000
# 5 0.000000 0.000000 0.000000 0.000000 0.215558 0.000000
# 6 0.000000 0.000000 0.000000 0.000000 0.000000 0.040641
#
#
# Mechanical properties :
#
#
# Convention : Reuss Voigt Hill
#
# Bulk Modulus (GPa) = 53.69646 60.77676 57.23661
# Shear Modulus (GPa) = 12.74579 20.78270 16.76425
#
# Velocity S-wave (km/s) = 2.75772 3.52142 3.16271
# Velocity P-wave (km/s) = 6.49455 7.26619 6.89118
#
# Compressibility (1/GPa) = 0.01862320
#
# Stress axis : x y z
#
# Youngs Moduli (GPa) = 37.43061 91.09044 61.65182
#
# Poissons Ratio (x) = 0.33843 0.62831
# Poissons Ratio (y) = 0.13907 0.23051
# Poissons Ratio (z) = 0.38146 0.34058
#
# Static dielectric constant tensor:
#      x y z
#    x 2.981720 0.000000 0.000000 
#    y 0.000000 3.375670 0.000000 
#    z 0.000000 0.000000 3.129890 
# 
# 
# High freq. dielectric constant tensor:
#      x y z
#    x 1.618830 0.000000 0.000000 
#    y 0.000000 1.665660 0.000000 
#    z 0.000000 0.000000 1.629350 
# 
# From -- ./inp_files/22931.got.cif
#   From: 2010.03.12/outbox.cif.g09.slc.cpg/sg47_12_cif.got.tgz:22931.got - 2010.04.14 03:12:58.
