data_PCOD8195693
_publ_section_title
;
Structure prediction by ZEFSAII (Michael W. Deem and Ramdas Pophale) SiO2 
 PCOD8195693
Probable space group: P M M M
;
_chemical_formula_sum "Si O2"
_cell_formula_units_Z 60
_cell_length_a 25.186660
_cell_length_b 13.710190
_cell_length_c 10.406307
_cell_angle_alpha 90.000000
_cell_angle_beta 90.000000
_cell_angle_gamma 90.000000
_cell_volume 3593.442393
_symmetry_space_group_name_H-M "P M M M"
_symmetry_group_IT_number 47
_symmetry_cell_setting 'orthorhombic'
loop_
_space_group_symop_operation_xyz
x,y,z
-x,-y,z
x,-y,-z
-x,y,-z
-x,-y,-z
x,y,-z
-x,y,z
x,-y,z
loop_
_atom_site_type_symbol
_atom_site_label
_atom_site_fract_x
_atom_site_fract_y
_atom_site_fract_z
Si Si1 0.728389 0.387289 0.851414
Si Si2 0.562888 0.391215 0.500000
Si Si3 0.389891 0.603465 0.145892
Si Si4 0.560674 0.243061 0.282572
Si Si5 0.859342 0.886263 0.644579
Si Si6 0.245942 0.236560 0.351622
Si Si7 0.059365 0.115786 0.856456
Si Si8 0.347306 0.890475 0.348776
O O1 0.745710 0.500000 0.840419
O O2 0.668379 0.371949 0.798876
O O3 0.762870 0.324437 0.749600
O O4 0.736387 0.351623 0.000000
O O5 0.588322 0.500000 0.500000
O O6 0.500000 0.399154 0.500000
O O7 0.581942 0.327401 0.379507
O O8 0.412046 0.500000 0.205963
O O9 0.430864 0.694834 0.152920
O O10 0.378646 0.581555 0.000000
O O11 0.500000 0.210088 0.304791
O O12 0.597660 0.148791 0.287609
O O13 0.881467 0.868947 0.500000
O O14 0.803624 0.834214 0.663304
O O15 0.901236 0.842406 0.747391
O O16 0.849234 0.000000 0.669791
O O17 0.251099 0.273492 0.500000
O O18 0.297621 0.175037 0.308774
O O19 0.000000 0.156251 0.830136
O O20 0.058270 0.000000 0.847495
O O21 0.078080 0.147811 0.000000
O O22 0.355247 0.891410 0.500000
O O23 0.338765 0.000000 0.296219
#
# Coordination Sequence:
#
# PCOD8195693 Si02
#       8
#     8   4   8   8   8   8   8   8
#     4   9  18  33  52  72  95 122 150 185 235 294
#     4   9  18  30  43  65  95 115 130 170 230 283
#     4   9  18  33  51  69  89 114 143 176 222 285
#     4  11  20  31  47  68  90 113 145 184 230 282
#     4   9  17  28  43  66  97 132 168 204 240 278
#     4  10  19  32  50  72  96 123 160 201 240 279
#     4   8  14  25  41  63  94 131 169 207 243 278
#     4  10  20  34  50  66  88 119 155 194 234 278
#
# _framework density 16.697082000000002
#
# number of rings (size 3 to 8) (size 9 to 14) (size 15 to 20)
#    0.000    2.600    2.000    2.000    0.000    4.000 
#    0.000    2.667    0.000    2.400    0.000    0.933 
#    0.000    0.533    0.000    5.867    0.000    4.533 
#
# Total GULP energy -743367.014183 kJ/mol
# GULP energy per Si atom -12389.450236 kJ/mol
# Density = 1.665908 g / cm^3
# Si number density = 16.697082 Si / 1000 Ang^3
#
#
#
# Elastic Constant Matrix: (Units=GPa)
#
#
# Indices 1 2 3 4 5 6 
#
# 1 79.5929 26.5077 44.3731 0.0000 0.0000 0.0000
# 2 26.5077 72.4816 39.0163 0.0000 0.0000 0.0000
# 3 44.3731 39.0163 80.9113 0.0000 0.0000 0.0000
# 4 0.0000 0.0000 0.0000 19.6512 0.0000 0.0000
# 5 0.0000 0.0000 0.0000 0.0000 24.4237 0.0000
# 6 0.0000 0.0000 0.0000 0.0000 0.0000 10.1880
#
#
#
# Elastic Compliance Matrix: (Units=1/GPa)
#
#
# Indices 1 2 3 4 5 6 
#
# 1 0.018258 -0.001739 -0.009175 0.000000 0.000000 0.000000
# 2 -0.001739 0.018799 -0.008112 0.000000 0.000000 0.000000
# 3 -0.009175 -0.008112 0.021302 0.000000 0.000000 0.000000
# 4 0.000000 0.000000 0.000000 0.050888 0.000000 0.000000
# 5 0.000000 0.000000 0.000000 0.000000 0.040944 0.000000
# 6 0.000000 0.000000 0.000000 0.000000 0.000000 0.098154
#
#
# Mechanical properties :
#
#
# Convention : Reuss Voigt Hill
#
# Bulk Modulus (GPa) = 49.23809 50.30890 49.77349
# Shear Modulus (GPa) = 17.05534 19.05850 18.05692
#
# Velocity S-wave (km/s) = 3.19949 3.38217 3.29210
# Velocity P-wave (km/s) = 6.57283 6.74150 6.65770
#
# Compressibility (1/GPa) = 0.02030948
#
# Stress axis : x y z
#
# Youngs Moduli (GPa) = 54.77124 53.19488 46.94367
#
# Poissons Ratio (x) = 0.09248 0.43068
# Poissons Ratio (y) = 0.09522 0.38078
# Poissons Ratio (z) = 0.50250 0.43149
#
# Static dielectric constant tensor:
#      x y z
#    x 2.999760 0.000000 0.000000 
#    y 0.000000 3.040800 0.000000 
#    z 0.000000 0.000000 3.308200 
# 
# 
# High freq. dielectric constant tensor:
#      x y z
#    x 1.619820 0.000000 0.000000 
#    y 0.000000 1.619230 0.000000 
#    z 0.000000 0.000000 1.642730 
# 
# From -- ./inp_files/19219.got.cif
#   From: 2010.03.12/outbox.cif.g09.slc.cpg/sg47_10_cif.got.tgz:19219.got - 2010.04.14 03:12:58.
