data_PCOD8195522
_publ_section_title
;
Structure prediction by ZEFSAII (Michael W. Deem and Ramdas Pophale) SiO2 
 PCOD8195522
Probable space group: P M M M
;
_chemical_formula_sum "Si O2"
_cell_formula_units_Z 64
_cell_length_a 14.520029
_cell_length_b 9.107420
_cell_length_c 27.885298
_cell_angle_alpha 90.000000
_cell_angle_beta 90.000000
_cell_angle_gamma 90.000000
_cell_volume 3687.551878
_symmetry_space_group_name_H-M "P M M M"
_symmetry_group_IT_number 47
_symmetry_cell_setting 'orthorhombic'
loop_
_space_group_symop_operation_xyz
x,y,z
-x,-y,z
x,-y,-z
-x,y,-z
-x,-y,-z
x,y,-z
-x,y,z
x,-y,z
loop_
_atom_site_type_symbol
_atom_site_label
_atom_site_fract_x
_atom_site_fract_y
_atom_site_fract_z
Si Si1 0.350800 0.840190 0.762779
Si Si2 0.793189 0.325705 0.363075
Si Si3 0.400563 0.330047 0.325101
Si Si4 0.602872 0.825614 0.053460
Si Si5 0.853826 0.836924 0.273471
Si Si6 0.272602 0.824994 0.139345
Si Si7 0.894407 0.168998 0.444550
Si Si8 0.102193 0.331396 0.180504
O O1 0.408348 0.735004 0.728509
O O2 0.250663 0.855642 0.740812
O O3 0.340357 0.778761 0.816896
O O4 0.398989 0.000000 0.763947
O O5 0.802558 0.500000 0.359421
O O6 0.686351 0.272247 0.356029
O O7 0.859629 0.251814 0.323429
O O8 0.825743 0.272095 0.414924
O O9 0.500000 0.297080 0.350585
O O10 0.385472 0.500000 0.316982
O O11 0.500000 0.767008 0.065836
O O12 0.678367 0.766304 0.091074
O O13 0.601353 0.000000 0.056013
O O14 0.631240 0.773269 0.000000
O O15 0.904798 0.745864 0.232280
O O16 0.898278 0.000000 0.279450
O O17 0.173422 0.748017 0.144649
O O18 0.256450 0.000000 0.139708
O O19 0.871220 0.195392 0.500000
O O20 0.000000 0.212390 0.433949
O O21 0.877269 0.000000 0.430546
O O22 0.133176 0.500000 0.187710
O O23 0.000000 0.322419 0.157395
#
# Coordination Sequence:
#
# PCOD8195522 Si02
#       8
#     8   8   8   8   8   8   8   8
#     4   8  15  26  40  62  89 116 150 190 227 263
#     4  10  19  31  50  74  99 127 159 196 235 276
#     4   9  18  31  45  64  94 130 162 189 221 266
#     4   8  14  26  46  72  98 121 149 191 242 290
#     4   9  17  30  47  66  91 123 157 192 229 270
#     4   9  17  29  47  70  94 122 156 193 234 282
#     4   9  19  36  55  73  94 121 153 192 241 292
#     4  10  20  32  46  66  94 127 161 196 233 274
#
# _framework density 17.355688000000001
#
# number of rings (size 3 to 8) (size 9 to 14) (size 15 to 20)
#    0.000    3.000    0.000    2.625    0.000    6.250 
#    0.000    1.875    0.000    1.500    0.000    6.125 
#    0.000    0.000    0.000    0.000    0.000    0.000 
#
# Total GULP energy -793062.536241 kJ/mol
# GULP energy per Si atom -12391.602129 kJ/mol
# Density = 1.731619 g / cm^3
# Si number density = 17.355688 Si / 1000 Ang^3
#
#
#
# Elastic Constant Matrix: (Units=GPa)
#
#
# Indices 1 2 3 4 5 6 
#
# 1 97.8534 39.0909 56.6534 0.0000 0.0000 0.0000
# 2 39.0909 66.1666 37.9618 0.0000 0.0000 0.0000
# 3 56.6534 37.9618 105.7174 0.0000 0.0000 0.0000
# 4 0.0000 0.0000 0.0000 12.6161 0.0000 0.0000
# 5 0.0000 0.0000 0.0000 0.0000 22.7262 0.0000
# 6 0.0000 0.0000 0.0000 0.0000 0.0000 16.5580
#
#
#
# Elastic Compliance Matrix: (Units=1/GPa)
#
#
# Indices 1 2 3 4 5 6 
#
# 1 0.016447 -0.005869 -0.006706 0.000000 0.000000 0.000000
# 2 -0.005869 0.021129 -0.004442 0.000000 0.000000 0.000000
# 3 -0.006706 -0.004442 0.014648 0.000000 0.000000 0.000000
# 4 0.000000 0.000000 0.000000 0.079264 0.000000 0.000000
# 5 0.000000 0.000000 0.000000 0.000000 0.044002 0.000000
# 6 0.000000 0.000000 0.000000 0.000000 0.000000 0.060394
#
#
# Mechanical properties :
#
#
# Convention : Reuss Voigt Hill
#
# Bulk Modulus (GPa) = 54.97696 59.68327 57.33012
# Shear Modulus (GPa) = 18.11717 19.44881 18.78299
#
# Velocity S-wave (km/s) = 3.23441 3.35117 3.29331
# Velocity P-wave (km/s) = 6.75973 7.03113 6.89676
#
# Compressibility (1/GPa) = 0.01818944
#
# Stress axis : x y z
#
# Youngs Moduli (GPa) = 60.80303 47.32761 68.26842
#
# Poissons Ratio (x) = 0.27777 0.45782
# Poissons Ratio (y) = 0.35685 0.30325
# Poissons Ratio (z) = 0.40775 0.21023
#
# Static dielectric constant tensor:
#      x y z
#    x 3.277980 0.000000 0.000000 
#    y 0.000000 3.221520 0.000000 
#    z 0.000000 0.000000 3.244730 
# 
# 
# High freq. dielectric constant tensor:
#      x y z
#    x 1.665210 0.000000 0.000000 
#    y 0.000000 1.659840 0.000000 
#    z 0.000000 0.000000 1.647910 
# 
# From -- ./inp_files/34707.got.cif
#   From: 2010.03.12/outbox.cif.g09.slc.cpg/sg47_18_cif.got.tgz:34707.got - 2010.04.14 03:12:58.
