data_PCOD8195437
_publ_section_title
;
Structure prediction by ZEFSAII (Michael W. Deem and Ramdas Pophale) SiO2 
 PCOD8195437
Probable space group: P M M M
;
_chemical_formula_sum "Si O2"
_cell_formula_units_Z 40
_cell_length_a 12.826813
_cell_length_b 18.340481
_cell_length_c 9.321749
_cell_angle_alpha 90.000000
_cell_angle_beta 90.000000
_cell_angle_gamma 90.000000
_cell_volume 2192.940708
_symmetry_space_group_name_H-M "P M M M"
_symmetry_group_IT_number 47
_symmetry_cell_setting 'orthorhombic'
loop_
_space_group_symop_operation_xyz
x,y,z
-x,-y,z
x,-y,-z
-x,y,-z
-x,-y,-z
x,y,-z
-x,y,z
x,-y,z
loop_
_atom_site_type_symbol
_atom_site_label
_atom_site_fract_x
_atom_site_fract_y
_atom_site_fract_z
Si Si1 0.801173 0.583582 0.665744
Si Si2 0.000000 0.323634 0.330070
Si Si3 0.799328 0.918247 0.170685
Si Si4 0.614838 0.180317 0.829281
Si Si5 0.000000 0.828626 0.169918
Si Si6 0.619451 0.344644 0.167858
O O1 0.778137 0.598702 0.500000
O O2 0.831891 0.500000 0.692987
O O3 0.897805 0.632180 0.719628
O O4 0.696055 0.601228 0.750840
O O5 0.000000 0.311178 0.500000
O O6 0.000000 0.247585 0.249381
O O7 0.698478 0.876450 0.233798
O O8 0.900760 0.874792 0.220976
O O9 0.801851 0.000000 0.234152
O O10 0.794865 0.921403 0.000000
O O11 0.500000 0.157677 0.773185
O O12 0.642042 0.262161 0.778883
O O13 0.615868 0.178895 0.000000
O O14 0.000000 0.814596 0.000000
O O15 0.500000 0.366110 0.202540
O O16 0.641595 0.351864 0.000000
#
# Coordination Sequence:
#
# PCOD8195437 Si02
#       6
#     8   4   8   8   4   8
#     4  10  21  36  53  73  98 127 160 202 250 296
#     4  10  21  37  55  73  95 126 164 204 248 296
#     4   9  16  25  40  65  95 124 155 193 236 280
#     4   8  14  25  41  62  90 124 159 193 230 274
#     4  10  19  31  49  71  95 124 158 196 238 286
#     4   9  18  33  52  74 102 134 165 199 241 288
#
# _framework density 18.240348000000001
#
# number of rings (size 3 to 8) (size 9 to 14) (size 15 to 20)
#    0.000    2.800    0.000    3.000    0.000    6.400 
#    0.000    4.000    0.000    3.000    0.000    0.000 
#    0.000    0.000    0.000   17.200    0.000   14.000 
#
# Total GULP energy -495939.388637 kJ/mol
# GULP energy per Si atom -12398.484716 kJ/mol
# Density = 1.819883 g / cm^3
# Si number density = 18.240348 Si / 1000 Ang^3
#
#
#
# Elastic Constant Matrix: (Units=GPa)
#
#
# Indices 1 2 3 4 5 6 
#
# 1 136.6384 64.6355 30.3324 0.0000 0.0000 0.0000
# 2 64.6355 110.1437 27.1488 0.0000 0.0000 0.0000
# 3 30.3324 27.1488 25.0306 0.0000 0.0000 0.0000
# 4 0.0000 0.0000 0.0000 16.7314 0.0000 0.0000
# 5 0.0000 0.0000 0.0000 0.0000 18.6588 0.0000
# 6 0.0000 0.0000 0.0000 0.0000 0.0000 67.4114
#
#
#
# Elastic Compliance Matrix: (Units=1/GPa)
#
#
# Indices 1 2 3 4 5 6 
#
# 1 0.011442 -0.004500 -0.008985 0.000000 0.000000 0.000000
# 2 -0.004500 0.014162 -0.009907 0.000000 0.000000 0.000000
# 3 -0.008985 -0.009907 0.061584 0.000000 0.000000 0.000000
# 4 0.000000 0.000000 0.000000 0.059768 0.000000 0.000000
# 5 0.000000 0.000000 0.000000 0.000000 0.053594 0.000000
# 6 0.000000 0.000000 0.000000 0.000000 0.000000 0.014834
#
#
# Mechanical properties :
#
#
# Convention : Reuss Voigt Hill
#
# Bulk Modulus (GPa) = 24.74966 57.33844 41.04405
# Shear Modulus (GPa) = 18.13993 30.54006 24.33999
#
# Velocity S-wave (km/s) = 3.15698 4.09628 3.65691
# Velocity P-wave (km/s) = 5.18525 7.34002 6.35463
#
# Compressibility (1/GPa) = 0.04040459
#
# Stress axis : x y z
#
# Youngs Moduli (GPa) = 87.40011 70.61357 16.23786
#
# Poissons Ratio (x) = 0.31774 0.14589
# Poissons Ratio (y) = 0.39327 0.16087
# Poissons Ratio (z) = 0.78526 0.69958
#
# Static dielectric constant tensor:
#      x y z
#    x 3.626450 0.000000 0.000000 
#    y 0.000000 3.476460 0.000000 
#    z 0.000000 0.000000 2.838360 
# 
# 
# High freq. dielectric constant tensor:
#      x y z
#    x 1.724320 0.000000 0.000000 
#    y 0.000000 1.714660 0.000000 
#    z 0.000000 0.000000 1.650820 
# 
# From -- ./inp_files/4124.got.cif
#   From: 2010.03.12/outbox.cif.g09.slc.cpg/sg47_3_cif.got.tgz:4124.got - 2010.04.14 03:12:58.
