data_PCOD8195607
_publ_section_title
;
Structure prediction by ZEFSAII (Michael W. Deem and Ramdas Pophale) SiO2 
 PCOD8195607
Probable space group: P M M M
;
_chemical_formula_sum "Si O2"
_cell_formula_units_Z 56
_cell_length_a 8.695536
_cell_length_b 17.516146
_cell_length_c 19.220062
_cell_angle_alpha 90.000000
_cell_angle_beta 90.000000
_cell_angle_gamma 90.000000
_cell_volume 2927.451429
_symmetry_space_group_name_H-M "P M M M"
_symmetry_group_IT_number 47
_symmetry_cell_setting 'orthorhombic'
loop_
_space_group_symop_operation_xyz
x,y,z
-x,-y,z
x,-y,-z
-x,y,-z
-x,-y,-z
x,y,-z
-x,y,z
x,-y,z
loop_
_atom_site_type_symbol
_atom_site_label
_atom_site_fract_x
_atom_site_fract_y
_atom_site_fract_z
Si Si1 0.183799 0.500000 0.920704
Si Si2 0.181795 0.630977 0.819299
Si Si3 0.680470 0.709407 0.423510
Si Si4 0.816462 0.803718 0.804629
Si Si5 0.683202 0.145384 0.659712
Si Si6 0.817496 0.000000 0.581191
Si Si7 0.826546 0.413291 0.667941
Si Si8 0.182692 0.084772 0.077066
O O1 0.245851 0.576769 0.881522
O O2 0.000000 0.500000 0.919491
O O3 0.245848 0.500000 0.000000
O O4 0.245042 0.717868 0.819843
O O5 0.233783 0.593507 0.746726
O O6 0.000000 0.632772 0.826210
O O7 0.756328 0.707085 0.500000
O O8 0.500000 0.716933 0.430078
O O9 0.745823 0.781988 0.382749
O O10 0.718251 0.632397 0.383406
O O11 0.743708 0.843440 0.737487
O O12 0.754206 0.853462 0.868951
O O13 0.000000 0.804793 0.796688
O O14 0.500000 0.138631 0.660558
O O15 0.752580 0.072482 0.621745
O O16 0.763881 0.000000 0.500000
O O17 0.000000 0.000000 0.585977
O O18 0.819633 0.500000 0.643380
O O19 0.000000 0.380811 0.663200
O O20 0.000000 0.085991 0.077342
O O21 0.240586 0.000000 0.098013
O O22 0.243456 0.105966 0.000000
#
# Coordination Sequence:
#
# PCOD8195607 Si02
#       8
#     4   8   8   8   8   4   8   8
#     4   9  16  26  44  74 112 151 186 226 283 341
#     4   9  16  28  45  70 105 141 177 223 273 320
#     4  10  22  39  57  78 107 142 180 224 273 326
#     4  10  19  31  53  81 108 141 186 235 278 326
#     4  11  23  39  59  84 115 149 186 228 280 337
#     4  11  25  43  63  87 114 147 188 231 279 338
#     4  10  19  33  54  77 107 143 180 222 274 329
#     4   8  15  28  46  72 106 139 171 215 272 324
#
# _framework density 19.129266999999999
#
# number of rings (size 3 to 8) (size 9 to 14) (size 15 to 20)
#    0.000    2.286    2.143    1.500    1.000    3.143 
#    0.000    4.286    0.000    0.429    0.000    1.000 
#    0.000    2.857    0.000    0.000    0.000    0.000 
#
# Total GULP energy -694197.379232 kJ/mol
# GULP energy per Si atom -12396.381772 kJ/mol
# Density = 1.908573 g / cm^3
# Si number density = 19.129267 Si / 1000 Ang^3
#
#
#
# Elastic Constant Matrix: (Units=GPa)
#
#
# Indices 1 2 3 4 5 6 
#
# 1 26.2184 22.7721 22.1512 0.0000 0.0000 0.0000
# 2 22.7721 150.5194 86.2658 0.0000 0.0000 0.0000
# 3 22.1512 86.2658 157.8095 0.0000 0.0000 0.0000
# 4 0.0000 0.0000 0.0000 -7.2640 0.0000 0.0000
# 5 0.0000 0.0000 0.0000 0.0000 12.3868 0.0000
# 6 0.0000 0.0000 0.0000 0.0000 0.0000 18.9282
#
#
#
# Elastic Compliance Matrix: (Units=1/GPa)
#
#
# Indices 1 2 3 4 5 6 
#
# 1 0.045436 -0.004687 -0.003815 0.000000 0.000000 0.000000
# 2 -0.004687 0.010158 -0.004895 0.000000 0.000000 0.000000
# 3 -0.003815 -0.004895 0.009548 0.000000 0.000000 0.000000
# 4 0.000000 0.000000 0.000000 -0.137664 0.000000 0.000000
# 5 0.000000 0.000000 0.000000 0.000000 0.080731 0.000000
# 6 0.000000 0.000000 0.000000 0.000000 0.000000 0.052831
#
#
# Mechanical properties :
#
#
# Convention : Reuss Voigt Hill
#
# Bulk Modulus (GPa) = 26.07776 66.32506 46.20141
# Shear Modulus (GPa) = 49.69294 18.36740 34.03017
#
# Velocity S-wave (km/s) = 5.10234 3.10203 4.22235
# Velocity P-wave (km/s) = 6.95513 6.89764 6.92644
#
# Compressibility (1/GPa) = 0.03834685
#
# Stress axis : x y z
#
# Youngs Moduli (GPa) = 22.00902 98.44228 104.73243
#
# Poissons Ratio (x) = 0.46143 0.39960
# Poissons Ratio (y) = 0.10316 0.51267
# Poissons Ratio (z) = 0.08397 0.48188
#
# Static dielectric constant tensor:
#      x y z
#    x 3.051220 0.000000 0.000000 
#    y 0.000000 3.751760 0.000000 
#    z 0.000000 0.000000 3.796810 
# 
# 
# High freq. dielectric constant tensor:
#      x y z
#    x 1.696470 0.000000 0.000000 
#    y 0.000000 1.758370 0.000000 
#    z 0.000000 0.000000 1.754740 
# 
# From -- ./inp_files/29751.got.cif
#   From: 2010.03.12/outbox.cif.g09.slc.cpg/sg47_15_cif.got.tgz:29751.got - 2010.04.14 03:12:58.
