data_PCOD8195093
_publ_section_title
;
Structure prediction by ZEFSAII (Michael W. Deem and Ramdas Pophale) SiO2 
 PCOD8195093
Probable space group: P M M M
;
_chemical_formula_sum "Si O2"
_cell_formula_units_Z 64
_cell_length_a 20.384260
_cell_length_b 9.044900
_cell_length_c 19.888018
_cell_angle_alpha 90.000000
_cell_angle_beta 90.000000
_cell_angle_gamma 90.000000
_cell_volume 3666.825342
_symmetry_space_group_name_H-M "P M M M"
_symmetry_group_IT_number 47
_symmetry_cell_setting 'orthorhombic'
loop_
_space_group_symop_operation_xyz
x,y,z
-x,-y,z
x,-y,-z
-x,y,-z
-x,-y,-z
x,y,-z
-x,y,z
x,-y,z
loop_
_atom_site_type_symbol
_atom_site_label
_atom_site_fract_x
_atom_site_fract_y
_atom_site_fract_z
Si Si1 0.424076 0.669228 0.422601
Si Si2 0.279927 0.671320 0.205714
Si Si3 0.125187 0.667038 0.214993
Si Si4 0.139817 0.332435 0.928398
Si Si5 0.806114 0.176110 0.424557
Si Si6 0.726475 0.828034 0.926084
Si Si7 0.317359 0.174832 0.661622
Si Si8 0.927366 0.174700 0.340012
O O1 0.409898 0.708476 0.500000
O O2 0.500000 0.694450 0.405619
O O3 0.404041 0.500000 0.407879
O O4 0.383146 0.779516 0.376496
O O5 0.297596 0.500000 0.208980
O O6 0.202584 0.701829 0.213831
O O7 0.306679 0.735459 0.134479
O O8 0.318054 0.753204 0.265136
O O9 0.111914 0.500000 0.239012
O O10 0.096647 0.694636 0.138965
O O11 0.087571 0.775071 0.264468
O O12 0.169414 0.500000 0.921664
O O13 0.197528 0.214485 0.930158
O O14 0.100340 0.319215 0.000000
O O15 0.800411 0.240026 0.500000
O O16 0.745119 0.233986 0.380785
O O17 0.873414 0.238439 0.391755
O O18 0.806826 0.000000 0.426210
O O19 0.720591 0.000000 0.908372
O O20 0.694338 0.794871 0.000000
O O21 0.314865 0.000000 0.669480
O O22 0.000000 0.229363 0.361708
O O23 0.924118 0.000000 0.340070
#
# Coordination Sequence:
#
# PCOD8195093 Si02
#       8
#     8   8   8   8   8   8   8   8
#     4   9  19  36  55  75 104 142 177 207 243 292
#     4  10  19  30  46  68  96 131 168 203 245 298
#     4   9  17  29  46  66  89 118 152 195 243 291
#     4   8  14  25  41  62  87 116 151 189 233 288
#     4   9  18  32  49  71  96 120 151 196 250 300
#     4   9  16  25  39  63  95 128 161 199 245 292
#     4  11  20  31  51  77 105 133 163 208 255 294
#     4  10  20  33  49  67  88 119 158 200 247 301
#
# _framework density 17.453789
#
# number of rings (size 3 to 8) (size 9 to 14) (size 15 to 20)
#    0.000    2.625    1.250    2.625    0.000    4.250 
#    0.000    1.875    0.000    1.500    0.000    3.500 
#    0.000    0.500    0.000    5.250    0.000    2.375 
#
# Total GULP energy -793136.491177 kJ/mol
# GULP energy per Si atom -12392.757675 kJ/mol
# Density = 1.741406 g / cm^3
# Si number density = 17.453789 Si / 1000 Ang^3
#
#
#
# Elastic Constant Matrix: (Units=GPa)
#
#
# Indices 1 2 3 4 5 6 
#
# 1 60.0658 27.0524 43.3960 0.0000 0.0000 0.0000
# 2 27.0524 58.9619 44.9792 0.0000 0.0000 0.0000
# 3 43.3960 44.9792 146.4263 0.0000 0.0000 0.0000
# 4 0.0000 0.0000 0.0000 27.9028 0.0000 0.0000
# 5 0.0000 0.0000 0.0000 0.0000 15.9065 0.0000
# 6 0.0000 0.0000 0.0000 0.0000 0.0000 18.2266
#
#
#
# Elastic Compliance Matrix: (Units=1/GPa)
#
#
# Indices 1 2 3 4 5 6 
#
# 1 0.023238 -0.007063 -0.004717 0.000000 0.000000 0.000000
# 2 -0.007063 0.024298 -0.005370 0.000000 0.000000 0.000000
# 3 -0.004717 -0.005370 0.009877 0.000000 0.000000 0.000000
# 4 0.000000 0.000000 0.000000 0.035839 0.000000 0.000000
# 5 0.000000 0.000000 0.000000 0.000000 0.062867 0.000000
# 6 0.000000 0.000000 0.000000 0.000000 0.000000 0.054865
#
#
# Mechanical properties :
#
#
# Convention : Reuss Voigt Hill
#
# Bulk Modulus (GPa) = 43.27003 55.14548 49.20775
# Shear Modulus (GPa) = 19.76375 22.40893 21.08634
#
# Velocity S-wave (km/s) = 3.36869 3.58704 3.47958
# Velocity P-wave (km/s) = 6.32264 6.98710 6.66316
#
# Compressibility (1/GPa) = 0.02311068
#
# Stress axis : x y z
#
# Youngs Moduli (GPa) = 43.03382 41.15630 101.24427
#
# Poissons Ratio (x) = 0.29069 0.47759
# Poissons Ratio (y) = 0.30395 0.54373
# Poissons Ratio (z) = 0.20300 0.22103
#
# Static dielectric constant tensor:
#      x y z
#    x 2.889440 0.000000 0.000000 
#    y 0.000000 3.112700 0.000000 
#    z 0.000000 0.000000 3.682770 
# 
# 
# High freq. dielectric constant tensor:
#      x y z
#    x 1.618520 0.000000 0.000000 
#    y 0.000000 1.666080 0.000000 
#    z 0.000000 0.000000 1.694500 
# 
# From -- ./inp_files/11814.got.cif
#   From: 2010.03.12/outbox.cif.g09.slc.cpg/sg47_6_cif.got.tgz:11814.got - 2010.04.14 03:12:58.
