data_PCOD8195557
_publ_section_title
;
Structure prediction by ZEFSAII (Michael W. Deem and Ramdas Pophale) SiO2 
 PCOD8195557
Probable space group: P M M M
;
_chemical_formula_sum "Si O2"
_cell_formula_units_Z 40
_cell_length_a 16.698120
_cell_length_b 9.016939
_cell_length_c 13.352701
_cell_angle_alpha 90.000000
_cell_angle_beta 90.000000
_cell_angle_gamma 90.000000
_cell_volume 2010.461837
_symmetry_space_group_name_H-M "P M M M"
_symmetry_group_IT_number 47
_symmetry_cell_setting 'orthorhombic'
loop_
_space_group_symop_operation_xyz
x,y,z
-x,-y,z
x,-y,-z
-x,y,-z
-x,-y,-z
x,y,-z
-x,y,z
x,-y,z
loop_
_atom_site_type_symbol
_atom_site_label
_atom_site_fract_x
_atom_site_fract_y
_atom_site_fract_z
Si Si1 0.905306 0.665019 0.890672
Si Si2 0.092818 0.827405 0.304204
Si Si3 0.500000 0.338286 0.613699
Si Si4 0.236510 0.673628 0.613177
Si Si5 0.371668 0.824260 0.725985
Si Si6 0.500000 0.175624 0.887530
O O1 0.873881 0.500000 0.862045
O O2 0.878538 0.783574 0.807915
O O3 0.000000 0.661181 0.897368
O O4 0.870659 0.712036 0.000000
O O5 0.145639 0.734254 0.382248
O O6 0.000000 0.786424 0.322414
O O7 0.108608 0.000000 0.320284
O O8 0.500000 0.500000 0.670451
O O9 0.500000 0.378791 0.500000
O O10 0.577031 0.239350 0.635182
O O11 0.268367 0.706854 0.500000
O O12 0.238414 0.500000 0.634755
O O13 0.284923 0.753305 0.704333
O O14 0.418687 0.774597 0.828317
O O15 0.364284 0.000000 0.720799
O O16 0.500000 0.000000 0.893672
O O17 0.500000 0.244202 0.000000
#
# Coordination Sequence:
#
# PCOD8195557 Si02
#       6
#     8   8   4   8   8   4
#     4   8  14  27  49  75 102 133 169 212 265 325
#     4  10  21  36  55  80 109 143 187 242 300 353
#     4  10  19  31  50  77 110 145 177 212 260 320
#     4  11  24  40  57  77 106 147 191 237 291 349
#     4  10  20  34  56  84 111 143 182 225 273 322
#     4   8  16  34  60  89 120 151 181 214 258 318
#
# _framework density 19.895924000000001
#
# number of rings (size 3 to 8) (size 9 to 14) (size 15 to 20)
#    0.000    2.400    0.000    3.900    0.000    6.800 
#    0.000    5.000    0.000   14.400    0.000    0.000 
#    0.000    0.000    0.000    0.000    0.000    0.000 
#
# Total GULP energy -495553.470467 kJ/mol
# GULP energy per Si atom -12388.836762 kJ/mol
# Density = 1.985064 g / cm^3
# Si number density = 19.895924 Si / 1000 Ang^3
#
#
#
# Elastic Constant Matrix: (Units=GPa)
#
#
# Indices 1 2 3 4 5 6 
#
# 1 90.7914 45.3653 45.8903 0.0000 0.0000 0.0000
# 2 45.3653 99.2957 45.9405 0.0000 0.0000 0.0000
# 3 45.8903 45.9405 110.0930 0.0000 0.0000 0.0000
# 4 0.0000 0.0000 0.0000 27.7481 0.0000 0.0000
# 5 0.0000 0.0000 0.0000 0.0000 13.0879 0.0000
# 6 0.0000 0.0000 0.0000 0.0000 0.0000 16.9197
#
#
#
# Elastic Compliance Matrix: (Units=1/GPa)
#
#
# Indices 1 2 3 4 5 6 
#
# 1 0.015852 -0.005186 -0.004443 0.000000 0.000000 0.000000
# 2 -0.005186 0.014177 -0.003754 0.000000 0.000000 0.000000
# 3 -0.004443 -0.003754 0.012502 0.000000 0.000000 0.000000
# 4 0.000000 0.000000 0.000000 0.036038 0.000000 0.000000
# 5 0.000000 0.000000 0.000000 0.000000 0.076406 0.000000
# 6 0.000000 0.000000 0.000000 0.000000 0.000000 0.059103
#
#
# Mechanical properties :
#
#
# Convention : Reuss Voigt Hill
#
# Bulk Modulus (GPa) = 63.43889 63.84135 63.64012
# Shear Modulus (GPa) = 20.31693 22.41675 21.36684
#
# Velocity S-wave (km/s) = 3.19903 3.36028 3.28064
# Velocity P-wave (km/s) = 6.75275 6.87114 6.81220
#
# Compressibility (1/GPa) = 0.01576320
#
# Stress axis : x y z
#
# Youngs Moduli (GPa) = 63.08538 70.53494 79.98795
#
# Poissons Ratio (x) = 0.36582 0.35540
# Poissons Ratio (y) = 0.32719 0.30029
# Poissons Ratio (z) = 0.28030 0.26480
#
# Static dielectric constant tensor:
#      x y z
#    x 3.454790 0.000000 0.000000 
#    y 0.000000 3.540280 0.000000 
#    z 0.000000 0.000000 3.866840 
# 
# 
# High freq. dielectric constant tensor:
#      x y z
#    x 1.758540 0.000000 0.000000 
#    y 0.000000 1.773920 0.000000 
#    z 0.000000 0.000000 1.768060 
# 
# From -- ./inp_files/23388.got.cif
#   From: 2010.03.12/outbox.cif.g09.slc.cpg/sg47_12_cif.got.tgz:23388.got - 2010.04.14 03:12:58.
