data_PCOD8195837
_publ_section_title
;
Structure prediction by ZEFSAII (Michael W. Deem and Ramdas Pophale) SiO2 
 PCOD8195837
Probable space group: P M M M
;
_chemical_formula_sum "Si O2"
_cell_formula_units_Z 48
_cell_length_a 29.245020
_cell_length_b 8.803618
_cell_length_c 9.581147
_cell_angle_alpha 90.000000
_cell_angle_beta 90.000000
_cell_angle_gamma 90.000000
_cell_volume 2466.781120
_symmetry_space_group_name_H-M "P M M M"
_symmetry_group_IT_number 47
_symmetry_cell_setting 'orthorhombic'
loop_
_space_group_symop_operation_xyz
x,y,z
-x,-y,z
x,-y,-z
-x,y,-z
-x,-y,-z
x,y,-z
-x,y,z
x,-y,z
loop_
_atom_site_type_symbol
_atom_site_label
_atom_site_fract_x
_atom_site_fract_y
_atom_site_fract_z
Si Si1 0.448416 0.180380 0.000000
Si Si2 0.294959 0.679919 0.659721
Si Si3 0.053360 0.675749 0.158536
Si Si4 0.127800 0.821154 0.338598
Si Si5 0.791278 0.319742 0.160823
Si Si6 0.550396 0.180295 0.500000
Si Si7 0.388071 0.820173 0.252737
O O1 0.417554 0.238914 0.124894
O O2 0.500000 0.249908 0.000000
O O3 0.453359 0.000000 0.000000
O O4 0.291364 0.742553 0.500000
O O5 0.296711 0.500000 0.656963
O O6 0.252606 0.738572 0.752382
O O7 0.339286 0.741306 0.738432
O O8 0.065450 0.500000 0.184462
O O9 0.078969 0.777530 0.273000
O O10 0.000000 0.705805 0.180084
O O11 0.067700 0.720483 0.000000
O O12 0.130949 0.764983 0.500000
O O13 0.165046 0.741991 0.241481
O O14 0.134769 0.000000 0.331818
O O15 0.793727 0.500000 0.161014
O O16 0.789464 0.260212 0.000000
O O17 0.500000 0.254036 0.500000
O O18 0.579496 0.239770 0.372907
O O19 0.545579 0.000000 0.500000
O O20 0.379994 0.000000 0.253554
#
# Coordination Sequence:
#
# PCOD8195837 Si02
#       7
#     4   8   8   8   8   4   8
#     4   9  18  32  51  77 107 137 173 219 266 313
#     4  10  21  37  56  79 109 142 175 217 272 330
#     4   9  19  37  61  88 118 155 200 245 285 331
#     4  11  24  39  56  84 121 156 190 234 287 338
#     4  10  22  40  62  85 107 140 188 235 280 336
#     4   9  16  28  49  75 101 133 175 217 256 305
#     4  10  19  32  52  78 105 136 175 218 263 315
#
# _framework density 19.458556000000002
#
# number of rings (size 3 to 8) (size 9 to 14) (size 15 to 20)
#    0.000    2.167    0.833    2.500    1.167    8.000 
#    0.000    2.500    0.000    3.000    0.000    0.000 
#    0.000    0.000    0.000    0.000    0.000    0.000 
#
# Total GULP energy -594980.371154 kJ/mol
# GULP energy per Si atom -12395.424399 kJ/mol
# Density = 1.941427 g / cm^3
# Si number density = 19.458556 Si / 1000 Ang^3
#
#
#
# Elastic Constant Matrix: (Units=GPa)
#
#
# Indices 1 2 3 4 5 6 
#
# 1 130.2238 13.8892 74.9012 0.0000 0.0000 0.0000
# 2 13.8892 7.9400 17.9938 0.0000 0.0000 0.0000
# 3 74.9012 17.9938 173.9016 0.0000 0.0000 0.0000
# 4 0.0000 0.0000 0.0000 24.6962 0.0000 0.0000
# 5 0.0000 0.0000 0.0000 0.0000 52.9331 0.0000
# 6 0.0000 0.0000 0.0000 0.0000 0.0000 32.0411
#
#
#
# Elastic Compliance Matrix: (Units=1/GPa)
#
#
# Indices 1 2 3 4 5 6 
#
# 1 0.010898 -0.011007 -0.003555 0.000000 0.000000 0.000000
# 2 -0.011007 0.175640 -0.013433 0.000000 0.000000 0.000000
# 3 -0.003555 -0.013433 0.008671 0.000000 0.000000 0.000000
# 4 0.000000 0.000000 0.000000 0.040492 0.000000 0.000000
# 5 0.000000 0.000000 0.000000 0.000000 0.018892 0.000000
# 6 0.000000 0.000000 0.000000 0.000000 0.000000 0.031210
#
#
# Mechanical properties :
#
#
# Convention : Reuss Voigt Hill
#
# Bulk Modulus (GPa) = 7.18288 58.40374 32.79331
# Shear Modulus (GPa) = 12.88001 35.61951 24.24976
#
# Velocity S-wave (km/s) = 2.57557 4.28311 3.53402
# Velocity P-wave (km/s) = 3.54177 7.38510 5.79154
#
# Compressibility (1/GPa) = 0.13921984
#
# Stress axis : x y z
#
# Youngs Moduli (GPa) = 91.76251 5.69347 115.32156
#
# Poissons Ratio (x) = 0.06267 0.40995
# Poissons Ratio (y) = 1.01002 1.54910
# Poissons Ratio (z) = 0.32620 0.07648
#
# Static dielectric constant tensor:
#      x y z
#    x 3.714500 0.000000 0.000000 
#    y 0.000000 3.183880 0.000000 
#    z 0.000000 0.000000 4.697030 
# 
# 
# High freq. dielectric constant tensor:
#      x y z
#    x 1.774450 0.000000 0.000000 
#    y 0.000000 1.722720 0.000000 
#    z 0.000000 0.000000 1.774130 
# 
# From -- ./inp_files/13954.got.cif
#   From: 2010.03.12/outbox.cif.g09.slc.cpg/sg47_7_cif.got.tgz:13954.got - 2010.04.14 03:12:58.
