data_PCOD8195570
_publ_section_title
;
Structure prediction by ZEFSAII (Michael W. Deem and Ramdas Pophale) SiO2 
 PCOD8195570
Probable space group: P M M M
;
_chemical_formula_sum "Si O2"
_cell_formula_units_Z 52
_cell_length_a 14.382747
_cell_length_b 20.566731
_cell_length_c 9.355127
_cell_angle_alpha 90.000000
_cell_angle_beta 90.000000
_cell_angle_gamma 90.000000
_cell_volume 2767.303526
_symmetry_space_group_name_H-M "P M M M"
_symmetry_group_IT_number 47
_symmetry_cell_setting 'orthorhombic'
loop_
_space_group_symop_operation_xyz
x,y,z
-x,-y,z
x,-y,-z
-x,y,-z
-x,-y,-z
x,y,-z
-x,y,z
x,-y,z
loop_
_atom_site_type_symbol
_atom_site_label
_atom_site_fract_x
_atom_site_fract_y
_atom_site_fract_z
Si Si1 0.604591 0.692110 0.829732
Si Si2 0.796994 0.074358 0.669546
Si Si3 0.000000 0.076625 0.344459
Si Si4 0.274039 0.428564 0.835376
Si Si5 0.101999 0.260670 0.158785
Si Si6 0.894465 0.612819 0.666962
Si Si7 0.717319 0.183272 0.837704
O O1 0.500000 0.689448 0.769135
O O2 0.659223 0.628219 0.773083
O O3 0.652176 0.759019 0.775560
O O4 0.605239 0.691226 0.000000
O O5 0.794428 0.084875 0.500000
O O6 0.715655 0.118244 0.741690
O O7 0.900815 0.094015 0.730675
O O8 0.773690 0.000000 0.709186
O O9 0.000000 0.110815 0.500000
O O10 0.000000 0.000000 0.368083
O O11 0.321980 0.500000 0.820450
O O12 0.177815 0.433011 0.748454
O O13 0.250854 0.413375 0.000000
O O14 0.121544 0.314431 0.277526
O O15 0.176159 0.204490 0.172297
O O16 0.000000 0.229384 0.183261
O O17 0.108757 0.292732 0.000000
O O18 0.872562 0.610862 0.500000
O O19 0.000000 0.589408 0.698305
O O20 0.687644 0.166534 0.000000
#
# Coordination Sequence:
#
# PCOD8195570 Si02
#       7
#     8   8   4   8   8   8   8
#     4   9  18  35  57  80 105 130 164 216 272 319
#     4   9  18  32  49  71 103 141 177 212 249 294
#     4   7  12  26  45  65  95 137 176 205 238 284
#     4  10  20  35  56  80 105 136 174 213 258 312
#     4   9  17  30  48  71 103 138 172 214 260 305
#     4  10  20  33  50  74 106 143 179 214 252 297
#     4  10  19  31  51  77 103 133 168 209 260 310
#
# _framework density 18.790855000000001
#
# number of rings (size 3 to 8) (size 9 to 14) (size 15 to 20)
#    0.000    2.692    1.538    1.385    1.077    2.769 
#    0.000    3.077    0.000    3.692    0.000    4.308 
#    0.000    0.000    0.000    0.000    0.000    0.000 
#
# Total GULP energy -644274.632102 kJ/mol
# GULP energy per Si atom -12389.896771 kJ/mol
# Density = 1.874809 g / cm^3
# Si number density = 18.790855 Si / 1000 Ang^3
#
#
#
# Elastic Constant Matrix: (Units=GPa)
#
#
# Indices 1 2 3 4 5 6 
#
# 1 97.6525 56.6491 33.3058 0.0000 0.0000 0.0000
# 2 56.6491 111.9526 37.6615 0.0000 0.0000 0.0000
# 3 33.3058 37.6615 49.9554 0.0000 0.0000 0.0000
# 4 0.0000 0.0000 0.0000 12.3710 0.0000 0.0000
# 5 0.0000 0.0000 0.0000 0.0000 13.5027 0.0000
# 6 0.0000 0.0000 0.0000 0.0000 0.0000 16.6420
#
#
#
# Elastic Compliance Matrix: (Units=1/GPa)
#
#
# Indices 1 2 3 4 5 6 
#
# 1 0.015738 -0.005940 -0.006014 0.000000 0.000000 0.000000
# 2 -0.005940 0.014210 -0.006752 0.000000 0.000000 0.000000
# 3 -0.006014 -0.006752 0.029118 0.000000 0.000000 0.000000
# 4 0.000000 0.000000 0.000000 0.080834 0.000000 0.000000
# 5 0.000000 0.000000 0.000000 0.000000 0.074059 0.000000
# 6 0.000000 0.000000 0.000000 0.000000 0.000000 0.060089
#
#
# Mechanical properties :
#
#
# Convention : Reuss Voigt Hill
#
# Bulk Modulus (GPa) = 46.18476 57.19926 51.69201
# Shear Modulus (GPa) = 15.68982 17.29941 16.49461
#
# Velocity S-wave (km/s) = 2.89272 3.03748 2.96598
# Velocity P-wave (km/s) = 5.98237 6.54276 6.26883
#
# Compressibility (1/GPa) = 0.02165216
#
# Stress axis : x y z
#
# Youngs Moduli (GPa) = 63.54238 70.37460 34.34286
#
# Poissons Ratio (x) = 0.41804 0.20654
# Poissons Ratio (y) = 0.37745 0.23189
# Poissons Ratio (z) = 0.38215 0.47519
#
# Static dielectric constant tensor:
#      x y z
#    x 3.475140 0.000000 0.000000 
#    y 0.000000 3.335810 0.000000 
#    z 0.000000 0.000000 3.245150 
# 
# 
# High freq. dielectric constant tensor:
#      x y z
#    x 1.708970 0.000000 0.000000 
#    y 0.000000 1.725960 0.000000 
#    z 0.000000 0.000000 1.696850 
# 
# From -- ./inp_files/6921.got.cif
#   From: 2010.03.12/outbox.cif.g09.slc.cpg/sg47_4_cif.got.tgz:6921.got - 2010.04.14 03:12:58.
