data_PCOD8195802
_publ_section_title
;
Structure prediction by ZEFSAII (Michael W. Deem and Ramdas Pophale) SiO2 
 PCOD8195802
Probable space group: P M M M
;
_chemical_formula_sum "Si O2"
_cell_formula_units_Z 52
_cell_length_a 21.474811
_cell_length_b 13.868076
_cell_length_c 9.839195
_cell_angle_alpha 90.000000
_cell_angle_beta 90.000000
_cell_angle_gamma 90.000000
_cell_volume 2930.253080
_symmetry_space_group_name_H-M "P M M M"
_symmetry_group_IT_number 47
_symmetry_cell_setting 'orthorhombic'
loop_
_space_group_symop_operation_xyz
x,y,z
-x,-y,z
x,-y,-z
-x,y,-z
-x,-y,-z
x,y,-z
-x,y,z
x,-y,z
loop_
_atom_site_type_symbol
_atom_site_label
_atom_site_fract_x
_atom_site_fract_y
_atom_site_fract_z
Si Si1 0.571736 0.890117 0.346842
Si Si2 0.850163 0.391532 0.655347
Si Si3 0.615341 0.266073 0.843292
Si Si4 0.928276 0.208579 0.342426
Si Si5 0.243810 0.705485 0.154533
Si Si6 0.168134 0.109182 0.843765
Si Si7 0.500000 0.392863 0.838842
O O1 0.581757 0.851973 0.500000
O O2 0.500000 0.879421 0.304166
O O3 0.613857 0.831140 0.243252
O O4 0.593403 0.000000 0.336328
O O5 0.828159 0.380444 0.500000
O O6 0.873960 0.500000 0.684882
O O7 0.906062 0.317873 0.688105
O O8 0.790833 0.369132 0.748360
O O9 0.683074 0.311983 0.822591
O O10 0.562361 0.338877 0.788495
O O11 0.603450 0.239094 0.000000
O O12 0.917855 0.181902 0.500000
O O13 0.890612 0.132896 0.251369
O O14 0.000000 0.201426 0.300973
O O15 0.224404 0.816388 0.187981
O O16 0.225378 0.680792 0.000000
O O17 0.190977 0.000000 0.812981
O O18 0.146503 0.118912 0.000000
O O19 0.500000 0.500000 0.775321
O O20 0.500000 0.399358 0.000000
#
# Coordination Sequence:
#
# PCOD8195802 Si02
#       7
#     8   8   8   8   8   8   4
#     4   9  18  32  49  70  98 130 158 189 238 296
#     4   9  18  33  52  73  98 129 164 202 244 291
#     4  10  19  32  52  75  97 126 165 207 249 292
#     4   9  18  32  50  74 102 129 160 201 245 287
#     4   9  19  33  50  73  98 127 165 207 248 291
#     4   9  18  33  50  68  96 133 167 200 240 286
#     4   9  18  32  48  69  98 126 155 197 248 299
#
# _framework density 17.745906999999999
#
# number of rings (size 3 to 8) (size 9 to 14) (size 15 to 20)
#    0.000    2.846    0.769    0.462    0.000    3.692 
#    0.000    6.923    0.000    0.923    0.000    4.308 
#    0.000    0.000    0.000    0.000    0.000    0.000 
#
# Total GULP energy -644750.793344 kJ/mol
# GULP energy per Si atom -12399.053718 kJ/mol
# Density = 1.770552 g / cm^3
# Si number density = 17.745907 Si / 1000 Ang^3
#
#
#
# Elastic Constant Matrix: (Units=GPa)
#
#
# Indices 1 2 3 4 5 6 
#
# 1 91.7547 23.5381 28.7963 0.0000 0.0000 0.0000
# 2 23.5381 79.9033 26.8854 0.0000 0.0000 0.0000
# 3 28.7963 26.8854 51.2501 0.0000 0.0000 0.0000
# 4 0.0000 0.0000 0.0000 26.1537 0.0000 0.0000
# 5 0.0000 0.0000 0.0000 0.0000 26.7796 0.0000
# 6 0.0000 0.0000 0.0000 0.0000 0.0000 15.7148
#
#
#
# Elastic Compliance Matrix: (Units=1/GPa)
#
#
# Indices 1 2 3 4 5 6 
#
# 1 0.013424 -0.001720 -0.006640 0.000000 0.000000 0.000000
# 2 -0.001720 0.015418 -0.007122 0.000000 0.000000 0.000000
# 3 -0.006640 -0.007122 0.026979 0.000000 0.000000 0.000000
# 4 0.000000 0.000000 0.000000 0.038235 0.000000 0.000000
# 5 0.000000 0.000000 0.000000 0.000000 0.037342 0.000000
# 6 0.000000 0.000000 0.000000 0.000000 0.000000 0.063634
#
#
# Mechanical properties :
#
#
# Convention : Reuss Voigt Hill
#
# Bulk Modulus (GPa) = 40.23010 42.37195 41.30102
# Shear Modulus (GPa) = 21.34176 23.30885 22.32530
#
# Velocity S-wave (km/s) = 3.47166 3.62812 3.55075
# Velocity P-wave (km/s) = 6.22809 6.44049 6.33518
#
# Compressibility (1/GPa) = 0.02485701
#
# Stress axis : x y z
#
# Youngs Moduli (GPa) = 74.49420 64.85869 37.06571
#
# Poissons Ratio (x) = 0.11157 0.24612
# Poissons Ratio (y) = 0.12814 0.26397
# Poissons Ratio (z) = 0.49465 0.46190
#
# Static dielectric constant tensor:
#      x y z
#    x 3.173440 0.000000 0.000000 
#    y 0.000000 3.311200 0.000000 
#    z 0.000000 0.000000 3.251680 
# 
# 
# High freq. dielectric constant tensor:
#      x y z
#    x 1.674560 0.000000 0.000000 
#    y 0.000000 1.683580 0.000000 
#    z 0.000000 0.000000 1.680320 
# 
# From -- ./inp_files/11044.got.cif
#   From: 2010.03.12/outbox.cif.g09.slc.cpg/sg47_6_cif.got.tgz:11044.got - 2010.04.14 03:12:58.
