data_PCOD8195613
_publ_section_title
;
Structure prediction by ZEFSAII (Michael W. Deem and Ramdas Pophale) SiO2 
 PCOD8195613
Probable space group: P M M M
;
_chemical_formula_sum "Si O2"
_cell_formula_units_Z 48
_cell_length_a 18.200374
_cell_length_b 21.804055
_cell_length_c 9.336920
_cell_angle_alpha 90.000000
_cell_angle_beta 90.000000
_cell_angle_gamma 90.000000
_cell_volume 3705.281593
_symmetry_space_group_name_H-M "P M M M"
_symmetry_group_IT_number 47
_symmetry_cell_setting 'orthorhombic'
loop_
_space_group_symop_operation_xyz
x,y,z
-x,-y,z
x,-y,-z
-x,y,-z
-x,-y,-z
x,y,-z
-x,y,z
x,-y,z
loop_
_atom_site_type_symbol
_atom_site_label
_atom_site_fract_x
_atom_site_fract_y
_atom_site_fract_z
Si Si1 0.580442 0.927121 0.338432
Si Si2 0.087522 0.616609 0.337854
Si Si3 0.915043 0.267073 0.163378
Si Si4 0.000000 0.927744 0.333817
Si Si5 0.718325 0.929633 0.833029
Si Si6 0.087640 0.500000 0.162648
Si Si7 0.131789 0.133110 0.166587
O O1 0.593531 0.904570 0.500000
O O2 0.500000 0.903845 0.284545
O O3 0.646303 0.900740 0.241976
O O4 0.581494 0.000000 0.330488
O O5 0.117583 0.612417 0.500000
O O6 0.115514 0.679542 0.266002
O O7 0.117997 0.559556 0.246050
O O8 0.000000 0.615279 0.336527
O O9 0.869178 0.205822 0.194638
O O10 0.000000 0.252104 0.195559
O O11 0.905382 0.289277 0.000000
O O12 0.927888 0.900776 0.261407
O O13 0.000000 0.909261 0.500000
O O14 0.000000 0.000000 0.311529
O O15 0.788719 0.890715 0.785092
O O16 0.731897 0.000000 0.786810
O O17 0.703933 0.924223 0.000000
O O18 0.000000 0.500000 0.161538
O O19 0.117778 0.500000 0.000000
O O20 0.115612 0.118302 0.000000
#
# Coordination Sequence:
#
# PCOD8195613 Si02
#       7
#     8   8   8   4   8   4   8
#     4   8  14  25  40  56  74  95 114 133 167 218
#     4   9  16  24  35  51  70  89 109 139 179 216
#     4   9  16  27  40  52  65  87 120 151 180 217
#     4  11  23  33  41  55  71  88 117 158 199 233
#     4   9  17  27  40  58  75  91 115 149 187 224
#     4   9  15  23  35  51  69  89 111 137 170 211
#     4  10  19  32  45  55  69  94 124 154 189 230
#
# _framework density 12.954480999999999
#
# number of rings (size 3 to 8) (size 9 to 14) (size 15 to 20)
#    0.000    2.833    0.833    2.000    0.000    6.000 
#    0.000    3.333    0.000    0.000    0.000    0.000 
#    0.000    0.000    0.000    0.000    0.000    0.000 
#
# Total GULP energy -595067.573919 kJ/mol
# GULP energy per Si atom -12397.241123 kJ/mol
# Density = 1.292500 g / cm^3
# Si number density = 12.954481 Si / 1000 Ang^3
#
#
#
# Elastic Constant Matrix: (Units=GPa)
#
#
# Indices 1 2 3 4 5 6 
#
# 1 83.5595 38.4163 44.8456 0.0000 0.0000 0.0000
# 2 38.4163 74.1572 47.5327 0.0000 0.0000 0.0000
# 3 44.8456 47.5327 83.6027 0.0000 0.0000 0.0000
# 4 0.0000 0.0000 0.0000 18.5036 0.0000 0.0000
# 5 0.0000 0.0000 0.0000 0.0000 12.4423 0.0000
# 6 0.0000 0.0000 0.0000 0.0000 0.0000 -0.7924
#
#
#
# Elastic Compliance Matrix: (Units=1/GPa)
#
#
# Indices 1 2 3 4 5 6 
#
# 1 0.017869 -0.004898 -0.006800 0.000000 0.000000 0.000000
# 2 -0.004898 0.022559 -0.010199 0.000000 0.000000 0.000000
# 3 -0.006800 -0.010199 0.021408 0.000000 0.000000 0.000000
# 4 0.000000 0.000000 0.000000 0.054044 0.000000 0.000000
# 5 0.000000 0.000000 0.000000 0.000000 0.080371 0.000000
# 6 0.000000 0.000000 0.000000 0.000000 0.000000 -1.261956
#
#
# Mechanical properties :
#
#
# Convention : Reuss Voigt Hill
#
# Bulk Modulus (GPa) = 55.42730 55.87872 55.65301
# Shear Modulus (GPa) = -4.92176 13.39901 4.23862
#
# Velocity S-wave (km/s) = -1.95129 3.21957 1.81081
# Velocity P-wave (km/s) = 6.14836 7.55309 6.88664
#
# Compressibility (1/GPa) = 0.01804165
#
# Stress axis : x y z
#
# Youngs Moduli (GPa) = 55.96261 44.32734 46.71191
#
# Poissons Ratio (x) = 0.21711 0.31766
# Poissons Ratio (y) = 0.27410 0.47641
# Poissons Ratio (z) = 0.38057 0.45209
#
# Static dielectric constant tensor:
#      x y z
#    x 2.483230 0.000000 0.000000 
#    y 0.000000 2.538260 0.000000 
#    z 0.000000 0.000000 2.748400 
# 
# 
# High freq. dielectric constant tensor:
#      x y z
#    x 1.449380 0.000000 0.000000 
#    y 0.000000 1.472780 0.000000 
#    z 0.000000 0.000000 1.502870 
# 
# From -- ./inp_files/9720.got.cif
#   From: 2010.03.12/outbox.cif.g09.slc.cpg/sg47_5_cif.got.tgz:9720.got - 2010.04.14 03:12:58.
