data_PCOD8195457
_publ_section_title
;
Structure prediction by ZEFSAII (Michael W. Deem and Ramdas Pophale) SiO2 
 PCOD8195457
Probable space group: P M M M
;
_chemical_formula_sum "Si O2"
_cell_formula_units_Z 44
_cell_length_a 14.302750
_cell_length_b 11.721473
_cell_length_c 15.716879
_cell_angle_alpha 90.000000
_cell_angle_beta 90.000000
_cell_angle_gamma 90.000000
_cell_volume 2634.923730
_symmetry_space_group_name_H-M "P M M M"
_symmetry_group_IT_number 47
_symmetry_cell_setting 'orthorhombic'
loop_
_space_group_symop_operation_xyz
x,y,z
-x,-y,z
x,-y,-z
-x,y,-z
-x,-y,-z
x,y,-z
-x,y,z
x,-y,z
loop_
_atom_site_type_symbol
_atom_site_label
_atom_site_fract_x
_atom_site_fract_y
_atom_site_fract_z
Si Si1 0.610914 0.500000 0.095567
Si Si2 0.267960 0.136051 0.500000
Si Si3 0.899515 0.291675 0.500000
Si Si4 0.702813 0.729101 0.667875
Si Si5 0.894679 0.371582 0.319714
Si Si6 0.389498 0.260853 0.162705
Si Si7 0.390122 0.500000 0.600687
Si Si8 0.388531 0.127400 0.000000
O O1 0.500000 0.500000 0.087389
O O2 0.645290 0.609732 0.147769
O O3 0.653282 0.500000 0.000000
O O4 0.162123 0.178009 0.500000
O O5 0.311852 0.186613 0.587322
O O6 0.277282 0.000000 0.500000
O O7 0.884508 0.376019 0.421462
O O8 0.000000 0.233851 0.500000
O O9 0.809202 0.712469 0.705285
O O10 0.648349 0.784574 0.747211
O O11 0.658223 0.609031 0.642092
O O12 0.880926 0.500000 0.284279
O O13 0.000000 0.327311 0.293371
O O14 0.500000 0.251755 0.164418
O O15 0.348892 0.186931 0.084801
O O16 0.500000 0.500000 0.623576
O O17 0.373640 0.500000 0.500000
O O18 0.500000 0.133550 0.000000
O O19 0.350172 0.000000 0.000000
#
# Coordination Sequence:
#
# PCOD8195457 Si02
#       8
#     4   4   4   8   8   8   4   4
#     4   9  15  27  47  71  98 118 134 177 245 296
#     4  10  22  35  46  63  94 132 169 211 242 270
#     4   8  15  27  46  66  85 117 157 200 252 295
#     4  11  20  33  51  71  98 129 169 202 241 289
#     4   9  16  26  43  69  99 124 151 192 244 296
#     4  10  19  31  49  72  97 125 156 196 243 289
#     4  11  21  33  50  70  96 132 169 208 244 277
#     4   9  18  33  51  71  96 124 158 202 249 294
#
# _framework density 16.698775000000001
#
# number of rings (size 3 to 8) (size 9 to 14) (size 15 to 20)
#    0.000    2.273    2.727    1.364    0.000    2.727 
#    0.000    0.000    0.000    3.818    0.000    0.636 
#    0.000    2.909    0.000    0.000    0.000    0.000 
#
# Total GULP energy -545088.308490 kJ/mol
# GULP energy per Si atom -12388.370647 kJ/mol
# Density = 1.666077 g / cm^3
# Si number density = 16.698775 Si / 1000 Ang^3
#
#
#
# Elastic Constant Matrix: (Units=GPa)
#
#
# Indices 1 2 3 4 5 6 
#
# 1 52.7359 23.3209 26.2664 0.0000 0.0000 0.0000
# 2 23.3209 102.9626 46.1394 0.0000 0.0000 0.0000
# 3 26.2664 46.1394 117.1799 0.0000 0.0000 0.0000
# 4 0.0000 0.0000 0.0000 10.3092 0.0000 0.0000
# 5 0.0000 0.0000 0.0000 0.0000 10.2867 0.0000
# 6 0.0000 0.0000 0.0000 0.0000 0.0000 5.6376
#
#
#
# Elastic Compliance Matrix: (Units=1/GPa)
#
#
# Indices 1 2 3 4 5 6 
#
# 1 0.022291 -0.003412 -0.003653 0.000000 0.000000 0.000000
# 2 -0.003412 0.012315 -0.004084 0.000000 0.000000 0.000000
# 3 -0.003653 -0.004084 0.010961 0.000000 0.000000 0.000000
# 4 0.000000 0.000000 0.000000 0.097000 0.000000 0.000000
# 5 0.000000 0.000000 0.000000 0.000000 0.097213 0.000000
# 6 0.000000 0.000000 0.000000 0.000000 0.000000 0.177381
#
#
# Mechanical properties :
#
#
# Convention : Reuss Voigt Hill
#
# Bulk Modulus (GPa) = 42.97679 51.59241 47.28460
# Shear Modulus (GPa) = 11.18028 17.05682 14.11855
#
# Velocity S-wave (km/s) = 2.59033 3.19947 2.91088
# Velocity P-wave (km/s) = 5.89396 6.67921 6.29883
#
# Compressibility (1/GPa) = 0.02326838
#
# Stress axis : x y z
#
# Youngs Moduli (GPa) = 44.86165 81.19977 91.23277
#
# Poissons Ratio (x) = 0.27704 0.33329
# Poissons Ratio (y) = 0.15306 0.37263
# Poissons Ratio (z) = 0.16389 0.33165
#
# Static dielectric constant tensor:
#      x y z
#    x 3.291490 0.000000 0.000000 
#    y 0.000000 2.940680 0.000000 
#    z 0.000000 0.000000 3.150730 
# 
# 
# High freq. dielectric constant tensor:
#      x y z
#    x 1.620390 0.000000 0.000000 
#    y 0.000000 1.620780 0.000000 
#    z 0.000000 0.000000 1.633970 
# 
# From -- ./inp_files/23546.got.cif
#   From: 2010.03.12/outbox.cif.g09.slc.cpg/sg47_12_cif.got.tgz:23546.got - 2010.04.14 03:12:58.
