data_PCOD8195128
_publ_section_title
;
Structure prediction by ZEFSAII (Michael W. Deem and Ramdas Pophale) SiO2 
 PCOD8195128
Probable space group: P M M M
;
_chemical_formula_sum "Si O2"
_cell_formula_units_Z 64
_cell_length_a 9.597250
_cell_length_b 14.466024
_cell_length_c 28.153058
_cell_angle_alpha 90.000000
_cell_angle_beta 90.000000
_cell_angle_gamma 90.000000
_cell_volume 3908.603029
_symmetry_space_group_name_H-M "P M M M"
_symmetry_group_IT_number 47
_symmetry_cell_setting 'orthorhombic'
loop_
_space_group_symop_operation_xyz
x,y,z
-x,-y,z
x,-y,-z
-x,y,-z
-x,-y,-z
x,y,-z
-x,y,z
x,-y,z
loop_
_atom_site_type_symbol
_atom_site_label
_atom_site_fract_x
_atom_site_fract_y
_atom_site_fract_z
Si Si1 0.161155 0.104780 0.444821
Si Si2 0.162071 0.896383 0.811694
Si Si3 0.339092 0.784977 0.372321
Si Si4 0.836510 0.284578 0.140448
Si Si5 0.659590 0.893266 0.278979
Si Si6 0.160102 0.607327 0.231488
Si Si7 0.339721 0.395985 0.322148
Si Si8 0.834272 0.395601 0.052454
O O1 0.188516 0.123451 0.500000
O O2 0.249979 0.179215 0.416201
O O3 0.000000 0.119221 0.432221
O O4 0.206368 0.000000 0.431737
O O5 0.196598 0.825020 0.854468
O O6 0.246078 0.864607 0.765446
O O7 0.000000 0.891194 0.798077
O O8 0.204296 0.000000 0.828125
O O9 0.500000 0.806816 0.383211
O O10 0.290773 0.835523 0.324282
O O11 0.312720 0.675001 0.365512
O O12 0.777636 0.337409 0.186602
O O13 0.770217 0.325507 0.091872
O O14 0.000000 0.303742 0.138465
O O15 0.500000 0.871121 0.265756
O O16 0.680963 0.000000 0.291869
O O17 0.175972 0.500000 0.219440
O O18 0.248044 0.635045 0.277516
O O19 0.000000 0.634176 0.241647
O O20 0.500000 0.389866 0.305807
O O21 0.301370 0.500000 0.339185
O O22 0.787133 0.500000 0.064957
O O23 0.000000 0.390177 0.052056
O O24 0.778028 0.367649 0.000000
#
# Coordination Sequence:
#
# PCOD8195128 Si02
#       8
#     8   8   8   8   8   8   8   8
#     4   9  19  35  52  71  95 118 139 170 216 264
#     4   9  17  27  38  54  78 109 141 167 195 239
#     4  10  19  30  47  69  90 116 150 182 212 250
#     4   9  15  23  36  53  76 105 134 168 208 245
#     4   9  17  28  41  60  87 113 138 173 212 246
#     4   9  16  25  39  60  83 107 138 174 211 252
#     4   9  18  31  44  61  90 123 150 179 214 249
#     4   8  13  21  34  53  76 101 129 162 204 253
#
# _framework density 16.374134999999999
#
# number of rings (size 3 to 8) (size 9 to 14) (size 15 to 20)
#    0.000    3.000    0.000    2.250    0.000    3.500 
#    0.000    1.875    0.000    0.750    0.000    5.250 
#    0.000    2.000    0.000   12.000    0.000   11.500 
#
# Total GULP energy -793344.715960 kJ/mol
# GULP energy per Si atom -12396.011187 kJ/mol
# Density = 1.633687 g / cm^3
# Si number density = 16.374135 Si / 1000 Ang^3
#
#
#
# Elastic Constant Matrix: (Units=GPa)
#
#
# Indices 1 2 3 4 5 6 
#
# 1 38.8879 32.1849 40.5482 0.0000 0.0000 0.0000
# 2 32.1849 99.2368 70.5377 0.0000 0.0000 0.0000
# 3 40.5482 70.5377 100.4831 0.0000 0.0000 0.0000
# 4 0.0000 0.0000 0.0000 29.5486 0.0000 0.0000
# 5 0.0000 0.0000 0.0000 0.0000 2.0740 0.0000
# 6 0.0000 0.0000 0.0000 0.0000 0.0000 16.9241
#
#
#
# Elastic Compliance Matrix: (Units=1/GPa)
#
#
# Indices 1 2 3 4 5 6 
#
# 1 0.044950 -0.003364 -0.015778 0.000000 0.000000 0.000000
# 2 -0.003364 0.020364 -0.012938 0.000000 0.000000 0.000000
# 3 -0.015778 -0.012938 0.025401 0.000000 0.000000 0.000000
# 4 0.000000 0.000000 0.000000 0.033843 0.000000 0.000000
# 5 0.000000 0.000000 0.000000 0.000000 0.482170 0.000000
# 6 0.000000 0.000000 0.000000 0.000000 0.000000 0.059087
#
#
# Mechanical properties :
#
#
# Convention : Reuss Voigt Hill
#
# Bulk Modulus (GPa) = 37.65530 58.34995 48.00263
# Shear Modulus (GPa) = 6.76749 16.06513 11.41631
#
# Velocity S-wave (km/s) = 2.03519 3.13569 2.64335
# Velocity P-wave (km/s) = 5.34504 6.98734 6.22062
#
# Compressibility (1/GPa) = 0.02655669
#
# Stress axis : x y z
#
# Youngs Moduli (GPa) = 22.24693 49.10571 39.36846
#
# Poissons Ratio (x) = 0.16518 0.62114
# Poissons Ratio (y) = 0.07483 0.50935
# Poissons Ratio (z) = 0.35100 0.63533
#
# Static dielectric constant tensor:
#      x y z
#    x 2.867370 0.000000 0.000000 
#    y 0.000000 3.285550 0.000000 
#    z 0.000000 0.000000 3.043810 
# 
# 
# High freq. dielectric constant tensor:
#      x y z
#    x 1.601280 0.000000 0.000000 
#    y 0.000000 1.637780 0.000000 
#    z 0.000000 0.000000 1.608680 
# 
# From -- ./inp_files/14341.got.cif
#   From: 2010.03.12/outbox.cif.g09.slc.cpg/sg47_8_cif.got.tgz:14341.got - 2010.04.14 03:12:58.
