data_PCOD8195274
_publ_section_title
;
Structure prediction by ZEFSAII (Michael W. Deem and Ramdas Pophale) SiO2 
 PCOD8195274
Probable space group: P M M M
;
_chemical_formula_sum "Si O2"
_cell_formula_units_Z 60
_cell_length_a 15.054333
_cell_length_b 14.510206
_cell_length_c 14.884759
_cell_angle_alpha 90.000000
_cell_angle_beta 90.000000
_cell_angle_gamma 90.000000
_cell_volume 3251.448682
_symmetry_space_group_name_H-M "P M M M"
_symmetry_group_IT_number 47
_symmetry_cell_setting 'orthorhombic'
loop_
_space_group_symop_operation_xyz
x,y,z
-x,-y,z
x,-y,-z
-x,y,-z
-x,-y,-z
x,y,-z
-x,y,z
x,-y,z
loop_
_atom_site_type_symbol
_atom_site_label
_atom_site_fract_x
_atom_site_fract_y
_atom_site_fract_z
Si Si1 0.399003 0.207907 0.597312
Si Si2 0.759195 0.891132 0.101868
Si Si3 0.000000 0.392349 0.595763
Si Si4 0.894728 0.103986 0.599991
Si Si5 0.842211 0.604319 0.720662
Si Si6 0.893747 0.210805 0.222795
Si Si7 0.672719 0.400011 0.600459
Si Si8 0.398311 0.108371 0.770830
O O1 0.353642 0.184722 0.500000
O O2 0.500000 0.176688 0.592018
O O3 0.396222 0.317709 0.615875
O O4 0.356267 0.152059 0.679611
O O5 0.847341 0.850142 0.146846
O O6 0.666957 0.859957 0.149428
O O7 0.768972 0.000000 0.106392
O O8 0.753436 0.855472 0.000000
O O9 0.086941 0.361675 0.647461
O O10 0.000000 0.500000 0.580571
O O11 0.000000 0.340527 0.500000
O O12 0.860647 0.134871 0.500000
O O13 0.862370 0.172834 0.678977
O O14 0.000000 0.103503 0.599905
O O15 0.860361 0.000000 0.620782
O O16 0.862074 0.500000 0.757425
O O17 0.855174 0.684810 0.794295
O O18 0.747097 0.608131 0.675828
O O19 0.000000 0.206446 0.209659
O O20 0.714818 0.393996 0.500000
O O21 0.625032 0.500000 0.611671
O O22 0.500000 0.142499 0.790188
O O23 0.397526 0.000000 0.757887
#
# Coordination Sequence:
#
# PCOD8195274 Si02
#       8
#     8   8   4   8   8   8   8   8
#     4   9  17  29  47  74 108 142 172 202 238 289
#     4  10  22  39  58  80 103 126 161 212 263 311
#     4   9  16  26  40  60  90 127 166 208 248 283
#     4   8  15  28  44  64  93 129 168 206 241 285
#     4  10  19  31  45  66  96 131 171 216 257 295
#     4  11  21  33  51  75 101 137 173 208 254 307
#     4   9  17  28  42  62  93 136 181 219 252 286
#     4   9  18  34  56  80 106 135 166 202 247 299
#
# _framework density 18.453313000000001
#
# number of rings (size 3 to 8) (size 9 to 14) (size 15 to 20)
#    0.000    2.600    0.667    2.000    0.000    4.533 
#    0.000    5.333    0.000    1.200    0.000    0.933 
#    0.000    0.000    0.000   11.467    0.000    0.400 
#
# Total GULP energy -743349.256531 kJ/mol
# GULP energy per Si atom -12389.154276 kJ/mol
# Density = 1.841131 g / cm^3
# Si number density = 18.453313 Si / 1000 Ang^3
#
#
#
# Elastic Constant Matrix: (Units=GPa)
#
#
# Indices 1 2 3 4 5 6 
#
# 1 50.5083 24.3273 37.7018 0.0000 0.0000 0.0000
# 2 24.3273 63.9411 45.0122 0.0000 0.0000 0.0000
# 3 37.7018 45.0122 117.0314 0.0000 0.0000 0.0000
# 4 0.0000 0.0000 0.0000 14.9644 0.0000 0.0000
# 5 0.0000 0.0000 0.0000 0.0000 21.4226 0.0000
# 6 0.0000 0.0000 0.0000 0.0000 0.0000 24.4680
#
#
#
# Elastic Compliance Matrix: (Units=1/GPa)
#
#
# Indices 1 2 3 4 5 6 
#
# 1 0.027554 -0.005807 -0.006643 0.000000 0.000000 0.000000
# 2 -0.005807 0.022670 -0.006848 0.000000 0.000000 0.000000
# 3 -0.006643 -0.006848 0.013319 0.000000 0.000000 0.000000
# 4 0.000000 0.000000 0.000000 0.066825 0.000000 0.000000
# 5 0.000000 0.000000 0.000000 0.000000 0.046680 0.000000
# 6 0.000000 0.000000 0.000000 0.000000 0.000000 0.040870
#
#
# Mechanical properties :
#
#
# Convention : Reuss Voigt Hill
#
# Bulk Modulus (GPa) = 40.08678 49.50703 44.79690
# Shear Modulus (GPa) = 18.88002 20.46697 19.67350
#
# Velocity S-wave (km/s) = 3.20210 3.33396 3.26870
# Velocity P-wave (km/s) = 5.95330 6.45809 6.21082
#
# Compressibility (1/GPa) = 0.02494588
#
# Stress axis : x y z
#
# Youngs Moduli (GPa) = 36.29182 44.11157 75.08128
#
# Poissons Ratio (x) = 0.25615 0.49879
# Poissons Ratio (y) = 0.21074 0.51419
# Poissons Ratio (z) = 0.24110 0.30210
#
# Static dielectric constant tensor:
#      x y z
#    x 3.209900 0.000000 0.000000 
#    y 0.000000 3.598920 0.000000 
#    z 0.000000 0.000000 3.391230 
# 
# 
# High freq. dielectric constant tensor:
#      x y z
#    x 1.702010 0.000000 0.000000 
#    y 0.000000 1.720160 0.000000 
#    z 0.000000 0.000000 1.678230 
# 
# From -- ./inp_files/23953.got.cif
#   From: 2010.03.12/outbox.cif.g09.slc.cpg/sg47_12_cif.got.tgz:23953.got - 2010.04.14 03:12:58.
