data_PCOD8195367
_publ_section_title
;
Structure prediction by ZEFSAII (Michael W. Deem and Ramdas Pophale) SiO2 
 PCOD8195367
Probable space group: P M M M
;
_chemical_formula_sum "Si O2"
_cell_formula_units_Z 48
_cell_length_a 13.658203
_cell_length_b 8.833624
_cell_length_c 24.257341
_cell_angle_alpha 90.000000
_cell_angle_beta 90.000000
_cell_angle_gamma 90.000000
_cell_volume 2926.682875
_symmetry_space_group_name_H-M "P M M M"
_symmetry_group_IT_number 47
_symmetry_cell_setting 'orthorhombic'
loop_
_space_group_symop_operation_xyz
x,y,z
-x,-y,z
x,-y,-z
-x,y,-z
-x,-y,-z
x,y,-z
-x,y,z
x,-y,z
loop_
_atom_site_type_symbol
_atom_site_label
_atom_site_fract_x
_atom_site_fract_y
_atom_site_fract_z
Si Si1 0.889575 0.821612 0.169045
Si Si2 0.883767 0.328422 0.940118
Si Si3 0.611696 0.677537 0.661964
Si Si4 0.786157 0.819988 0.278825
Si Si5 0.111732 0.677083 0.619961
Si Si6 0.715555 0.823372 0.562658
O O1 0.842062 0.767499 0.111153
O O2 0.821432 0.763850 0.218830
O O3 0.000000 0.756745 0.176797
O O4 0.893363 0.000000 0.168545
O O5 0.848714 0.500000 0.932202
O O6 0.000000 0.317533 0.939943
O O7 0.845663 0.267688 0.000000
O O8 0.500000 0.712695 0.677575
O O9 0.632834 0.500000 0.658502
O O10 0.679302 0.750748 0.709205
O O11 0.635003 0.749694 0.602491
O O12 0.864460 0.759873 0.322811
O O13 0.780696 0.000000 0.282616
O O14 0.133665 0.500000 0.626852
O O15 0.179101 0.745356 0.571779
O O16 0.000000 0.708219 0.603523
O O17 0.681801 0.796428 0.500000
O O18 0.724954 0.000000 0.576702
#
# Coordination Sequence:
#
# PCOD8195367 Si02
#       6
#     8   8   8   8   8   8
#     4   9  17  27  40  62  91 122 154 185 218 255
#     4   8  14  24  37  55  82 118 158 193 221 250
#     4  10  21  36  53  71  90 113 141 177 224 273
#     4  10  19  31  48  68  91 118 149 186 224 265
#     4  10  20  32  47  67  91 121 153 183 218 259
#     4  10  21  35  51  71  92 115 145 180 217 261
#
# _framework density 16.40082
#
# number of rings (size 3 to 8) (size 9 to 14) (size 15 to 20)
#    0.000    2.500    0.000    5.000    0.000    7.000 
#    0.000    6.667    0.000    0.000    0.000    0.000 
#    0.000    0.667    0.000    7.333    0.000    5.667 
#
# Total GULP energy -595031.663507 kJ/mol
# GULP energy per Si atom -12396.492990 kJ/mol
# Density = 1.636349 g / cm^3
# Si number density = 16.400820 Si / 1000 Ang^3
#
#
#
# Elastic Constant Matrix: (Units=GPa)
#
#
# Indices 1 2 3 4 5 6 
#
# 1 78.5730 38.0840 38.0503 0.0000 0.0000 0.0000
# 2 38.0840 72.4680 40.4162 0.0000 0.0000 0.0000
# 3 38.0503 40.4162 131.5267 0.0000 0.0000 0.0000
# 4 0.0000 0.0000 0.0000 16.9074 0.0000 0.0000
# 5 0.0000 0.0000 0.0000 0.0000 13.3354 0.0000
# 6 0.0000 0.0000 0.0000 0.0000 0.0000 19.9087
#
#
#
# Elastic Compliance Matrix: (Units=1/GPa)
#
#
# Indices 1 2 3 4 5 6 
#
# 1 0.017868 -0.007853 -0.002756 0.000000 0.000000 0.000000
# 2 -0.007853 0.020105 -0.003906 0.000000 0.000000 0.000000
# 3 -0.002756 -0.003906 0.009601 0.000000 0.000000 0.000000
# 4 0.000000 0.000000 0.000000 0.059146 0.000000 0.000000
# 5 0.000000 0.000000 0.000000 0.000000 0.074988 0.000000
# 6 0.000000 0.000000 0.000000 0.000000 0.000000 0.050229
#
#
# Mechanical properties :
#
#
# Convention : Reuss Voigt Hill
#
# Bulk Modulus (GPa) = 53.92858 57.29651 55.61255
# Shear Modulus (GPa) = 18.71624 21.09811 19.90718
#
# Velocity S-wave (km/s) = 3.38180 3.59054 3.48773
# Velocity P-wave (km/s) = 6.94275 7.22498 7.08527
#
# Compressibility (1/GPa) = 0.01854304
#
# Stress axis : x y z
#
# Youngs Moduli (GPa) = 55.96590 49.73982 104.16029
#
# Poissons Ratio (x) = 0.39061 0.28707
# Poissons Ratio (y) = 0.43950 0.40685
# Poissons Ratio (z) = 0.15424 0.19428
#
# Static dielectric constant tensor:
#      x y z
#    x 2.905080 0.000000 0.000000 
#    y 0.000000 3.184950 0.000000 
#    z 0.000000 0.000000 3.382520 
# 
# 
# High freq. dielectric constant tensor:
#      x y z
#    x 1.595030 0.000000 0.000000 
#    y 0.000000 1.642330 0.000000 
#    z 0.000000 0.000000 1.630670 
# 
# From -- ./inp_files/21705.got.cif
#   From: 2010.03.12/outbox.cif.g09.slc.cpg/sg47_11_cif.got.tgz:21705.got - 2010.04.14 03:12:58.
