data_PCOD8195142
_publ_section_title
;
Structure prediction by ZEFSAII (Michael W. Deem and Ramdas Pophale) SiO2 
 PCOD8195142
Probable space group: P M M M
;
_chemical_formula_sum "Si O2"
_cell_formula_units_Z 64
_cell_length_a 9.488228
_cell_length_b 20.438339
_cell_length_c 18.270441
_cell_angle_alpha 90.000000
_cell_angle_beta 90.000000
_cell_angle_gamma 90.000000
_cell_volume 3543.070065
_symmetry_space_group_name_H-M "P M M M"
_symmetry_group_IT_number 47
_symmetry_cell_setting 'orthorhombic'
loop_
_space_group_symop_operation_xyz
x,y,z
-x,-y,z
x,-y,-z
-x,y,-z
-x,-y,-z
x,y,-z
-x,y,z
x,-y,z
loop_
_atom_site_type_symbol
_atom_site_label
_atom_site_fract_x
_atom_site_fract_y
_atom_site_fract_z
Si Si1 0.336171 0.193290 0.320018
Si Si2 0.337970 0.313786 0.416452
Si Si3 0.842212 0.072348 0.850608
Si Si4 0.163322 0.575287 0.650767
Si Si5 0.334771 0.193894 0.149097
Si Si6 0.832780 0.571748 0.184166
Si Si7 0.158017 0.928115 0.323183
Si Si8 0.837677 0.310950 0.084844
O O1 0.500000 0.181601 0.333955
O O2 0.280210 0.256013 0.364392
O O3 0.302812 0.204977 0.234728
O O4 0.259363 0.129039 0.352206
O O5 0.318911 0.291270 0.500000
O O6 0.500000 0.328755 0.397839
O O7 0.251360 0.379792 0.403751
O O8 0.729699 0.125192 0.879305
O O9 0.839519 0.071392 0.763751
O O10 0.000000 0.090958 0.877678
O O11 0.800997 0.000000 0.880299
O O12 0.189472 0.500000 0.629178
O O13 0.215940 0.588695 0.733547
O O14 0.000000 0.593453 0.642395
O O15 0.500000 0.194119 0.132018
O O16 0.259518 0.249852 0.103117
O O17 0.773249 0.500000 0.161395
O O18 0.776553 0.626702 0.128870
O O19 0.000000 0.568702 0.181930
O O20 0.000000 0.914070 0.351434
O O21 0.208327 0.000000 0.351412
O O22 0.000000 0.295767 0.106673
O O23 0.825398 0.328275 0.000000
#
# Coordination Sequence:
#
# PCOD8195142 Si02
#       8
#     8   8   8   8   8   8   8   8
#     4   9  18  31  47  69  94 122 160 200 236 278
#     4  10  21  35  49  67  95 129 162 198 238 279
#     4   8  14  26  45  69  96 123 152 191 238 284
#     4   9  18  33  53  75  97 122 154 193 236 283
#     4  10  19  30  47  70  96 126 158 195 237 280
#     4   8  15  30  52  76  99 122 152 193 238 279
#     4   8  14  25  43  69  97 122 151 190 237 285
#     4  10  20  32  48  71  97 126 160 195 230 274
#
# _framework density 18.06343
#
# number of rings (size 3 to 8) (size 9 to 14) (size 15 to 20)
#    0.000    3.000    0.000    2.625    0.000    2.750 
#    0.000    5.000    0.000    1.875    0.000    6.125 
#    0.000    0.000    0.000    0.000    0.000    0.000 
#
# Total GULP energy -793400.089143 kJ/mol
# GULP energy per Si atom -12396.876393 kJ/mol
# Density = 1.802232 g / cm^3
# Si number density = 18.063430 Si / 1000 Ang^3
#
#
#
# Elastic Constant Matrix: (Units=GPa)
#
#
# Indices 1 2 3 4 5 6 
#
# 1 62.9824 48.3892 18.6456 0.0000 0.0000 0.0000
# 2 48.3892 114.6432 25.8767 0.0000 0.0000 0.0000
# 3 18.6456 25.8767 36.3511 0.0000 0.0000 0.0000
# 4 0.0000 0.0000 0.0000 5.1811 0.0000 0.0000
# 5 0.0000 0.0000 0.0000 0.0000 17.7634 0.0000
# 6 0.0000 0.0000 0.0000 0.0000 0.0000 24.1707
#
#
#
# Elastic Compliance Matrix: (Units=1/GPa)
#
#
# Indices 1 2 3 4 5 6 
#
# 1 0.024629 -0.008988 -0.006235 0.000000 0.000000 0.000000
# 2 -0.008988 0.013673 -0.005123 0.000000 0.000000 0.000000
# 3 -0.006235 -0.005123 0.034354 0.000000 0.000000 0.000000
# 4 0.000000 0.000000 0.000000 0.193010 0.000000 0.000000
# 5 0.000000 0.000000 0.000000 0.000000 0.056296 0.000000
# 6 0.000000 0.000000 0.000000 0.000000 0.000000 0.041372
#
#
# Mechanical properties :
#
#
# Convention : Reuss Voigt Hill
#
# Bulk Modulus (GPa) = 31.28461 44.42218 37.85339
# Shear Modulus (GPa) = 12.05751 17.49406 14.77578
#
# Velocity S-wave (km/s) = 2.58642 3.11542 2.86316
# Velocity P-wave (km/s) = 5.12605 6.13081 5.65080
#
# Compressibility (1/GPa) = 0.03196460
#
# Stress axis : x y z
#
# Youngs Moduli (GPa) = 40.60295 73.13815 29.10872
#
# Poissons Ratio (x) = 0.65738 0.18148
# Poissons Ratio (y) = 0.36495 0.14911
# Poissons Ratio (z) = 0.25314 0.37466
#
# Static dielectric constant tensor:
#      x y z
#    x 3.210200 0.000000 0.000000 
#    y 0.000000 3.760980 0.000000 
#    z 0.000000 0.000000 3.053560 
# 
# 
# High freq. dielectric constant tensor:
#      x y z
#    x 1.681340 0.000000 0.000000 
#    y 0.000000 1.712210 0.000000 
#    z 0.000000 0.000000 1.667350 
# 
# From -- ./inp_files/9914.got.cif
#   From: 2010.03.12/outbox.cif.g09.slc.cpg/sg47_5_cif.got.tgz:9914.got - 2010.04.14 03:12:58.
