data_PCOD8195933
_publ_section_title
;
Structure prediction by ZEFSAII (Michael W. Deem and Ramdas Pophale) SiO2 
 PCOD8195933
Probable space group: P M M M
;
_chemical_formula_sum "Si O2"
_cell_formula_units_Z 52
_cell_length_a 19.147093
_cell_length_b 9.425174
_cell_length_c 15.618007
_cell_angle_alpha 90.000000
_cell_angle_beta 90.000000
_cell_angle_gamma 90.000000
_cell_volume 2818.498684
_symmetry_space_group_name_H-M "P M M M"
_symmetry_group_IT_number 47
_symmetry_cell_setting 'orthorhombic'
loop_
_space_group_symop_operation_xyz
x,y,z
-x,-y,z
x,-y,-z
-x,y,-z
-x,-y,-z
x,y,-z
-x,y,z
x,-y,z
loop_
_atom_site_type_symbol
_atom_site_label
_atom_site_fract_x
_atom_site_fract_y
_atom_site_fract_z
Si Si1 0.422179 0.168122 0.251058
Si Si2 0.078601 0.333140 0.000000
Si Si3 0.804325 0.664916 0.325618
Si Si4 0.080677 0.842599 0.401589
Si Si5 0.668911 0.162396 0.093691
Si Si6 0.802617 0.664992 0.126535
Si Si7 0.321975 0.834653 0.402056
O O1 0.500000 0.234240 0.251921
O O2 0.381143 0.227056 0.167574
O O3 0.383840 0.215028 0.338640
O O4 0.427206 0.000000 0.245352
O O5 0.123314 0.287259 0.915674
O O6 0.068182 0.500000 0.000000
O O7 0.000000 0.263648 0.000000
O O8 0.796719 0.500000 0.346646
O O9 0.880040 0.719150 0.352018
O O10 0.799368 0.698603 0.226160
O O11 0.746929 0.748195 0.379727
O O12 0.102722 0.837086 0.500000
O O13 0.000000 0.809122 0.389490
O O14 0.098669 0.000000 0.365578
O O15 0.740307 0.248003 0.084672
O O16 0.687082 0.000000 0.117093
O O17 0.631723 0.171261 0.000000
O O18 0.790092 0.500000 0.106812
O O19 0.344796 0.803791 0.500000
O O20 0.304939 0.000000 0.388688
#
# Coordination Sequence:
#
# PCOD8195933 Si02
#       7
#     8   4   8   8   8   8   8
#     4   9  18  33  53  80 112 141 174 221 270 317
#     4   9  18  34  55  77 102 135 176 218 259 309
#     4  11  22  33  51  80 108 136 177 226 270 315
#     4   9  19  36  55  74 100 137 177 215 262 320
#     4  10  19  32  55  83 108 138 173 214 265 321
#     4  10  20  34  54  77 102 140 179 214 258 314
#     4  10  20  34  54  78 105 143 185 223 269 324
#
# _framework density 18.449539999999999
#
# number of rings (size 3 to 8) (size 9 to 14) (size 15 to 20)
#    0.000    2.231    2.308    1.385    0.000    4.615 
#    0.000    5.385    0.000    2.769    0.000    2.154 
#    0.000    0.000    0.000    0.000    0.000    0.000 
#
# Total GULP energy -644628.082025 kJ/mol
# GULP energy per Si atom -12396.693885 kJ/mol
# Density = 1.840755 g / cm^3
# Si number density = 18.449540 Si / 1000 Ang^3
#
#
#
# Elastic Constant Matrix: (Units=GPa)
#
#
# Indices 1 2 3 4 5 6 
#
# 1 90.2979 40.8435 59.6203 0.0000 0.0000 0.0000
# 2 40.8435 40.6729 40.3679 0.0000 0.0000 0.0000
# 3 59.6203 40.3679 132.5333 0.0000 0.0000 0.0000
# 4 0.0000 0.0000 0.0000 14.5441 0.0000 0.0000
# 5 0.0000 0.0000 0.0000 0.0000 27.1754 0.0000
# 6 0.0000 0.0000 0.0000 0.0000 0.0000 12.3011
#
#
#
# Elastic Compliance Matrix: (Units=1/GPa)
#
#
# Indices 1 2 3 4 5 6 
#
# 1 0.022053 -0.017629 -0.004551 0.000000 0.000000 0.000000
# 2 -0.017629 0.049331 -0.007095 0.000000 0.000000 0.000000
# 3 -0.004551 -0.007095 0.011754 0.000000 0.000000 0.000000
# 4 0.000000 0.000000 0.000000 0.068756 0.000000 0.000000
# 5 0.000000 0.000000 0.000000 0.000000 0.036798 0.000000
# 6 0.000000 0.000000 0.000000 0.000000 0.000000 0.081294
#
#
# Mechanical properties :
#
#
# Convention : Reuss Voigt Hill
#
# Bulk Modulus (GPa) = 40.67074 60.57417 50.62245
# Shear Modulus (GPa) = 14.84860 18.98228 16.91544
#
# Velocity S-wave (km/s) = 2.84002 3.21109 3.03124
# Velocity P-wave (km/s) = 5.73118 6.83021 6.30469
#
# Compressibility (1/GPa) = 0.02458770
#
# Stress axis : x y z
#
# Youngs Moduli (GPa) = 45.34488 20.27126 85.07881
#
# Poissons Ratio (x) = 0.35735 0.38721
# Poissons Ratio (y) = 0.79936 0.60366
# Poissons Ratio (z) = 0.20638 0.14383
#
# Static dielectric constant tensor:
#      x y z
#    x 3.503090 0.000000 0.000000 
#    y 0.000000 3.161060 0.000000 
#    z 0.000000 0.000000 3.698340 
# 
# 
# High freq. dielectric constant tensor:
#      x y z
#    x 1.711520 0.000000 0.000000 
#    y 0.000000 1.685630 0.000000 
#    z 0.000000 0.000000 1.729790 
# 
# From -- ./inp_files/25034.got.cif
#   From: 2010.03.12/outbox.cif.g09.slc.cpg/sg47_13_cif.got.tgz:25034.got - 2010.04.14 03:12:58.
