data_PCOD8195022
_publ_section_title
;
Structure prediction by ZEFSAII (Michael W. Deem and Ramdas Pophale) SiO2 
 PCOD8195022
Probable space group: P M M M
;
_chemical_formula_sum "Si O2"
_cell_formula_units_Z 52
_cell_length_a 9.127752
_cell_length_b 12.843904
_cell_length_c 27.701847
_cell_angle_alpha 90.000000
_cell_angle_beta 90.000000
_cell_angle_gamma 90.000000
_cell_volume 3247.652916
_symmetry_space_group_name_H-M "P M M M"
_symmetry_group_IT_number 47
_symmetry_cell_setting 'orthorhombic'
loop_
_space_group_symop_operation_xyz
x,y,z
-x,-y,z
x,-y,-z
-x,y,-z
-x,-y,-z
x,y,-z
-x,y,z
x,-y,z
loop_
_atom_site_type_symbol
_atom_site_label
_atom_site_fract_x
_atom_site_fract_y
_atom_site_fract_z
Si Si1 0.325056 0.168101 0.617836
Si Si2 0.327015 0.386001 0.654815
Si Si3 0.834095 0.116129 0.285917
Si Si4 0.674078 0.295112 0.243674
Si Si5 0.337722 0.377328 0.857436
Si Si6 0.164052 0.623736 0.052536
Si Si7 0.831826 0.000000 0.557060
O O1 0.500000 0.154341 0.614593
O O2 0.280309 0.291885 0.618456
O O3 0.266402 0.117567 0.666669
O O4 0.248994 0.105765 0.574256
O O5 0.500000 0.393024 0.654572
O O6 0.262252 0.500000 0.639237
O O7 0.275410 0.361605 0.709551
O O8 0.758352 0.185674 0.244940
O O9 0.000000 0.154050 0.297609
O O10 0.837118 0.000000 0.265177
O O11 0.500000 0.278115 0.244572
O O12 0.729641 0.350393 0.194842
O O13 0.500000 0.330475 0.860302
O O14 0.339683 0.500000 0.862922
O O15 0.251203 0.326648 0.902441
O O16 0.163804 0.500000 0.056889
O O17 0.000000 0.667022 0.055889
O O18 0.231612 0.655583 0.000000
O O19 0.826035 0.000000 0.500000
O O20 0.000000 0.000000 0.575902
#
# Coordination Sequence:
#
# PCOD8195022 Si02
#       7
#     8   8   8   8   8   8   4
#     4  10  19  31  52  76  96 122 155 190 227 270
#     4   8  14  26  45  69  95 122 152 185 220 261
#     4  10  19  30  45  64  90 121 148 180 221 263
#     4   9  17  27  41  62  87 118 152 184 217 259
#     4   9  16  25  38  57  82 111 143 182 224 261
#     4   8  14  24  36  50  71 103 142 180 219 264
#     4  11  23  37  53  73  99 127 153 191 240 279
#
# _framework density 16.011562000000001
#
# number of rings (size 3 to 8) (size 9 to 14) (size 15 to 20)
#    0.000    2.846    0.769    3.000    0.000    4.308 
#    0.000    1.538    0.000   15.692    0.000    3.231 
#    0.000    0.615    0.000    6.769    0.000    5.231 
#
# Total GULP energy -644222.415838 kJ/mol
# GULP energy per Si atom -12388.892612 kJ/mol
# Density = 1.597512 g / cm^3
# Si number density = 16.011562 Si / 1000 Ang^3
#
#
#
# Elastic Constant Matrix: (Units=GPa)
#
#
# Indices 1 2 3 4 5 6 
#
# 1 63.3807 28.9634 34.0089 0.0000 0.0000 0.0000
# 2 28.9634 91.9540 32.2289 0.0000 0.0000 0.0000
# 3 34.0089 32.2289 82.2846 0.0000 0.0000 0.0000
# 4 0.0000 0.0000 0.0000 17.9786 0.0000 0.0000
# 5 0.0000 0.0000 0.0000 0.0000 24.0931 0.0000
# 6 0.0000 0.0000 0.0000 0.0000 0.0000 15.1314
#
#
#
# Elastic Compliance Matrix: (Units=1/GPa)
#
#
# Indices 1 2 3 4 5 6 
#
# 1 0.021626 -0.004264 -0.007268 0.000000 0.000000 0.000000
# 2 -0.004264 0.013446 -0.003504 0.000000 0.000000 0.000000
# 3 -0.007268 -0.003504 0.016529 0.000000 0.000000 0.000000
# 4 0.000000 0.000000 0.000000 0.055622 0.000000 0.000000
# 5 0.000000 0.000000 0.000000 0.000000 0.041506 0.000000
# 6 0.000000 0.000000 0.000000 0.000000 0.000000 0.066088
#
#
# Mechanical properties :
#
#
# Convention : Reuss Voigt Hill
#
# Bulk Modulus (GPa) = 46.44924 47.55797 47.00360
# Shear Modulus (GPa) = 19.83603 20.93516 20.38560
#
# Velocity S-wave (km/s) = 3.52356 3.61986 3.57204
# Velocity P-wave (km/s) = 6.75476 6.87299 6.81413
#
# Compressibility (1/GPa) = 0.02152888
#
# Stress axis : x y z
#
# Youngs Moduli (GPa) = 46.23997 74.36966 60.49838
#
# Poissons Ratio (x) = 0.31714 0.43971
# Poissons Ratio (y) = 0.19719 0.21199
# Poissons Ratio (z) = 0.33608 0.26060
#
# Static dielectric constant tensor:
#      x y z
#    x 3.130870 0.000000 0.000000 
#    y 0.000000 3.192510 0.000000 
#    z 0.000000 0.000000 3.037770 
# 
# 
# High freq. dielectric constant tensor:
#      x y z
#    x 1.608560 0.000000 0.000000 
#    y 0.000000 1.588740 0.000000 
#    z 0.000000 0.000000 1.598200 
# 
# From -- ./inp_files/33412.got.cif
#   From: 2010.03.12/outbox.cif.g09.slc.cpg/sg47_17_cif.got.tgz:33412.got - 2010.04.14 03:12:58.
