data_PCOD8195833
_publ_section_title
;
Structure prediction by ZEFSAII (Michael W. Deem and Ramdas Pophale) SiO2 
 PCOD8195833
Probable space group: P M M M
;
_chemical_formula_sum "Si O2"
_cell_formula_units_Z 44
_cell_length_a 19.610508
_cell_length_b 7.662524
_cell_length_c 14.502337
_cell_angle_alpha 90.000000
_cell_angle_beta 90.000000
_cell_angle_gamma 90.000000
_cell_volume 2179.208001
_symmetry_space_group_name_H-M "P M M M"
_symmetry_group_IT_number 47
_symmetry_cell_setting 'orthorhombic'
loop_
_space_group_symop_operation_xyz
x,y,z
-x,-y,z
x,-y,-z
-x,y,-z
-x,-y,-z
x,y,-z
-x,y,z
x,-y,z
loop_
_atom_site_type_symbol
_atom_site_label
_atom_site_fract_x
_atom_site_fract_y
_atom_site_fract_z
Si Si1 0.660525 0.700719 0.705463
Si Si2 0.702477 0.698023 0.099476
Si Si3 0.854144 0.203230 0.898326
Si Si4 0.419754 0.000000 0.393514
Si Si5 0.074758 0.793027 0.282729
Si Si6 0.204171 0.793258 0.605658
O O1 0.634255 0.500000 0.703011
O O2 0.664870 0.777127 0.810619
O O3 0.608832 0.823561 0.651012
O O4 0.735157 0.702273 0.660522
O O5 0.678527 0.500000 0.092978
O O6 0.783203 0.698964 0.115721
O O7 0.684442 0.790559 0.000000
O O8 0.907010 0.268651 0.821142
O O9 0.837984 0.000000 0.885277
O O10 0.884984 0.241979 0.000000
O O11 0.500000 0.000000 0.380369
O O12 0.397667 0.000000 0.500000
O O13 0.131993 0.725731 0.353840
O O14 0.000000 0.715816 0.308232
O O15 0.071638 0.000000 0.287232
O O16 0.207488 0.734696 0.500000
O O17 0.212223 0.000000 0.617006
#
# Coordination Sequence:
#
# PCOD8195833 Si02
#       6
#     8   8   8   4   8   8
#     4  11  22  38  65  94 122 159 200 243 293 349
#     4   9  18  32  53  84 117 148 189 243 296 346
#     4   9  16  26  44  70 100 138 185 239 298 356
#     4  11  26  46  67  95 130 162 194 237 287 345
#     4   9  17  28  43  67 103 146 191 243 302 358
#     4  10  19  32  52  77 108 146 194 252 302 348
#
# _framework density 20.190821
#
# number of rings (size 3 to 8) (size 9 to 14) (size 15 to 20)
#    0.000    2.273    2.727    0.545    1.273    2.545 
#    0.000    4.545    0.000    3.273    0.000    6.364 
#    0.000    0.000    0.000    0.000    0.000    0.000 
#
# Total GULP energy -545269.196413 kJ/mol
# GULP energy per Si atom -12392.481737 kJ/mol
# Density = 2.014487 g / cm^3
# Si number density = 20.190821 Si / 1000 Ang^3
#
#
#
# Elastic Constant Matrix: (Units=GPa)
#
#
# Indices 1 2 3 4 5 6 
#
# 1 83.7015 25.4249 62.2902 0.0000 0.0000 0.0000
# 2 25.4249 56.5541 34.9089 0.0000 0.0000 0.0000
# 3 62.2902 34.9089 171.3820 0.0000 0.0000 0.0000
# 4 0.0000 0.0000 0.0000 18.3360 0.0000 0.0000
# 5 0.0000 0.0000 0.0000 0.0000 28.4295 0.0000
# 6 0.0000 0.0000 0.0000 0.0000 0.0000 0.3719
#
#
#
# Elastic Compliance Matrix: (Units=1/GPa)
#
#
# Indices 1 2 3 4 5 6 
#
# 1 0.017307 -0.004458 -0.005382 0.000000 0.000000 0.000000
# 2 -0.004458 0.021374 -0.002733 0.000000 0.000000 0.000000
# 3 -0.005382 -0.002733 0.008348 0.000000 0.000000 0.000000
# 4 0.000000 0.000000 0.000000 0.054538 0.000000 0.000000
# 5 0.000000 0.000000 0.000000 0.000000 0.035175 0.000000
# 6 0.000000 0.000000 0.000000 0.000000 0.000000 2.688610
#
#
# Mechanical properties :
#
#
# Convention : Reuss Voigt Hill
#
# Bulk Modulus (GPa) = 45.70205 61.87617 53.78911
# Shear Modulus (GPa) = 1.74960 22.02839 11.88899
#
# Velocity S-wave (km/s) = 0.93189 3.30663 2.42922
# Velocity P-wave (km/s) = 4.88284 6.72983 5.87932
#
# Compressibility (1/GPa) = 0.02188085
#
# Stress axis : x y z
#
# Youngs Moduli (GPa) = 57.78042 46.78661 119.79136
#
# Poissons Ratio (x) = 0.20859 0.64474
# Poissons Ratio (y) = 0.25761 0.32741
# Poissons Ratio (z) = 0.31099 0.12788
#
# Static dielectric constant tensor:
#      x y z
#    x 3.426800 0.000000 0.000000 
#    y 0.000000 3.415250 0.000000 
#    z 0.000000 0.000000 4.197010 
# 
# 
# High freq. dielectric constant tensor:
#      x y z
#    x 1.747310 0.000000 0.000000 
#    y 0.000000 1.768500 0.000000 
#    z 0.000000 0.000000 1.809670 
# 
# From -- ./inp_files/6181.got.cif
#   From: 2010.03.12/outbox.cif.g09.slc.cpg/sg47_4_cif.got.tgz:6181.got - 2010.04.14 03:12:58.
