data_PCOD8195750
_publ_section_title
;
Structure prediction by ZEFSAII (Michael W. Deem and Ramdas Pophale) SiO2 
 PCOD8195750
Probable space group: P M M M
;
_chemical_formula_sum "Si O2"
_cell_formula_units_Z 40
_cell_length_a 9.251556
_cell_length_b 29.064161
_cell_length_c 7.813034
_cell_angle_alpha 90.000000
_cell_angle_beta 90.000000
_cell_angle_gamma 90.000000
_cell_volume 2100.836658
_symmetry_space_group_name_H-M "P M M M"
_symmetry_group_IT_number 47
_symmetry_cell_setting 'orthorhombic'
loop_
_space_group_symop_operation_xyz
x,y,z
-x,-y,z
x,-y,-z
-x,y,-z
-x,-y,-z
x,y,-z
-x,y,z
x,-y,z
loop_
_atom_site_type_symbol
_atom_site_label
_atom_site_fract_x
_atom_site_fract_y
_atom_site_fract_z
Si Si1 0.834416 0.213451 0.202010
Si Si2 0.166257 0.386421 0.190472
Si Si3 0.663816 0.698733 0.695540
Si Si4 0.827312 0.051893 0.000000
Si Si5 0.171704 0.886602 0.690736
Si Si6 0.171830 0.448634 0.500000
O O1 0.737831 0.251967 0.289299
O O2 0.773066 0.164502 0.265361
O O3 0.000000 0.220264 0.260728
O O4 0.820348 0.216592 0.000000
O O5 0.253150 0.338911 0.192842
O O6 0.227283 0.422581 0.329421
O O7 0.000000 0.374643 0.232131
O O8 0.181981 0.407902 0.000000
O O9 0.669080 0.682439 0.500000
O O10 0.500000 0.702415 0.762625
O O11 0.766957 0.077379 0.169899
O O12 0.000000 0.052377 0.000000
O O13 0.767445 0.000000 0.000000
O O14 0.224143 0.900807 0.500000
O O15 0.000000 0.886699 0.701927
O O16 0.238022 0.500000 0.500000
O O17 0.000000 0.451436 0.500000
#
# Coordination Sequence:
#
# PCOD8195750 Si02
#       6
#     8   8   8   4   8   4
#     4  10  19  32  51  74 101 135 176 219 262 314
#     4  10  20  35  57  83 110 143 181 217 260 316
#     4  11  23  36  51  75 108 143 178 219 267 316
#     4   9  16  26  40  62  95 131 169 213 258 309
#     4   9  16  27  43  64  93 129 168 210 256 306
#     4   9  18  34  57  85 115 143 175 223 270 305
#
# _framework density 19.040032
#
# number of rings (size 3 to 8) (size 9 to 14) (size 15 to 20)
#    0.000    2.200    2.000    1.800    0.000    6.000 
#    0.000    4.000    0.000    1.200    0.000    1.400 
#    0.000    1.600    0.000    4.200    0.000    4.000 
#
# Total GULP energy -495997.690312 kJ/mol
# GULP energy per Si atom -12399.942258 kJ/mol
# Density = 1.899670 g / cm^3
# Si number density = 19.040032 Si / 1000 Ang^3
#
#
#
# Elastic Constant Matrix: (Units=GPa)
#
#
# Indices 1 2 3 4 5 6 
#
# 1 51.2854 34.6216 25.2613 0.0000 0.0000 0.0000
# 2 34.6216 151.2160 63.8334 0.0000 0.0000 0.0000
# 3 25.2613 63.8334 126.8207 0.0000 0.0000 0.0000
# 4 0.0000 0.0000 0.0000 30.4282 0.0000 0.0000
# 5 0.0000 0.0000 0.0000 0.0000 12.6352 0.0000
# 6 0.0000 0.0000 0.0000 0.0000 0.0000 -1.4472
#
#
#
# Elastic Compliance Matrix: (Units=1/GPa)
#
#
# Indices 1 2 3 4 5 6 
#
# 1 0.023683 -0.004357 -0.002525 0.000000 0.000000 0.000000
# 2 -0.004357 0.009199 -0.003762 0.000000 0.000000 0.000000
# 3 -0.002525 -0.003762 0.010282 0.000000 0.000000 0.000000
# 4 0.000000 0.000000 0.000000 0.032864 0.000000 0.000000
# 5 0.000000 0.000000 0.000000 0.000000 0.079144 0.000000
# 6 0.000000 0.000000 0.000000 0.000000 0.000000 -0.690994
#
#
# Mechanical properties :
#
#
# Convention : Reuss Voigt Hill
#
# Bulk Modulus (GPa) = 45.71072 64.08386 54.89729
# Shear Modulus (GPa) = -9.85720 22.03029 6.08654
#
# Velocity S-wave (km/s) = -2.27779 3.40524 1.78987
# Velocity P-wave (km/s) = 4.14029 7.01365 5.75905
#
# Compressibility (1/GPa) = 0.02187671
#
# Stress axis : x y z
#
# Youngs Moduli (GPa) = 42.22374 108.71083 97.26031
#
# Poissons Ratio (x) = 0.47362 0.24554
# Poissons Ratio (y) = 0.18396 0.36592
# Poissons Ratio (z) = 0.10660 0.40900
#
# Static dielectric constant tensor:
#      x y z
#    x 3.019580 0.000000 0.000000 
#    y 0.000000 3.545970 0.000000 
#    z 0.000000 0.000000 3.694000 
# 
# 
# High freq. dielectric constant tensor:
#      x y z
#    x 1.682150 0.000000 0.000000 
#    y 0.000000 1.737230 0.000000 
#    z 0.000000 0.000000 1.759200 
# 
# From -- ./inp_files/1888.got.cif
#   From: 2010.03.12/outbox.cif.g09.slc.cpg/sg47_1_cif.got.tgz:1888.got - 2010.04.14 03:12:58.
