data_PCOD8195502
_publ_section_title
;
Structure prediction by ZEFSAII (Michael W. Deem and Ramdas Pophale) SiO2 
 PCOD8195502
Probable space group: P M M M
;
_chemical_formula_sum "Si O2"
_cell_formula_units_Z 60
_cell_length_a 9.099074
_cell_length_b 19.758333
_cell_length_c 19.436780
_cell_angle_alpha 90.000000
_cell_angle_beta 90.000000
_cell_angle_gamma 90.000000
_cell_volume 3494.393563
_symmetry_space_group_name_H-M "P M M M"
_symmetry_group_IT_number 47
_symmetry_cell_setting 'orthorhombic'
loop_
_space_group_symop_operation_xyz
x,y,z
-x,-y,z
x,-y,-z
-x,y,-z
-x,-y,-z
x,y,-z
-x,y,z
x,-y,z
loop_
_atom_site_type_symbol
_atom_site_label
_atom_site_fract_x
_atom_site_fract_y
_atom_site_fract_z
Si Si1 0.327189 0.074898 0.780859
Si Si2 0.673094 0.671771 0.075781
Si Si3 0.832542 0.250302 0.578138
Si Si4 0.326124 0.216784 0.820152
Si Si5 0.326041 0.422517 0.802920
Si Si6 0.844375 0.000000 0.576055
Si Si7 0.170028 0.314461 0.717564
Si Si8 0.673037 0.120674 0.369244
O O1 0.500000 0.064594 0.781705
O O2 0.282287 0.137181 0.831702
O O3 0.274096 0.102731 0.707559
O O4 0.256759 0.000000 0.797876
O O5 0.500000 0.668161 0.067221
O O6 0.718195 0.743155 0.110667
O O7 0.725563 0.610287 0.124533
O O8 0.747070 0.666208 0.000000
O O9 0.793179 0.274641 0.500000
O O10 0.813345 0.310214 0.634415
O O11 0.724433 0.192439 0.603236
O O12 0.000000 0.223322 0.580157
O O13 0.500000 0.223128 0.804554
O O14 0.244907 0.249706 0.754522
O O15 0.500000 0.414655 0.793423
O O16 0.275403 0.500000 0.802509
O O17 0.247628 0.383982 0.740380
O O18 0.744839 0.934926 0.583875
O O19 0.900759 0.000000 0.500000
O O20 0.000000 0.000000 0.619620
O O21 0.000000 0.316077 0.739558
O O22 0.500000 0.117450 0.375607
#
# Coordination Sequence:
#
# PCOD8195502 Si02
#       8
#     8   8   8   8   8   4   8   8
#     4   9  16  27  44  65  88 117 154 199 246 284
#     4   8  14  25  45  75 104 129 159 191 223 268
#     4  10  21  35  48  65  92 123 154 194 247 297
#     4   9  16  29  49  68  92 126 162 200 240 282
#     4   9  18  32  51  75 102 132 160 187 226 275
#     4  11  23  35  43  55  85 125 156 189 244 306
#     4  10  19  31  50  72  94 123 160 199 236 281
#     4  11  20  31  47  66  86 114 156 202 245 295
#
# _framework density 17.170362000000001
#
# number of rings (size 3 to 8) (size 9 to 14) (size 15 to 20)
#    0.000    2.467    2.000    2.200    0.000    3.467 
#    0.000    1.333    0.000    7.200    0.000    9.333 
#    0.000    0.000    0.000    4.800    0.000    5.333 
#
# Total GULP energy -743291.059714 kJ/mol
# GULP energy per Si atom -12388.184329 kJ/mol
# Density = 1.713128 g / cm^3
# Si number density = 17.170362 Si / 1000 Ang^3
#
#
#
# Elastic Constant Matrix: (Units=GPa)
#
#
# Indices 1 2 3 4 5 6 
#
# 1 47.9941 32.7591 28.9892 0.0000 0.0000 0.0000
# 2 32.7591 151.9899 67.1486 0.0000 0.0000 0.0000
# 3 28.9892 67.1486 98.1474 0.0000 0.0000 0.0000
# 4 0.0000 0.0000 0.0000 16.7094 0.0000 0.0000
# 5 0.0000 0.0000 0.0000 0.0000 14.2275 0.0000
# 6 0.0000 0.0000 0.0000 0.0000 0.0000 -7.2602
#
#
#
# Elastic Compliance Matrix: (Units=1/GPa)
#
#
# Indices 1 2 3 4 5 6 
#
# 1 0.026416 -0.003220 -0.005599 0.000000 0.000000 0.000000
# 2 -0.003220 0.009822 -0.005769 0.000000 0.000000 0.000000
# 3 -0.005599 -0.005769 0.015789 0.000000 0.000000 0.000000
# 4 0.000000 0.000000 0.000000 0.059847 0.000000 0.000000
# 5 0.000000 0.000000 0.000000 0.000000 0.070287 0.000000
# 6 0.000000 0.000000 0.000000 0.000000 0.000000 -0.137737
#
#
# Mechanical properties :
#
#
# Convention : Reuss Voigt Hill
#
# Bulk Modulus (GPa) = 43.76147 61.76948 52.76548
# Shear Modulus (GPa) = 61.56365 16.01761 38.79063
#
# Velocity S-wave (km/s) = 5.99437 3.05760 4.75822
# Velocity P-wave (km/s) = 8.57041 6.96547 7.80928
#
# Compressibility (1/GPa) = 0.02285115
#
# Stress axis : x y z
#
# Youngs Moduli (GPa) = 37.85629 101.81225 63.33335
#
# Poissons Ratio (x) = 0.32780 0.35463
# Poissons Ratio (y) = 0.12189 0.36536
# Poissons Ratio (z) = 0.21198 0.58734
#
# Static dielectric constant tensor:
#      x y z
#    x 3.016360 0.000000 0.000000 
#    y 0.000000 3.422530 0.000000 
#    z 0.000000 0.000000 3.340010 
# 
# 
# High freq. dielectric constant tensor:
#      x y z
#    x 1.643710 0.000000 0.000000 
#    y 0.000000 1.656350 0.000000 
#    z 0.000000 0.000000 1.645280 
# 
# From -- ./inp_files/30002.got.cif
#   From: 2010.03.12/outbox.cif.g09.slc.cpg/sg47_16_cif.got.tgz:30002.got - 2010.04.14 03:12:58.
