data_PCOD8195391
_publ_section_title
;
Structure prediction by ZEFSAII (Michael W. Deem and Ramdas Pophale) SiO2 
 PCOD8195391
Probable space group: P M M M
;
_chemical_formula_sum "Si O2"
_cell_formula_units_Z 40
_cell_length_a 10.278361
_cell_length_b 24.865354
_cell_length_c 8.763862
_cell_angle_alpha 90.000000
_cell_angle_beta 90.000000
_cell_angle_gamma 90.000000
_cell_volume 2239.824774
_symmetry_space_group_name_H-M "P M M M"
_symmetry_group_IT_number 47
_symmetry_cell_setting 'orthorhombic'
loop_
_space_group_symop_operation_xyz
x,y,z
-x,-y,z
x,-y,-z
-x,y,-z
-x,-y,-z
x,y,-z
-x,y,z
x,-y,z
loop_
_atom_site_type_symbol
_atom_site_label
_atom_site_fract_x
_atom_site_fract_y
_atom_site_fract_z
Si Si1 0.844819 0.328380 0.171347
Si Si2 0.247994 0.115694 0.820016
Si Si3 0.847597 0.779693 0.676383
Si Si4 0.500000 0.938191 0.680830
Si Si5 0.000000 0.063426 0.672071
Si Si6 0.145933 0.443055 0.818544
O O1 0.798603 0.280004 0.279716
O O2 0.788710 0.386250 0.235142
O O3 0.000000 0.332705 0.170732
O O4 0.794240 0.316725 0.000000
O O5 0.233939 0.178058 0.775108
O O6 0.374846 0.091547 0.744092
O O7 0.125862 0.082466 0.761009
O O8 0.258719 0.110131 0.000000
O O9 0.818513 0.789629 0.500000
O O10 0.000000 0.787018 0.714497
O O11 0.500000 0.934481 0.500000
O O12 0.500000 0.000000 0.735690
O O13 0.000000 0.087707 0.500000
O O14 0.000000 0.000000 0.664599
O O15 0.216330 0.500000 0.768354
O O16 0.000000 0.445682 0.753293
O O17 0.141237 0.439985 0.000000
#
# Coordination Sequence:
#
# PCOD8195391 Si02
#       6
#     8   8   8   4   4   8
#     4   8  13  21  35  56  83 115 157 207 253 298
#     4  12  24  38  59  84 109 137 174 219 259 302
#     4  10  19  31  48  69  98 133 170 211 259 313
#     4  11  25  45  65  83 109 143 172 203 254 319
#     4  11  23  39  59  83 111 141 172 207 254 309
#     4   7   9  14  26  46  73 108 151 198 246 295
#
# _framework density 17.858540000000001
#
# number of rings (size 3 to 8) (size 9 to 14) (size 15 to 20)
#    0.000    2.400    1.000    5.400    0.000    4.800 
#    0.000    0.000    0.000    0.600    0.000    4.200 
#    0.000    0.000    0.000    0.900    0.000   19.000 
#
# Total GULP energy -495571.125114 kJ/mol
# GULP energy per Si atom -12389.278128 kJ/mol
# Density = 1.781789 g / cm^3
# Si number density = 17.858540 Si / 1000 Ang^3
#
#
#
# Elastic Constant Matrix: (Units=GPa)
#
#
# Indices 1 2 3 4 5 6 
#
# 1 71.3668 41.2382 22.6499 0.0000 0.0000 0.0000
# 2 41.2382 162.9403 40.8486 0.0000 0.0000 0.0000
# 3 22.6499 40.8486 66.2052 0.0000 0.0000 0.0000
# 4 0.0000 0.0000 0.0000 13.8117 0.0000 0.0000
# 5 0.0000 0.0000 0.0000 0.0000 19.5975 0.0000
# 6 0.0000 0.0000 0.0000 0.0000 0.0000 14.1376
#
#
#
# Elastic Compliance Matrix: (Units=1/GPa)
#
#
# Indices 1 2 3 4 5 6 
#
# 1 0.017176 -0.003400 -0.003778 0.000000 0.000000 0.000000
# 2 -0.003400 0.007933 -0.003732 0.000000 0.000000 0.000000
# 3 -0.003778 -0.003732 0.018700 0.000000 0.000000 0.000000
# 4 0.000000 0.000000 0.000000 0.072402 0.000000 0.000000
# 5 0.000000 0.000000 0.000000 0.000000 0.051027 0.000000
# 6 0.000000 0.000000 0.000000 0.000000 0.000000 0.070733
#
#
# Mechanical properties :
#
#
# Convention : Reuss Voigt Hill
#
# Bulk Modulus (GPa) = 45.47756 56.66509 51.07132
# Shear Modulus (GPa) = 18.71813 22.56106 20.63960
#
# Velocity S-wave (km/s) = 3.24100 3.55818 3.40329
# Velocity P-wave (km/s) = 6.28698 6.97708 6.64100
#
# Compressibility (1/GPa) = 0.02198887
#
# Stress axis : x y z
#
# Youngs Moduli (GPa) = 58.22147 126.05318 53.47688
#
# Poissons Ratio (x) = 0.42855 0.20206
# Poissons Ratio (y) = 0.19794 0.19956
# Poissons Ratio (z) = 0.21999 0.47039
#
# Static dielectric constant tensor:
#      x y z
#    x 2.756090 0.000000 0.000000 
#    y 0.000000 4.030760 0.000000 
#    z 0.000000 0.000000 3.215890 
# 
# 
# High freq. dielectric constant tensor:
#      x y z
#    x 1.618530 0.000000 0.000000 
#    y 0.000000 1.727340 0.000000 
#    z 0.000000 0.000000 1.678280 
# 
# From -- ./inp_files/1861.got.cif
#   From: 2010.03.12/outbox.cif.g09.slc.cpg/sg47_1_cif.got.tgz:1861.got - 2010.04.14 03:12:58.
