data_PCOD8195159
_publ_section_title
;
Structure prediction by ZEFSAII (Michael W. Deem and Ramdas Pophale) SiO2 
 PCOD8195159
Probable space group: P M M M
;
_chemical_formula_sum "Si O2"
_cell_formula_units_Z 44
_cell_length_a 16.983204
_cell_length_b 15.746578
_cell_length_c 8.916545
_cell_angle_alpha 90.000000
_cell_angle_beta 90.000000
_cell_angle_gamma 90.000000
_cell_volume 2384.527969
_symmetry_space_group_name_H-M "P M M M"
_symmetry_group_IT_number 47
_symmetry_cell_setting 'orthorhombic'
loop_
_space_group_symop_operation_xyz
x,y,z
-x,-y,z
x,-y,-z
-x,y,-z
-x,-y,-z
x,y,-z
-x,y,z
x,-y,z
loop_
_atom_site_type_symbol
_atom_site_label
_atom_site_fract_x
_atom_site_fract_y
_atom_site_fract_z
Si Si1 0.666975 0.593515 0.322241
Si Si2 0.500000 0.650733 0.678596
Si Si3 0.500000 0.842687 0.321347
Si Si4 0.770409 0.750452 0.321503
Si Si5 0.909567 0.328109 0.823401
Si Si6 0.906750 0.500000 0.332373
Si Si7 0.333915 0.093983 0.678109
O O1 0.664443 0.601336 0.500000
O O2 0.698597 0.500000 0.273135
O O3 0.578155 0.604500 0.259451
O O4 0.722094 0.668715 0.260679
O O5 0.500000 0.649421 0.500000
O O6 0.500000 0.746830 0.737722
O O7 0.500000 0.845277 0.500000
O O8 0.421661 0.888562 0.258749
O O9 0.779231 0.750231 0.500000
O O10 0.856813 0.747203 0.246353
O O11 0.727617 0.835741 0.262554
O O12 0.878117 0.416388 0.753741
O O13 0.000000 0.310281 0.778885
O O14 0.899104 0.333054 0.000000
O O15 0.869786 0.500000 0.500000
O O16 0.000000 0.500000 0.340527
O O17 0.336705 0.100113 0.500000
O O18 0.306861 0.000000 0.730764
#
# Coordination Sequence:
#
# PCOD8195159 Si02
#       7
#     8   4   4   8   8   4   8
#     4   9  16  24  36  59  93 131 166 201 240 282
#     4   9  13  21  35  54  91 134 166 196 236 286
#     4   9  13  21  37  60  95 134 164 196 247 306
#     4  10  19  30  47  72  99 127 165 212 255 301
#     4  10  21  36  52  71  99 134 169 204 246 298
#     4   9  17  31  53  79 103 128 161 200 241 287
#     4   9  16  26  42  67  99 131 163 206 260 308
#
# _framework density 18.452289
#
# number of rings (size 3 to 8) (size 9 to 14) (size 15 to 20)
#    0.000    2.636    1.818    1.364    1.273    4.364 
#    0.000    0.000    0.000    1.091    0.000    6.364 
#    0.000    2.909    0.000    0.000    0.000    0.000 
#
# Total GULP energy -545398.794391 kJ/mol
# GULP energy per Si atom -12395.427145 kJ/mol
# Density = 1.841029 g / cm^3
# Si number density = 18.452289 Si / 1000 Ang^3
#
#
#
# Elastic Constant Matrix: (Units=GPa)
#
#
# Indices 1 2 3 4 5 6 
#
# 1 113.4751 70.1336 28.8244 0.0000 0.0000 0.0000
# 2 70.1336 153.4738 22.1047 0.0000 0.0000 0.0000
# 3 28.8244 22.1047 31.4945 0.0000 0.0000 0.0000
# 4 0.0000 0.0000 0.0000 8.6335 0.0000 0.0000
# 5 0.0000 0.0000 0.0000 0.0000 8.0706 0.0000
# 6 0.0000 0.0000 0.0000 0.0000 0.0000 22.0866
#
#
#
# Elastic Compliance Matrix: (Units=1/GPa)
#
#
# Indices 1 2 3 4 5 6 
#
# 1 0.014484 -0.005239 -0.009579 0.000000 0.000000 0.000000
# 2 -0.005239 0.009144 -0.001623 0.000000 0.000000 0.000000
# 3 -0.009579 -0.001623 0.041657 0.000000 0.000000 0.000000
# 4 0.000000 0.000000 0.000000 0.115828 0.000000 0.000000
# 5 0.000000 0.000000 0.000000 0.000000 0.123906 0.000000
# 6 0.000000 0.000000 0.000000 0.000000 0.000000 0.045276
#
#
# Mechanical properties :
#
#
# Convention : Reuss Voigt Hill
#
# Bulk Modulus (GPa) = 30.86075 60.06321 45.46198
# Shear Modulus (GPa) = 12.69109 19.58351 16.13730
#
# Velocity S-wave (km/s) = 2.62540 3.26130 2.96047
# Velocity P-wave (km/s) = 5.09423 6.84125 6.03133
#
# Compressibility (1/GPa) = 0.03240362
#
# Stress axis : x y z
#
# Youngs Moduli (GPa) = 69.04339 109.36630 24.00552
#
# Poissons Ratio (x) = 0.57298 0.22994
# Poissons Ratio (y) = 0.36172 0.03895
# Poissons Ratio (z) = 0.66134 0.17746
#
# Static dielectric constant tensor:
#      x y z
#    x 3.521500 0.000000 0.000000 
#    y 0.000000 3.533490 0.000000 
#    z 0.000000 0.000000 2.768170 
# 
# 
# High freq. dielectric constant tensor:
#      x y z
#    x 1.720680 0.000000 0.000000 
#    y 0.000000 1.708470 0.000000 
#    z 0.000000 0.000000 1.648800 
# 
# From -- ./inp_files/9081.got.cif
#   From: 2010.03.12/outbox.cif.g09.slc.cpg/sg47_5_cif.got.tgz:9081.got - 2010.04.14 03:12:58.
