data_PCOD8195584
_publ_section_title
;
Structure prediction by ZEFSAII (Michael W. Deem and Ramdas Pophale) SiO2 
 PCOD8195584
Probable space group: P M M M
;
_chemical_formula_sum "Si O2"
_cell_formula_units_Z 64
_cell_length_a 24.776762
_cell_length_b 9.006755
_cell_length_c 15.080215
_cell_angle_alpha 90.000000
_cell_angle_beta 90.000000
_cell_angle_gamma 90.000000
_cell_volume 3365.274012
_symmetry_space_group_name_H-M "P M M M"
_symmetry_group_IT_number 47
_symmetry_cell_setting 'orthorhombic'
loop_
_space_group_symop_operation_xyz
x,y,z
-x,-y,z
x,-y,-z
-x,y,-z
-x,-y,-z
x,y,-z
-x,y,z
x,-y,z
loop_
_atom_site_type_symbol
_atom_site_label
_atom_site_fract_x
_atom_site_fract_y
_atom_site_fract_z
Si Si1 0.683312 0.669032 0.595964
Si Si2 0.790035 0.167961 0.632577
Si Si3 0.759482 0.168915 0.167731
Si Si4 0.898062 0.328720 0.598957
Si Si5 0.938410 0.170486 0.233084
Si Si6 0.562472 0.171611 0.101051
Si Si7 0.349624 0.673288 0.786499
Si Si8 0.141853 0.330406 0.899938
O O1 0.652928 0.687151 0.500000
O O2 0.703740 0.500000 0.607794
O O3 0.734204 0.776551 0.592337
O O4 0.645995 0.709629 0.680651
O O5 0.788993 0.176727 0.738208
O O6 0.836829 0.272668 0.597256
O O7 0.799913 0.000000 0.600255
O O8 0.701325 0.246164 0.169312
O O9 0.799466 0.253146 0.101304
O O10 0.750931 0.000000 0.136079
O O11 0.922470 0.308663 0.500000
O O12 0.898669 0.500000 0.627657
O O13 0.933508 0.236827 0.668403
O O14 0.901215 0.253543 0.163264
O O15 0.000000 0.185903 0.201452
O O16 0.919735 0.000000 0.236816
O O17 0.500000 0.207129 0.117687
O O18 0.595841 0.271166 0.168775
O O19 0.574904 0.000000 0.120044
O O20 0.578195 0.211401 0.000000
O O21 0.343067 0.500000 0.804333
O O22 0.148664 0.500000 0.869028
O O23 0.119711 0.319910 0.000000
#
# Coordination Sequence:
#
# PCOD8195584 Si02
#       8
#     8   8   8   8   8   8   8   8
#     4   9  18  32  49  73 110 153 191 226 270 325
#     4  10  19  31  51  80 111 144 184 228 273 324
#     4  10  20  35  56  82 115 153 188 224 274 333
#     4  11  23  37  57  84 113 147 184 225 278 337
#     4  11  25  44  64  85 110 143 184 232 283 336
#     4   9  19  37  59  81 108 145 188 234 286 343
#     4  10  20  33  54  84 116 150 189 235 281 328
#     4  11  24  41  63  89 115 145 183 229 281 338
#
# _framework density 19.017766999999999
#
# number of rings (size 3 to 8) (size 9 to 14) (size 15 to 20)
#    0.000    1.875    1.250    3.000    0.000    7.750 
#    0.000    3.125    0.000    0.375    0.000    2.625 
#    0.000    0.000    0.000    0.000    0.000    0.000 
#
# Total GULP energy -793601.395501 kJ/mol
# GULP energy per Si atom -12400.021805 kJ/mol
# Density = 1.897448 g / cm^3
# Si number density = 19.017767 Si / 1000 Ang^3
#
#
#
# Elastic Constant Matrix: (Units=GPa)
#
#
# Indices 1 2 3 4 5 6 
#
# 1 82.5754 53.3237 50.0289 0.0000 0.0000 0.0000
# 2 53.3237 133.9153 55.3061 0.0000 0.0000 0.0000
# 3 50.0289 55.3061 103.0523 0.0000 0.0000 0.0000
# 4 0.0000 0.0000 0.0000 21.6252 0.0000 0.0000
# 5 0.0000 0.0000 0.0000 0.0000 10.4494 0.0000
# 6 0.0000 0.0000 0.0000 0.0000 0.0000 19.4557
#
#
#
# Elastic Compliance Matrix: (Units=1/GPa)
#
#
# Indices 1 2 3 4 5 6 
#
# 1 0.019394 -0.004926 -0.006771 0.000000 0.000000 0.000000
# 2 -0.004926 0.010845 -0.003429 0.000000 0.000000 0.000000
# 3 -0.006771 -0.003429 0.014831 0.000000 0.000000 0.000000
# 4 0.000000 0.000000 0.000000 0.046242 0.000000 0.000000
# 5 0.000000 0.000000 0.000000 0.000000 0.095700 0.000000
# 6 0.000000 0.000000 0.000000 0.000000 0.000000 0.051399
#
#
# Mechanical properties :
#
#
# Convention : Reuss Voigt Hill
#
# Bulk Modulus (GPa) = 67.48744 70.76226 69.12485
# Shear Modulus (GPa) = 18.27471 21.03167 19.65319
#
# Velocity S-wave (km/s) = 3.10325 3.32911 3.21816
# Velocity P-wave (km/s) = 6.95728 7.21572 7.08768
#
# Compressibility (1/GPa) = 0.01481757
#
# Stress axis : x y z
#
# Youngs Moduli (GPa) = 51.56366 92.20910 67.42452
#
# Poissons Ratio (x) = 0.45420 0.45656
# Poissons Ratio (y) = 0.25399 0.23120
# Poissons Ratio (z) = 0.34916 0.31618
#
# Static dielectric constant tensor:
#      x y z
#    x 3.198730 0.000000 0.000000 
#    y 0.000000 3.611900 0.000000 
#    z 0.000000 0.000000 3.619870 
# 
# 
# High freq. dielectric constant tensor:
#      x y z
#    x 1.712060 0.000000 0.000000 
#    y 0.000000 1.752940 0.000000 
#    z 0.000000 0.000000 1.746920 
# 
# From -- ./inp_files/21949.got.cif
#   From: 2010.03.12/outbox.cif.g09.slc.cpg/sg47_11_cif.got.tgz:21949.got - 2010.04.14 03:12:58.
