data_PCOD8195736
_publ_section_title
;
Structure prediction by ZEFSAII (Michael W. Deem and Ramdas Pophale) SiO2 
 PCOD8195736
Probable space group: P M M M
;
_chemical_formula_sum "Si O2"
_cell_formula_units_Z 44
_cell_length_a 29.702000
_cell_length_b 8.032354
_cell_length_c 9.889746
_cell_angle_alpha 90.000000
_cell_angle_beta 90.000000
_cell_angle_gamma 90.000000
_cell_volume 2359.465719
_symmetry_space_group_name_H-M "P M M M"
_symmetry_group_IT_number 47
_symmetry_cell_setting 'orthorhombic'
loop_
_space_group_symop_operation_xyz
x,y,z
-x,-y,z
x,-y,-z
-x,y,-z
-x,-y,-z
x,y,-z
-x,y,z
x,-y,z
loop_
_atom_site_type_symbol
_atom_site_label
_atom_site_fract_x
_atom_site_fract_y
_atom_site_fract_z
Si Si1 0.549930 0.197947 0.151603
Si Si2 0.200366 0.809723 0.151407
Si Si3 0.894055 0.684006 0.839347
Si Si4 0.275448 0.307945 0.346313
Si Si5 0.627051 0.803507 0.346086
Si Si6 0.948935 0.000000 0.838595
O O1 0.500000 0.262192 0.192601
O O2 0.586926 0.270906 0.254352
O O3 0.550427 0.000000 0.158098
O O4 0.561673 0.258216 0.000000
O O5 0.157690 0.706868 0.207688
O O6 0.242685 0.793211 0.249408
O O7 0.184715 0.000000 0.146767
O O8 0.213897 0.749628 0.000000
O O9 0.910543 0.500000 0.790290
O O10 0.925296 0.832081 0.780242
O O11 0.895748 0.694724 0.000000
O O12 0.269864 0.242089 0.500000
O O13 0.262740 0.500000 0.335715
O O14 0.326563 0.280065 0.298123
O O15 0.615832 0.754754 0.500000
O O16 0.632044 0.000000 0.328133
O O17 0.000000 0.000000 0.786010
O O18 0.946931 0.000000 0.000000
#
# Coordination Sequence:
#
# PCOD8195736 Si02
#       6
#     8   8   8   8   8   4
#     4   8  14  25  42  65  91 116 145 187 237 285
#     4  10  19  32  51  73  97 127 165 207 251 302
#     4   9  16  27  43  64  94 130 167 210 257 303
#     4  10  21  35  49  68  97 130 163 202 247 296
#     4   9  17  29  45  65  89 117 150 190 237 287
#     4   9  16  26  40  62  95 133 173 213 254 305
#
# _framework density 18.648288000000001
#
# number of rings (size 3 to 8) (size 9 to 14) (size 15 to 20)
#    0.000    2.818    0.909    1.636    0.000    3.636 
#    0.000    5.455    0.000    0.545    0.000    3.818 
#    0.000    1.455    0.000    3.818    0.000    3.636 
#
# Total GULP energy -545432.423644 kJ/mol
# GULP energy per Si atom -12396.191446 kJ/mol
# Density = 1.860584 g / cm^3
# Si number density = 18.648288 Si / 1000 Ang^3
#
#
#
# Elastic Constant Matrix: (Units=GPa)
#
#
# Indices 1 2 3 4 5 6 
#
# 1 137.1064 45.3284 61.4132 0.0000 0.0000 0.0000
# 2 45.3284 78.3558 20.8263 0.0000 0.0000 0.0000
# 3 61.4132 20.8263 59.3309 0.0000 0.0000 0.0000
# 4 0.0000 0.0000 0.0000 12.0779 0.0000 0.0000
# 5 0.0000 0.0000 0.0000 0.0000 5.8792 0.0000
# 6 0.0000 0.0000 0.0000 0.0000 0.0000 15.4401
#
#
#
# Elastic Compliance Matrix: (Units=1/GPa)
#
#
# Indices 1 2 3 4 5 6 
#
# 1 0.015248 -0.005102 -0.013992 0.000000 0.000000 0.000000
# 2 -0.005102 0.015783 -0.000259 0.000000 0.000000 0.000000
# 3 -0.013992 -0.000259 0.031429 0.000000 0.000000 0.000000
# 4 0.000000 0.000000 0.000000 0.082796 0.000000 0.000000
# 5 0.000000 0.000000 0.000000 0.000000 0.170091 0.000000
# 6 0.000000 0.000000 0.000000 0.000000 0.000000 0.064767
#
#
# Mechanical properties :
#
#
# Convention : Reuss Voigt Hill
#
# Bulk Modulus (GPa) = 42.09986 58.88098 50.49042
# Shear Modulus (GPa) = 11.71687 16.49445 14.10566
#
# Velocity S-wave (km/s) = 2.50933 2.97728 2.75327
# Velocity P-wave (km/s) = 5.56959 6.59257 6.10255
#
# Compressibility (1/GPa) = 0.02375305
#
# Stress axis : x y z
#
# Youngs Moduli (GPa) = 65.58406 63.36128 31.81810
#
# Poissons Ratio (x) = 0.32325 0.44520
# Poissons Ratio (y) = 0.33459 0.00825
# Poissons Ratio (z) = 0.91765 0.01642
#
# Static dielectric constant tensor:
#      x y z
#    x 3.513140 0.000000 0.000000 
#    y 0.000000 3.369380 0.000000 
#    z 0.000000 0.000000 3.176350 
# 
# 
# High freq. dielectric constant tensor:
#      x y z
#    x 1.725210 0.000000 0.000000 
#    y 0.000000 1.717950 0.000000 
#    z 0.000000 0.000000 1.680170 
# 
# From -- ./inp_files/2037.got.cif
#   From: 2010.03.12/outbox.cif.g09.slc.cpg/sg47_2_cif.got.tgz:2037.got - 2010.04.14 03:12:58.
