data_PCOD8195710
_publ_section_title
;
Structure prediction by ZEFSAII (Michael W. Deem and Ramdas Pophale) SiO2 
 PCOD8195710
Probable space group: P M M M
;
_chemical_formula_sum "Si O2"
_cell_formula_units_Z 52
_cell_length_a 31.183920
_cell_length_b 9.289823
_cell_length_c 11.613625
_cell_angle_alpha 90.000000
_cell_angle_beta 90.000000
_cell_angle_gamma 90.000000
_cell_volume 3364.386997
_symmetry_space_group_name_H-M "P M M M"
_symmetry_group_IT_number 47
_symmetry_cell_setting 'orthorhombic'
loop_
_space_group_symop_operation_xyz
x,y,z
-x,-y,z
x,-y,-z
-x,y,-z
-x,-y,-z
x,y,-z
-x,y,z
x,-y,z
loop_
_atom_site_type_symbol
_atom_site_label
_atom_site_fract_x
_atom_site_fract_y
_atom_site_fract_z
Si Si1 0.500000 0.837069 0.362800
Si Si2 0.920407 0.329665 0.223204
Si Si3 0.756523 0.161334 0.363318
Si Si4 0.000000 0.670159 0.373312
Si Si5 0.581945 0.662309 0.637411
Si Si6 0.162208 0.331357 0.631233
Si Si7 0.337793 0.837726 0.637009
Si Si8 0.949746 0.828798 0.000000
O O1 0.500000 0.838424 0.500000
O O2 0.458114 0.754491 0.316040
O O3 0.500000 0.000000 0.315009
O O4 0.922980 0.500000 0.196223
O O5 0.876451 0.286305 0.285757
O O6 0.958062 0.277723 0.307066
O O7 0.925170 0.238832 0.107838
O O8 0.756744 0.165242 0.500000
O O9 0.794535 0.261883 0.316523
O O10 0.709455 0.214120 0.320347
O O11 0.764934 0.000000 0.318628
O O12 0.000000 0.500000 0.384603
O O13 0.000000 0.740633 0.500000
O O14 0.582125 0.662582 0.500000
O O15 0.578278 0.500000 0.684655
O O16 0.625765 0.732124 0.686701
O O17 0.152640 0.279384 0.500000
O O18 0.169276 0.500000 0.632352
O O19 0.339372 0.836030 0.500000
O O20 0.346754 0.000000 0.680617
O O21 0.000000 0.784545 0.000000
O O22 0.944355 0.000000 0.000000
#
# Coordination Sequence:
#
# PCOD8195710 Si02
#       8
#     4   8   8   4   8   8   8   4
#     4   9  15  21  27  33  45  69  99 133 177 228
#     4  10  19  32  51  70  88 113 143 170 200 241
#     4   8  14  24  37  52  72 100 128 151 183 232
#     4   9  16  27  47  72  92 111 138 169 198 235
#     4   9  15  20  26  37  52  70  97 137 184 228
#     4   9  17  28  43  66  91 109 130 164 203 242
#     4   8  13  21  31  42  57  80 112 144 174 218
#     4  11  23  37  51  67  89 113 141 177 209 236
#
# _framework density 15.456011
#
# number of rings (size 3 to 8) (size 9 to 14) (size 15 to 20)
#    0.000    3.000    0.769    2.308    0.000    6.154 
#    0.000    3.077    0.000    1.846    0.000    0.000 
#    0.000    0.000    0.000    0.000    0.000    0.000 
#
# Total GULP energy -644492.618659 kJ/mol
# GULP energy per Si atom -12394.088820 kJ/mol
# Density = 1.542083 g / cm^3
# Si number density = 15.456011 Si / 1000 Ang^3
#
#
#
# Elastic Constant Matrix: (Units=GPa)
#
#
# Indices 1 2 3 4 5 6 
#
# 1 163.8043 72.2619 36.1491 0.0000 0.0000 0.0000
# 2 72.2619 83.2163 26.5947 0.0000 0.0000 0.0000
# 3 36.1491 26.5947 51.4111 0.0000 0.0000 0.0000
# 4 0.0000 0.0000 0.0000 7.5921 0.0000 0.0000
# 5 0.0000 0.0000 0.0000 0.0000 6.2289 0.0000
# 6 0.0000 0.0000 0.0000 0.0000 0.0000 31.7259
#
#
#
# Elastic Compliance Matrix: (Units=1/GPa)
#
#
# Indices 1 2 3 4 5 6 
#
# 1 0.010300 -0.007943 -0.003134 0.000000 0.000000 0.000000
# 2 -0.007943 0.020522 -0.005031 0.000000 0.000000 0.000000
# 3 -0.003134 -0.005031 0.024257 0.000000 0.000000 0.000000
# 4 0.000000 0.000000 0.000000 0.131716 0.000000 0.000000
# 5 0.000000 0.000000 0.000000 0.000000 0.160542 0.000000
# 6 0.000000 0.000000 0.000000 0.000000 0.000000 0.031520
#
#
# Mechanical properties :
#
#
# Convention : Reuss Voigt Hill
#
# Bulk Modulus (GPa) = 43.73665 63.16034 53.44849
# Shear Modulus (GPa) = 11.94189 20.00445 15.97317
#
# Velocity S-wave (km/s) = 2.78265 3.60152 3.21823
# Velocity P-wave (km/s) = 6.21958 7.63203 6.96172
#
# Compressibility (1/GPa) = 0.02286412
#
# Stress axis : x y z
#
# Youngs Moduli (GPa) = 97.08287 48.72787 41.22524
#
# Poissons Ratio (x) = 0.38705 0.12919
# Poissons Ratio (y) = 0.77113 0.20740
# Poissons Ratio (z) = 0.30423 0.24515
#
# Static dielectric constant tensor:
#      x y z
#    x 3.319510 0.000000 0.000000 
#    y 0.000000 2.989660 0.000000 
#    z 0.000000 0.000000 2.438400 
# 
# 
# High freq. dielectric constant tensor:
#      x y z
#    x 1.609980 0.000000 0.000000 
#    y 0.000000 1.590130 0.000000 
#    z 0.000000 0.000000 1.513370 
# 
# From -- ./inp_files/20063.got.cif
#   From: 2010.03.12/outbox.cif.g09.slc.cpg/sg47_11_cif.got.tgz:20063.got - 2010.04.14 03:12:58.
