data_PCOD8195417
_publ_section_title
;
Structure prediction by ZEFSAII (Michael W. Deem and Ramdas Pophale) SiO2 
 PCOD8195417
Probable space group: P M M M
;
_chemical_formula_sum "Si O2"
_cell_formula_units_Z 60
_cell_length_a 19.409527
_cell_length_b 8.772134
_cell_length_c 19.647461
_cell_angle_alpha 90.000000
_cell_angle_beta 90.000000
_cell_angle_gamma 90.000000
_cell_volume 3345.235097
_symmetry_space_group_name_H-M "P M M M"
_symmetry_group_IT_number 47
_symmetry_cell_setting 'orthorhombic'
loop_
_space_group_symop_operation_xyz
x,y,z
-x,-y,z
x,-y,-z
-x,y,-z
-x,-y,-z
x,y,-z
-x,y,z
x,-y,z
loop_
_atom_site_type_symbol
_atom_site_label
_atom_site_fract_x
_atom_site_fract_y
_atom_site_fract_z
Si Si1 0.316258 0.823254 0.719413
Si Si2 0.923790 0.164368 0.500000
Si Si3 0.422879 0.180273 0.829475
Si Si4 0.078637 0.180173 0.241911
Si Si5 0.793721 0.320504 0.188488
Si Si6 0.275532 0.824529 0.423930
Si Si7 0.137026 0.678102 0.377407
Si Si8 0.685526 0.679319 0.077082
O O1 0.383320 0.766352 0.760742
O O2 0.248208 0.732838 0.744194
O O3 0.329760 0.796407 0.638202
O O4 0.302124 0.000000 0.735398
O O5 0.914572 0.271175 0.435374
O O6 0.000000 0.106630 0.500000
O O7 0.881151 0.000000 0.500000
O O8 0.500000 0.248393 0.827123
O O9 0.383876 0.242946 0.895612
O O10 0.425529 0.000000 0.834654
O O11 0.129910 0.246159 0.183748
O O12 0.114243 0.230258 0.311412
O O13 0.000000 0.243244 0.234188
O O14 0.077311 0.000000 0.237304
O O15 0.802957 0.500000 0.192990
O O16 0.751441 0.269271 0.121534
O O17 0.304908 0.783759 0.500000
O O18 0.211756 0.718308 0.406551
O O19 0.251884 0.000000 0.422568
O O20 0.132051 0.500000 0.361379
O O21 0.674572 0.500000 0.082292
O O22 0.698474 0.733034 0.000000
#
# Coordination Sequence:
#
# PCOD8195417 Si02
#       8
#     8   4   8   8   8   8   8   8
#     4   9  17  31  51  71  97 135 173 210 256 309
#     4  11  23  37  49  61  87 129 168 201 252 321
#     4   9  18  32  51  78 110 142 176 212 249 292
#     4  11  23  37  52  70  96 131 168 208 259 314
#     4  10  19  32  53  77 100 128 168 216 256 298
#     4  10  19  31  49  69  94 129 169 212 261 315
#     4  12  23  33  48  70  95 123 161 212 263 309
#     4   9  19  35  54  79 111 143 171 202 247 302
#
# _framework density 17.935959
#
# number of rings (size 3 to 8) (size 9 to 14) (size 15 to 20)
#    0.000    1.933    2.000    2.600    0.000    4.533 
#    0.000    1.333    0.000    0.800    0.000    5.600 
#    0.000    0.000    0.000    7.867    0.000    8.267 
#
# Total GULP energy -743561.929102 kJ/mol
# GULP energy per Si atom -12392.698818 kJ/mol
# Density = 1.789514 g / cm^3
# Si number density = 17.935959 Si / 1000 Ang^3
#
#
#
# Elastic Constant Matrix: (Units=GPa)
#
#
# Indices 1 2 3 4 5 6 
#
# 1 105.1265 26.9264 58.7913 0.0000 0.0000 0.0000
# 2 26.9264 42.7650 20.4299 0.0000 0.0000 0.0000
# 3 58.7913 20.4299 131.1205 0.0000 0.0000 0.0000
# 4 0.0000 0.0000 0.0000 23.6450 0.0000 0.0000
# 5 0.0000 0.0000 0.0000 0.0000 20.6544 0.0000
# 6 0.0000 0.0000 0.0000 0.0000 0.0000 13.4425
#
#
#
# Elastic Compliance Matrix: (Units=1/GPa)
#
#
# Indices 1 2 3 4 5 6 
#
# 1 0.014126 -0.006340 -0.005346 0.000000 0.000000 0.000000
# 2 -0.006340 0.028110 -0.001537 0.000000 0.000000 0.000000
# 3 -0.005346 -0.001537 0.010263 0.000000 0.000000 0.000000
# 4 0.000000 0.000000 0.000000 0.042292 0.000000 0.000000
# 5 0.000000 0.000000 0.000000 0.000000 0.048416 0.000000
# 6 0.000000 0.000000 0.000000 0.000000 0.000000 0.074391
#
#
# Mechanical properties :
#
#
# Convention : Reuss Voigt Hill
#
# Bulk Modulus (GPa) = 38.38390 54.58969 46.48679
# Shear Modulus (GPa) = 19.78408 23.07268 21.42838
#
# Velocity S-wave (km/s) = 3.32481 3.59052 3.46022
# Velocity P-wave (km/s) = 6.01549 6.90587 6.47600
#
# Compressibility (1/GPa) = 0.02605259
#
# Stress axis : x y z
#
# Youngs Moduli (GPa) = 70.79155 35.57456 97.43738
#
# Poissons Ratio (x) = 0.22556 0.52089
# Poissons Ratio (y) = 0.44885 0.14975
# Poissons Ratio (z) = 0.37844 0.05468
#
# Static dielectric constant tensor:
#      x y z
#    x 3.425110 0.000000 0.000000 
#    y 0.000000 3.283170 0.000000 
#    z 0.000000 0.000000 3.576030 
# 
# 
# High freq. dielectric constant tensor:
#      x y z
#    x 1.673880 0.000000 0.000000 
#    y 0.000000 1.694700 0.000000 
#    z 0.000000 0.000000 1.688390 
# 
# From -- ./inp_files/31357.got.cif
#   From: 2010.03.12/outbox.cif.g09.slc.cpg/sg47_16_cif.got.tgz:31357.got - 2010.04.14 03:12:58.
