data_PCOD8195766
_publ_section_title
;
Structure prediction by ZEFSAII (Michael W. Deem and Ramdas Pophale) SiO2 
 PCOD8195766
Probable space group: P M M M
;
_chemical_formula_sum "Si O2"
_cell_formula_units_Z 48
_cell_length_a 13.888056
_cell_length_b 11.573040
_cell_length_c 18.066366
_cell_angle_alpha 90.000000
_cell_angle_beta 90.000000
_cell_angle_gamma 90.000000
_cell_volume 2903.753307
_symmetry_space_group_name_H-M "P M M M"
_symmetry_group_IT_number 47
_symmetry_cell_setting 'orthorhombic'
loop_
_space_group_symop_operation_xyz
x,y,z
-x,-y,z
x,-y,-z
-x,y,-z
-x,-y,-z
x,y,-z
-x,y,z
x,-y,z
loop_
_atom_site_type_symbol
_atom_site_label
_atom_site_fract_x
_atom_site_fract_y
_atom_site_fract_z
Si Si1 0.386231 0.000000 0.083912
Si Si2 0.885892 0.627089 0.500000
Si Si3 0.386141 0.626615 0.000000
Si Si4 0.386632 0.757545 0.853783
Si Si5 0.114065 0.243302 0.354665
Si Si6 0.226417 0.361064 0.778347
Si Si7 0.886323 0.000000 0.584105
Si Si8 0.107247 0.636404 0.081129
O O1 0.354450 0.889609 0.132292
O O2 0.500000 0.000000 0.073470
O O3 0.341955 0.000000 0.000000
O O4 0.840219 0.500000 0.500000
O O5 0.849890 0.692283 0.427774
O O6 0.000000 0.622119 0.500000
O O7 0.352241 0.690381 0.926762
O O8 0.337720 0.500000 0.000000
O O9 0.500000 0.617739 0.000000
O O10 0.500000 0.746664 0.838233
O O11 0.332297 0.697531 0.784321
O O12 0.169712 0.303331 0.288348
O O13 0.145257 0.110455 0.367245
O O14 0.000000 0.256363 0.340843
O O15 0.232371 0.500000 0.768746
O O16 0.173707 0.318586 0.852998
O O17 0.842208 0.000000 0.500000
O O18 0.000000 0.000000 0.573638
O O19 0.099729 0.500000 0.086586
O O20 0.000000 0.688947 0.090630
O O21 0.149144 0.672602 0.000000
#
# Coordination Sequence:
#
# PCOD8195766 Si02
#       8
#     4   4   4   8   8   8   4   8
#     4   9  16  31  52  70  89 119 165 219 268 310
#     4   9  16  27  47  73 100 127 153 190 247 306
#     4   9  16  27  45  67  90 119 157 204 259 310
#     4  10  20  33  49  69  95 128 167 214 265 310
#     4  10  19  32  51  75 103 134 167 204 248 299
#     4  11  22  31  45  71 103 135 169 210 257 306
#     4   9  16  31  54  78 104 135 167 201 247 302
#     4   8  15  28  43  59  86 128 171 204 236 282
#
# _framework density 16.530328999999998
#
# number of rings (size 3 to 8) (size 9 to 14) (size 15 to 20)
#    0.000    2.500    1.667    2.000    1.167    3.333 
#    0.000    0.000    0.000    0.000    0.000    0.583 
#    0.000    8.667    0.000    0.000    0.000    0.000 
#
# Total GULP energy -594869.722698 kJ/mol
# GULP energy per Si atom -12393.119223 kJ/mol
# Density = 1.649271 g / cm^3
# Si number density = 16.530329 Si / 1000 Ang^3
#
#
#
# Elastic Constant Matrix: (Units=GPa)
#
#
# Indices 1 2 3 4 5 6 
#
# 1 50.7514 37.3492 48.6188 0.0000 0.0000 0.0000
# 2 37.3492 141.0302 60.7793 0.0000 0.0000 0.0000
# 3 48.6188 60.7793 117.2428 0.0000 0.0000 0.0000
# 4 0.0000 0.0000 0.0000 21.2398 0.0000 0.0000
# 5 0.0000 0.0000 0.0000 0.0000 14.0272 0.0000
# 6 0.0000 0.0000 0.0000 0.0000 0.0000 18.0880
#
#
#
# Elastic Compliance Matrix: (Units=1/GPa)
#
#
# Indices 1 2 3 4 5 6 
#
# 1 0.034196 -0.003792 -0.012215 0.000000 0.000000 0.000000
# 2 -0.003792 0.009551 -0.003379 0.000000 0.000000 0.000000
# 3 -0.012215 -0.003379 0.015346 0.000000 0.000000 0.000000
# 4 0.000000 0.000000 0.000000 0.047081 0.000000 0.000000
# 5 0.000000 0.000000 0.000000 0.000000 0.071290 0.000000
# 6 0.000000 0.000000 0.000000 0.000000 0.000000 0.055285
#
#
# Mechanical properties :
#
#
# Convention : Reuss Voigt Hill
#
# Bulk Modulus (GPa) = 49.20765 66.94655 58.07710
# Shear Modulus (GPa) = 17.96652 21.48947 19.72800
#
# Velocity S-wave (km/s) = 3.30037 3.60947 3.45837
# Velocity P-wave (km/s) = 6.66003 7.61302 7.15242
#
# Compressibility (1/GPa) = 0.02032204
#
# Stress axis : x y z
#
# Youngs Moduli (GPa) = 29.24319 104.70005 65.16277
#
# Poissons Ratio (x) = 0.39703 0.79595
# Poissons Ratio (y) = 0.11089 0.22017
# Poissons Ratio (z) = 0.35720 0.35376
#
# Static dielectric constant tensor:
#      x y z
#    x 2.900080 0.000000 0.000000 
#    y 0.000000 3.322640 0.000000 
#    z 0.000000 0.000000 3.219800 
# 
# 
# High freq. dielectric constant tensor:
#      x y z
#    x 1.603440 0.000000 0.000000 
#    y 0.000000 1.636440 0.000000 
#    z 0.000000 0.000000 1.623880 
# 
# From -- ./inp_files/23625.got.cif
#   From: 2010.03.12/outbox.cif.g09.slc.cpg/sg47_12_cif.got.tgz:23625.got - 2010.04.14 03:12:58.
