data_PCOD8195453
_publ_section_title
;
Structure prediction by ZEFSAII (Michael W. Deem and Ramdas Pophale) SiO2 
 PCOD8195453
Probable space group: P M M M
;
_chemical_formula_sum "Si O2"
_cell_formula_units_Z 64
_cell_length_a 22.779069
_cell_length_b 17.779031
_cell_length_c 9.337966
_cell_angle_alpha 90.000000
_cell_angle_beta 90.000000
_cell_angle_gamma 90.000000
_cell_volume 3781.780739
_symmetry_space_group_name_H-M "P M M M"
_symmetry_group_IT_number 47
_symmetry_cell_setting 'orthorhombic'
loop_
_space_group_symop_operation_xyz
x,y,z
-x,-y,z
x,-y,-z
-x,y,-z
-x,-y,-z
x,y,-z
-x,y,z
x,-y,z
loop_
_atom_site_type_symbol
_atom_site_label
_atom_site_fract_x
_atom_site_fract_y
_atom_site_fract_z
Si Si1 0.143471 0.690304 0.657201
Si Si2 0.066147 0.790637 0.167184
Si Si3 0.241402 0.816051 0.660620
Si Si4 0.682231 0.705022 0.832692
Si Si5 0.430344 0.081975 0.660138
Si Si6 0.839480 0.913789 0.833902
Si Si7 0.434610 0.222694 0.164318
Si Si8 0.755144 0.412995 0.331475
O O1 0.116752 0.674075 0.500000
O O2 0.090961 0.713930 0.762037
O O3 0.188848 0.757924 0.648841
O O4 0.180066 0.617538 0.712567
O O5 0.103791 0.864120 0.208933
O O6 0.000000 0.804741 0.221528
O O7 0.067989 0.775407 0.000000
O O8 0.264182 0.836080 0.500000
O O9 0.292089 0.779198 0.756665
O O10 0.217025 0.890481 0.739690
O O11 0.611313 0.708856 0.814007
O O12 0.704537 0.629099 0.757472
O O13 0.700353 0.704591 0.000000
O O14 0.406771 0.096133 0.500000
O O15 0.500000 0.081724 0.661322
O O16 0.407655 0.149258 0.758787
O O17 0.407595 0.000000 0.714813
O O18 0.855465 0.000000 0.801148
O O19 0.823478 0.901328 0.000000
O O20 0.500000 0.245708 0.221465
O O21 0.438971 0.199929 0.000000
O O22 0.744514 0.397773 0.500000
O O23 0.751622 0.500000 0.291618
#
# Coordination Sequence:
#
# PCOD8195453 Si02
#       8
#     8   8   8   8   8   8   8   8
#     4   8  15  28  46  67  89 115 147 184 226 270
#     4   9  17  28  43  65  93 126 162 196 231 272
#     4   9  17  30  47  65  87 117 153 193 237 280
#     4  10  19  31  49  72  96 120 150 188 227 274
#     4   8  14  25  41  61  84 110 144 187 228 262
#     4   9  17  29  45  65  91 123 159 202 246 281
#     4   9  18  31  46  66  93 125 158 190 226 271
#     4   9  18  33  53  76  99 120 145 184 233 279
#
# _framework density 16.923245000000001
#
# number of rings (size 3 to 8) (size 9 to 14) (size 15 to 20)
#    0.000    3.125    0.000    1.875    0.000    5.250 
#    0.000    3.125    0.000    1.500    0.000    8.750 
#    0.000    0.000    0.000    0.000    0.000    0.000 
#
# Total GULP energy -793117.600625 kJ/mol
# GULP energy per Si atom -12392.462510 kJ/mol
# Density = 1.688473 g / cm^3
# Si number density = 16.923245 Si / 1000 Ang^3
#
#
#
# Elastic Constant Matrix: (Units=GPa)
#
#
# Indices 1 2 3 4 5 6 
#
# 1 79.5352 56.8829 43.3811 0.0000 0.0000 0.0000
# 2 56.8829 105.5881 49.0831 0.0000 0.0000 0.0000
# 3 43.3811 49.0831 73.8056 0.0000 0.0000 0.0000
# 4 0.0000 0.0000 0.0000 25.0785 0.0000 0.0000
# 5 0.0000 0.0000 0.0000 0.0000 17.1950 0.0000
# 6 0.0000 0.0000 0.0000 0.0000 0.0000 18.2001
#
#
#
# Elastic Compliance Matrix: (Units=1/GPa)
#
#
# Indices 1 2 3 4 5 6 
#
# 1 0.023114 -0.008883 -0.007679 0.000000 0.000000 0.000000
# 2 -0.008883 0.017122 -0.006166 0.000000 0.000000 0.000000
# 3 -0.007679 -0.006166 0.022163 0.000000 0.000000 0.000000
# 4 0.000000 0.000000 0.000000 0.039875 0.000000 0.000000
# 5 0.000000 0.000000 0.000000 0.000000 0.058156 0.000000
# 6 0.000000 0.000000 0.000000 0.000000 0.000000 0.054945
#
#
# Mechanical properties :
#
#
# Convention : Reuss Voigt Hill
#
# Bulk Modulus (GPa) = 59.01459 61.95813 60.48636
# Shear Modulus (GPa) = 18.76331 19.40018 19.08174
#
# Velocity S-wave (km/s) = 3.33337 3.38947 3.36154
# Velocity P-wave (km/s) = 7.05427 7.21171 7.13343
#
# Compressibility (1/GPa) = 0.01694496
#
# Stress axis : x y z
#
# Youngs Moduli (GPa) = 43.26384 58.40336 45.12048
#
# Poissons Ratio (x) = 0.51878 0.34646
# Poissons Ratio (y) = 0.38430 0.27821
# Poissons Ratio (z) = 0.33220 0.36011
#
# Static dielectric constant tensor:
#      x y z
#    x 3.162300 0.000000 0.000000 
#    y 0.000000 3.119440 0.000000 
#    z 0.000000 0.000000 3.340440 
# 
# 
# High freq. dielectric constant tensor:
#      x y z
#    x 1.635610 0.000000 0.000000 
#    y 0.000000 1.628680 0.000000 
#    z 0.000000 0.000000 1.654990 
# 
# From -- ./inp_files/12908.got.cif
#   From: 2010.03.12/outbox.cif.g09.slc.cpg/sg47_7_cif.got.tgz:12908.got - 2010.04.14 03:12:58.
