data_PCOD8195311
_publ_section_title
;
Structure prediction by ZEFSAII (Michael W. Deem and Ramdas Pophale) SiO2 
 PCOD8195311
Probable space group: P M M M
;
_chemical_formula_sum "Si O2"
_cell_formula_units_Z 44
_cell_length_a 15.510042
_cell_length_b 17.830756
_cell_length_c 8.905296
_cell_angle_alpha 90.000000
_cell_angle_beta 90.000000
_cell_angle_gamma 90.000000
_cell_volume 2462.811032
_symmetry_space_group_name_H-M "P M M M"
_symmetry_group_IT_number 47
_symmetry_cell_setting 'orthorhombic'
loop_
_space_group_symop_operation_xyz
x,y,z
-x,-y,z
x,-y,-z
-x,y,-z
-x,-y,-z
x,y,-z
-x,y,z
x,-y,z
loop_
_atom_site_type_symbol
_atom_site_label
_atom_site_fract_x
_atom_site_fract_y
_atom_site_fract_z
Si Si1 0.000000 0.581475 0.322703
Si Si2 0.096704 0.912266 0.674107
Si Si3 0.174748 0.653874 0.323170
Si Si4 0.671105 0.416424 0.174510
Si Si5 0.593725 0.739527 0.822534
Si Si6 0.770608 0.196434 0.822538
O O1 0.917107 0.625716 0.269438
O O2 0.000000 0.500000 0.246211
O O3 0.000000 0.572494 0.500000
O O4 0.104391 0.891920 0.500000
O O5 0.176738 0.873547 0.757564
O O6 0.000000 0.887677 0.730161
O O7 0.108020 0.000000 0.702285
O O8 0.181587 0.670158 0.500000
O O9 0.243729 0.591236 0.275373
O O10 0.182771 0.729032 0.228963
O O11 0.631050 0.500000 0.203718
O O12 0.608028 0.348192 0.222403
O O13 0.696039 0.407506 0.000000
O O14 0.500000 0.763927 0.755921
O O15 0.670422 0.794899 0.764170
O O16 0.591301 0.745488 0.000000
O O17 0.771979 0.189083 0.000000
#
# Coordination Sequence:
#
# PCOD8195311 Si02
#       6
#     4   8   8   8   8   8
#     4   9  18  30  43  61  84 117 166 211 239 278
#     4   9  19  36  57  80 106 136 167 195 230 286
#     4  10  19  31  47  65  89 127 170 207 246 297
#     4   9  17  29  45  67  94 121 158 213 268 307
#     4   8  15  29  48  70  97 130 168 208 251 299
#     4  10  20  33  51  77 104 129 162 205 250 293
#
# _framework density 17.865763000000001
#
# number of rings (size 3 to 8) (size 9 to 14) (size 15 to 20)
#    0.000    2.818    0.000    3.273    1.273    2.182 
#    0.000    4.091    0.000   17.455    0.000    8.909 
#    0.000    0.000    0.000    0.000    0.000    0.000 
#
# Total GULP energy -545086.255752 kJ/mol
# GULP energy per Si atom -12388.323994 kJ/mol
# Density = 1.782510 g / cm^3
# Si number density = 17.865763 Si / 1000 Ang^3
#
#
#
# Elastic Constant Matrix: (Units=GPa)
#
#
# Indices 1 2 3 4 5 6 
#
# 1 169.9676 59.5279 37.2008 0.0000 0.0000 0.0000
# 2 59.5279 72.2713 29.1451 0.0000 0.0000 0.0000
# 3 37.2008 29.1451 34.4691 0.0000 0.0000 0.0000
# 4 0.0000 0.0000 0.0000 27.7126 0.0000 0.0000
# 5 0.0000 0.0000 0.0000 0.0000 5.4368 0.0000
# 6 0.0000 0.0000 0.0000 0.0000 0.0000 33.8240
#
#
#
# Elastic Compliance Matrix: (Units=1/GPa)
#
#
# Indices 1 2 3 4 5 6 
#
# 1 0.008828 -0.005204 -0.005128 0.000000 0.000000 0.000000
# 2 -0.005204 0.024063 -0.014731 0.000000 0.000000 0.000000
# 3 -0.005128 -0.014731 0.047001 0.000000 0.000000 0.000000
# 4 0.000000 0.000000 0.000000 0.036085 0.000000 0.000000
# 5 0.000000 0.000000 0.000000 0.000000 0.183933 0.000000
# 6 0.000000 0.000000 0.000000 0.000000 0.000000 0.029565
#
#
# Mechanical properties :
#
#
# Convention : Reuss Voigt Hill
#
# Bulk Modulus (GPa) = 33.59266 58.71730 46.15498
# Shear Modulus (GPa) = 12.83623 23.45027 18.14325
#
# Velocity S-wave (km/s) = 2.68336 3.62689 3.19020
# Velocity P-wave (km/s) = 5.33331 7.10466 6.28174
#
# Compressibility (1/GPa) = 0.02976841
#
# Stress axis : x y z
#
# Youngs Moduli (GPa) = 113.27161 41.55707 21.27603
#
# Poissons Ratio (x) = 0.21625 0.10911
# Poissons Ratio (y) = 0.58943 0.31341
# Poissons Ratio (z) = 0.58087 0.61216
#
# Static dielectric constant tensor:
#      x y z
#    x 3.469130 0.000000 0.000000 
#    y 0.000000 3.241000 0.000000 
#    z 0.000000 0.000000 3.110470 
# 
# 
# High freq. dielectric constant tensor:
#      x y z
#    x 1.695560 0.000000 0.000000 
#    y 0.000000 1.676640 0.000000 
#    z 0.000000 0.000000 1.667060 
# 
# From -- ./inp_files/6123.got.cif
#   From: 2010.03.12/outbox.cif.g09.slc.cpg/sg47_4_cif.got.tgz:6123.got - 2010.04.14 03:12:58.
