data_PCOD8195075
_publ_section_title
;
Structure prediction by ZEFSAII (Michael W. Deem and Ramdas Pophale) SiO2 
 PCOD8195075
Probable space group: P M M M
;
_chemical_formula_sum "Si O2"
_cell_formula_units_Z 64
_cell_length_a 14.321586
_cell_length_b 9.115760
_cell_length_c 28.593661
_cell_angle_alpha 90.000000
_cell_angle_beta 90.000000
_cell_angle_gamma 90.000000
_cell_volume 3732.963657
_symmetry_space_group_name_H-M "P M M M"
_symmetry_group_IT_number 47
_symmetry_cell_setting 'orthorhombic'
loop_
_space_group_symop_operation_xyz
x,y,z
-x,-y,z
x,-y,-z
-x,y,-z
-x,-y,-z
x,y,-z
-x,y,z
x,-y,z
loop_
_atom_site_type_symbol
_atom_site_label
_atom_site_fract_x
_atom_site_fract_y
_atom_site_fract_z
Si Si1 0.394635 0.169908 0.224467
Si Si2 0.390312 0.668478 0.130377
Si Si3 0.215824 0.169523 0.722701
Si Si4 0.726920 0.169124 0.052772
Si Si5 0.892053 0.832823 0.184807
Si Si6 0.110683 0.835604 0.551203
Si Si7 0.107093 0.327097 0.357734
Si Si8 0.892877 0.327724 0.908494
O O1 0.500000 0.213868 0.239460
O O2 0.360171 0.261018 0.179626
O O3 0.326044 0.200737 0.268420
O O4 0.388674 0.000000 0.209921
O O5 0.500000 0.685222 0.123274
O O6 0.358057 0.500000 0.130342
O O7 0.343205 0.750196 0.087321
O O8 0.163618 0.216740 0.769763
O O9 0.177292 0.266561 0.680886
O O10 0.196792 0.000000 0.710519
O O11 0.829107 0.243694 0.054276
O O12 0.735375 0.000000 0.067482
O O13 0.688650 0.184876 0.000000
O O14 0.862148 0.725889 0.142952
O O15 0.000000 0.814444 0.197091
O O16 0.867993 0.000000 0.170518
O O17 0.148235 0.783669 0.500000
O O18 0.145307 0.728124 0.592092
O O19 0.000000 0.834840 0.549810
O O20 0.146989 0.000000 0.561812
O O21 0.112525 0.500000 0.357332
O O22 0.000000 0.274104 0.348586
O O23 0.875893 0.500000 0.912210
O O24 0.000000 0.285770 0.918811
#
# Coordination Sequence:
#
# PCOD8195075 Si02
#       8
#     8   8   8   8   8   8   8   8
#     4   9  18  33  53  76 100 126 158 195 234 279
#     4  10  21  37  58  82 104 125 150 185 233 287
#     4  10  19  30  46  67  93 127 162 195 233 277
#     4  11  24  39  55  75  98 126 159 193 230 275
#     4   9  17  29  46  68  93 123 160 196 228 271
#     4   8  14  26  44  63  85 120 165 206 241 280
#     4  10  20  30  41  63  96 131 165 203 245 284
#     4  10  21  36  54  75  98 125 157 195 238 281
#
# _framework density 17.144556000000001
#
# number of rings (size 3 to 8) (size 9 to 14) (size 15 to 20)
#    0.000    2.375    0.000    3.000    0.000    6.500 
#    0.000    5.000    0.000    0.000    0.000    0.000 
#    0.000    0.500    0.000    5.750    0.000    1.875 
#
# Total GULP energy -793554.189855 kJ/mol
# GULP energy per Si atom -12399.284216 kJ/mol
# Density = 1.710553 g / cm^3
# Si number density = 17.144556 Si / 1000 Ang^3
#
#
#
# Elastic Constant Matrix: (Units=GPa)
#
#
# Indices 1 2 3 4 5 6 
#
# 1 56.8541 32.1687 46.6888 0.0000 0.0000 0.0000
# 2 32.1687 90.8486 56.0919 0.0000 0.0000 0.0000
# 3 46.6888 56.0919 102.5550 0.0000 0.0000 0.0000
# 4 0.0000 0.0000 0.0000 8.7329 0.0000 0.0000
# 5 0.0000 0.0000 0.0000 0.0000 17.3332 0.0000
# 6 0.0000 0.0000 0.0000 0.0000 0.0000 22.6424
#
#
#
# Elastic Compliance Matrix: (Units=1/GPa)
#
#
# Indices 1 2 3 4 5 6 
#
# 1 0.028680 -0.003161 -0.011328 0.000000 0.000000 0.000000
# 2 -0.003161 0.016968 -0.007841 0.000000 0.000000 0.000000
# 3 -0.011328 -0.007841 0.019197 0.000000 0.000000 0.000000
# 4 0.000000 0.000000 0.000000 0.114509 0.000000 0.000000
# 5 0.000000 0.000000 0.000000 0.000000 0.057693 0.000000
# 6 0.000000 0.000000 0.000000 0.000000 0.000000 0.044165
#
#
# Mechanical properties :
#
#
# Convention : Reuss Voigt Hill
#
# Bulk Modulus (GPa) = 49.54438 57.79519 53.66978
# Shear Modulus (GPa) = 15.03303 17.42891 16.23097
#
# Velocity S-wave (km/s) = 2.96436 3.19185 3.08021
# Velocity P-wave (km/s) = 6.37788 6.88241 6.63494
#
# Compressibility (1/GPa) = 0.02018393
#
# Stress axis : x y z
#
# Youngs Moduli (GPa) = 34.86759 58.93373 52.09241
#
# Poissons Ratio (x) = 0.18631 0.59008
# Poissons Ratio (y) = 0.11023 0.40848
# Poissons Ratio (z) = 0.39497 0.46212
#
# Static dielectric constant tensor:
#      x y z
#    x 3.223950 0.000000 0.000000 
#    y 0.000000 3.267840 0.000000 
#    z 0.000000 0.000000 3.269400 
# 
# 
# High freq. dielectric constant tensor:
#      x y z
#    x 1.644380 0.000000 0.000000 
#    y 0.000000 1.666500 0.000000 
#    z 0.000000 0.000000 1.648480 
# 
# From -- ./inp_files/32790.got.cif
#   From: 2010.03.12/outbox.cif.g09.slc.cpg/sg47_17_cif.got.tgz:32790.got - 2010.04.14 03:12:58.
