data_PCOD8195863
_publ_section_title
;
Structure prediction by ZEFSAII (Michael W. Deem and Ramdas Pophale) SiO2 
 PCOD8195863
Probable space group: P M M M
;
_chemical_formula_sum "Si O2"
_cell_formula_units_Z 52
_cell_length_a 11.788697
_cell_length_b 27.956361
_cell_length_c 9.032153
_cell_angle_alpha 90.000000
_cell_angle_beta 90.000000
_cell_angle_gamma 90.000000
_cell_volume 2976.718256
_symmetry_space_group_name_H-M "P M M M"
_symmetry_group_IT_number 47
_symmetry_cell_setting 'orthorhombic'
loop_
_space_group_symop_operation_xyz
x,y,z
-x,-y,z
x,-y,-z
-x,y,-z
-x,-y,-z
x,y,-z
-x,y,z
x,-y,z
loop_
_atom_site_type_symbol
_atom_site_label
_atom_site_fract_x
_atom_site_fract_y
_atom_site_fract_z
Si Si1 0.134390 0.368773 0.333107
Si Si2 0.274619 0.911787 0.325287
Si Si3 0.125840 0.000000 0.675563
Si Si4 0.500000 0.055546 0.824253
Si Si5 0.134862 0.724289 0.166496
Si Si6 0.870065 0.180304 0.327076
Si Si7 0.725381 0.444539 0.826349
Si Si8 0.500000 0.556814 0.666579
O O1 0.181903 0.371781 0.500000
O O2 0.183797 0.320817 0.257198
O O3 0.170585 0.415211 0.240871
O O4 0.000000 0.367542 0.333125
O O5 0.298106 0.915638 0.500000
O O6 0.191934 0.953501 0.268701
O O7 0.392047 0.916466 0.239100
O O8 0.213125 0.862570 0.282545
O O9 0.116588 0.000000 0.500000
O O10 0.000000 0.000000 0.745428
O O11 0.500000 0.000000 0.771894
O O12 0.500000 0.059046 0.000000
O O13 0.175789 0.773297 0.241616
O O14 0.000000 0.722411 0.167281
O O15 0.182828 0.721994 0.000000
O O16 0.863720 0.191622 0.500000
O O17 0.000000 0.167369 0.282892
O O18 0.746194 0.500000 0.788602
O O19 0.610480 0.424675 0.752504
O O20 0.717040 0.435835 0.000000
O O21 0.500000 0.500000 0.666141
O O22 0.500000 0.577329 0.500000
#
# Coordination Sequence:
#
# PCOD8195863 Si02
#       8
#     8   8   4   4   8   8   8   4
#     4  10  20  33  50  73 102 136 173 213 256 303
#     4  10  19  32  53  76  99 130 168 206 242 289
#     4   9  16  27  47  76 104 127 156 197 242 285
#     4  11  23  37  51  68  97 136 177 215 248 288
#     4   9  17  30  49  72  99 133 169 203 244 301
#     4   9  17  30  50  78 106 128 156 200 253 302
#     4  10  20  33  50  73 102 135 171 212 257 307
#     4   9  17  31  51  72  95 126 167 211 251 293
#
# _framework density 17.468900999999999
#
# number of rings (size 3 to 8) (size 9 to 14) (size 15 to 20)
#    0.000    2.385    0.769    2.308    0.000    7.692 
#    0.000    1.538    0.000    2.769    0.000    3.231 
#    0.000    0.000    0.000    0.000    0.000    0.000 
#
# Total GULP energy -644848.768353 kJ/mol
# GULP energy per Si atom -12400.937853 kJ/mol
# Density = 1.742914 g / cm^3
# Si number density = 17.468901 Si / 1000 Ang^3
#
#
#
# Elastic Constant Matrix: (Units=GPa)
#
#
# Indices 1 2 3 4 5 6 
#
# 1 78.8313 47.6335 38.4792 0.0000 0.0000 0.0000
# 2 47.6335 123.2165 65.3835 0.0000 0.0000 0.0000
# 3 38.4792 65.3835 98.4933 0.0000 0.0000 0.0000
# 4 0.0000 0.0000 0.0000 27.8168 0.0000 0.0000
# 5 0.0000 0.0000 0.0000 0.0000 22.5328 0.0000
# 6 0.0000 0.0000 0.0000 0.0000 0.0000 2.4604
#
#
#
# Elastic Compliance Matrix: (Units=1/GPa)
#
#
# Indices 1 2 3 4 5 6 
#
# 1 0.017336 -0.004798 -0.003588 0.000000 0.000000 0.000000
# 2 -0.004798 0.013857 -0.007325 0.000000 0.000000 0.000000
# 3 -0.003588 -0.007325 0.016417 0.000000 0.000000 0.000000
# 4 0.000000 0.000000 0.000000 0.035949 0.000000 0.000000
# 5 0.000000 0.000000 0.000000 0.000000 0.044380 0.000000
# 6 0.000000 0.000000 0.000000 0.000000 0.000000 0.406435
#
#
# Mechanical properties :
#
#
# Convention : Reuss Voigt Hill
#
# Bulk Modulus (GPa) = 61.76791 67.05927 64.41359
# Shear Modulus (GPa) = 8.75365 20.49834 14.62599
#
# Velocity S-wave (km/s) = 2.24095 3.42924 2.89668
# Velocity P-wave (km/s) = 6.49087 7.35872 6.93837
#
# Compressibility (1/GPa) = 0.01618964
#
# Stress axis : x y z
#
# Youngs Moduli (GPa) = 57.68462 72.16426 60.91303
#
# Poissons Ratio (x) = 0.34624 0.21853
# Poissons Ratio (y) = 0.27677 0.44616
# Poissons Ratio (z) = 0.20695 0.52857
#
# Static dielectric constant tensor:
#      x y z
#    x 3.090340 0.000000 0.000000 
#    y 0.000000 3.250410 0.000000 
#    z 0.000000 0.000000 3.303240 
# 
# 
# High freq. dielectric constant tensor:
#      x y z
#    x 1.651680 0.000000 0.000000 
#    y 0.000000 1.672000 0.000000 
#    z 0.000000 0.000000 1.676890 
# 
# From -- ./inp_files/4622.got.cif
#   From: 2010.03.12/outbox.cif.g09.slc.cpg/sg47_3_cif.got.tgz:4622.got - 2010.04.14 03:12:58.
