data_PCOD8195489
_publ_section_title
;
Structure prediction by ZEFSAII (Michael W. Deem and Ramdas Pophale) SiO2 
 PCOD8195489
Probable space group: P M M M
;
_chemical_formula_sum "Si O2"
_cell_formula_units_Z 28
_cell_length_a 11.997283
_cell_length_b 7.937294
_cell_length_c 16.649275
_cell_angle_alpha 90.000000
_cell_angle_beta 90.000000
_cell_angle_gamma 90.000000
_cell_volume 1585.443235
_symmetry_space_group_name_H-M "P M M M"
_symmetry_group_IT_number 47
_symmetry_cell_setting 'orthorhombic'
loop_
_space_group_symop_operation_xyz
x,y,z
-x,-y,z
x,-y,-z
-x,y,-z
-x,-y,-z
x,y,-z
-x,y,z
x,-y,z
loop_
_atom_site_type_symbol
_atom_site_label
_atom_site_fract_x
_atom_site_fract_y
_atom_site_fract_z
Si Si1 0.275159 0.189609 0.145775
Si Si2 0.368717 0.000000 0.411033
Si Si3 0.370602 0.688528 0.698084
Si Si4 0.875351 0.302399 0.000000
Si Si5 0.500000 0.683675 0.909698
O O1 0.285203 0.300861 0.226750
O O2 0.182595 0.247266 0.082561
O O3 0.394293 0.199869 0.104497
O O4 0.248799 0.000000 0.171833
O O5 0.331618 0.828757 0.365956
O O6 0.500000 0.000000 0.419279
O O7 0.314262 0.000000 0.500000
O O8 0.500000 0.723781 0.725534
O O9 0.360751 0.500000 0.660895
O O10 0.877526 0.500000 0.000000
O O11 0.000000 0.226620 0.000000
O O12 0.500000 0.500000 0.861898
O O13 0.500000 0.626589 0.000000
#
# Coordination Sequence:
#
# PCOD8195489 Si02
#       5
#     8   4   8   4   4
#     4  12  22  33  52  75 103 136 177 224 264 306
#     4   9  18  32  48  71 105 140 174 209 255 320
#     4  10  19  31  49  74 105 139 177 218 259 306
#     4  11  25  42  55  70  99 141 183 222 268 319
#     4  11  21  31  47  73 100 131 174 218 265 307
#
# _framework density 17.660678000000001
#
# number of rings (size 3 to 8) (size 9 to 14) (size 15 to 20)
#    0.000    1.286    4.286    3.429    0.000    2.286 
#    0.000    2.857    0.000    0.000    0.000    0.000 
#    0.000    2.286    0.000    6.000    0.000    0.286 
#
# Total GULP energy -346944.272213 kJ/mol
# GULP energy per Si atom -12390.866865 kJ/mol
# Density = 1.762048 g / cm^3
# Si number density = 17.660678 Si / 1000 Ang^3
#
#
#
# Elastic Constant Matrix: (Units=GPa)
#
#
# Indices 1 2 3 4 5 6 
#
# 1 79.1408 25.6529 34.6177 0.0000 0.0000 0.0000
# 2 25.6529 124.7373 52.5279 0.0000 0.0000 0.0000
# 3 34.6177 52.5279 118.9474 0.0000 0.0000 0.0000
# 4 0.0000 0.0000 0.0000 20.9200 0.0000 0.0000
# 5 0.0000 0.0000 0.0000 0.0000 6.2266 0.0000
# 6 0.0000 0.0000 0.0000 0.0000 0.0000 18.2072
#
#
#
# Elastic Compliance Matrix: (Units=1/GPa)
#
#
# Indices 1 2 3 4 5 6 
#
# 1 0.014704 -0.001501 -0.003617 0.000000 0.000000 0.000000
# 2 -0.001501 0.010002 -0.003980 0.000000 0.000000 0.000000
# 3 -0.003617 -0.003980 0.011217 0.000000 0.000000 0.000000
# 4 0.000000 0.000000 0.000000 0.047801 0.000000 0.000000
# 5 0.000000 0.000000 0.000000 0.000000 0.160602 0.000000
# 6 0.000000 0.000000 0.000000 0.000000 0.000000 0.054923
#
#
# Mechanical properties :
#
#
# Convention : Reuss Voigt Hill
#
# Bulk Modulus (GPa) = 56.40816 60.93584 58.67200
# Shear Modulus (GPa) = 15.46295 23.07256 19.26775
#
# Velocity S-wave (km/s) = 2.96219 3.61839 3.30661
# Velocity P-wave (km/s) = 6.61126 7.21357 6.91897
#
# Compressibility (1/GPa) = 0.01772793
#
# Stress axis : x y z
#
# Youngs Moduli (GPa) = 68.00778 99.98497 89.14917
#
# Poissons Ratio (x) = 0.15008 0.32241
# Poissons Ratio (y) = 0.10208 0.35480
# Poissons Ratio (z) = 0.24595 0.39793
#
# Static dielectric constant tensor:
#      x y z
#    x 3.070750 0.000000 0.000000 
#    y 0.000000 3.456520 0.000000 
#    z 0.000000 0.000000 3.449370 
# 
# 
# High freq. dielectric constant tensor:
#      x y z
#    x 1.620080 0.000000 0.000000 
#    y 0.000000 1.706780 0.000000 
#    z 0.000000 0.000000 1.673940 
# 
# From -- ./inp_files/27198.got.cif
#   From: 2010.03.12/outbox.cif.g09.slc.cpg/sg47_14_cif.got.tgz:27198.got - 2010.04.14 03:12:58.
