data_PCOD8195307
_publ_section_title
;
Structure prediction by ZEFSAII (Michael W. Deem and Ramdas Pophale) SiO2 
 PCOD8195307
Probable space group: P M M M
;
_chemical_formula_sum "Si O2"
_cell_formula_units_Z 52
_cell_length_a 23.165597
_cell_length_b 10.117949
_cell_length_c 13.499889
_cell_angle_alpha 90.000000
_cell_angle_beta 90.000000
_cell_angle_gamma 90.000000
_cell_volume 3164.216424
_symmetry_space_group_name_H-M "P M M M"
_symmetry_group_IT_number 47
_symmetry_cell_setting 'orthorhombic'
loop_
_space_group_symop_operation_xyz
x,y,z
-x,-y,z
x,-y,-z
-x,y,-z
-x,-y,-z
x,y,-z
-x,y,z
x,-y,z
loop_
_atom_site_type_symbol
_atom_site_label
_atom_site_fract_x
_atom_site_fract_y
_atom_site_fract_z
Si Si1 0.324513 0.853381 0.114062
Si Si2 0.160798 0.652343 0.384972
Si Si3 0.724973 0.349940 0.735069
Si Si4 0.611666 0.348772 0.387683
Si Si5 0.064160 0.852318 0.617489
Si Si6 0.568356 0.500000 0.890929
Si Si7 0.434414 0.768192 0.792635
O O1 0.285286 0.750079 0.174033
O O2 0.389428 0.869870 0.160064
O O3 0.296978 0.000000 0.121666
O O4 0.328493 0.807436 0.000000
O O5 0.174885 0.682994 0.500000
O O6 0.142345 0.500000 0.372190
O O7 0.215830 0.687464 0.318722
O O8 0.109190 0.743654 0.343018
O O9 0.726336 0.500000 0.776492
O O10 0.676458 0.334631 0.651500
O O11 0.609820 0.299193 0.500000
O O12 0.589501 0.500000 0.379504
O O13 0.570023 0.249289 0.326048
O O14 0.062541 0.846423 0.500000
O O15 0.000000 0.819423 0.658729
O O16 0.082707 0.000000 0.652007
O O17 0.500000 0.500000 0.896445
O O18 0.589731 0.371699 0.833642
O O19 0.595736 0.500000 0.000000
O O20 0.500000 0.804615 0.823658
#
# Coordination Sequence:
#
# PCOD8195307 Si02
#       7
#     8   8   8   8   8   4   8
#     4  10  22  37  51  68  89 113 142 180 229 281
#     4   9  16  26  43  68  96 125 158 195 231 264
#     4   9  18  32  49  69  91 116 151 189 226 269
#     4   9  16  27  44  65  91 119 146 181 222 262
#     4   8  14  24  37  57  90 131 170 201 227 259
#     4   9  16  26  41  63  87 107 132 172 214 255
#     4  10  19  31  46  67  91 113 142 178 220 271
#
# _framework density 16.433769000000002
#
# number of rings (size 3 to 8) (size 9 to 14) (size 15 to 20)
#    0.000    2.846    0.769    1.385    1.077    4.615 
#    0.000    3.077    0.000   11.077    0.000    4.308 
#    0.000    0.615    0.000    6.769    0.000    5.231 
#
# Total GULP energy -644506.778837 kJ/mol
# GULP energy per Si atom -12394.361131 kJ/mol
# Density = 1.639637 g / cm^3
# Si number density = 16.433769 Si / 1000 Ang^3
#
#
#
# Elastic Constant Matrix: (Units=GPa)
#
#
# Indices 1 2 3 4 5 6 
#
# 1 89.7687 45.3515 25.6762 0.0000 0.0000 0.0000
# 2 45.3515 77.2982 38.3682 0.0000 0.0000 0.0000
# 3 25.6762 38.3682 98.2054 0.0000 0.0000 0.0000
# 4 0.0000 0.0000 0.0000 18.5535 0.0000 0.0000
# 5 0.0000 0.0000 0.0000 0.0000 13.9768 0.0000
# 6 0.0000 0.0000 0.0000 0.0000 0.0000 22.6968
#
#
#
# Elastic Compliance Matrix: (Units=1/GPa)
#
#
# Indices 1 2 3 4 5 6 
#
# 1 0.015864 -0.008993 -0.000634 0.000000 0.000000 0.000000
# 2 -0.008993 0.021147 -0.005911 0.000000 0.000000 0.000000
# 3 -0.000634 -0.005911 0.012658 0.000000 0.000000 0.000000
# 4 0.000000 0.000000 0.000000 0.053898 0.000000 0.000000
# 5 0.000000 0.000000 0.000000 0.000000 0.071547 0.000000
# 6 0.000000 0.000000 0.000000 0.000000 0.000000 0.044059
#
#
# Mechanical properties :
#
#
# Convention : Reuss Voigt Hill
#
# Bulk Modulus (GPa) = 53.78286 53.78489 53.78388
# Shear Modulus (GPa) = 19.49714 21.43717 20.46716
#
# Velocity S-wave (km/s) = 3.44816 3.61565 3.53290
# Velocity P-wave (km/s) = 6.97504 7.08730 7.03140
#
# Compressibility (1/GPa) = 0.01859328
#
# Stress axis : x y z
#
# Youngs Moduli (GPa) = 63.03409 47.28797 79.00214
#
# Poissons Ratio (x) = 0.42526 0.05011
# Poissons Ratio (y) = 0.56686 0.46696
# Poissons Ratio (z) = 0.03999 0.27951
#
# Static dielectric constant tensor:
#      x y z
#    x 3.049300 0.000000 0.000000 
#    y 0.000000 3.114850 0.000000 
#    z 0.000000 0.000000 2.975000 
# 
# 
# High freq. dielectric constant tensor:
#      x y z
#    x 1.613510 0.000000 0.000000 
#    y 0.000000 1.626500 0.000000 
#    z 0.000000 0.000000 1.608730 
# 
# From -- ./inp_files/25413.got.cif
#   From: 2010.03.12/outbox.cif.g09.slc.cpg/sg47_13_cif.got.tgz:25413.got - 2010.04.14 03:12:58.
