data_PCOD8195180
_publ_section_title
;
Structure prediction by ZEFSAII (Michael W. Deem and Ramdas Pophale) SiO2 
 PCOD8195180
Probable space group: P M M M
;
_chemical_formula_sum "Si O2"
_cell_formula_units_Z 40
_cell_length_a 7.898677
_cell_length_b 29.247458
_cell_length_c 9.481323
_cell_angle_alpha 90.000000
_cell_angle_beta 90.000000
_cell_angle_gamma 90.000000
_cell_volume 2190.339436
_symmetry_space_group_name_H-M "P M M M"
_symmetry_group_IT_number 47
_symmetry_cell_setting 'orthorhombic'
loop_
_space_group_symop_operation_xyz
x,y,z
-x,-y,z
x,-y,-z
-x,y,-z
-x,-y,-z
x,y,-z
-x,y,z
x,-y,z
loop_
_atom_site_type_symbol
_atom_site_label
_atom_site_fract_x
_atom_site_fract_y
_atom_site_fract_z
Si Si1 0.500000 0.610353 0.668742
Si Si2 0.500000 0.286959 0.332577
Si Si3 0.188915 0.226366 0.662628
Si Si4 0.187942 0.448566 0.332366
Si Si5 0.691884 0.145235 0.838073
Si Si6 0.807354 0.950781 0.167017
O O1 0.500000 0.609962 0.500000
O O2 0.500000 0.661806 0.729166
O O3 0.332031 0.585118 0.728112
O O4 0.500000 0.289276 0.500000
O O5 0.670314 0.261629 0.278480
O O6 0.227553 0.215102 0.500000
O O7 0.193280 0.179031 0.747447
O O8 0.000000 0.247540 0.680275
O O9 0.194673 0.448166 0.500000
O O10 0.224292 0.500000 0.278027
O O11 0.000000 0.432649 0.282108
O O12 0.500000 0.161850 0.824246
O O13 0.705242 0.093369 0.777299
O O14 0.754636 0.146984 0.000000
O O15 0.000000 0.944904 0.216117
O O16 0.736891 0.000000 0.225019
O O17 0.793834 0.952134 0.000000
#
# Coordination Sequence:
#
# PCOD8195180 Si02
#       6
#     4   4   8   8   8   8
#     4   9  15  22  35  51  71 102 139 182 228 265
#     4   9  18  31  43  60  84 110 150 199 234 273
#     4  10  20  34  51  67  88 122 157 192 238 280
#     4   8  13  20  30  47  72 101 135 176 220 265
#     4  10  19  30  48  73  96 119 151 190 229 273
#     4   8  14  25  41  63  92 121 146 177 220 268
#
# _framework density 18.26201
#
# number of rings (size 3 to 8) (size 9 to 14) (size 15 to 20)
#    0.000    3.000    1.000    2.100    0.000    3.600 
#    0.000    6.000    0.000    0.600    0.000    4.200 
#    0.000    0.000    0.000    0.000    0.000    8.000 
#
# Total GULP energy -495643.783248 kJ/mol
# GULP energy per Si atom -12391.094581 kJ/mol
# Density = 1.822045 g / cm^3
# Si number density = 18.262010 Si / 1000 Ang^3
#
#
#
# Elastic Constant Matrix: (Units=GPa)
#
#
# Indices 1 2 3 4 5 6 
#
# 1 129.4632 78.3239 17.8097 0.0000 0.0000 0.0000
# 2 78.3239 148.1419 21.6456 0.0000 0.0000 0.0000
# 3 17.8097 21.6456 17.9499 0.0000 0.0000 0.0000
# 4 0.0000 0.0000 0.0000 0.7411 0.0000 0.0000
# 5 0.0000 0.0000 0.0000 0.0000 11.3929 0.0000
# 6 0.0000 0.0000 0.0000 0.0000 0.0000 27.0125
#
#
#
# Elastic Compliance Matrix: (Units=1/GPa)
#
#
# Indices 1 2 3 4 5 6 
#
# 1 0.011722 -0.005460 -0.005046 0.000000 0.000000 0.000000
# 2 -0.005460 0.010737 -0.007531 0.000000 0.000000 0.000000
# 3 -0.005046 -0.007531 0.069798 0.000000 0.000000 0.000000
# 4 0.000000 0.000000 0.000000 1.349387 0.000000 0.000000
# 5 0.000000 0.000000 0.000000 0.000000 0.087774 0.000000
# 6 0.000000 0.000000 0.000000 0.000000 0.000000 0.037020
#
#
# Mechanical properties :
#
#
# Convention : Reuss Voigt Hill
#
# Bulk Modulus (GPa) = 17.79860 59.01259 38.40560
# Shear Modulus (GPa) = 3.08406 19.68102 11.38254
#
# Velocity S-wave (km/s) = 1.30094 3.28640 2.49929
# Velocity P-wave (km/s) = 3.46756 6.83996 5.42260
#
# Compressibility (1/GPa) = 0.05618418
#
# Stress axis : x y z
#
# Youngs Moduli (GPa) = 85.31247 93.13239 14.32696
#
# Poissons Ratio (x) = 0.50851 0.07229
# Poissons Ratio (y) = 0.46581 0.10789
# Poissons Ratio (z) = 0.43048 0.70136
#
# Static dielectric constant tensor:
#      x y z
#    x 3.572810 0.000000 0.000000 
#    y 0.000000 4.740320 0.000000 
#    z 0.000000 0.000000 2.645630 
# 
# 
# High freq. dielectric constant tensor:
#      x y z
#    x 1.719260 0.000000 0.000000 
#    y 0.000000 1.711930 0.000000 
#    z 0.000000 0.000000 1.621840 
# 
# From -- ./inp_files/1893.got.cif
#   From: 2010.03.12/outbox.cif.g09.slc.cpg/sg47_1_cif.got.tgz:1893.got - 2010.04.14 03:12:58.
