data_PCOD8195642
_publ_section_title
;
Structure prediction by ZEFSAII (Michael W. Deem and Ramdas Pophale) SiO2 
 PCOD8195642
Probable space group: P M M M
;
_chemical_formula_sum "Si O2"
_cell_formula_units_Z 60
_cell_length_a 9.153456
_cell_length_b 22.306589
_cell_length_c 15.623916
_cell_angle_alpha 90.000000
_cell_angle_beta 90.000000
_cell_angle_gamma 90.000000
_cell_volume 3190.128368
_symmetry_space_group_name_H-M "P M M M"
_symmetry_group_IT_number 47
_symmetry_cell_setting 'orthorhombic'
loop_
_space_group_symop_operation_xyz
x,y,z
-x,-y,z
x,-y,-z
-x,y,-z
-x,-y,-z
x,y,-z
-x,y,z
x,-y,z
loop_
_atom_site_type_symbol
_atom_site_label
_atom_site_fract_x
_atom_site_fract_y
_atom_site_fract_z
Si Si1 0.330934 0.174091 0.841222
Si Si2 0.839973 0.934662 0.900748
Si Si3 0.164070 0.000000 0.397435
Si Si4 0.170501 0.208655 0.677678
Si Si5 0.670021 0.304387 0.096108
Si Si6 0.827796 0.339351 0.264199
Si Si7 0.339891 0.112541 0.597524
Si Si8 0.173575 0.432272 0.595472
O O1 0.500000 0.172738 0.814648
O O2 0.288166 0.113823 0.889528
O O3 0.226115 0.173140 0.759911
O O4 0.297797 0.233446 0.897045
O O5 0.000000 0.913845 0.864557
O O6 0.797607 0.000000 0.860227
O O7 0.857046 0.944074 0.000000
O O8 0.245212 0.059062 0.360213
O O9 0.160543 0.000000 0.500000
O O10 0.000000 0.000000 0.360929
O O11 0.212124 0.278276 0.686352
O O12 0.256722 0.176727 0.600624
O O13 0.000000 0.199962 0.663250
O O14 0.500000 0.318054 0.109279
O O15 0.754538 0.341579 0.170023
O O16 0.719571 0.324483 0.000000
O O17 0.765140 0.390921 0.327454
O O18 0.000000 0.345534 0.248960
O O19 0.362958 0.095526 0.500000
O O20 0.500000 0.116450 0.642085
O O21 0.227882 0.412009 0.500000
O O22 0.226550 0.500000 0.613358
O O23 0.000000 0.428535 0.596357
#
# Coordination Sequence:
#
# PCOD8195642 Si02
#       8
#     8   8   4   8   8   8   8   8
#     4  10  19  32  49  68  92 120 157 204 250 300
#     4   9  18  32  48  66  90 119 150 188 238 296
#     4   9  17  31  51  71  89 113 150 197 250 305
#     4  10  20  33  48  69  98 128 159 199 250 303
#     4   9  18  32  50  72  99 134 172 210 259 316
#     4   9  18  31  50  78 107 134 170 218 261 300
#     4  10  20  34  51  70  93 122 159 203 249 301
#     4   8  14  27  50  80 112 144 176 210 252 303
#
# _framework density 18.808019999999999
#
# number of rings (size 3 to 8) (size 9 to 14) (size 15 to 20)
#    0.000    2.733    0.000    2.600    0.000    4.533 
#    1.200    2.000    0.000    1.200    0.000    3.733 
#    0.000    0.000    0.000    0.000    0.000    0.000 
#
# Total GULP energy -743438.655186 kJ/mol
# GULP energy per Si atom -12390.644253 kJ/mol
# Density = 1.876521 g / cm^3
# Si number density = 18.808020 Si / 1000 Ang^3
#
#
#
# Elastic Constant Matrix: (Units=GPa)
#
#
# Indices 1 2 3 4 5 6 
#
# 1 77.8250 42.8705 31.4583 0.0000 0.0000 0.0000
# 2 42.8705 102.5430 59.2312 0.0000 0.0000 0.0000
# 3 31.4583 59.2312 88.4074 0.0000 0.0000 0.0000
# 4 0.0000 0.0000 0.0000 27.5199 0.0000 0.0000
# 5 0.0000 0.0000 0.0000 0.0000 23.1178 0.0000
# 6 0.0000 0.0000 0.0000 0.0000 0.0000 16.3155
#
#
#
# Elastic Compliance Matrix: (Units=1/GPa)
#
#
# Indices 1 2 3 4 5 6 
#
# 1 0.016928 -0.005869 -0.002091 0.000000 0.000000 0.000000
# 2 -0.005869 0.017943 -0.009933 0.000000 0.000000 0.000000
# 3 -0.002091 -0.009933 0.018711 0.000000 0.000000 0.000000
# 4 0.000000 0.000000 0.000000 0.036337 0.000000 0.000000
# 5 0.000000 0.000000 0.000000 0.000000 0.043257 0.000000
# 6 0.000000 0.000000 0.000000 0.000000 0.000000 0.061292
#
#
# Mechanical properties :
#
#
# Convention : Reuss Voigt Hill
#
# Bulk Modulus (GPa) = 56.19767 59.54392 57.87079
# Shear Modulus (GPa) = 21.16975 22.40499 21.78737
#
# Velocity S-wave (km/s) = 3.35859 3.45519 3.40723
# Velocity P-wave (km/s) = 6.70706 6.90256 6.80551
#
# Compressibility (1/GPa) = 0.01779433
#
# Stress axis : x y z
#
# Youngs Moduli (GPa) = 59.07481 55.73076 53.44573
#
# Poissons Ratio (x) = 0.32709 0.11177
# Poissons Ratio (y) = 0.34671 0.53089
# Poissons Ratio (z) = 0.12354 0.55359
#
# Static dielectric constant tensor:
#      x y z
#    x 3.423380 0.000000 0.000000 
#    y 0.000000 3.462290 0.000000 
#    z 0.000000 0.000000 3.458000 
# 
# 
# High freq. dielectric constant tensor:
#      x y z
#    x 1.719100 0.000000 0.000000 
#    y 0.000000 1.711870 0.000000 
#    z 0.000000 0.000000 1.720330 
# 
# From -- ./inp_files/26985.got.cif
#   From: 2010.03.12/outbox.cif.g09.slc.cpg/sg47_14_cif.got.tgz:26985.got - 2010.04.14 03:12:58.
