data_PCOD8195739
_publ_section_title
;
Structure prediction by ZEFSAII (Michael W. Deem and Ramdas Pophale) SiO2 
 PCOD8195739
Probable space group: P M M M
;
_chemical_formula_sum "Si O2"
_cell_formula_units_Z 40
_cell_length_a 8.041918
_cell_length_b 9.531840
_cell_length_c 27.297875
_cell_angle_alpha 90.000000
_cell_angle_beta 90.000000
_cell_angle_gamma 90.000000
_cell_volume 2092.498835
_symmetry_space_group_name_H-M "P M M M"
_symmetry_group_IT_number 47
_symmetry_cell_setting 'orthorhombic'
loop_
_space_group_symop_operation_xyz
x,y,z
-x,-y,z
x,-y,-z
-x,y,-z
-x,-y,-z
x,y,-z
-x,y,z
x,-y,z
loop_
_atom_site_type_symbol
_atom_site_label
_atom_site_fract_x
_atom_site_fract_y
_atom_site_fract_z
Si Si1 0.689848 0.656639 0.217488
Si Si2 0.696853 0.840245 0.590773
Si Si3 0.191809 0.839935 0.303828
Si Si4 0.815831 0.333101 0.884554
Si Si5 0.301863 0.341025 0.500000
Si Si6 0.500000 0.332586 0.055515
O O1 0.500000 0.652401 0.200172
O O2 0.752454 0.500000 0.230776
O O3 0.704466 0.751337 0.265262
O O4 0.792464 0.718842 0.171506
O O5 0.500000 0.831241 0.594859
O O6 0.774922 0.784384 0.641377
O O7 0.765218 0.740246 0.547817
O O8 0.753666 0.000000 0.579783
O O9 0.000000 0.824370 0.290563
O O10 0.253292 0.000000 0.300343
O O11 0.803747 0.500000 0.885137
O O12 0.668219 0.272647 0.918852
O O13 0.000000 0.283973 0.902768
O O14 0.233062 0.500000 0.500000
O O15 0.500000 0.340002 0.500000
O O16 0.500000 0.500000 0.057437
O O17 0.500000 0.277504 0.000000
#
# Coordination Sequence:
#
# PCOD8195739 Si02
#       6
#     8   8   8   8   4   4
#     4  10  19  32  51  73  98 131 170 210 255 311
#     4   9  17  31  50  69  91 123 160 197 244 300
#     4  10  21  35  50  72 102 132 165 208 254 303
#     4   9  16  27  43  64  94 131 170 213 261 311
#     4   9  17  29  48  73  96 118 154 205 250 291
#     4   9  16  26  40  62  95 133 175 218 257 306
#
# _framework density 19.115901000000001
#
# number of rings (size 3 to 8) (size 9 to 14) (size 15 to 20)
#    0.000    2.600    1.000    1.500    0.000    4.800 
#    0.000    4.500    0.000    3.000    0.000    0.000 
#    0.000    1.600    0.000    4.200    0.000    4.000 
#
# Total GULP energy -495909.279464 kJ/mol
# GULP energy per Si atom -12397.731987 kJ/mol
# Density = 1.907239 g / cm^3
# Si number density = 19.115901 Si / 1000 Ang^3
#
#
#
# Elastic Constant Matrix: (Units=GPa)
#
#
# Indices 1 2 3 4 5 6 
#
# 1 88.1962 19.9946 51.5008 0.0000 0.0000 0.0000
# 2 19.9946 55.5214 50.9454 0.0000 0.0000 0.0000
# 3 51.5008 50.9454 147.7362 0.0000 0.0000 0.0000
# 4 0.0000 0.0000 0.0000 4.9382 0.0000 0.0000
# 5 0.0000 0.0000 0.0000 0.0000 20.3018 0.0000
# 6 0.0000 0.0000 0.0000 0.0000 0.0000 13.2114
#
#
#
# Elastic Compliance Matrix: (Units=1/GPa)
#
#
# Indices 1 2 3 4 5 6 
#
# 1 0.014263 -0.000840 -0.004682 0.000000 0.000000 0.000000
# 2 -0.000840 0.026398 -0.008810 0.000000 0.000000 0.000000
# 3 -0.004682 -0.008810 0.011439 0.000000 0.000000 0.000000
# 4 0.000000 0.000000 0.000000 0.202505 0.000000 0.000000
# 5 0.000000 0.000000 0.000000 0.000000 0.049257 0.000000
# 6 0.000000 0.000000 0.000000 0.000000 0.000000 0.075692
#
#
# Mechanical properties :
#
#
# Convention : Reuss Voigt Hill
#
# Bulk Modulus (GPa) = 42.67162 59.59283 51.13223
# Shear Modulus (GPa) = 12.01835 18.95780 15.48807
#
# Velocity S-wave (km/s) = 2.51013 3.15259 2.84952
# Velocity P-wave (km/s) = 5.54725 6.67038 6.13457
#
# Compressibility (1/GPa) = 0.02343478
#
# Stress axis : x y z
#
# Youngs Moduli (GPa) = 70.11136 37.88218 87.41846
#
# Poissons Ratio (x) = 0.03182 0.40933
# Poissons Ratio (y) = 0.05889 0.77017
# Poissons Ratio (z) = 0.32829 0.33375
#
# Static dielectric constant tensor:
#      x y z
#    x 3.488040 0.000000 0.000000 
#    y 0.000000 3.147290 0.000000 
#    z 0.000000 0.000000 3.533560 
# 
# 
# High freq. dielectric constant tensor:
#      x y z
#    x 1.743710 0.000000 0.000000 
#    y 0.000000 1.692780 0.000000 
#    z 0.000000 0.000000 1.747490 
# 
# From -- ./inp_files/33087.got.cif
#   From: 2010.03.12/outbox.cif.g09.slc.cpg/sg47_17_cif.got.tgz:33087.got - 2010.04.14 03:12:58.
