data_PCOD8195151
_publ_section_title
;
Structure prediction by ZEFSAII (Michael W. Deem and Ramdas Pophale) SiO2 
 PCOD8195151
Probable space group: P M M M
;
_chemical_formula_sum "Si O2"
_cell_formula_units_Z 64
_cell_length_a 20.470190
_cell_length_b 9.504447
_cell_length_c 18.625979
_cell_angle_alpha 90.000000
_cell_angle_beta 90.000000
_cell_angle_gamma 90.000000
_cell_volume 3623.830166
_symmetry_space_group_name_H-M "P M M M"
_symmetry_group_IT_number 47
_symmetry_cell_setting 'orthorhombic'
loop_
_space_group_symop_operation_xyz
x,y,z
-x,-y,z
x,-y,-z
-x,y,-z
-x,-y,-z
x,y,-z
-x,y,z
x,-y,z
loop_
_atom_site_type_symbol
_atom_site_label
_atom_site_fract_x
_atom_site_fract_y
_atom_site_fract_z
Si Si1 0.072373 0.658132 0.162195
Si Si2 0.425466 0.163732 0.314100
Si Si3 0.303698 0.337999 0.083388
Si Si4 0.315167 0.167096 0.419837
Si Si5 0.573646 0.661389 0.824381
Si Si6 0.808454 0.163300 0.668464
Si Si7 0.194336 0.835142 0.163452
Si Si8 0.928312 0.657588 0.667262
O O1 0.089024 0.500000 0.135317
O O2 0.127079 0.766308 0.133649
O O3 0.071923 0.661224 0.247402
O O4 0.000000 0.702487 0.133926
O O5 0.500000 0.195517 0.335644
O O6 0.381045 0.216523 0.379965
O O7 0.404429 0.245364 0.242876
O O8 0.413603 0.000000 0.297993
O O9 0.283765 0.500000 0.097994
O O10 0.377326 0.308510 0.110260
O O11 0.254794 0.235406 0.123976
O O12 0.301818 0.301281 0.000000
O O13 0.314674 0.231507 0.500000
O O14 0.253140 0.223351 0.375305
O O15 0.312764 0.000000 0.423524
O O16 0.500000 0.700472 0.849478
O O17 0.577285 0.500000 0.799548
O O18 0.796750 0.194160 0.752193
O O19 0.872656 0.239755 0.637364
O O20 0.819365 0.000000 0.654136
O O21 0.192453 0.000000 0.145830
O O22 0.913699 0.500000 0.639983
O O23 0.000000 0.706618 0.639631
#
# Coordination Sequence:
#
# PCOD8195151 Si02
#       8
#     8   8   8   8   8   8   8   8
#     4   8  14  26  45  69  96 124 155 193 236 281
#     4   9  17  30  50  74  97 122 154 192 232 276
#     4  10  21  35  50  69  94 125 160 195 230 274
#     4   9  17  29  45  66  94 126 159 196 233 268
#     4   9  18  33  53  75  97 122 153 191 236 282
#     4   9  17  28  44  67  92 120 155 193 232 274
#     4  10  19  30  47  71  98 126 156 194 239 284
#     4   8  14  25  42  65  91 117 147 187 234 279
#
# _framework density 17.660872999999999
#
# number of rings (size 3 to 8) (size 9 to 14) (size 15 to 20)
#    0.000    3.000    0.000    1.875    0.000    3.250 
#    0.000    5.625    0.000    2.250    0.000    9.625 
#    0.000    0.000    0.000    0.000    0.000    0.000 
#
# Total GULP energy -793391.346250 kJ/mol
# GULP energy per Si atom -12396.739785 kJ/mol
# Density = 1.762068 g / cm^3
# Si number density = 17.660873 Si / 1000 Ang^3
#
#
#
# Elastic Constant Matrix: (Units=GPa)
#
#
# Indices 1 2 3 4 5 6 
#
# 1 137.1836 59.8606 52.2936 0.0000 0.0000 0.0000
# 2 59.8606 69.1207 37.8808 0.0000 0.0000 0.0000
# 3 52.2936 37.8808 62.8773 0.0000 0.0000 0.0000
# 4 0.0000 0.0000 0.0000 14.7887 0.0000 0.0000
# 5 0.0000 0.0000 0.0000 0.0000 5.6350 0.0000
# 6 0.0000 0.0000 0.0000 0.0000 0.0000 29.0666
#
#
#
# Elastic Compliance Matrix: (Units=1/GPa)
#
#
# Indices 1 2 3 4 5 6 
#
# 1 0.013102 -0.008024 -0.006062 0.000000 0.000000 0.000000
# 2 -0.008024 0.026513 -0.009299 0.000000 0.000000 0.000000
# 3 -0.006062 -0.009299 0.026548 0.000000 0.000000 0.000000
# 4 0.000000 0.000000 0.000000 0.067619 0.000000 0.000000
# 5 0.000000 0.000000 0.000000 0.000000 0.177462 0.000000
# 6 0.000000 0.000000 0.000000 0.000000 0.000000 0.034404
#
#
# Mechanical properties :
#
#
# Convention : Reuss Voigt Hill
#
# Bulk Modulus (GPa) = 51.56905 63.25016 57.40960
# Shear Modulus (GPa) = 12.53499 17.84117 15.18808
#
# Velocity S-wave (km/s) = 2.66702 3.18183 2.93573
# Velocity P-wave (km/s) = 6.22471 7.02781 6.63842
#
# Compressibility (1/GPa) = 0.01939148
#
# Stress axis : x y z
#
# Youngs Moduli (GPa) = 76.32559 37.71720 37.66723
#
# Poissons Ratio (x) = 0.30265 0.22835
# Poissons Ratio (y) = 0.61245 0.35028
# Poissons Ratio (z) = 0.46270 0.35075
#
# Static dielectric constant tensor:
#      x y z
#    x 3.628170 0.000000 0.000000 
#    y 0.000000 3.215600 0.000000 
#    z 0.000000 0.000000 3.040250 
# 
# 
# High freq. dielectric constant tensor:
#      x y z
#    x 1.700050 0.000000 0.000000 
#    y 0.000000 1.667430 0.000000 
#    z 0.000000 0.000000 1.646810 
# 
# From -- ./inp_files/27010.got.cif
#   From: 2010.03.12/outbox.cif.g09.slc.cpg/sg47_14_cif.got.tgz:27010.got - 2010.04.14 03:12:58.
