data_PCOD8195551
_publ_section_title
;
Structure prediction by ZEFSAII (Michael W. Deem and Ramdas Pophale) SiO2 
 PCOD8195551
Probable space group: P M M M
;
_chemical_formula_sum "Si O2"
_cell_formula_units_Z 36
_cell_length_a 8.964483
_cell_length_b 13.648480
_cell_length_c 17.969678
_cell_angle_alpha 90.000000
_cell_angle_beta 90.000000
_cell_angle_gamma 90.000000
_cell_volume 2198.618261
_symmetry_space_group_name_H-M "P M M M"
_symmetry_group_IT_number 47
_symmetry_cell_setting 'orthorhombic'
loop_
_space_group_symop_operation_xyz
x,y,z
-x,-y,z
x,-y,-z
-x,y,-z
-x,-y,-z
x,y,-z
-x,y,z
x,-y,z
loop_
_atom_site_type_symbol
_atom_site_label
_atom_site_fract_x
_atom_site_fract_y
_atom_site_fract_z
Si Si1 0.169587 0.109458 0.779899
Si Si2 0.829120 0.386703 0.414664
Si Si3 0.830166 0.296839 0.858490
Si Si4 0.676156 0.387471 0.000000
Si Si5 0.324826 0.276847 0.286439
O O1 0.176255 0.177024 0.854893
O O2 0.271332 0.162626 0.716938
O O3 0.000000 0.105719 0.750174
O O4 0.229496 0.000000 0.796778
O O5 0.800537 0.357618 0.500000
O O6 0.790615 0.500000 0.401874
O O7 0.719896 0.321883 0.365101
O O8 0.000000 0.365506 0.392606
O O9 0.738060 0.334008 0.927894
O O10 0.755874 0.336409 0.781385
O O11 0.000000 0.334887 0.864107
O O12 0.728261 0.500000 0.000000
O O13 0.500000 0.378044 0.000000
O O14 0.500000 0.283941 0.275380
#
# Coordination Sequence:
#
# PCOD8195551 Si02
#       5
#     8   8   8   4   8
#     4   8  16  33  55  76  98 128 167 208 248 295
#     4   9  18  33  52  73  99 134 174 211 247 293
#     4   9  19  35  54  75  98 132 173 207 244 295
#     4  11  23  37  52  73 104 136 166 208 258 298
#     4  10  19  31  50  77 106 133 164 205 253 302
#
# _framework density 16.373920999999999
#
# number of rings (size 3 to 8) (size 9 to 14) (size 15 to 20)
#    1.333    1.444    0.000    3.000    0.000    3.111 
#    0.000    1.667    0.000    4.000    0.000    4.667 
#    0.000    0.000    0.000    0.000    0.000    0.000 
#
# Total GULP energy -446001.692392 kJ/mol
# GULP energy per Si atom -12388.935900 kJ/mol
# Density = 1.633665 g / cm^3
# Si number density = 16.373921 Si / 1000 Ang^3
#
#
#
# Elastic Constant Matrix: (Units=GPa)
#
#
# Indices 1 2 3 4 5 6 
#
# 1 95.3025 43.6129 44.7545 0.0000 0.0000 0.0000
# 2 43.6129 88.3878 49.1904 0.0000 0.0000 0.0000
# 3 44.7545 49.1904 93.1087 0.0000 0.0000 0.0000
# 4 0.0000 0.0000 0.0000 65.7022 0.0000 0.0000
# 5 0.0000 0.0000 0.0000 0.0000 26.7474 0.0000
# 6 0.0000 0.0000 0.0000 0.0000 0.0000 17.3146
#
#
#
# Elastic Compliance Matrix: (Units=1/GPa)
#
#
# Indices 1 2 3 4 5 6 
#
# 1 0.014837 -0.004748 -0.004623 0.000000 0.000000 0.000000
# 2 -0.004748 0.017545 -0.006987 0.000000 0.000000 0.000000
# 3 -0.004623 -0.006987 0.016654 0.000000 0.000000 0.000000
# 4 0.000000 0.000000 0.000000 0.015220 0.000000 0.000000
# 5 0.000000 0.000000 0.000000 0.000000 0.037387 0.000000
# 6 0.000000 0.000000 0.000000 0.000000 0.000000 0.057755
#
#
# Mechanical properties :
#
#
# Convention : Reuss Voigt Hill
#
# Bulk Modulus (GPa) = 61.27770 61.32383 61.30077
# Shear Modulus (GPa) = 25.30964 31.23559 28.27261
#
# Velocity S-wave (km/s) = 3.93584 4.37239 4.15985
# Velocity P-wave (km/s) = 7.62625 7.93876 7.78407
#
# Compressibility (1/GPa) = 0.01631915
#
# Stress axis : x y z
#
# Youngs Moduli (GPa) = 67.40028 56.99623 60.04668
#
# Poissons Ratio (x) = 0.27061 0.27761
# Poissons Ratio (y) = 0.32001 0.41955
# Poissons Ratio (z) = 0.31160 0.39824
#
# Static dielectric constant tensor:
#      x y z
#    x 3.047730 0.000000 0.000000 
#    y 0.000000 3.026960 0.000000 
#    z 0.000000 0.000000 2.899940 
# 
# 
# High freq. dielectric constant tensor:
#      x y z
#    x 1.637070 0.000000 0.000000 
#    y 0.000000 1.613460 0.000000 
#    z 0.000000 0.000000 1.612030 
# 
# From -- ./inp_files/26278.got.cif
#   From: 2010.03.12/outbox.cif.g09.slc.cpg/sg47_14_cif.got.tgz:26278.got - 2010.04.14 03:12:58.
