data_PCOD8195496
_publ_section_title
;
Structure prediction by ZEFSAII (Michael W. Deem and Ramdas Pophale) SiO2 
 PCOD8195496
Probable space group: P M M M
;
_chemical_formula_sum "Si O2"
_cell_formula_units_Z 52
_cell_length_a 12.693455
_cell_length_b 27.653209
_cell_length_c 8.051242
_cell_angle_alpha 90.000000
_cell_angle_beta 90.000000
_cell_angle_gamma 90.000000
_cell_volume 2826.104811
_symmetry_space_group_name_H-M "P M M M"
_symmetry_group_IT_number 47
_symmetry_cell_setting 'orthorhombic'
loop_
_space_group_symop_operation_xyz
x,y,z
-x,-y,z
x,-y,-z
-x,y,-z
-x,-y,-z
x,y,-z
-x,y,z
x,-y,z
loop_
_atom_site_type_symbol
_atom_site_label
_atom_site_fract_x
_atom_site_fract_y
_atom_site_fract_z
Si Si1 0.876893 0.616640 0.812754
Si Si2 0.000000 0.109888 0.697103
Si Si3 0.206273 0.945429 0.806045
Si Si4 0.000000 0.781183 0.303019
Si Si5 0.190311 0.715809 0.690463
Si Si6 0.617946 0.876482 0.309743
Si Si7 0.380210 0.773623 0.190041
Si Si8 0.125036 0.445883 0.500000
O O1 0.814552 0.666855 0.796289
O O2 0.835540 0.580032 0.669928
O O3 0.000000 0.627171 0.784389
O O4 0.856905 0.595879 0.000000
O O5 0.898501 0.083243 0.765069
O O6 0.000000 0.164473 0.768192
O O7 0.000000 0.109020 0.500000
O O8 0.306099 0.921431 0.718712
O O9 0.195207 0.000000 0.738366
O O10 0.227090 0.945086 0.000000
O O11 0.895963 0.753514 0.238801
O O12 0.000000 0.783860 0.500000
O O13 0.165122 0.702810 0.500000
O O14 0.305750 0.738969 0.703000
O O15 0.622424 0.860490 0.500000
O O16 0.500000 0.892386 0.257476
O O17 0.654752 0.829586 0.206414
O O18 0.500000 0.767520 0.255301
O O19 0.370230 0.757862 0.000000
O O20 0.172231 0.500000 0.500000
O O21 0.000000 0.447830 0.500000
#
# Coordination Sequence:
#
# PCOD8195496 Si02
#       8
#     8   4   8   4   8   8   8   4
#     4  10  19  31  49  75 109 146 188 235 280 327
#     4  11  22  38  57  80 106 134 173 215 256 308
#     4  11  24  40  57  77 103 135 169 210 263 320
#     4   9  20  32  50  77 104 136 170 213 263 313
#     4  11  19  32  53  76 109 146 184 225 268 322
#     4  10  21  38  59  81 104 131 169 216 265 320
#     4  10  21  36  53  76 108 143 179 220 266 320
#     4   9  18  32  50  72 105 151 195 235 280 326
#
# _framework density 18.399882999999999
#
# number of rings (size 3 to 8) (size 9 to 14) (size 15 to 20)
#    0.000    1.769    1.538    3.231    0.000    5.846 
#    0.000    5.385    0.000    0.000    0.000    0.000 
#    0.000    1.231    0.000    3.231    0.000    0.154 
#
# Total GULP energy -644905.409201 kJ/mol
# GULP energy per Si atom -12402.027100 kJ/mol
# Density = 1.835800 g / cm^3
# Si number density = 18.399883 Si / 1000 Ang^3
#
#
#
# Elastic Constant Matrix: (Units=GPa)
#
#
# Indices 1 2 3 4 5 6 
#
# 1 85.8113 51.0236 22.0946 0.0000 0.0000 0.0000
# 2 51.0236 131.1679 35.9202 0.0000 0.0000 0.0000
# 3 22.0946 35.9202 78.7424 0.0000 0.0000 0.0000
# 4 0.0000 0.0000 0.0000 24.2889 0.0000 0.0000
# 5 0.0000 0.0000 0.0000 0.0000 25.0237 0.0000
# 6 0.0000 0.0000 0.0000 0.0000 0.0000 47.4163
#
#
#
# Elastic Compliance Matrix: (Units=1/GPa)
#
#
# Indices 1 2 3 4 5 6 
#
# 1 0.015383 -0.005487 -0.001813 0.000000 0.000000 0.000000
# 2 -0.005487 0.010670 -0.003327 0.000000 0.000000 0.000000
# 3 -0.001813 -0.003327 0.014726 0.000000 0.000000 0.000000
# 4 0.000000 0.000000 0.000000 0.041171 0.000000 0.000000
# 5 0.000000 0.000000 0.000000 0.000000 0.039962 0.000000
# 6 0.000000 0.000000 0.000000 0.000000 0.000000 0.021090
#
#
# Mechanical properties :
#
#
# Convention : Reuss Voigt Hill
#
# Bulk Modulus (GPa) = 51.22183 57.08871 54.15527
# Shear Modulus (GPa) = 29.27986 31.79134 30.53560
#
# Velocity S-wave (km/s) = 3.99345 4.16119 4.07818
# Velocity P-wave (km/s) = 7.01157 7.36080 7.18830
#
# Compressibility (1/GPa) = 0.01952293
#
# Stress axis : x y z
#
# Youngs Moduli (GPa) = 65.00608 93.72407 67.90569
#
# Poissons Ratio (x) = 0.51430 0.12313
# Poissons Ratio (y) = 0.35672 0.22595
# Poissons Ratio (z) = 0.11787 0.31186
#
# Static dielectric constant tensor:
#      x y z
#    x 3.341270 0.000000 0.000000 
#    y 0.000000 3.385290 0.000000 
#    z 0.000000 0.000000 3.432670 
# 
# 
# High freq. dielectric constant tensor:
#      x y z
#    x 1.692520 0.000000 0.000000 
#    y 0.000000 1.700450 0.000000 
#    z 0.000000 0.000000 1.722000 
# 
# From -- ./inp_files/4674.got.cif
#   From: 2010.03.12/outbox.cif.g09.slc.cpg/sg47_3_cif.got.tgz:4674.got - 2010.04.14 03:12:58.
