data_PCOD8195267
_publ_section_title
;
Structure prediction by ZEFSAII (Michael W. Deem and Ramdas Pophale) SiO2 
 PCOD8195267
Probable space group: P M M M
;
_chemical_formula_sum "Si O2"
_cell_formula_units_Z 40
_cell_length_a 8.228113
_cell_length_b 18.995894
_cell_length_c 18.012203
_cell_angle_alpha 90.000000
_cell_angle_beta 90.000000
_cell_angle_gamma 90.000000
_cell_volume 2815.313856
_symmetry_space_group_name_H-M "P M M M"
_symmetry_group_IT_number 47
_symmetry_cell_setting 'orthorhombic'
loop_
_space_group_symop_operation_xyz
x,y,z
-x,-y,z
x,-y,-z
-x,y,-z
-x,-y,-z
x,y,-z
-x,y,z
x,-y,z
loop_
_atom_site_type_symbol
_atom_site_label
_atom_site_fract_x
_atom_site_fract_y
_atom_site_fract_z
Si Si1 0.500000 0.580469 0.088332
Si Si2 0.318531 0.916803 0.347074
Si Si3 0.818910 0.339223 0.911987
Si Si4 0.685903 0.192100 0.916379
Si Si5 0.186284 0.919411 0.806668
Si Si6 0.184152 0.916356 0.500000
O O1 0.500000 0.500000 0.114391
O O2 0.667578 0.615130 0.120562
O O3 0.500000 0.587903 0.000000
O O4 0.500000 0.891600 0.329997
O O5 0.208845 0.891741 0.277848
O O6 0.263070 0.883381 0.425535
O O7 0.305167 0.000000 0.355403
O O8 0.794494 0.257700 0.889206
O O9 0.000000 0.363111 0.883058
O O10 0.814694 0.346549 0.000000
O O11 0.500000 0.217339 0.914008
O O12 0.708319 0.125679 0.863291
O O13 0.734466 0.169533 0.000000
O O14 0.000000 0.912429 0.829444
O O15 0.247200 0.000000 0.812520
O O16 0.000000 0.892572 0.500000
O O17 0.204658 0.000000 0.500000
#
# Coordination Sequence:
#
# PCOD8195267 Si02
#       6
#     4   8   8   8   8   4
#     4   9  16  26  40  60  83 101 121 152 190 231
#     4   9  16  26  39  54  72  93 118 150 191 237
#     4   9  16  27  42  58  77 101 128 157 191 233
#     4  10  19  31  45  57  72  98 133 170 207 247
#     4  10  20  31  41  55  75  97 126 169 214 248
#     4   9  15  23  37  55  73  93 115 141 181 234
#
# _framework density 14.208008
#
# number of rings (size 3 to 8) (size 9 to 14) (size 15 to 20)
#    0.000    2.600    1.000    2.100    0.000    6.800 
#    0.000    4.000    0.000    0.000    0.000    0.000 
#    0.000    0.000    0.000    0.000    0.000    0.000 
#
# Total GULP energy -495728.896063 kJ/mol
# GULP energy per Si atom -12393.222402 kJ/mol
# Density = 1.417567 g / cm^3
# Si number density = 14.208008 Si / 1000 Ang^3
#
#
#
# Elastic Constant Matrix: (Units=GPa)
#
#
# Indices 1 2 3 4 5 6 
#
# 1 85.7187 31.7316 23.0461 0.0000 0.0000 0.0000
# 2 31.7316 51.1876 27.5098 0.0000 0.0000 0.0000
# 3 23.0461 27.5098 57.6395 0.0000 0.0000 0.0000
# 4 0.0000 0.0000 0.0000 0.0727 0.0000 0.0000
# 5 0.0000 0.0000 0.0000 0.0000 19.6247 0.0000
# 6 0.0000 0.0000 0.0000 0.0000 0.0000 16.5250
#
#
#
# Elastic Compliance Matrix: (Units=1/GPa)
#
#
# Indices 1 2 3 4 5 6 
#
# 1 0.015335 -0.008354 -0.002144 0.000000 0.000000 0.000000
# 2 -0.008354 0.030827 -0.011373 0.000000 0.000000 0.000000
# 3 -0.002144 -0.011373 0.023634 0.000000 0.000000 0.000000
# 4 0.000000 0.000000 0.000000 13.762932 0.000000 0.000000
# 5 0.000000 0.000000 0.000000 0.000000 0.050956 0.000000
# 6 0.000000 0.000000 0.000000 0.000000 0.000000 0.060514
#
#
# Mechanical properties :
#
#
# Convention : Reuss Voigt Hill
#
# Bulk Modulus (GPa) = 38.38112 39.90228 39.14170
# Shear Modulus (GPa) = 0.35723 14.72836 7.54280
#
# Velocity S-wave (km/s) = 0.50197 3.22316 2.30659
# Velocity P-wave (km/s) = 5.23530 6.48051 5.89090
#
# Compressibility (1/GPa) = 0.02605448
#
# Stress axis : x y z
#
# Youngs Moduli (GPa) = 65.21009 32.43959 42.31120
#
# Poissons Ratio (x) = 0.27100 0.09073
# Poissons Ratio (y) = 0.54476 0.48119
# Poissons Ratio (z) = 0.13983 0.36892
#
# Static dielectric constant tensor:
#      x y z
#    x 3.020400 0.000000 0.000000 
#    y 0.000000 2.448250 0.000000 
#    z 0.000000 0.000000 2.637860 
# 
# 
# High freq. dielectric constant tensor:
#      x y z
#    x 1.565260 0.000000 0.000000 
#    y 0.000000 1.490540 0.000000 
#    z 0.000000 0.000000 1.507520 
# 
# From -- ./inp_files/9352.got.cif
#   From: 2010.03.12/outbox.cif.g09.slc.cpg/sg47_5_cif.got.tgz:9352.got - 2010.04.14 03:12:58.
