data_PCOD8195828
_publ_section_title
;
Structure prediction by ZEFSAII (Michael W. Deem and Ramdas Pophale) SiO2 
 PCOD8195828
Probable space group: P M M M
;
_chemical_formula_sum "Si O2"
_cell_formula_units_Z 64
_cell_length_a 15.814737
_cell_length_b 13.729124
_cell_length_c 15.818870
_cell_angle_alpha 90.000000
_cell_angle_beta 90.000000
_cell_angle_gamma 90.000000
_cell_volume 3434.632369
_symmetry_space_group_name_H-M "P M M M"
_symmetry_group_IT_number 47
_symmetry_cell_setting 'orthorhombic'
loop_
_space_group_symop_operation_xyz
x,y,z
-x,-y,z
x,-y,-z
-x,y,-z
-x,-y,-z
x,y,-z
-x,y,z
x,-y,z
loop_
_atom_site_type_symbol
_atom_site_label
_atom_site_fract_x
_atom_site_fract_y
_atom_site_fract_z
Si Si1 0.400374 0.807288 0.906438
Si Si2 0.903047 0.115149 0.091600
Si Si3 0.843025 0.111430 0.730738
Si Si4 0.244254 0.607011 0.402889
Si Si5 0.649641 0.891310 0.261907
Si Si6 0.597464 0.605522 0.846874
Si Si7 0.095490 0.742921 0.597966
Si Si8 0.406451 0.304355 0.332868
O O1 0.500000 0.806985 0.885238
O O2 0.354444 0.876972 0.839624
O O3 0.364722 0.695902 0.900253
O O4 0.381994 0.848069 0.000000
O O5 0.856196 0.157661 0.174934
O O6 0.000000 0.146341 0.099608
O O7 0.892877 0.000000 0.090997
O O8 0.867633 0.154718 0.000000
O O9 0.745143 0.120579 0.706981
O O10 0.897239 0.163284 0.658011
O O11 0.873884 0.000000 0.731127
O O12 0.224929 0.591771 0.500000
O O13 0.250867 0.500000 0.359401
O O14 0.163583 0.665100 0.365608
O O15 0.331847 0.667144 0.396339
O O16 0.594563 0.810432 0.309809
O O17 0.616036 0.000000 0.283419
O O18 0.500000 0.595399 0.870419
O O19 0.641213 0.500000 0.866642
O O20 0.609470 0.629641 0.748686
O O21 0.115025 0.771259 0.500000
O O22 0.000000 0.700954 0.605299
O O23 0.500000 0.325697 0.371439
#
# Coordination Sequence:
#
# PCOD8195828 Si02
#       8
#     8   8   8   8   8   8   8   8
#     4   9  18  30  43  64  96 134 178 226 272 321
#     4   8  14  25  42  67 100 135 170 212 264 318
#     4  10  19  32  52  77 105 140 185 229 271 321
#     4  10  21  37  57  82 110 136 166 210 264 320
#     4  10  20  33  49  70  98 137 182 224 267 317
#     4   8  14  25  43  67  93 125 166 210 260 317
#     4  10  21  37  57  82 113 146 178 215 264 323
#     4  10  19  33  53  76 104 136 174 218 263 313
#
# _framework density 18.633725999999999
#
# number of rings (size 3 to 8) (size 9 to 14) (size 15 to 20)
#    0.000    2.625    1.250    2.250    0.000    4.250 
#    0.000    5.625    0.000    0.375    0.000    0.875 
#    0.000    0.500    0.000    2.625    0.000    0.250 
#
# Total GULP energy -792956.219162 kJ/mol
# GULP energy per Si atom -12389.940924 kJ/mol
# Density = 1.859131 g / cm^3
# Si number density = 18.633726 Si / 1000 Ang^3
#
#
#
# Elastic Constant Matrix: (Units=GPa)
#
#
# Indices 1 2 3 4 5 6 
#
# 1 84.3632 30.4664 21.7883 0.0000 0.0000 0.0000
# 2 30.4664 86.8770 22.2172 0.0000 0.0000 0.0000
# 3 21.7883 22.2172 59.5877 0.0000 0.0000 0.0000
# 4 0.0000 0.0000 0.0000 14.5774 0.0000 0.0000
# 5 0.0000 0.0000 0.0000 0.0000 25.5147 0.0000
# 6 0.0000 0.0000 0.0000 0.0000 0.0000 15.9171
#
#
#
# Elastic Compliance Matrix: (Units=1/GPa)
#
#
# Indices 1 2 3 4 5 6 
#
# 1 0.014277 -0.004059 -0.003707 0.000000 0.000000 0.000000
# 2 -0.004059 0.013878 -0.003690 0.000000 0.000000 0.000000
# 3 -0.003707 -0.003690 0.019513 0.000000 0.000000 0.000000
# 4 0.000000 0.000000 0.000000 0.068599 0.000000 0.000000
# 5 0.000000 0.000000 0.000000 0.000000 0.039193 0.000000
# 6 0.000000 0.000000 0.000000 0.000000 0.000000 0.062826
#
#
# Mechanical properties :
#
#
# Convention : Reuss Voigt Hill
#
# Bulk Modulus (GPa) = 40.39444 42.19685 41.29564
# Shear Modulus (GPa) = 20.04418 21.62557 20.83488
#
# Velocity S-wave (km/s) = 3.28334 3.41040 3.34747
# Velocity P-wave (km/s) = 6.00824 6.18080 6.09513
#
# Compressibility (1/GPa) = 0.02475588
#
# Stress axis : x y z
#
# Youngs Moduli (GPa) = 70.04464 72.05903 51.24703
#
# Poissons Ratio (x) = 0.29246 0.18997
# Poissons Ratio (y) = 0.28428 0.18911
# Poissons Ratio (z) = 0.25966 0.26591
#
# Static dielectric constant tensor:
#      x y z
#    x 3.280330 0.000000 0.000000 
#    y 0.000000 3.549920 0.000000 
#    z 0.000000 0.000000 3.194350 
# 
# 
# High freq. dielectric constant tensor:
#      x y z
#    x 1.705990 0.000000 0.000000 
#    y 0.000000 1.706110 0.000000 
#    z 0.000000 0.000000 1.708630 
# 
# From -- ./inp_files/28379.got.cif
#   From: 2010.03.12/outbox.cif.g09.slc.cpg/sg47_15_cif.got.tgz:28379.got - 2010.04.14 03:12:58.
