data_PCOD8195695
_publ_section_title
;
Structure prediction by ZEFSAII (Michael W. Deem and Ramdas Pophale) SiO2 
 PCOD8195695
Probable space group: P M M M
;
_chemical_formula_sum "Si O2"
_cell_formula_units_Z 56
_cell_length_a 18.499891
_cell_length_b 9.455029
_cell_length_c 18.932010
_cell_angle_alpha 90.000000
_cell_angle_beta 90.000000
_cell_angle_gamma 90.000000
_cell_volume 3311.530505
_symmetry_space_group_name_H-M "P M M M"
_symmetry_group_IT_number 47
_symmetry_cell_setting 'orthorhombic'
loop_
_space_group_symop_operation_xyz
x,y,z
-x,-y,z
x,-y,-z
-x,y,-z
-x,-y,-z
x,y,-z
-x,y,z
x,-y,z
loop_
_atom_site_type_symbol
_atom_site_label
_atom_site_fract_x
_atom_site_fract_y
_atom_site_fract_z
Si Si1 0.292707 0.163209 0.922131
Si Si2 0.650672 0.838928 0.222090
Si Si3 0.917339 0.663189 0.222712
Si Si4 0.149459 0.662582 0.077882
Si Si5 0.279074 0.334752 0.418361
Si Si6 0.797568 0.834773 0.302527
Si Si7 0.419754 0.663463 0.663830
O O1 0.351466 0.199243 0.861481
O O2 0.221031 0.249913 0.907753
O O3 0.270128 0.000000 0.915325
O O4 0.325427 0.196376 0.000000
O O5 0.731931 0.809653 0.248742
O O6 0.593135 0.743578 0.262586
O O7 0.628235 0.000000 0.236157
O O8 0.896461 0.500000 0.237888
O O9 0.907841 0.697846 0.139269
O O10 0.869055 0.764867 0.270574
O O11 0.000000 0.693113 0.242806
O O12 0.172781 0.500000 0.081096
O O13 0.116577 0.698781 0.000000
O O14 0.271294 0.296260 0.500000
O O15 0.264174 0.500000 0.404017
O O16 0.220778 0.241700 0.376454
O O17 0.360608 0.292804 0.394622
O O18 0.811964 0.000000 0.316606
O O19 0.500000 0.700369 0.634917
O O20 0.412998 0.500000 0.682353
#
# Coordination Sequence:
#
# PCOD8195695 Si02
#       7
#     8   8   8   8   8   8   8
#     4   9  16  27  44  65  90 120 158 205 249 285
#     4   9  17  29  46  68  92 123 162 200 240 282
#     4  10  20  32  47  68  96 131 167 203 244 289
#     4   9  17  28  43  65  93 125 161 201 245 290
#     4   9  18  33  54  78 102 129 156 185 228 280
#     4  10  19  32  50  72  97 125 161 202 240 280
#     4   9  18  31  48  73 102 130 158 188 225 273
#
# _framework density 16.910609000000001
#
# number of rings (size 3 to 8) (size 9 to 14) (size 15 to 20)
#    0.000    2.714    1.429    0.429    0.000    2.571 
#    0.000    2.857    0.000    0.857    0.000   13.000 
#    0.000    0.000    0.000    0.000    0.000    0.000 
#
# Total GULP energy -694199.612391 kJ/mol
# GULP energy per Si atom -12396.421650 kJ/mol
# Density = 1.687212 g / cm^3
# Si number density = 16.910609 Si / 1000 Ang^3
#
#
#
# Elastic Constant Matrix: (Units=GPa)
#
#
# Indices 1 2 3 4 5 6 
#
# 1 69.5826 39.6402 45.9676 0.0000 0.0000 0.0000
# 2 39.6402 64.6009 51.8668 0.0000 0.0000 0.0000
# 3 45.9676 51.8668 121.0662 0.0000 0.0000 0.0000
# 4 0.0000 0.0000 0.0000 24.4658 0.0000 0.0000
# 5 0.0000 0.0000 0.0000 0.0000 19.4967 0.0000
# 6 0.0000 0.0000 0.0000 0.0000 0.0000 17.7220
#
#
#
# Elastic Compliance Matrix: (Units=1/GPa)
#
#
# Indices 1 2 3 4 5 6 
#
# 1 0.023397 -0.011012 -0.004166 0.000000 0.000000 0.000000
# 2 -0.011012 0.028779 -0.008148 0.000000 0.000000 0.000000
# 3 -0.004166 -0.008148 0.013332 0.000000 0.000000 0.000000
# 4 0.000000 0.000000 0.000000 0.040873 0.000000 0.000000
# 5 0.000000 0.000000 0.000000 0.000000 0.051291 0.000000
# 6 0.000000 0.000000 0.000000 0.000000 0.000000 0.056427
#
#
# Mechanical properties :
#
#
# Convention : Reuss Voigt Hill
#
# Bulk Modulus (GPa) = 53.03321 58.91098 55.97210
# Shear Modulus (GPa) = 18.72401 20.18856 19.45628
#
# Velocity S-wave (km/s) = 3.33112 3.45895 3.39564
# Velocity P-wave (km/s) = 6.79884 7.13195 6.96739
#
# Compressibility (1/GPa) = 0.01885611
#
# Stress axis : x y z
#
# Youngs Moduli (GPa) = 42.74088 34.74775 75.00484
#
# Poissons Ratio (x) = 0.38264 0.31245
# Poissons Ratio (y) = 0.47066 0.61115
# Poissons Ratio (z) = 0.17805 0.28313
#
# Static dielectric constant tensor:
#      x y z
#    x 2.932340 0.000000 0.000000 
#    y 0.000000 3.193890 0.000000 
#    z 0.000000 0.000000 3.305410 
# 
# 
# High freq. dielectric constant tensor:
#      x y z
#    x 1.620160 0.000000 0.000000 
#    y 0.000000 1.653450 0.000000 
#    z 0.000000 0.000000 1.652840 
# 
# From -- ./inp_files/9803.got.cif
#   From: 2010.03.12/outbox.cif.g09.slc.cpg/sg47_5_cif.got.tgz:9803.got - 2010.04.14 03:12:58.
