data_PCOD8195009
_publ_section_title
;
Structure prediction by ZEFSAII (Michael W. Deem and Ramdas Pophale) SiO2 
 PCOD8195009
Probable space group: P M M M
;
_chemical_formula_sum "Si O2"
_cell_formula_units_Z 60
_cell_length_a 9.588389
_cell_length_b 18.242630
_cell_length_c 21.775568
_cell_angle_alpha 90.000000
_cell_angle_beta 90.000000
_cell_angle_gamma 90.000000
_cell_volume 3808.926453
_symmetry_space_group_name_H-M "P M M M"
_symmetry_group_IT_number 47
_symmetry_cell_setting 'orthorhombic'
loop_
_space_group_symop_operation_xyz
x,y,z
-x,-y,z
x,-y,-z
-x,y,-z
-x,-y,-z
x,y,-z
-x,y,z
x,-y,z
loop_
_atom_site_type_symbol
_atom_site_label
_atom_site_fract_x
_atom_site_fract_y
_atom_site_fract_z
Si Si1 0.662397 0.082214 0.766758
Si Si2 0.843535 0.918696 0.649071
Si Si3 0.839885 0.215946 0.570273
Si Si4 0.662013 0.296214 0.669940
Si Si5 0.160331 0.365647 0.849507
Si Si6 0.660875 0.763079 0.804315
Si Si7 0.153734 0.583718 0.286345
Si Si8 0.834200 0.500000 0.930109
O O1 0.500000 0.084439 0.750441
O O2 0.740745 0.100799 0.704166
O O3 0.695216 0.149437 0.814410
O O4 0.703246 0.000000 0.792125
O O5 0.819940 0.868148 0.590106
O O6 0.000000 0.909649 0.675490
O O7 0.815493 0.000000 0.624573
O O8 0.793726 0.224404 0.500000
O O9 0.737681 0.262498 0.611835
O O10 0.000000 0.241237 0.579640
O O11 0.500000 0.301377 0.655351
O O12 0.693575 0.252407 0.732695
O O13 0.724851 0.377112 0.676175
O O14 0.246926 0.288945 0.848648
O O15 0.177908 0.407586 0.785857
O O16 0.220391 0.424168 0.899126
O O17 0.000000 0.344773 0.863627
O O18 0.500000 0.746046 0.819580
O O19 0.163118 0.500000 0.305072
O O20 0.000000 0.615326 0.303295
O O21 0.000000 0.500000 0.923648
O O22 0.782237 0.500000 0.000000
#
# Coordination Sequence:
#
# PCOD8195009 Si02
#       8
#     8   8   8   8   8   8   8   4
#     4   9  16  27  43  61  85 116 146 178 222 275
#     4   9  17  28  42  60  81 106 139 178 218 261
#     4  10  20  32  45  60  80 108 142 178 218 268
#     4  10  19  30  44  64  86 109 139 176 222 267
#     4   9  16  27  44  67  92 122 156 184 213 247
#     4   9  17  28  42  63  89 116 147 185 225 264
#     4   9  16  28  47  68  90 113 140 175 211 256
#     4   9  16  28  47  71 101 133 164 191 210 241
#
# _framework density 15.752469
#
# number of rings (size 3 to 8) (size 9 to 14) (size 15 to 20)
#    0.000    2.733    2.000    0.400    0.000    1.867 
#    0.000    1.667    0.000    1.200    0.000    5.600 
#    0.000    0.533    0.000    6.667    0.000    0.000 
#
# Total GULP energy -743514.880003 kJ/mol
# GULP energy per Si atom -12391.914667 kJ/mol
# Density = 1.571662 g / cm^3
# Si number density = 15.752469 Si / 1000 Ang^3
#
#
#
# Elastic Constant Matrix: (Units=GPa)
#
#
# Indices 1 2 3 4 5 6 
#
# 1 65.1730 52.6832 36.2533 0.0000 0.0000 0.0000
# 2 52.6832 114.4315 49.5519 0.0000 0.0000 0.0000
# 3 36.2533 49.5519 63.3484 0.0000 0.0000 0.0000
# 4 0.0000 0.0000 0.0000 18.9826 0.0000 0.0000
# 5 0.0000 0.0000 0.0000 0.0000 11.1325 0.0000
# 6 0.0000 0.0000 0.0000 0.0000 0.0000 23.6329
#
#
#
# Elastic Compliance Matrix: (Units=1/GPa)
#
#
# Indices 1 2 3 4 5 6 
#
# 1 0.027318 -0.008782 -0.008765 0.000000 0.000000 0.000000
# 2 -0.008782 0.016038 -0.007520 0.000000 0.000000 0.000000
# 3 -0.008765 -0.007520 0.026683 0.000000 0.000000 0.000000
# 4 0.000000 0.000000 0.000000 0.052680 0.000000 0.000000
# 5 0.000000 0.000000 0.000000 0.000000 0.089827 0.000000
# 6 0.000000 0.000000 0.000000 0.000000 0.000000 0.042314
#
#
# Mechanical properties :
#
#
# Convention : Reuss Voigt Hill
#
# Bulk Modulus (GPa) = 50.23127 57.76998 54.00062
# Shear Modulus (GPa) = 16.04481 17.71390 16.87935
#
# Velocity S-wave (km/s) = 3.19495 3.35702 3.27699
# Velocity P-wave (km/s) = 6.75036 7.19578 6.97663
#
# Compressibility (1/GPa) = 0.01990792
#
# Stress axis : x y z
#
# Youngs Moduli (GPa) = 36.60617 62.35202 37.47647
#
# Poissons Ratio (x) = 0.54755 0.32846
# Poissons Ratio (y) = 0.32146 0.28181
# Poissons Ratio (z) = 0.32083 0.46886
#
# Static dielectric constant tensor:
#      x y z
#    x 3.040420 0.000000 0.000000 
#    y 0.000000 3.289360 0.000000 
#    z 0.000000 0.000000 2.617640 
# 
# 
# High freq. dielectric constant tensor:
#      x y z
#    x 1.602500 0.000000 0.000000 
#    y 0.000000 1.615750 0.000000 
#    z 0.000000 0.000000 1.551270 
# 
# From -- ./inp_files/29968.got.cif
#   From: 2010.03.12/outbox.cif.g09.slc.cpg/sg47_15_cif.got.tgz:29968.got - 2010.04.14 03:12:58.
