data_PCOD8195512
_publ_section_title
;
Structure prediction by ZEFSAII (Michael W. Deem and Ramdas Pophale) SiO2 
 PCOD8195512
Probable space group: P M M M
;
_chemical_formula_sum "Si O2"
_cell_formula_units_Z 64
_cell_length_a 23.238448
_cell_length_b 9.135692
_cell_length_c 15.733740
_cell_angle_alpha 90.000000
_cell_angle_beta 90.000000
_cell_angle_gamma 90.000000
_cell_volume 3340.262043
_symmetry_space_group_name_H-M "P M M M"
_symmetry_group_IT_number 47
_symmetry_cell_setting 'orthorhombic'
loop_
_space_group_symop_operation_xyz
x,y,z
-x,-y,z
x,-y,-z
-x,y,-z
-x,-y,-z
x,y,-z
-x,y,z
x,-y,z
loop_
_atom_site_type_symbol
_atom_site_label
_atom_site_fract_x
_atom_site_fract_y
_atom_site_fract_z
Si Si1 0.728820 0.340222 0.403393
Si Si2 0.354035 0.673229 0.094548
Si Si3 0.229910 0.330450 0.841500
Si Si4 0.062814 0.172093 0.749512
Si Si5 0.107179 0.333759 0.905530
Si Si6 0.182117 0.826877 0.682099
Si Si7 0.565651 0.668495 0.752872
Si Si8 0.383002 0.173164 0.599081
O O1 0.715661 0.369617 0.500000
O O2 0.730162 0.500000 0.356946
O O3 0.789879 0.255141 0.397837
O O4 0.677648 0.238957 0.368133
O O5 0.359831 0.500000 0.092950
O O6 0.288114 0.719921 0.112253
O O7 0.395530 0.733887 0.169632
O O8 0.370873 0.734006 0.000000
O O9 0.233611 0.500000 0.813539
O O10 0.175622 0.303683 0.902947
O O11 0.221285 0.228298 0.759807
O O12 0.070549 0.232561 0.843830
O O13 0.115459 0.225974 0.690060
O O14 0.000000 0.220544 0.713097
O O15 0.066248 0.000000 0.757752
O O16 0.094361 0.500000 0.878852
O O17 0.085330 0.300404 0.000000
O O18 0.186533 0.000000 0.671978
O O19 0.500000 0.681405 0.783383
O O20 0.582554 0.500000 0.733983
O O21 0.571143 0.758658 0.664563
O O22 0.397388 0.212909 0.500000
O O23 0.381025 0.000000 0.610043
#
# Coordination Sequence:
#
# PCOD8195512 Si02
#       8
#     8   8   8   8   8   8   8   8
#     4  10  20  34  54  80 108 133 156 189 240 302
#     4   9  17  30  50  74  99 132 176 222 263 304
#     4   9  16  28  48  71  95 126 165 209 259 310
#     4   9  19  34  48  64  90 127 170 210 247 289
#     4   9  17  28  43  66  94 121 155 205 260 308
#     4  10  19  31  50  74 100 131 166 206 249 294
#     4  10  21  35  52  77 108 142 180 221 264 309
#     4  10  21  37  58  83 109 137 170 210 257 310
#
# _framework density 19.160173
#
# number of rings (size 3 to 8) (size 9 to 14) (size 15 to 20)
#    0.000    2.500    0.000    2.250    0.000    6.000 
#    0.000    3.750    0.000    2.625    0.000    3.500 
#    0.000    0.000    0.000    0.000    0.000    0.000 
#
# Total GULP energy -793114.905276 kJ/mol
# GULP energy per Si atom -12392.420395 kJ/mol
# Density = 1.911656 g / cm^3
# Si number density = 19.160173 Si / 1000 Ang^3
#
#
#
# Elastic Constant Matrix: (Units=GPa)
#
#
# Indices 1 2 3 4 5 6 
#
# 1 99.6424 32.0698 30.7947 0.0000 0.0000 0.0000
# 2 32.0698 52.2108 22.4772 0.0000 0.0000 0.0000
# 3 30.7947 22.4772 66.1802 0.0000 0.0000 0.0000
# 4 0.0000 0.0000 0.0000 22.2206 0.0000 0.0000
# 5 0.0000 0.0000 0.0000 0.0000 19.2269 0.0000
# 6 0.0000 0.0000 0.0000 0.0000 0.0000 22.9579
#
#
#
# Elastic Compliance Matrix: (Units=1/GPa)
#
#
# Indices 1 2 3 4 5 6 
#
# 1 0.013363 -0.006478 -0.004018 0.000000 0.000000 0.000000
# 2 -0.006478 0.025574 -0.005671 0.000000 0.000000 0.000000
# 3 -0.004018 -0.005671 0.018906 0.000000 0.000000 0.000000
# 4 0.000000 0.000000 0.000000 0.045003 0.000000 0.000000
# 5 0.000000 0.000000 0.000000 0.000000 0.052010 0.000000
# 6 0.000000 0.000000 0.000000 0.000000 0.000000 0.043558
#
#
# Mechanical properties :
#
#
# Convention : Reuss Voigt Hill
#
# Bulk Modulus (GPa) = 39.20339 43.19075 41.19707
# Shear Modulus (GPa) = 20.89857 21.72720 21.31288
#
# Velocity S-wave (km/s) = 3.30620 3.37111 3.33881
# Velocity P-wave (km/s) = 5.92283 6.14357 6.03421
#
# Compressibility (1/GPa) = 0.02550800
#
# Stress axis : x y z
#
# Youngs Moduli (GPa) = 74.83615 39.10245 52.89346
#
# Poissons Ratio (x) = 0.25331 0.21250
# Poissons Ratio (y) = 0.48480 0.29998
# Poissons Ratio (z) = 0.30066 0.22177
#
# Static dielectric constant tensor:
#      x y z
#    x 3.709360 0.000000 0.000000 
#    y 0.000000 3.409140 0.000000 
#    z 0.000000 0.000000 3.569150 
# 
# 
# High freq. dielectric constant tensor:
#      x y z
#    x 1.746170 0.000000 0.000000 
#    y 0.000000 1.726740 0.000000 
#    z 0.000000 0.000000 1.731060 
# 
# From -- ./inp_files/21936.got.cif
#   From: 2010.03.12/outbox.cif.g09.slc.cpg/sg47_11_cif.got.tgz:21936.got - 2010.04.14 03:12:58.
