data_PCOD8195324
_publ_section_title
;
Structure prediction by ZEFSAII (Michael W. Deem and Ramdas Pophale) SiO2 
 PCOD8195324
Probable space group: P M M M
;
_chemical_formula_sum "Si O2"
_cell_formula_units_Z 52
_cell_length_a 17.504081
_cell_length_b 9.487398
_cell_length_c 18.146474
_cell_angle_alpha 90.000000
_cell_angle_beta 90.000000
_cell_angle_gamma 90.000000
_cell_volume 3013.551966
_symmetry_space_group_name_H-M "P M M M"
_symmetry_group_IT_number 47
_symmetry_cell_setting 'orthorhombic'
loop_
_space_group_symop_operation_xyz
x,y,z
-x,-y,z
x,-y,-z
-x,y,-z
-x,-y,-z
x,y,-z
-x,y,z
x,-y,z
loop_
_atom_site_type_symbol
_atom_site_label
_atom_site_fract_x
_atom_site_fract_y
_atom_site_fract_z
Si Si1 0.089287 0.345368 0.416706
Si Si2 0.358029 0.837328 0.584012
Si Si3 0.000000 0.161973 0.912472
Si Si4 0.415410 0.662560 0.281671
Si Si5 0.147073 0.336581 0.915391
Si Si6 0.797657 0.839066 0.338343
Si Si7 0.737261 0.662758 0.208142
O O1 0.118044 0.333911 0.500000
O O2 0.112899 0.500000 0.385546
O O3 0.124485 0.218818 0.371100
O O4 0.000000 0.325148 0.411847
O O5 0.373394 0.786090 0.500000
O O6 0.406571 0.748537 0.642478
O O7 0.268891 0.816855 0.601830
O O8 0.382062 0.000000 0.592652
O O9 0.076571 0.242399 0.884480
O O10 0.000000 0.000000 0.883835
O O11 0.000000 0.167186 0.000000
O O12 0.500000 0.693346 0.249201
O O13 0.406151 0.500000 0.303785
O O14 0.353068 0.702781 0.218146
O O15 0.123219 0.500000 0.906391
O O16 0.226638 0.304408 0.872114
O O17 0.164673 0.299136 0.000000
O O18 0.784201 0.755362 0.264213
O O19 0.808663 0.000000 0.316625
O O20 0.749146 0.500000 0.228175
#
# Coordination Sequence:
#
# PCOD8195324 Si02
#       7
#     8   8   4   8   8   8   8
#     4   9  18  32  48  65  87 119 159 199 238 282
#     4   9  18  31  46  66  92 121 153 192 239 287
#     4   9  17  29  47  73 103 129 152 185 232 279
#     4   9  18  32  49  69  94 124 158 196 237 283
#     4   9  17  31  52  75  98 127 164 199 231 278
#     4  10  19  31  47  67  92 120 155 198 241 284
#     4   9  18  33  51  70  94 126 160 193 236 287
#
# _framework density 17.255386000000001
#
# number of rings (size 3 to 8) (size 9 to 14) (size 15 to 20)
#    0.000    2.846    0.000    1.615    0.000    4.308 
#    1.385    2.308    0.000    0.462    0.000    3.231 
#    0.000    0.000    0.000   11.538    0.000   12.000 
#
# Total GULP energy -644460.163755 kJ/mol
# GULP energy per Si atom -12393.464688 kJ/mol
# Density = 1.721611 g / cm^3
# Si number density = 17.255386 Si / 1000 Ang^3
#
#
#
# Elastic Constant Matrix: (Units=GPa)
#
#
# Indices 1 2 3 4 5 6 
#
# 1 94.0881 50.9421 63.9399 0.0000 0.0000 0.0000
# 2 50.9421 65.6796 38.1634 0.0000 0.0000 0.0000
# 3 63.9399 38.1634 76.2422 0.0000 0.0000 0.0000
# 4 0.0000 0.0000 0.0000 17.0344 0.0000 0.0000
# 5 0.0000 0.0000 0.0000 0.0000 20.7147 0.0000
# 6 0.0000 0.0000 0.0000 0.0000 0.0000 21.0398
#
#
#
# Elastic Compliance Matrix: (Units=1/GPa)
#
#
# Indices 1 2 3 4 5 6 
#
# 1 0.030519 -0.012408 -0.019384 0.000000 0.000000 0.000000
# 2 -0.012408 0.026515 -0.002866 0.000000 0.000000 0.000000
# 3 -0.019384 -0.002866 0.030807 0.000000 0.000000 0.000000
# 4 0.000000 0.000000 0.000000 0.058705 0.000000 0.000000
# 5 0.000000 0.000000 0.000000 0.000000 0.048275 0.000000
# 6 0.000000 0.000000 0.000000 0.000000 0.000000 0.047529
#
#
# Mechanical properties :
#
#
# Convention : Reuss Voigt Hill
#
# Bulk Modulus (GPa) = 53.98186 60.23341 57.10763
# Shear Modulus (GPa) = 15.73122 17.28876 16.50999
#
# Velocity S-wave (km/s) = 3.02266 3.16877 3.09658
# Velocity P-wave (km/s) = 6.59803 6.95492 6.77882
#
# Compressibility (1/GPa) = 0.01852474
#
# Stress axis : x y z
#
# Youngs Moduli (GPa) = 32.76648 37.71493 32.46057
#
# Poissons Ratio (x) = 0.46797 0.62920
# Poissons Ratio (y) = 0.40657 0.09304
# Poissons Ratio (z) = 0.63513 0.10810
#
# Static dielectric constant tensor:
#      x y z
#    x 3.293320 0.000000 0.000000 
#    y 0.000000 3.331330 0.000000 
#    z 0.000000 0.000000 3.083000 
# 
# 
# High freq. dielectric constant tensor:
#      x y z
#    x 1.663760 0.000000 0.000000 
#    y 0.000000 1.669610 0.000000 
#    z 0.000000 0.000000 1.637930 
# 
# From -- ./inp_files/9552.got.cif
#   From: 2010.03.12/outbox.cif.g09.slc.cpg/sg47_5_cif.got.tgz:9552.got - 2010.04.14 03:12:58.
