data_PCOD8195313
_publ_section_title
;
Structure prediction by ZEFSAII (Michael W. Deem and Ramdas Pophale) SiO2 
 PCOD8195313
Probable space group: P M M M
;
_chemical_formula_sum "Si O2"
_cell_formula_units_Z 64
_cell_length_a 19.070793
_cell_length_b 23.313524
_cell_length_c 9.166042
_cell_angle_alpha 90.000000
_cell_angle_beta 90.000000
_cell_angle_gamma 90.000000
_cell_volume 4075.290013
_symmetry_space_group_name_H-M "P M M M"
_symmetry_group_IT_number 47
_symmetry_cell_setting 'orthorhombic'
loop_
_space_group_symop_operation_xyz
x,y,z
-x,-y,z
x,-y,-z
-x,y,-z
-x,-y,-z
x,y,-z
-x,y,z
x,-y,z
loop_
_atom_site_type_symbol
_atom_site_label
_atom_site_fract_x
_atom_site_fract_y
_atom_site_fract_z
Si Si1 0.923009 0.564699 0.673298
Si Si2 0.848983 0.936258 0.165569
Si Si3 0.791594 0.820535 0.833678
Si Si4 0.216766 0.620447 0.671594
Si Si5 0.661303 0.563782 0.167696
Si Si6 0.702886 0.733524 0.328022
Si Si7 0.920809 0.153591 0.669985
Si Si8 0.580066 0.325062 0.829733
O O1 0.923508 0.564999 0.500000
O O2 0.907811 0.500000 0.728814
O O3 0.862019 0.607602 0.730262
O O4 0.000000 0.585025 0.730393
O O5 0.783982 0.890497 0.174045
O O6 0.910699 0.911902 0.270551
O O7 0.825334 0.000000 0.215821
O O8 0.877769 0.937817 0.000000
O O9 0.728026 0.792480 0.745270
O O10 0.866746 0.804749 0.757219
O O11 0.791467 0.798238 0.000000
O O12 0.221162 0.611751 0.500000
O O13 0.268955 0.574245 0.740035
O O14 0.240452 0.684602 0.715011
O O15 0.632365 0.500000 0.201607
O O16 0.600824 0.609343 0.207888
O O17 0.683019 0.570333 0.000000
O O18 0.696186 0.741936 0.500000
O O19 0.626894 0.718346 0.264141
O O20 0.902186 0.155737 0.500000
O O21 0.000000 0.174264 0.698907
O O22 0.500000 0.315817 0.782870
O O23 0.591490 0.311830 0.000000
#
# Coordination Sequence:
#
# PCOD8195313 Si02
#       8
#     8   8   8   8   8   8   8   8
#     4   8  13  22  38  59  79  99 130 176 223 261
#     4   8  16  29  44  64  90 122 159 195 231 273
#     4   9  18  31  47  63  85 119 155 190 227 269
#     4   9  17  28  43  62  83 110 144 180 219 266
#     4   9  17  28  43  65  91 117 144 176 216 261
#     4  10  19  31  47  66  89 115 145 182 223 266
#     4   9  17  28  42  63  91 121 155 195 236 273
#     4   9  18  32  49  68  90 117 148 179 214 263
#
# _framework density 15.704404
#
# number of rings (size 3 to 8) (size 9 to 14) (size 15 to 20)
#    0.750    2.375    0.000    1.500    0.000    3.250 
#    0.000    3.125    0.000    2.625    0.000    5.250 
#    0.000    0.500    0.000    5.750    0.000    1.625 
#
# Total GULP energy -792890.265137 kJ/mol
# GULP energy per Si atom -12388.910393 kJ/mol
# Density = 1.566866 g / cm^3
# Si number density = 15.704404 Si / 1000 Ang^3
#
#
#
# Elastic Constant Matrix: (Units=GPa)
#
#
# Indices 1 2 3 4 5 6 
#
# 1 111.4884 42.0883 42.3088 0.0000 0.0000 0.0000
# 2 42.0883 47.9444 29.2813 0.0000 0.0000 0.0000
# 3 42.3088 29.2813 60.3363 0.0000 0.0000 0.0000
# 4 0.0000 0.0000 0.0000 18.1822 0.0000 0.0000
# 5 0.0000 0.0000 0.0000 0.0000 23.5940 0.0000
# 6 0.0000 0.0000 0.0000 0.0000 0.0000 17.7480
#
#
#
# Elastic Compliance Matrix: (Units=1/GPa)
#
#
# Indices 1 2 3 4 5 6 
#
# 1 0.014696 -0.009390 -0.005748 0.000000 0.000000 0.000000
# 2 -0.009390 0.035644 -0.010713 0.000000 0.000000 0.000000
# 3 -0.005748 -0.010713 0.025803 0.000000 0.000000 0.000000
# 4 0.000000 0.000000 0.000000 0.054999 0.000000 0.000000
# 5 0.000000 0.000000 0.000000 0.000000 0.042384 0.000000
# 6 0.000000 0.000000 0.000000 0.000000 0.000000 0.056344
#
#
# Mechanical properties :
#
#
# Convention : Reuss Voigt Hill
#
# Bulk Modulus (GPa) = 40.91636 49.68064 45.29850
# Shear Modulus (GPa) = 17.25809 18.97757 18.11783
#
# Velocity S-wave (km/s) = 3.31861 3.48001 3.40027
# Velocity P-wave (km/s) = 6.38709 6.91743 6.65754
#
# Compressibility (1/GPa) = 0.02444010
#
# Stress axis : x y z
#
# Youngs Moduli (GPa) = 68.04689 28.05534 38.75470
#
# Poissons Ratio (x) = 0.26345 0.22275
# Poissons Ratio (y) = 0.63899 0.41519
# Poissons Ratio (z) = 0.39111 0.30056
#
# Static dielectric constant tensor:
#      x y z
#    x 2.941720 0.000000 0.000000 
#    y 0.000000 2.895530 0.000000 
#    z 0.000000 0.000000 2.923540 
# 
# 
# High freq. dielectric constant tensor:
#      x y z
#    x 1.580820 0.000000 0.000000 
#    y 0.000000 1.581010 0.000000 
#    z 0.000000 0.000000 1.599280 
# 
# From -- ./inp_files/11936.got.cif
#   From: 2010.03.12/outbox.cif.g09.slc.cpg/sg47_6_cif.got.tgz:11936.got - 2010.04.14 03:12:58.
