data_PCOD8195596
_publ_section_title
;
Structure prediction by ZEFSAII (Michael W. Deem and Ramdas Pophale) SiO2 
 PCOD8195596
Probable space group: P M M M
;
_chemical_formula_sum "Si O2"
_cell_formula_units_Z 52
_cell_length_a 19.343847
_cell_length_b 15.569126
_cell_length_c 9.166962
_cell_angle_alpha 90.000000
_cell_angle_beta 90.000000
_cell_angle_gamma 90.000000
_cell_volume 2760.784531
_symmetry_space_group_name_H-M "P M M M"
_symmetry_group_IT_number 47
_symmetry_cell_setting 'orthorhombic'
loop_
_space_group_symop_operation_xyz
x,y,z
-x,-y,z
x,-y,-z
-x,y,-z
-x,-y,-z
x,y,-z
-x,y,z
x,-y,z
loop_
_atom_site_type_symbol
_atom_site_label
_atom_site_fract_x
_atom_site_fract_y
_atom_site_fract_z
Si Si1 0.577762 0.000000 0.171759
Si Si2 0.831655 0.095119 0.668012
Si Si3 0.162036 0.404102 0.826805
Si Si4 0.920062 0.239131 0.171320
Si Si5 0.424137 0.398952 0.339720
Si Si6 0.302734 0.676008 0.171473
Si Si7 0.306022 0.870235 0.173119
O O1 0.621963 0.083954 0.219213
O O2 0.500000 0.000000 0.242570
O O3 0.568468 0.000000 0.000000
O O4 0.822236 0.122554 0.500000
O O5 0.879603 0.164695 0.746069
O O6 0.757665 0.086468 0.745090
O O7 0.866006 0.000000 0.678773
O O8 0.144992 0.500000 0.764805
O O9 0.104885 0.334130 0.778290
O O10 0.235717 0.372180 0.762925
O O11 0.165208 0.409235 0.000000
O O12 0.000000 0.231188 0.211521
O O13 0.905915 0.226921 0.000000
O O14 0.400500 0.365803 0.500000
O O15 0.500000 0.361091 0.302115
O O16 0.428679 0.500000 0.341734
O O17 0.371655 0.371997 0.215832
O O18 0.307893 0.772750 0.228697
O O19 0.296900 0.675408 0.000000
O O20 0.294016 0.878698 0.000000
#
# Coordination Sequence:
#
# PCOD8195596 Si02
#       7
#     4   8   8   8   8   8   8
#     4   9  18  32  53  83 114 145 182 227 279 330
#     4  11  23  38  59  85 114 148 185 228 281 338
#     4   9  17  31  53  83 117 147 180 228 281 330
#     4  10  21  38  60  86 116 150 189 230 275 333
#     4   9  19  35  51  69 100 142 183 223 270 325
#     4  10  19  31  52  81 108 137 179 232 281 324
#     4  10  19  34  58  82 108 145 185 227 270 327
#
# _framework density 18.835225999999999
#
# number of rings (size 3 to 8) (size 9 to 14) (size 15 to 20)
#    0.000    2.231    2.308    1.385    0.000    4.308 
#    0.000    5.385    0.000    1.385    0.000    1.077 
#    0.000    0.000    0.000    0.000    0.000    0.000 
#
# Total GULP energy -644530.278802 kJ/mol
# GULP energy per Si atom -12394.813054 kJ/mol
# Density = 1.879236 g / cm^3
# Si number density = 18.835226 Si / 1000 Ang^3
#
#
#
# Elastic Constant Matrix: (Units=GPa)
#
#
# Indices 1 2 3 4 5 6 
#
# 1 138.7127 69.9203 35.3091 0.0000 0.0000 0.0000
# 2 69.9203 132.2255 33.7270 0.0000 0.0000 0.0000
# 3 35.3091 33.7270 29.7676 0.0000 0.0000 0.0000
# 4 0.0000 0.0000 0.0000 16.1881 0.0000 0.0000
# 5 0.0000 0.0000 0.0000 0.0000 2.2623 0.0000
# 6 0.0000 0.0000 0.0000 0.0000 0.0000 28.6407
#
#
#
# Elastic Compliance Matrix: (Units=1/GPa)
#
#
# Indices 1 2 3 4 5 6 
#
# 1 0.011453 -0.003644 -0.009456 0.000000 0.000000 0.000000
# 2 -0.003644 0.011797 -0.009043 0.000000 0.000000 0.000000
# 3 -0.009456 -0.009043 0.055056 0.000000 0.000000 0.000000
# 4 0.000000 0.000000 0.000000 0.061774 0.000000 0.000000
# 5 0.000000 0.000000 0.000000 0.000000 0.442032 0.000000
# 6 0.000000 0.000000 0.000000 0.000000 0.000000 0.034915
#
#
# Mechanical properties :
#
#
# Convention : Reuss Voigt Hill
#
# Bulk Modulus (GPa) = 29.39562 64.29095 46.84328
# Shear Modulus (GPa) = 7.43326 20.20152 13.81739
#
# Velocity S-wave (km/s) = 1.98873 3.27852 2.71143
# Velocity P-wave (km/s) = 4.57318 6.96700 5.89292
#
# Compressibility (1/GPa) = 0.03401868
#
# Stress axis : x y z
#
# Youngs Moduli (GPa) = 87.31166 84.77072 18.16348
#
# Poissons Ratio (x) = 0.30894 0.17176
# Poissons Ratio (y) = 0.31820 0.16425
# Poissons Ratio (z) = 0.82564 0.76656
#
# Static dielectric constant tensor:
#      x y z
#    x 3.610910 0.000000 0.000000 
#    y 0.000000 3.750810 0.000000 
#    z 0.000000 0.000000 3.196320 
# 
# 
# High freq. dielectric constant tensor:
#      x y z
#    x 1.732460 0.000000 0.000000 
#    y 0.000000 1.743370 0.000000 
#    z 0.000000 0.000000 1.696360 
# 
# From -- ./inp_files/11022.got.cif
#   From: 2010.03.12/outbox.cif.g09.slc.cpg/sg47_6_cif.got.tgz:11022.got - 2010.04.14 03:12:58.
