data_PCOD8195995
_publ_section_title
;
Structure prediction by ZEFSAII (Michael W. Deem and Ramdas Pophale) SiO2 
 PCOD8195995
Probable space group: P M M M
;
_chemical_formula_sum "Si O2"
_cell_formula_units_Z 44
_cell_length_a 7.895181
_cell_length_b 9.443125
_cell_length_c 31.494119
_cell_angle_alpha 90.000000
_cell_angle_beta 90.000000
_cell_angle_gamma 90.000000
_cell_volume 2348.049745
_symmetry_space_group_name_H-M "P M M M"
_symmetry_group_IT_number 47
_symmetry_cell_setting 'orthorhombic'
loop_
_space_group_symop_operation_xyz
x,y,z
-x,-y,z
x,-y,-z
-x,y,-z
-x,-y,-z
x,y,-z
-x,y,z
x,-y,z
loop_
_atom_site_type_symbol
_atom_site_label
_atom_site_fract_x
_atom_site_fract_y
_atom_site_fract_z
Si Si1 0.500000 0.830521 0.223968
Si Si2 0.500000 0.831713 0.680585
Si Si3 0.186539 0.168031 0.169889
Si Si4 0.696206 0.336248 0.452028
Si Si5 0.811320 0.836387 0.375380
Si Si6 0.304245 0.158922 0.920124
Si Si7 0.800755 0.336965 0.000000
O O1 0.500000 0.770287 0.271795
O O2 0.668055 0.769841 0.200647
O O3 0.500000 0.000000 0.223736
O O4 0.330482 0.775980 0.656930
O O5 0.500000 0.000000 0.682478
O O6 0.209131 0.219639 0.121345
O O7 0.000000 0.216702 0.185908
O O8 0.202442 0.000000 0.170085
O O9 0.753311 0.300826 0.500000
O O10 0.500000 0.298303 0.445861
O O11 0.729308 0.500000 0.442006
O O12 0.806174 0.243765 0.420070
O O13 0.000000 0.816042 0.355731
O O14 0.773647 0.000000 0.384704
O O15 0.500000 0.153454 0.908152
O O16 0.240605 0.000000 0.932036
O O17 0.274683 0.263714 0.958726
O O18 0.744132 0.500000 0.000000
O O19 0.000000 0.319294 0.000000
#
# Coordination Sequence:
#
# PCOD8195995 Si02
#       7
#     4   4   8   8   8   8   4
#     4   9  16  28  46  71 101 131 165 205 253 308
#     4   9  18  32  48  68 102 139 168 209 257 298
#     4   9  16  27  46  73 103 132 164 207 254 298
#     4   9  18  33  53  76 101 132 172 215 258 303
#     4  10  20  33  50  74 104 139 176 208 248 305
#     4  10  19  33  53  76 102 132 170 212 252 299
#     4  11  24  37  48  70 104 139 176 212 247 297
#
# _framework density 18.738956000000002
#
# number of rings (size 3 to 8) (size 9 to 14) (size 15 to 20)
#    0.000    2.455    1.818    1.636    0.000    4.727 
#    0.000    6.364    0.000    0.000    0.000    2.545 
#    0.000    0.000    0.000    0.000    0.000    0.000 
#
# Total GULP energy -545504.021250 kJ/mol
# GULP energy per Si atom -12397.818665 kJ/mol
# Density = 1.869631 g / cm^3
# Si number density = 18.738956 Si / 1000 Ang^3
#
#
#
# Elastic Constant Matrix: (Units=GPa)
#
#
# Indices 1 2 3 4 5 6 
#
# 1 134.0696 25.0753 70.7134 0.0000 0.0000 0.0000
# 2 25.0753 40.3264 32.8402 0.0000 0.0000 0.0000
# 3 70.7134 32.8402 136.7647 0.0000 0.0000 0.0000
# 4 0.0000 0.0000 0.0000 -1.2332 0.0000 0.0000
# 5 0.0000 0.0000 0.0000 0.0000 19.0403 0.0000
# 6 0.0000 0.0000 0.0000 0.0000 0.0000 16.7079
#
#
#
# Elastic Compliance Matrix: (Units=1/GPa)
#
#
# Indices 1 2 3 4 5 6 
#
# 1 0.010473 -0.002613 -0.004787 0.000000 0.000000 0.000000
# 2 -0.002613 0.031478 -0.006207 0.000000 0.000000 0.000000
# 3 -0.004787 -0.006207 0.011278 0.000000 0.000000 0.000000
# 4 0.000000 0.000000 0.000000 -0.810908 0.000000 0.000000
# 5 0.000000 0.000000 0.000000 0.000000 0.052520 0.000000
# 6 0.000000 0.000000 0.000000 0.000000 0.000000 0.059852
#
#
# Mechanical properties :
#
#
# Convention : Reuss Voigt Hill
#
# Bulk Modulus (GPa) = 38.44381 63.15760 50.80070
# Shear Modulus (GPa) = -8.20450 19.07180 5.43365
#
# Velocity S-wave (km/s) = -2.09471 3.19370 1.70468
# Velocity P-wave (km/s) = 3.83530 6.88307 5.57164
#
# Compressibility (1/GPa) = 0.02601199
#
# Stress axis : x y z
#
# Youngs Moduli (GPa) = 95.48747 31.76861 88.67178
#
# Poissons Ratio (x) = 0.08302 0.42449
# Poissons Ratio (y) = 0.24955 0.55041
# Poissons Ratio (z) = 0.45712 0.19720
#
# Static dielectric constant tensor:
#      x y z
#    x 3.635060 0.000000 0.000000 
#    y 0.000000 2.985620 0.000000 
#    z 0.000000 0.000000 3.472090 
# 
# 
# High freq. dielectric constant tensor:
#      x y z
#    x 1.742660 0.000000 0.000000 
#    y 0.000000 1.672870 0.000000 
#    z 0.000000 0.000000 1.725370 
# 
# From -- ./inp_files/33966.got.cif
#   From: 2010.03.12/outbox.cif.g09.slc.cpg/sg47_17_cif.got.tgz:33966.got - 2010.04.14 03:12:58.
