data_PCOD8195350
_publ_section_title
;
Structure prediction by ZEFSAII (Michael W. Deem and Ramdas Pophale) SiO2 
 PCOD8195350
Probable space group: P M M M
;
_chemical_formula_sum "Si O2"
_cell_formula_units_Z 64
_cell_length_a 8.716450
_cell_length_b 19.413341
_cell_length_c 23.899867
_cell_angle_alpha 90.000000
_cell_angle_beta 90.000000
_cell_angle_gamma 90.000000
_cell_volume 4044.225941
_symmetry_space_group_name_H-M "P M M M"
_symmetry_group_IT_number 47
_symmetry_cell_setting 'orthorhombic'
loop_
_space_group_symop_operation_xyz
x,y,z
-x,-y,z
x,-y,-z
-x,y,-z
-x,-y,-z
x,y,-z
-x,y,z
x,-y,z
loop_
_atom_site_type_symbol
_atom_site_label
_atom_site_fract_x
_atom_site_fract_y
_atom_site_fract_z
Si Si1 0.680901 0.715062 0.436051
Si Si2 0.180906 0.796293 0.661950
Si Si3 0.318563 0.921717 0.718815
Si Si4 0.682066 0.279968 0.766108
Si Si5 0.682013 0.425031 0.384236
Si Si6 0.682034 0.426066 0.742335
Si Si7 0.318582 0.151816 0.169113
Si Si8 0.317311 0.922206 0.061497
O O1 0.722270 0.730861 0.500000
O O2 0.500000 0.719311 0.424864
O O3 0.764359 0.772599 0.399087
O O4 0.744427 0.638352 0.421200
O O5 0.238961 0.874116 0.672333
O O6 0.248792 0.744494 0.707683
O O7 0.000000 0.794768 0.665467
O O8 0.500000 0.913458 0.712887
O O9 0.265048 0.898230 0.780788
O O10 0.265402 0.000000 0.709173
O O11 0.500000 0.275240 0.758902
O O12 0.736108 0.359034 0.778124
O O13 0.736068 0.230065 0.816809
O O14 0.500000 0.423685 0.384989
O O15 0.738433 0.500000 0.407496
O O16 0.742018 0.416281 0.320819
O O17 0.500000 0.428601 0.742136
O O18 0.743931 0.500000 0.766500
O O19 0.500000 0.148852 0.163741
O O20 0.246459 0.126697 0.110084
O O21 0.500000 0.920813 0.063506
O O22 0.259901 0.000000 0.072207
O O23 0.261185 0.896850 0.000000
#
# Coordination Sequence:
#
# PCOD8195350 Si02
#       8
#     8   8   8   8   8   8   8   8
#     4  10  19  31  48  65  81 105 138 171 199 236
#     4  11  21  31  44  62  87 112 132 160 201 249
#     4   9  17  30  49  68  84 104 132 169 207 243
#     4   9  15  26  43  59  79 105 137 174 207 242
#     4   8  13  22  39  63  85 102 127 167 206 235
#     4   8  12  19  36  59  79 100 128 167 210 244
#     4   8  13  20  34  57  81 106 136 169 202 236
#     4   8  12  17  26  44  76 114 142 164 196 239
#
# _framework density 15.825030999999999
#
# number of rings (size 3 to 8) (size 9 to 14) (size 15 to 20)
#    0.000    3.125    1.250    3.375    0.000    2.250 
#    0.000    1.250    0.000    1.875    0.000    3.500 
#    0.000    8.500    0.000   34.500    0.000   25.000 
#
# Total GULP energy -792862.216862 kJ/mol
# GULP energy per Si atom -12388.472138 kJ/mol
# Density = 1.578901 g / cm^3
# Si number density = 15.825031 Si / 1000 Ang^3
#
#
#
# Elastic Constant Matrix: (Units=GPa)
#
#
# Indices 1 2 3 4 5 6 
#
# 1 20.5436 20.0755 14.6558 0.0000 0.0000 0.0000
# 2 20.0755 156.7168 72.9417 0.0000 0.0000 0.0000
# 3 14.6558 72.9417 98.9530 0.0000 0.0000 0.0000
# 4 0.0000 0.0000 0.0000 26.5037 0.0000 0.0000
# 5 0.0000 0.0000 0.0000 0.0000 2.2628 0.0000
# 6 0.0000 0.0000 0.0000 0.0000 0.0000 3.5535
#
#
#
# Elastic Compliance Matrix: (Units=1/GPa)
#
#
# Indices 1 2 3 4 5 6 
#
# 1 0.057020 -0.005136 -0.004660 0.000000 0.000000 0.000000
# 2 -0.005136 0.010176 -0.006741 0.000000 0.000000 0.000000
# 3 -0.004660 -0.006741 0.015765 0.000000 0.000000 0.000000
# 4 0.000000 0.000000 0.000000 0.037731 0.000000 0.000000
# 5 0.000000 0.000000 0.000000 0.000000 0.441925 0.000000
# 6 0.000000 0.000000 0.000000 0.000000 0.000000 0.281416
#
#
# Mechanical properties :
#
#
# Convention : Reuss Voigt Hill
#
# Bulk Modulus (GPa) = 20.04447 54.61771 37.33109
# Shear Modulus (GPa) = 5.59452 17.70002 11.64727
#
# Velocity S-wave (km/s) = 1.88226 3.34800 2.71588
# Velocity P-wave (km/s) = 4.17345 7.03803 5.78583
#
# Compressibility (1/GPa) = 0.04988906
#
# Stress axis : x y z
#
# Youngs Moduli (GPa) = 17.53785 98.26963 63.43321
#
# Poissons Ratio (x) = 0.50466 0.29557
# Poissons Ratio (y) = 0.09007 0.42757
# Poissons Ratio (z) = 0.08172 0.66239
#
# Static dielectric constant tensor:
#      x y z
#    x 2.524310 0.000000 0.000000 
#    y 0.000000 3.496970 0.000000 
#    z 0.000000 0.000000 3.008630 
# 
# 
# High freq. dielectric constant tensor:
#      x y z
#    x 1.559170 0.000000 0.000000 
#    y 0.000000 1.616160 0.000000 
#    z 0.000000 0.000000 1.574540 
# 
# From -- ./inp_files/32260.got.cif
#   From: 2010.03.12/outbox.cif.g09.slc.cpg/sg47_17_cif.got.tgz:32260.got - 2010.04.14 03:12:58.
