data_PCOD8195215
_publ_section_title
;
Structure prediction by ZEFSAII (Michael W. Deem and Ramdas Pophale) SiO2 
 PCOD8195215
Probable space group: P M M M
;
_chemical_formula_sum "Si O2"
_cell_formula_units_Z 48
_cell_length_a 7.737303
_cell_length_b 34.291621
_cell_length_c 9.307424
_cell_angle_alpha 90.000000
_cell_angle_beta 90.000000
_cell_angle_gamma 90.000000
_cell_volume 2469.489127
_symmetry_space_group_name_H-M "P M M M"
_symmetry_group_IT_number 47
_symmetry_cell_setting 'orthorhombic'
loop_
_space_group_symop_operation_xyz
x,y,z
-x,-y,z
x,-y,-z
-x,y,-z
-x,-y,-z
x,y,-z
-x,y,z
x,-y,z
loop_
_atom_site_type_symbol
_atom_site_label
_atom_site_fract_x
_atom_site_fract_y
_atom_site_fract_z
Si Si1 0.000000 0.403009 0.828617
Si Si2 0.301892 0.736151 0.665776
Si Si3 0.205603 0.956926 0.160867
Si Si4 0.692000 0.543578 0.170661
Si Si5 0.801121 0.886459 0.342328
Si Si6 0.296866 0.187277 0.836910
Si Si7 0.000000 0.322854 0.334000
O O1 0.168380 0.425871 0.769620
O O2 0.000000 0.360193 0.765714
O O3 0.000000 0.400211 0.000000
O O4 0.281960 0.748683 0.500000
O O5 0.500000 0.723500 0.699444
O O6 0.243144 0.772432 0.762192
O O7 0.173698 0.700945 0.703310
O O8 0.287156 0.923503 0.262829
O O9 0.000000 0.953846 0.157963
O O10 0.261897 0.000000 0.215958
O O11 0.277143 0.950131 0.000000
O O12 0.500000 0.556217 0.222369
O O13 0.734756 0.500000 0.227683
O O14 0.699852 0.543006 0.000000
O O15 0.714529 0.880589 0.500000
O O16 0.788256 0.847880 0.248040
O O17 0.000000 0.896398 0.363788
O O18 0.500000 0.181531 0.831834
O O19 0.227298 0.187641 0.000000
O O20 0.000000 0.335433 0.500000
#
# Coordination Sequence:
#
# PCOD8195215 Si02
#       7
#     4   8   8   8   8   8   4
#     4  10  19  30  48  76 104 132 172 219 263 306
#     4   9  19  37  57  74  97 132 172 213 256 308
#     4   8  14  26  44  66  95 130 165 202 245 291
#     4   8  14  26  46  73 104 137 174 218 266 311
#     4  10  20  31  47  74 103 131 164 200 241 294
#     4  10  21  36  54  76 100 126 158 202 257 308
#     4  10  22  37  53  75 104 140 177 211 258 320
#
# _framework density 19.437218999999999
#
# number of rings (size 3 to 8) (size 9 to 14) (size 15 to 20)
#    0.000    2.833    0.000    2.250    1.167    4.667 
#    0.000    1.667    0.000    1.500    0.000    4.667 
#    0.000    0.000    0.000    0.000    0.000    0.000 
#
# Total GULP energy -595006.143342 kJ/mol
# GULP energy per Si atom -12395.961320 kJ/mol
# Density = 1.939298 g / cm^3
# Si number density = 19.437219 Si / 1000 Ang^3
#
#
#
# Elastic Constant Matrix: (Units=GPa)
#
#
# Indices 1 2 3 4 5 6 
#
# 1 78.8737 62.8839 32.9580 0.0000 0.0000 0.0000
# 2 62.8839 157.4014 73.4865 0.0000 0.0000 0.0000
# 3 32.9580 73.4865 101.3127 0.0000 0.0000 0.0000
# 4 0.0000 0.0000 0.0000 8.4698 0.0000 0.0000
# 5 0.0000 0.0000 0.0000 0.0000 13.0531 0.0000
# 6 0.0000 0.0000 0.0000 0.0000 0.0000-5315.2595
#
#
#
# Elastic Compliance Matrix: (Units=1/GPa)
#
#
# Indices 1 2 3 4 5 6 
#
# 1 0.018672 -0.006991 -0.001003 0.000000 0.000000 0.000000
# 2 -0.006991 0.012224 -0.006592 0.000000 0.000000 0.000000
# 3 -0.001003 -0.006592 0.014978 0.000000 0.000000 0.000000
# 4 0.000000 0.000000 0.000000 0.118067 0.000000 0.000000
# 5 0.000000 0.000000 0.000000 0.000000 0.076610 0.000000
# 6 0.000000 0.000000 0.000000 0.000000 0.000000 -0.000188
#
#
# Mechanical properties :
#
#
# Convention : Reuss Voigt Hill
#
# Bulk Modulus (GPa) = 59.87696 75.13828 67.50762
# Shear Modulus (GPa) = 18.17500 -1047.53004 -514.67752
#
# Velocity S-wave (km/s) = 3.06120 -23.24005 -16.29001
# Velocity P-wave (km/s) = 6.58534 26.10350 17.86093
#
# Compressibility (1/GPa) = 0.01670092
#
# Stress axis : x y z
#
# Youngs Moduli (GPa) = 53.55742 81.80584 66.76275
#
# Poissons Ratio (x) = 0.57193 0.06696
# Poissons Ratio (y) = 0.37443 0.44012
# Poissons Ratio (z) = 0.05372 0.53929
#
# Static dielectric constant tensor:
#      x y z
#    x 3.573660 0.000000 0.000000 
#    y 0.000000 3.523670 0.000000 
#    z 0.000000 0.000000 3.592880 
# 
# 
# High freq. dielectric constant tensor:
#      x y z
#    x 1.748650 0.000000 0.000000 
#    y 0.000000 1.754330 0.000000 
#    z 0.000000 0.000000 1.736890 
# 
# From -- ./inp_files/2652.got.cif
#   From: 2010.03.12/outbox.cif.g09.slc.cpg/sg47_2_cif.got.tgz:2652.got - 2010.04.14 03:12:58.
