data_PCOD8195163
_publ_section_title
;
Structure prediction by ZEFSAII (Michael W. Deem and Ramdas Pophale) SiO2 
 PCOD8195163
Probable space group: P M M M
;
_chemical_formula_sum "Si O2"
_cell_formula_units_Z 52
_cell_length_a 14.134610
_cell_length_b 22.665864
_cell_length_c 9.073867
_cell_angle_alpha 90.000000
_cell_angle_beta 90.000000
_cell_angle_gamma 90.000000
_cell_volume 2907.023335
_symmetry_space_group_name_H-M "P M M M"
_symmetry_group_IT_number 47
_symmetry_cell_setting 'orthorhombic'
loop_
_space_group_symop_operation_xyz
x,y,z
-x,-y,z
x,-y,-z
-x,y,-z
-x,-y,-z
x,y,-z
-x,y,z
x,-y,z
loop_
_atom_site_type_symbol
_atom_site_label
_atom_site_fract_x
_atom_site_fract_y
_atom_site_fract_z
Si Si1 0.889005 0.820543 0.668811
Si Si2 0.211366 0.936055 0.671845
Si Si3 0.388053 0.569079 0.500000
Si Si4 0.722498 0.340998 0.336866
Si Si5 0.605137 0.873615 0.330018
Si Si6 0.388354 0.757284 0.832660
Si Si7 0.891437 0.700420 0.174347
O O1 0.854770 0.811233 0.500000
O O2 0.844874 0.880339 0.739519
O O3 0.857435 0.764290 0.765599
O O4 0.000000 0.828557 0.677233
O O5 0.186892 0.938062 0.500000
O O6 0.323869 0.927770 0.697587
O O7 0.183203 0.000000 0.742017
O O8 0.369606 0.500000 0.500000
O O9 0.500000 0.583930 0.500000
O O10 0.335972 0.597325 0.355408
O O11 0.745054 0.315408 0.500000
O O12 0.655411 0.297662 0.249333
O O13 0.822302 0.348330 0.248957
O O14 0.603816 0.854690 0.500000
O O15 0.500000 0.892386 0.276996
O O16 0.645373 0.817963 0.240880
O O17 0.500000 0.751448 0.819690
O O18 0.352825 0.756828 0.000000
O O19 0.000000 0.687107 0.220208
O O20 0.879384 0.699046 0.000000
#
# Coordination Sequence:
#
# PCOD8195163 Si02
#       7
#     8   8   4   8   8   8   8
#     4   9  17  29  47  70  97 129 165 209 264 319
#     4   9  17  28  42  61  85 116 161 214 262 309
#     4   9  20  38  59  85 115 147 181 216 252 290
#     4  10  20  31  55  81 107 141 178 216 253 301
#     4   9  17  28  43  63  89 121 159 206 263 321
#     4  10  19  30  47  74 106 134 165 212 269 325
#     4  10  20  34  53  80 113 143 173 215 269 322
#
# _framework density 17.887713000000002
#
# number of rings (size 3 to 8) (size 9 to 14) (size 15 to 20)
#    0.462    2.077    0.000    2.769    0.000    3.385 
#    0.000    3.077    0.000    4.615    0.000   10.769 
#    0.000    0.000    0.000    0.000    0.000    0.000 
#
# Total GULP energy -644401.997211 kJ/mol
# GULP energy per Si atom -12392.346100 kJ/mol
# Density = 1.784700 g / cm^3
# Si number density = 17.887713 Si / 1000 Ang^3
#
#
#
# Elastic Constant Matrix: (Units=GPa)
#
#
# Indices 1 2 3 4 5 6 
#
# 1 67.6913 54.7745 23.6867 0.0000 0.0000 0.0000
# 2 54.7745 93.3202 34.7116 0.0000 0.0000 0.0000
# 3 23.6867 34.7116 72.8969 0.0000 0.0000 0.0000
# 4 0.0000 0.0000 0.0000 0.9950 0.0000 0.0000
# 5 0.0000 0.0000 0.0000 0.0000 25.8364 0.0000
# 6 0.0000 0.0000 0.0000 0.0000 0.0000 21.7914
#
#
#
# Elastic Compliance Matrix: (Units=1/GPa)
#
#
# Indices 1 2 3 4 5 6 
#
# 1 0.028282 -0.016019 -0.001562 0.000000 0.000000 0.000000
# 2 -0.016019 0.022096 -0.005316 0.000000 0.000000 0.000000
# 3 -0.001562 -0.005316 0.016757 0.000000 0.000000 0.000000
# 4 0.000000 0.000000 0.000000 1.005062 0.000000 0.000000
# 5 0.000000 0.000000 0.000000 0.000000 0.038705 0.000000
# 6 0.000000 0.000000 0.000000 0.000000 0.000000 0.045890
#
#
# Mechanical properties :
#
#
# Convention : Reuss Voigt Hill
#
# Bulk Modulus (GPa) = 46.86019 51.13933 48.99976
# Shear Modulus (GPa) = 4.13326 17.77358 10.95342
#
# Velocity S-wave (km/s) = 1.52174 3.15559 2.47724
# Velocity P-wave (km/s) = 5.41676 6.47520 5.96948
#
# Compressibility (1/GPa) = 0.02134008
#
# Stress axis : x y z
#
# Youngs Moduli (GPa) = 35.35828 45.25763 59.67672
#
# Poissons Ratio (x) = 0.72499 0.09321
# Poissons Ratio (y) = 0.56641 0.31725
# Poissons Ratio (z) = 0.05522 0.24060
#
# Static dielectric constant tensor:
#      x y z
#    x 3.583280 0.000000 0.000000 
#    y 0.000000 3.094810 0.000000 
#    z 0.000000 0.000000 3.214880 
# 
# 
# High freq. dielectric constant tensor:
#      x y z
#    x 1.710720 0.000000 0.000000 
#    y 0.000000 1.657970 0.000000 
#    z 0.000000 0.000000 1.668620 
# 
# From -- ./inp_files/7619.got.cif
#   From: 2010.03.12/outbox.cif.g09.slc.cpg/sg47_4_cif.got.tgz:7619.got - 2010.04.14 03:12:58.
