data_PCOD8195222
_publ_section_title
;
Structure prediction by ZEFSAII (Michael W. Deem and Ramdas Pophale) SiO2 
 PCOD8195222
Probable space group: P M M M
;
_chemical_formula_sum "Si O2"
_cell_formula_units_Z 64
_cell_length_a 9.337494
_cell_length_b 26.123182
_cell_length_c 14.367850
_cell_angle_alpha 90.000000
_cell_angle_beta 90.000000
_cell_angle_gamma 90.000000
_cell_volume 3504.678604
_symmetry_space_group_name_H-M "P M M M"
_symmetry_group_IT_number 47
_symmetry_cell_setting 'orthorhombic'
loop_
_space_group_symop_operation_xyz
x,y,z
-x,-y,z
x,-y,-z
-x,y,-z
-x,-y,-z
x,y,-z
-x,y,z
x,-y,z
loop_
_atom_site_type_symbol
_atom_site_label
_atom_site_fract_x
_atom_site_fract_y
_atom_site_fract_z
Si Si1 0.830427 0.592106 0.105376
Si Si2 0.664662 0.199650 0.103287
Si Si3 0.330037 0.056174 0.604486
Si Si4 0.332525 0.844637 0.707877
Si Si5 0.156587 0.294579 0.109976
Si Si6 0.335637 0.556328 0.727729
Si Si7 0.666607 0.347337 0.391716
Si Si8 0.167671 0.753228 0.609315
O O1 0.783911 0.649544 0.136288
O O2 0.752607 0.554568 0.176268
O O3 0.000000 0.585603 0.112892
O O4 0.780595 0.579914 0.000000
O O5 0.500000 0.214071 0.094848
O O6 0.690047 0.155403 0.179815
O O7 0.739177 0.250218 0.145142
O O8 0.722564 0.183298 0.000000
O O9 0.275052 0.067792 0.500000
O O10 0.500000 0.055558 0.605385
O O11 0.273553 0.100490 0.672950
O O12 0.273366 0.000000 0.636847
O O13 0.500000 0.836713 0.682512
O O14 0.241322 0.800682 0.659716
O O15 0.000000 0.285376 0.155053
O O16 0.142275 0.292070 0.000000
O O17 0.500000 0.566426 0.753244
O O18 0.316347 0.500000 0.681016
O O19 0.280859 0.600621 0.658468
O O20 0.695744 0.356403 0.500000
O O21 0.500000 0.335439 0.372412
O O22 0.760488 0.299576 0.354502
O O23 0.195596 0.759639 0.500000
O O24 0.000000 0.751947 0.633281
#
# Coordination Sequence:
#
# PCOD8195222 Si02
#       8
#     8   8   8   8   8   8   8   8
#     4   9  19  35  53  73  98 130 166 202 244 297
#     4   9  18  30  43  65  99 134 166 202 245 290
#     4   8  14  26  46  72  99 128 168 216 256 291
#     4  10  19  30  49  75 102 135 172 209 248 293
#     4   8  15  29  47  66  89 120 160 201 239 284
#     4  10  22  37  53  76 101 125 161 208 252 296
#     4   9  19  37  58  76  98 130 164 199 244 300
#     4  10  21  35  51  75 106 133 158 196 248 303
#
# _framework density 18.261303000000002
#
# number of rings (size 3 to 8) (size 9 to 14) (size 15 to 20)
#    0.000    2.875    0.000    1.875    1.750    3.750 
#    0.000    3.750    0.000    0.750    0.000    7.000 
#    0.000    0.000    0.000    4.250    0.000    4.625 
#
# Total GULP energy -793227.965797 kJ/mol
# GULP energy per Si atom -12394.186966 kJ/mol
# Density = 1.821974 g / cm^3
# Si number density = 18.261303 Si / 1000 Ang^3
#
#
#
# Elastic Constant Matrix: (Units=GPa)
#
#
# Indices 1 2 3 4 5 6 
#
# 1 48.4077 43.6544 31.9331 0.0000 0.0000 0.0000
# 2 43.6544 145.9762 66.5920 0.0000 0.0000 0.0000
# 3 31.9331 66.5920 71.1025 0.0000 0.0000 0.0000
# 4 0.0000 0.0000 0.0000 29.3885 0.0000 0.0000
# 5 0.0000 0.0000 0.0000 0.0000 17.9654 0.0000
# 6 0.0000 0.0000 0.0000 0.0000 0.0000 2.7836
#
#
#
# Elastic Compliance Matrix: (Units=1/GPa)
#
#
# Indices 1 2 3 4 5 6 
#
# 1 0.031441 -0.005170 -0.009279 0.000000 0.000000 0.000000
# 2 -0.005170 0.012810 -0.009676 0.000000 0.000000 0.000000
# 3 -0.009279 -0.009676 0.027294 0.000000 0.000000 0.000000
# 4 0.000000 0.000000 0.000000 0.034027 0.000000 0.000000
# 5 0.000000 0.000000 0.000000 0.000000 0.055662 0.000000
# 6 0.000000 0.000000 0.000000 0.000000 0.000000 0.359246
#
#
# Mechanical properties :
#
#
# Convention : Reuss Voigt Hill
#
# Bulk Modulus (GPa) = 42.92592 61.09396 52.00994
# Shear Modulus (GPa) = 8.67311 18.24797 13.46054
#
# Velocity S-wave (km/s) = 2.18169 3.16455 2.71792
# Velocity P-wave (km/s) = 5.46844 6.84694 6.19615
#
# Compressibility (1/GPa) = 0.02329595
#
# Stress axis : x y z
#
# Youngs Moduli (GPa) = 31.80584 78.06108 36.63834
#
# Poissons Ratio (x) = 0.40354 0.33996
# Poissons Ratio (y) = 0.16442 0.35452
# Poissons Ratio (z) = 0.29512 0.75533
#
# Static dielectric constant tensor:
#      x y z
#    x 3.277510 0.000000 0.000000 
#    y 0.000000 3.584830 0.000000 
#    z 0.000000 0.000000 3.433340 
# 
# 
# High freq. dielectric constant tensor:
#      x y z
#    x 1.686690 0.000000 0.000000 
#    y 0.000000 1.697340 0.000000 
#    z 0.000000 0.000000 1.706170 
# 
# From -- ./inp_files/21876.got.cif
#   From: 2010.03.12/outbox.cif.g09.slc.cpg/sg47_11_cif.got.tgz:21876.got - 2010.04.14 03:12:58.
