data_PCOD8195465
_publ_section_title
;
Structure prediction by ZEFSAII (Michael W. Deem and Ramdas Pophale) SiO2 
 PCOD8195465
Probable space group: P M M M
;
_chemical_formula_sum "Si O2"
_cell_formula_units_Z 52
_cell_length_a 28.454942
_cell_length_b 9.078721
_cell_length_c 11.562161
_cell_angle_alpha 90.000000
_cell_angle_beta 90.000000
_cell_angle_gamma 90.000000
_cell_volume 2986.904844
_symmetry_space_group_name_H-M "P M M M"
_symmetry_group_IT_number 47
_symmetry_cell_setting 'orthorhombic'
loop_
_space_group_symop_operation_xyz
x,y,z
-x,-y,z
x,-y,-z
-x,y,-z
-x,-y,-z
x,y,-z
-x,y,z
x,-y,z
loop_
_atom_site_type_symbol
_atom_site_label
_atom_site_fract_x
_atom_site_fract_y
_atom_site_fract_z
Si Si1 0.407512 0.173927 0.743094
Si Si2 0.263813 0.175211 0.500000
Si Si3 0.766478 0.325862 0.270669
Si Si4 0.627966 0.824681 0.500000
Si Si5 0.312664 0.167031 0.136240
Si Si6 0.500000 0.823797 0.868031
Si Si7 0.857690 0.326717 0.868983
Si Si8 0.948746 0.166365 0.862625
O O1 0.398771 0.236976 0.613581
O O2 0.364056 0.218291 0.823883
O O3 0.454619 0.239935 0.800263
O O4 0.412893 0.000000 0.735895
O O5 0.237053 0.239580 0.609947
O O6 0.317975 0.229184 0.500000
O O7 0.260226 0.000000 0.500000
O O8 0.764765 0.500000 0.292198
O O9 0.724261 0.280852 0.187029
O O10 0.814688 0.274982 0.210299
O O11 0.627939 0.000000 0.500000
O O12 0.302491 0.000000 0.180865
O O13 0.310223 0.174415 0.000000
O O14 0.500000 0.000000 0.868956
O O15 0.500000 0.765330 0.000000
O O16 0.862299 0.500000 0.869851
O O17 0.905932 0.263743 0.814020
O O18 0.849351 0.268011 0.000000
O O19 0.000000 0.223485 0.818029
O O20 0.940963 0.000000 0.820003
O O21 0.948519 0.174399 0.000000
#
# Coordination Sequence:
#
# PCOD8195465 Si02
#       8
#     8   4   8   4   8   4   8   8
#     4   9  16  27  43  66  95 128 164 205 254 301
#     4  11  21  37  56  73  96 127 168 212 254 304
#     4  11  22  35  51  73 101 132 167 210 258 303
#     4   9  16  28  47  66  90 121 157 206 251 292
#     4  10  19  31  49  72  99 133 170 205 247 302
#     4   9  16  25  39  63  98 132 160 200 256 311
#     4   9  18  31  46  68 101 136 167 203 246 295
#     4   8  14  25  42  66  97 132 169 208 247 289
#
# _framework density 17.409326
#
# number of rings (size 3 to 8) (size 9 to 14) (size 15 to 20)
#    0.000    2.538    1.538    2.077    0.000    4.615 
#    0.000    4.615    0.000    0.000    0.000    1.077 
#    0.000    7.385    0.000    0.000    0.000    0.000 
#
# Total GULP energy -644624.498549 kJ/mol
# GULP energy per Si atom -12396.624972 kJ/mol
# Density = 1.736970 g / cm^3
# Si number density = 17.409326 Si / 1000 Ang^3
#
#
#
# Elastic Constant Matrix: (Units=GPa)
#
#
# Indices 1 2 3 4 5 6 
#
# 1 165.8412 40.9730 67.5747 0.0000 0.0000 0.0000
# 2 40.9730 32.4192 28.9280 0.0000 0.0000 0.0000
# 3 67.5747 28.9280 106.5428 0.0000 0.0000 0.0000
# 4 0.0000 0.0000 0.0000 19.4702 0.0000 0.0000
# 5 0.0000 0.0000 0.0000 0.0000 2.3502 0.0000
# 6 0.0000 0.0000 0.0000 0.0000 0.0000 8.6699
#
#
#
# Elastic Compliance Matrix: (Units=1/GPa)
#
#
# Indices 1 2 3 4 5 6 
#
# 1 0.009790 -0.009017 -0.003761 0.000000 0.000000 0.000000
# 2 -0.009017 0.049014 -0.007589 0.000000 0.000000 0.000000
# 3 -0.003761 -0.007589 0.013832 0.000000 0.000000 0.000000
# 4 0.000000 0.000000 0.000000 0.051361 0.000000 0.000000
# 5 0.000000 0.000000 0.000000 0.000000 0.425505 0.000000
# 6 0.000000 0.000000 0.000000 0.000000 0.000000 0.115341
#
#
# Mechanical properties :
#
#
# Convention : Reuss Voigt Hill
#
# Bulk Modulus (GPa) = 31.34633 64.41716 47.88175
# Shear Modulus (GPa) = 6.98118 17.25322 12.11720
#
# Velocity S-wave (km/s) = 2.00468 3.15148 2.64108
# Velocity P-wave (km/s) = 4.83765 7.09396 6.07154
#
# Compressibility (1/GPa) = 0.03190166
#
# Stress axis : x y z
#
# Youngs Moduli (GPa) = 102.14282 20.40230 72.29683
#
# Poissons Ratio (x) = 0.18397 0.27192
# Poissons Ratio (y) = 0.92105 0.54865
# Poissons Ratio (z) = 0.38417 0.15483
#
# Static dielectric constant tensor:
#      x y z
#    x 3.602930 0.000000 0.000000 
#    y 0.000000 2.943430 0.000000 
#    z 0.000000 0.000000 3.275920 
# 
# 
# High freq. dielectric constant tensor:
#      x y z
#    x 1.682350 0.000000 0.000000 
#    y 0.000000 1.636590 0.000000 
#    z 0.000000 0.000000 1.658170 
# 
# From -- ./inp_files/4610.got.cif
#   From: 2010.03.12/outbox.cif.g09.slc.cpg/sg47_3_cif.got.tgz:4610.got - 2010.04.14 03:12:58.
