data_PCOD8195763
_publ_section_title
;
Structure prediction by ZEFSAII (Michael W. Deem and Ramdas Pophale) SiO2 
 PCOD8195763
Probable space group: P M M M
;
_chemical_formula_sum "Si O2"
_cell_formula_units_Z 48
_cell_length_a 29.324270
_cell_length_b 9.044126
_cell_length_c 9.603148
_cell_angle_alpha 90.000000
_cell_angle_beta 90.000000
_cell_angle_gamma 90.000000
_cell_volume 2546.873859
_symmetry_space_group_name_H-M "P M M M"
_symmetry_group_IT_number 47
_symmetry_cell_setting 'orthorhombic'
loop_
_space_group_symop_operation_xyz
x,y,z
-x,-y,z
x,-y,-z
-x,y,-z
-x,-y,-z
x,y,-z
-x,y,z
x,-y,z
loop_
_atom_site_type_symbol
_atom_site_label
_atom_site_fract_x
_atom_site_fract_y
_atom_site_fract_z
Si Si1 0.551453 0.324620 0.500000
Si Si2 0.946914 0.328590 0.342611
Si Si3 0.703006 0.175315 0.839239
Si Si4 0.874275 0.175522 0.840158
Si Si5 0.388334 0.675077 0.753013
Si Si6 0.550163 0.324716 0.000000
Si Si7 0.789106 0.824354 0.340584
O O1 0.546281 0.500000 0.500000
O O2 0.500000 0.256587 0.500000
O O3 0.582267 0.268521 0.624938
O O4 0.933331 0.279669 0.500000
O O5 0.935235 0.500000 0.321623
O O6 0.920663 0.234741 0.226993
O O7 0.000000 0.298632 0.318000
O O8 0.659781 0.244919 0.763008
O O9 0.745655 0.230953 0.747667
O O10 0.698849 0.000000 0.835680
O O11 0.707674 0.229913 0.000000
O O12 0.832933 0.235192 0.744039
O O13 0.875522 0.000000 0.838868
O O14 0.868982 0.231909 0.000000
O O15 0.379507 0.500000 0.753884
O O16 0.420938 0.732355 0.872689
O O17 0.545112 0.500000 0.000000
O O18 0.500000 0.252189 0.000000
O O19 0.788406 0.761884 0.500000
O O20 0.789816 0.000000 0.346060
#
# Coordination Sequence:
#
# PCOD8195763 Si02
#       7
#     4   8   8   8   8   4   8
#     4   9  18  32  51  75 101 129 163 205 250 295
#     4   9  19  36  56  78 108 147 187 224 265 316
#     4  10  20  34  52  74 102 134 167 205 254 309
#     4  10  20  34  54  81 111 140 176 224 271 314
#     4  10  19  32  51  75 101 128 162 206 251 296
#     4   9  16  28  49  73  95 125 165 201 238 293
#     4   9  18  33  54  77 100 134 177 215 255 309
#
# _framework density 18.846634000000002
#
# number of rings (size 3 to 8) (size 9 to 14) (size 15 to 20)
#    0.000    2.500    0.833    2.000    1.167    6.000 
#    0.000    3.333    0.000    6.000    0.000    0.000 
#    0.000    0.000    0.000    0.000    0.000    0.000 
#
# Total GULP energy -594919.187802 kJ/mol
# GULP energy per Si atom -12394.149746 kJ/mol
# Density = 1.880374 g / cm^3
# Si number density = 18.846634 Si / 1000 Ang^3
#
#
#
# Elastic Constant Matrix: (Units=GPa)
#
#
# Indices 1 2 3 4 5 6 
#
# 1 142.8445 23.8435 87.9928 0.0000 0.0000 0.0000
# 2 23.8435 14.5792 22.7281 0.0000 0.0000 0.0000
# 3 87.9928 22.7281 182.4654 0.0000 0.0000 0.0000
# 4 0.0000 0.0000 0.0000 22.7624 0.0000 0.0000
# 5 0.0000 0.0000 0.0000 0.0000 50.3131 0.0000
# 6 0.0000 0.0000 0.0000 0.0000 0.0000 35.1611
#
#
#
# Elastic Compliance Matrix: (Units=1/GPa)
#
#
# Indices 1 2 3 4 5 6 
#
# 1 0.011590 -0.012709 -0.004006 0.000000 0.000000 0.000000
# 2 -0.012709 0.099057 -0.006210 0.000000 0.000000 0.000000
# 3 -0.004006 -0.006210 0.008186 0.000000 0.000000 0.000000
# 4 0.000000 0.000000 0.000000 0.043932 0.000000 0.000000
# 5 0.000000 0.000000 0.000000 0.000000 0.019876 0.000000
# 6 0.000000 0.000000 0.000000 0.000000 0.000000 0.028440
#
#
# Mechanical properties :
#
#
# Convention : Reuss Voigt Hill
#
# Bulk Modulus (GPa) = 13.70192 67.66865 40.68529
# Shear Modulus (GPa) = 17.77728 35.33565 26.55646
#
# Velocity S-wave (km/s) = 3.07459 4.33471 3.75785
# Velocity P-wave (km/s) = 4.45983 7.81254 6.36105
#
# Compressibility (1/GPa) = 0.07298246
#
# Stress axis : x y z
#
# Youngs Moduli (GPa) = 86.28293 10.09522 122.16219
#
# Poissons Ratio (x) = 0.12830 0.48938
# Poissons Ratio (y) = 1.09660 0.75858
# Poissons Ratio (z) = 0.34565 0.06269
#
# Static dielectric constant tensor:
#      x y z
#    x 3.598260 0.000000 0.000000 
#    y 0.000000 2.952240 0.000000 
#    z 0.000000 0.000000 3.817450 
# 
# 
# High freq. dielectric constant tensor:
#      x y z
#    x 1.747190 0.000000 0.000000 
#    y 0.000000 1.681540 0.000000 
#    z 0.000000 0.000000 1.749940 
# 
# From -- ./inp_files/13834.got.cif
#   From: 2010.03.12/outbox.cif.g09.slc.cpg/sg47_7_cif.got.tgz:13834.got - 2010.04.14 03:12:58.
