data_PCOD8195295
_publ_section_title
;
Structure prediction by ZEFSAII (Michael W. Deem and Ramdas Pophale) SiO2 
 PCOD8195295
Probable space group: P M M M
;
_chemical_formula_sum "Si O2"
_cell_formula_units_Z 64
_cell_length_a 31.357441
_cell_length_b 14.180845
_cell_length_c 9.036704
_cell_angle_alpha 90.000000
_cell_angle_beta 90.000000
_cell_angle_gamma 90.000000
_cell_volume 4018.396445
_symmetry_space_group_name_H-M "P M M M"
_symmetry_group_IT_number 47
_symmetry_cell_setting 'orthorhombic'
loop_
_space_group_symop_operation_xyz
x,y,z
-x,-y,z
x,-y,-z
-x,y,-z
-x,-y,-z
x,y,-z
-x,y,z
x,-y,z
loop_
_atom_site_type_symbol
_atom_site_label
_atom_site_fract_x
_atom_site_fract_y
_atom_site_fract_z
Si Si1 0.046417 0.887981 0.832569
Si Si2 0.784429 0.798295 0.672048
Si Si3 0.704886 0.110500 0.172775
Si Si4 0.546940 0.894477 0.675700
Si Si5 0.627719 0.781189 0.323889
Si Si6 0.253820 0.395402 0.668468
Si Si7 0.870757 0.892653 0.326192
Si Si8 0.341210 0.606988 0.828193
O O1 0.085849 0.847177 0.738747
O O2 0.000000 0.852416 0.772805
O O3 0.047214 0.000000 0.822974
O O4 0.052369 0.853561 0.000000
O O5 0.777633 0.824734 0.500000
O O6 0.749961 0.853844 0.767478
O O7 0.781347 0.685222 0.697394
O O8 0.830884 0.830305 0.727888
O O9 0.667462 0.162126 0.259869
O O10 0.700902 0.000000 0.203348
O O11 0.701276 0.134644 0.000000
O O12 0.548426 0.896089 0.500000
O O13 0.500000 0.859361 0.728729
O O14 0.583814 0.826466 0.736562
O O15 0.555292 0.000000 0.736270
O O16 0.630697 0.782455 0.500000
O O17 0.627679 0.674271 0.264779
O O18 0.270999 0.388245 0.500000
O O19 0.234171 0.500000 0.697451
O O20 0.292814 0.376141 0.777765
O O21 0.875550 0.889383 0.500000
O O22 0.863723 0.000000 0.270760
O O23 0.355600 0.500000 0.797066
O O24 0.344130 0.632763 0.000000
#
# Coordination Sequence:
#
# PCOD8195295 Si02
#       8
#     8   8   8   8   8   8   8   8
#     4   8  14  25  40  57  78 107 145 186 225 265
#     4  10  19  31  46  64  89 122 154 188 228 270
#     4  11  23  34  44  63  93 127 159 189 221 263
#     4   8  15  29  49  73  98 121 148 185 228 272
#     4  11  20  31  51  75  95 119 152 190 231 274
#     4   9  17  30  48  68  88 114 152 193 231 271
#     4   9  17  27  39  58  85 117 151 183 219 267
#     4  10  20  33  49  69  94 122 152 189 231 273
#
# _framework density 15.926750999999999
#
# number of rings (size 3 to 8) (size 9 to 14) (size 15 to 20)
#    0.000    2.500    1.250    2.625    0.000    3.500 
#    0.000    2.500    0.000    1.875    0.000    7.000 
#    0.000    0.500    0.000    6.250    0.000    1.250 
#
# Total GULP energy -793339.781150 kJ/mol
# GULP energy per Si atom -12395.934080 kJ/mol
# Density = 1.589050 g / cm^3
# Si number density = 15.926751 Si / 1000 Ang^3
#
#
#
# Elastic Constant Matrix: (Units=GPa)
#
#
# Indices 1 2 3 4 5 6 
#
# 1 138.1568 61.9024 43.2609 0.0000 0.0000 0.0000
# 2 61.9024 92.3248 36.4546 0.0000 0.0000 0.0000
# 3 43.2609 36.4546 56.5250 0.0000 0.0000 0.0000
# 4 0.0000 0.0000 0.0000 20.0102 0.0000 0.0000
# 5 0.0000 0.0000 0.0000 0.0000 1.6402 0.0000
# 6 0.0000 0.0000 0.0000 0.0000 0.0000 11.7972
#
#
#
# Elastic Compliance Matrix: (Units=1/GPa)
#
#
# Indices 1 2 3 4 5 6 
#
# 1 0.011332 -0.005599 -0.005062 0.000000 0.000000 0.000000
# 2 -0.005599 0.017299 -0.006871 0.000000 0.000000 0.000000
# 3 -0.005062 -0.006871 0.025996 0.000000 0.000000 0.000000
# 4 0.000000 0.000000 0.000000 0.049975 0.000000 0.000000
# 5 0.000000 0.000000 0.000000 0.000000 0.609687 0.000000
# 6 0.000000 0.000000 0.000000 0.000000 0.000000 0.084766
#
#
# Mechanical properties :
#
#
# Convention : Reuss Voigt Hill
#
# Bulk Modulus (GPa) = 51.11658 63.36029 57.23843
# Shear Modulus (GPa) = 5.94786 16.38211 11.16498
#
# Velocity S-wave (km/s) = 1.93458 3.21064 2.65055
# Velocity P-wave (km/s) = 6.09546 7.32209 6.73675
#
# Compressibility (1/GPa) = 0.01956312
#
# Stress axis : x y z
#
# Youngs Moduli (GPa) = 88.24647 57.80819 38.46678
#
# Poissons Ratio (x) = 0.32368 0.19470
# Poissons Ratio (y) = 0.49412 0.26431
# Poissons Ratio (z) = 0.44667 0.39720
#
# Static dielectric constant tensor:
#      x y z
#    x 3.242540 0.000000 0.000000 
#    y 0.000000 3.116970 0.000000 
#    z 0.000000 0.000000 2.987970 
# 
# 
# High freq. dielectric constant tensor:
#      x y z
#    x 1.600820 0.000000 0.000000 
#    y 0.000000 1.595200 0.000000 
#    z 0.000000 0.000000 1.606440 
# 
# From -- ./inp_files/14267.got.cif
#   From: 2010.03.12/outbox.cif.g09.slc.cpg/sg47_8_cif.got.tgz:14267.got - 2010.04.14 03:12:58.
