data_PCOD8195361
_publ_section_title
;
Structure prediction by ZEFSAII (Michael W. Deem and Ramdas Pophale) SiO2 
 PCOD8195361
Probable space group: P M M M
;
_chemical_formula_sum "Si O2"
_cell_formula_units_Z 64
_cell_length_a 9.175379
_cell_length_b 19.890306
_cell_length_c 20.334311
_cell_angle_alpha 90.000000
_cell_angle_beta 90.000000
_cell_angle_gamma 90.000000
_cell_volume 3711.034043
_symmetry_space_group_name_H-M "P M M M"
_symmetry_group_IT_number 47
_symmetry_cell_setting 'orthorhombic'
loop_
_space_group_symop_operation_xyz
x,y,z
-x,-y,z
x,-y,-z
-x,y,-z
-x,-y,-z
x,y,-z
-x,y,z
x,-y,z
loop_
_atom_site_type_symbol
_atom_site_label
_atom_site_fract_x
_atom_site_fract_y
_atom_site_fract_z
Si Si1 0.667418 0.169309 0.426132
Si Si2 0.326850 0.924803 0.689736
Si Si3 0.164921 0.284365 0.774032
Si Si4 0.834713 0.571728 0.238822
Si Si5 0.831313 0.297086 0.381002
Si Si6 0.327621 0.842516 0.184378
Si Si7 0.167617 0.923032 0.076013
Si Si8 0.669289 0.573821 0.371677
O O1 0.682586 0.140517 0.500000
O O2 0.500000 0.186357 0.409025
O O3 0.727819 0.113077 0.375854
O O4 0.759468 0.236781 0.420758
O O5 0.500000 0.928468 0.691229
O O6 0.268337 0.885100 0.753510
O O7 0.260595 0.000000 0.690124
O O8 0.192172 0.360165 0.803601
O O9 0.198029 0.286664 0.696343
O O10 0.272977 0.233868 0.810304
O O11 0.000000 0.260328 0.787342
O O12 0.821818 0.500000 0.199136
O O13 0.718025 0.569492 0.296367
O O14 0.000000 0.578245 0.268369
O O15 0.759965 0.366890 0.406872
O O16 0.000000 0.298985 0.398667
O O17 0.500000 0.841857 0.182126
O O18 0.269833 0.874618 0.117612
O O19 0.000000 0.910297 0.094856
O O20 0.210415 0.000000 0.090773
O O21 0.194633 0.906101 0.000000
O O22 0.500000 0.593011 0.374479
O O23 0.696267 0.500000 0.404663
#
# Coordination Sequence:
#
# PCOD8195361 Si02
#       8
#     8   8   8   8   8   8   8   8
#     4  10  20  34  52  71  92 122 160 203 250 300
#     4   9  18  32  49  72  99 124 155 198 247 293
#     4   9  17  28  44  67  95 129 166 201 242 291
#     4   8  14  25  40  61  92 128 164 201 242 286
#     4  10  19  31  48  67  92 125 160 200 243 292
#     4  11  20  30  49  75 105 135 163 204 246 284
#     4   9  19  36  55  74 100 135 170 203 242 291
#     4   9  16  25  41  66  93 120 152 192 238 289
#
# _framework density 17.245865999999999
#
# number of rings (size 3 to 8) (size 9 to 14) (size 15 to 20)
#    0.000    2.625    1.250    2.625    0.000    4.250 
#    0.000    1.875    0.000    1.500    0.000    3.500 
#    0.000    0.500    0.000    5.750    0.000    1.750 
#
# Total GULP energy -793179.121818 kJ/mol
# GULP energy per Si atom -12393.423778 kJ/mol
# Density = 1.720661 g / cm^3
# Si number density = 17.245866 Si / 1000 Ang^3
#
#
#
# Elastic Constant Matrix: (Units=GPa)
#
#
# Indices 1 2 3 4 5 6 
#
# 1 69.8167 48.7452 28.4526 0.0000 0.0000 0.0000
# 2 48.7452 151.7963 45.7637 0.0000 0.0000 0.0000
# 3 28.4526 45.7637 60.1474 0.0000 0.0000 0.0000
# 4 0.0000 0.0000 0.0000 15.7478 0.0000 0.0000
# 5 0.0000 0.0000 0.0000 0.0000 18.4808 0.0000
# 6 0.0000 0.0000 0.0000 0.0000 0.0000 24.5004
#
#
#
# Elastic Compliance Matrix: (Units=1/GPa)
#
#
# Indices 1 2 3 4 5 6 
#
# 1 0.019968 -0.004625 -0.005926 0.000000 0.000000 0.000000
# 2 -0.004625 0.009620 -0.005132 0.000000 0.000000 0.000000
# 3 -0.005926 -0.005132 0.023334 0.000000 0.000000 0.000000
# 4 0.000000 0.000000 0.000000 0.063501 0.000000 0.000000
# 5 0.000000 0.000000 0.000000 0.000000 0.054110 0.000000
# 6 0.000000 0.000000 0.000000 0.000000 0.000000 0.040816
#
#
# Mechanical properties :
#
#
# Convention : Reuss Voigt Hill
#
# Bulk Modulus (GPa) = 46.39325 58.63152 52.51238
# Shear Modulus (GPa) = 20.00795 22.33237 21.17016
#
# Velocity S-wave (km/s) = 3.40981 3.60243 3.50744
# Velocity P-wave (km/s) = 6.51628 7.16761 6.84969
#
# Compressibility (1/GPa) = 0.02155486
#
# Stress axis : x y z
#
# Youngs Moduli (GPa) = 50.08049 103.94829 42.85646
#
# Poissons Ratio (x) = 0.48080 0.25399
# Poissons Ratio (y) = 0.23164 0.21992
# Poissons Ratio (z) = 0.29680 0.53342
#
# Static dielectric constant tensor:
#      x y z
#    x 3.111060 0.000000 0.000000 
#    y 0.000000 3.645960 0.000000 
#    z 0.000000 0.000000 2.792940 
# 
# 
# High freq. dielectric constant tensor:
#      x y z
#    x 1.660010 0.000000 0.000000 
#    y 0.000000 1.684000 0.000000 
#    z 0.000000 0.000000 1.610810 
# 
# From -- ./inp_files/30018.got.cif
#   From: 2010.03.12/outbox.cif.g09.slc.cpg/sg47_16_cif.got.tgz:30018.got - 2010.04.14 03:12:58.
