data_PCOD8195192
_publ_section_title
;
Structure prediction by ZEFSAII (Michael W. Deem and Ramdas Pophale) SiO2 
 PCOD8195192
Probable space group: P M M M
;
_chemical_formula_sum "Si O2"
_cell_formula_units_Z 64
_cell_length_a 23.169694
_cell_length_b 9.138349
_cell_length_c 15.485840
_cell_angle_alpha 90.000000
_cell_angle_beta 90.000000
_cell_angle_gamma 90.000000
_cell_volume 3278.859489
_symmetry_space_group_name_H-M "P M M M"
_symmetry_group_IT_number 47
_symmetry_cell_setting 'orthorhombic'
loop_
_space_group_symop_operation_xyz
x,y,z
-x,-y,z
x,-y,-z
-x,y,-z
-x,-y,-z
x,y,-z
-x,y,z
x,-y,z
loop_
_atom_site_type_symbol
_atom_site_label
_atom_site_fract_x
_atom_site_fract_y
_atom_site_fract_z
Si Si1 0.772395 0.333754 0.160602
Si Si2 0.609179 0.328973 0.601147
Si Si3 0.893623 0.332595 0.908975
Si Si4 0.354150 0.328132 0.098953
Si Si5 0.172428 0.168483 0.315447
Si Si6 0.717130 0.841831 0.402053
Si Si7 0.064379 0.673258 0.271203
Si Si8 0.565527 0.831301 0.237934
O O1 0.768958 0.500000 0.196489
O O2 0.824258 0.321299 0.092137
O O3 0.712549 0.286755 0.116777
O O4 0.788220 0.223910 0.236931
O O5 0.595754 0.291044 0.500000
O O6 0.601921 0.500000 0.616992
O O7 0.674014 0.283437 0.632335
O O8 0.567739 0.243212 0.666877
O O9 0.913577 0.500000 0.909285
O O10 0.923786 0.260957 0.825033
O O11 0.914098 0.259387 0.000000
O O12 0.364428 0.500000 0.112065
O O13 0.394501 0.243791 0.166081
O O14 0.368663 0.282673 0.000000
O O15 0.215018 0.198111 0.395829
O O16 0.112791 0.255697 0.332513
O O17 0.155820 0.000000 0.302309
O O18 0.700649 0.861948 0.500000
O O19 0.706453 0.000000 0.354997
O O20 0.073167 0.500000 0.273152
O O21 0.000000 0.717165 0.301427
O O22 0.500000 0.817168 0.205024
O O23 0.584054 0.000000 0.247534
#
# Coordination Sequence:
#
# PCOD8195192 Si02
#       8
#     8   8   8   8   8   8   8   8
#     4   9  17  30  49  74 103 131 161 201 253 312
#     4  10  21  37  60  90 118 142 172 216 271 327
#     4   8  13  23  42  67  92 117 149 192 238 286
#     4  10  21  37  59  85 110 140 182 234 286 327
#     4  10  19  30  48  73  99 130 167 206 250 301
#     4   9  18  33  53  78 108 137 164 199 248 310
#     4   9  18  31  46  65  90 124 166 209 253 299
#     4  11  25  42  58  78 108 149 192 228 266 320
#
# _framework density 19.518981
#
# number of rings (size 3 to 8) (size 9 to 14) (size 15 to 20)
#    0.000    2.500    0.000    3.000    0.000    8.000 
#    0.000    3.750    0.000    9.375    0.000    6.125 
#    0.000    0.000    0.000    0.000    0.000    0.000 
#
# Total GULP energy -792870.574945 kJ/mol
# GULP energy per Si atom -12388.602734 kJ/mol
# Density = 1.947455 g / cm^3
# Si number density = 19.518981 Si / 1000 Ang^3
#
#
#
# Elastic Constant Matrix: (Units=GPa)
#
#
# Indices 1 2 3 4 5 6 
#
# 1 101.9823 40.0229 26.5008 0.0000 0.0000 0.0000
# 2 40.0229 75.1435 34.7401 0.0000 0.0000 0.0000
# 3 26.5008 34.7401 55.3563 0.0000 0.0000 0.0000
# 4 0.0000 0.0000 0.0000 19.6599 0.0000 0.0000
# 5 0.0000 0.0000 0.0000 0.0000 15.2447 0.0000
# 6 0.0000 0.0000 0.0000 0.0000 0.0000 29.3157
#
#
#
# Elastic Compliance Matrix: (Units=1/GPa)
#
#
# Indices 1 2 3 4 5 6 
#
# 1 0.012652 -0.005548 -0.002575 0.000000 0.000000 0.000000
# 2 -0.005548 0.021180 -0.010636 0.000000 0.000000 0.000000
# 3 -0.002575 -0.010636 0.025972 0.000000 0.000000 0.000000
# 4 0.000000 0.000000 0.000000 0.050865 0.000000 0.000000
# 5 0.000000 0.000000 0.000000 0.000000 0.065596 0.000000
# 6 0.000000 0.000000 0.000000 0.000000 0.000000 0.034111
#
#
# Mechanical properties :
#
#
# Convention : Reuss Voigt Hill
#
# Bulk Modulus (GPa) = 44.87090 48.33441 46.60266
# Shear Modulus (GPa) = 19.58288 21.59194 20.58741
#
# Velocity S-wave (km/s) = 3.17089 3.32957 3.25120
# Velocity P-wave (km/s) = 6.03691 6.29269 6.16612
#
# Compressibility (1/GPa) = 0.02228616
#
# Stress axis : x y z
#
# Youngs Moduli (GPa) = 79.03762 47.21383 38.50240
#
# Poissons Ratio (x) = 0.26196 0.09914
# Poissons Ratio (y) = 0.43853 0.40951
# Poissons Ratio (z) = 0.20352 0.50217
#
# Static dielectric constant tensor:
#      x y z
#    x 3.633470 0.000000 0.000000 
#    y 0.000000 3.506120 0.000000 
#    z 0.000000 0.000000 3.576030 
# 
# 
# High freq. dielectric constant tensor:
#      x y z
#    x 1.761910 0.000000 0.000000 
#    y 0.000000 1.741950 0.000000 
#    z 0.000000 0.000000 1.743800 
# 
# From -- ./inp_files/25558.got.cif
#   From: 2010.03.12/outbox.cif.g09.slc.cpg/sg47_13_cif.got.tgz:25558.got - 2010.04.14 03:12:58.
