data_PCOD8195663
_publ_section_title
;
Structure prediction by ZEFSAII (Michael W. Deem and Ramdas Pophale) SiO2 
 PCOD8195663
Probable space group: P M M M
;
_chemical_formula_sum "Si O2"
_cell_formula_units_Z 36
_cell_length_a 24.896791
_cell_length_b 7.946878
_cell_length_c 9.453663
_cell_angle_alpha 90.000000
_cell_angle_beta 90.000000
_cell_angle_gamma 90.000000
_cell_volume 1870.423869
_symmetry_space_group_name_H-M "P M M M"
_symmetry_group_IT_number 47
_symmetry_cell_setting 'orthorhombic'
loop_
_space_group_symop_operation_xyz
x,y,z
-x,-y,z
x,-y,-z
-x,y,-z
-x,-y,-z
x,y,-z
-x,y,z
x,-y,z
loop_
_atom_site_type_symbol
_atom_site_label
_atom_site_fract_x
_atom_site_fract_y
_atom_site_fract_z
Si Si1 0.841911 0.300344 0.161079
Si Si2 0.371922 0.685643 0.667961
Si Si3 0.940633 0.700029 0.658616
Si Si4 0.258244 0.805711 0.341383
Si Si5 0.439214 0.000000 0.331001
O O1 0.839460 0.500000 0.172038
O O2 0.895755 0.228251 0.235170
O O3 0.790748 0.223717 0.237338
O O4 0.842370 0.238093 0.000000
O O5 0.373020 0.699101 0.500000
O O6 0.391797 0.500000 0.717926
O O7 0.310431 0.709150 0.718407
O O8 0.410267 0.831974 0.730006
O O9 0.927848 0.764377 0.500000
O O10 0.939747 0.500000 0.661013
O O11 0.000000 0.763553 0.705458
O O12 0.243064 0.742748 0.500000
O O13 0.273953 0.000000 0.345792
O O14 0.500000 0.000000 0.274559
O O15 0.437725 0.000000 0.500000
#
# Coordination Sequence:
#
# PCOD8195663 Si02
#       5
#     8   8   8   8   4
#     4  10  20  31  45  70 101 129 161 204 256 315
#     4   9  16  27  44  66  94 130 171 213 257 305
#     4   8  14  26  45  68  94 126 165 207 250 301
#     4  10  19  32  50  69  92 126 170 216 259 307
#     4   9  16  26  40  64 101 137 170 209 252 305
#
# _framework density 19.246974000000002
#
# number of rings (size 3 to 8) (size 9 to 14) (size 15 to 20)
#    0.000    2.778    1.111    2.000    0.000    3.556 
#    0.000    4.444    0.000    0.667    0.000    4.667 
#    0.000    1.778    0.000    4.667    0.000    4.444 
#
# Total GULP energy -446240.276417 kJ/mol
# GULP energy per Si atom -12395.563234 kJ/mol
# Density = 1.920317 g / cm^3
# Si number density = 19.246974 Si / 1000 Ang^3
#
#
#
# Elastic Constant Matrix: (Units=GPa)
#
#
# Indices 1 2 3 4 5 6 
#
# 1 155.7265 58.8961 52.4735 0.0000 0.0000 0.0000
# 2 58.8961 88.8530 23.3326 0.0000 0.0000 0.0000
# 3 52.4735 23.3326 72.5941 0.0000 0.0000 0.0000
# 4 0.0000 0.0000 0.0000 11.3330 0.0000 0.0000
# 5 0.0000 0.0000 0.0000 0.0000 0.6428 0.0000
# 6 0.0000 0.0000 0.0000 0.0000 0.0000 25.0778
#
#
#
# Elastic Compliance Matrix: (Units=1/GPa)
#
#
# Indices 1 2 3 4 5 6 
#
# 1 0.010408 -0.005377 -0.005795 0.000000 0.000000 0.000000
# 2 -0.005377 0.015070 -0.000957 0.000000 0.000000 0.000000
# 3 -0.005795 -0.000957 0.018272 0.000000 0.000000 0.000000
# 4 0.000000 0.000000 0.000000 0.088238 0.000000 0.000000
# 5 0.000000 0.000000 0.000000 0.000000 1.555733 0.000000
# 6 0.000000 0.000000 0.000000 0.000000 0.000000 0.039876
#
#
# Mechanical properties :
#
#
# Convention : Reuss Voigt Hill
#
# Bulk Modulus (GPa) = 51.30423 65.17534 58.23979
# Shear Modulus (GPa) = 2.84357 19.57547 11.20952
#
# Velocity S-wave (km/s) = 1.21681 3.19261 2.41592
# Velocity P-wave (km/s) = 5.35610 6.89395 6.17310
#
# Compressibility (1/GPa) = 0.01949157
#
# Stress axis : x y z
#
# Youngs Moduli (GPa) = 96.08222 66.35690 54.73003
#
# Poissons Ratio (x) = 0.35680 0.31715
# Poissons Ratio (y) = 0.51664 0.05237
# Poissons Ratio (z) = 0.55678 0.06350
#
# Static dielectric constant tensor:
#      x y z
#    x 3.677530 0.000000 0.000000 
#    y 0.000000 3.443070 0.000000 
#    z 0.000000 0.000000 3.194550 
# 
# 
# High freq. dielectric constant tensor:
#      x y z
#    x 1.755420 0.000000 0.000000 
#    y 0.000000 1.739760 0.000000 
#    z 0.000000 0.000000 1.695690 
# 
# From -- ./inp_files/12047.got.cif
#   From: 2010.03.12/outbox.cif.g09.slc.cpg/sg47_7_cif.got.tgz:12047.got - 2010.04.14 03:12:58.
