data_PCOD8195868
_publ_section_title
;
Structure prediction by ZEFSAII (Michael W. Deem and Ramdas Pophale) SiO2 
 PCOD8195868
Probable space group: P M M M
;
_chemical_formula_sum "Si O2"
_cell_formula_units_Z 56
_cell_length_a 8.958032
_cell_length_b 14.123997
_cell_length_c 22.950405
_cell_angle_alpha 90.000000
_cell_angle_beta 90.000000
_cell_angle_gamma 90.000000
_cell_volume 2903.759074
_symmetry_space_group_name_H-M "P M M M"
_symmetry_group_IT_number 47
_symmetry_cell_setting 'orthorhombic'
loop_
_space_group_symop_operation_xyz
x,y,z
-x,-y,z
x,-y,-z
-x,y,-z
-x,-y,-z
x,y,-z
-x,y,z
x,-y,z
loop_
_atom_site_type_symbol
_atom_site_label
_atom_site_fract_x
_atom_site_fract_y
_atom_site_fract_z
Si Si1 0.825118 0.608687 0.345607
Si Si2 0.671214 0.892062 0.721138
Si Si3 0.677826 0.393126 0.000000
Si Si4 0.324607 0.219247 0.605391
Si Si5 0.676339 0.279339 0.111830
Si Si6 0.175556 0.892335 0.839779
Si Si7 0.670017 0.609233 0.225986
Si Si8 0.823542 0.889901 0.500000
O O1 0.784459 0.500000 0.360091
O O2 0.739456 0.673888 0.392599
O O3 0.773012 0.634908 0.280546
O O4 0.000000 0.627600 0.350506
O O5 0.500000 0.876601 0.739455
O O6 0.715491 0.828143 0.666772
O O7 0.770705 0.860838 0.775679
O O8 0.702499 0.000000 0.703047
O O9 0.737452 0.338111 0.056819
O O10 0.741998 0.500000 0.000000
O O11 0.500000 0.396800 0.000000
O O12 0.500000 0.221156 0.592345
O O13 0.243791 0.159144 0.556442
O O14 0.500000 0.267975 0.107935
O O15 0.750055 0.175264 0.111888
O O16 0.726448 0.333039 0.170314
O O17 0.000000 0.881488 0.843015
O O18 0.226465 0.000000 0.852662
O O19 0.500000 0.636325 0.242667
O O20 0.682084 0.500000 0.208654
O O21 0.000000 0.876488 0.500000
O O22 0.777963 0.000000 0.500000
#
# Coordination Sequence:
#
# PCOD8195868 Si02
#       8
#     8   8   4   8   8   8   8   4
#     4  10  21  36  54  79 112 147 182 223 271 322
#     4   9  18  33  54  81 111 141 174 216 267 319
#     4   9  18  34  56  81 106 132 169 217 264 313
#     4  11  22  37  59  84 111 145 184 226 270 316
#     4  10  19  32  53  78 103 136 176 218 265 314
#     4  10  21  35  51  74 105 140 176 216 264 316
#     4   9  17  30  50  78 110 141 174 214 264 323
#     4  11  25  43  62  85 114 147 181 218 262 315
#
# _framework density 19.285346000000001
#
# number of rings (size 3 to 8) (size 9 to 14) (size 15 to 20)
#    0.000    2.143    0.000    3.214    0.000    9.714 
#    0.000    2.500    0.000    6.000    0.000    0.000 
#    0.000    0.000    0.000    0.000    0.000    0.000 
#
# Total GULP energy -694557.998872 kJ/mol
# GULP energy per Si atom -12402.821408 kJ/mol
# Density = 1.924145 g / cm^3
# Si number density = 19.285346 Si / 1000 Ang^3
#
#
#
# Elastic Constant Matrix: (Units=GPa)
#
#
# Indices 1 2 3 4 5 6 
#
# 1 66.1489 56.9560 47.9975 0.0000 0.0000 0.0000
# 2 56.9560 143.1233 86.8405 0.0000 0.0000 0.0000
# 3 47.9975 86.8405 89.2827 0.0000 0.0000 0.0000
# 4 0.0000 0.0000 0.0000 35.6044 0.0000 0.0000
# 5 0.0000 0.0000 0.0000 0.0000 -26.7680 0.0000
# 6 0.0000 0.0000 0.0000 0.0000 0.0000 29.0482
#
#
#
# Elastic Compliance Matrix: (Units=1/GPa)
#
#
# Indices 1 2 3 4 5 6 
#
# 1 0.025942 -0.004543 -0.009528 0.000000 0.000000 0.000000
# 2 -0.004543 0.017843 -0.014913 0.000000 0.000000 0.000000
# 3 -0.009528 -0.014913 0.030828 0.000000 0.000000 0.000000
# 4 0.000000 0.000000 0.000000 0.028086 0.000000 0.000000
# 5 0.000000 0.000000 0.000000 0.000000 -0.037358 0.000000
# 6 0.000000 0.000000 0.000000 0.000000 0.000000 0.034425
#
#
# Mechanical properties :
#
#
# Convention : Reuss Voigt Hill
#
# Bulk Modulus (GPa) = 60.07506 75.79364 67.93435
# Shear Modulus (GPa) = 30.62165 14.69432 22.65798
#
# Velocity S-wave (km/s) = 3.98907 2.76332 3.43137
# Velocity P-wave (km/s) = 7.24121 7.04044 7.14153
#
# Compressibility (1/GPa) = 0.01664584
#
# Stress axis : x y z
#
# Youngs Moduli (GPa) = 38.54733 56.04323 32.43831
#
# Poissons Ratio (x) = 0.25458 0.30907
# Poissons Ratio (y) = 0.17511 0.48376
# Poissons Ratio (z) = 0.36727 0.83578
#
# Static dielectric constant tensor:
#      x y z
#    x 3.388350 0.000000 0.000000 
#    y 0.000000 3.817190 0.000000 
#    z 0.000000 0.000000 3.603810 
# 
# 
# High freq. dielectric constant tensor:
#      x y z
#    x 1.739170 0.000000 0.000000 
#    y 0.000000 1.770110 0.000000 
#    z 0.000000 0.000000 1.731940 
# 
# From -- ./inp_files/7456.got.cif
#   From: 2010.03.12/outbox.cif.g09.slc.cpg/sg47_4_cif.got.tgz:7456.got - 2010.04.14 03:12:58.
