data_PCOD8195477
_publ_section_title
;
Structure prediction by ZEFSAII (Michael W. Deem and Ramdas Pophale) SiO2 
 PCOD8195477
Probable space group: P M M M
;
_chemical_formula_sum "Si O2"
_cell_formula_units_Z 48
_cell_length_a 13.705419
_cell_length_b 12.853894
_cell_length_c 14.649617
_cell_angle_alpha 90.000000
_cell_angle_beta 90.000000
_cell_angle_gamma 90.000000
_cell_volume 2580.793772
_symmetry_space_group_name_H-M "P M M M"
_symmetry_group_IT_number 47
_symmetry_cell_setting 'orthorhombic'
loop_
_space_group_symop_operation_xyz
x,y,z
-x,-y,z
x,-y,-z
-x,y,-z
-x,-y,-z
x,y,-z
-x,y,z
x,-y,z
loop_
_atom_site_type_symbol
_atom_site_label
_atom_site_fract_x
_atom_site_fract_y
_atom_site_fract_z
Si Si1 0.812472 0.377343 0.399362
Si Si2 0.395570 0.620903 0.648933
Si Si3 0.735581 0.192634 0.898756
Si Si4 0.887067 0.700884 0.785911
Si Si5 0.883990 0.500000 0.103847
Si Si6 0.388193 0.616566 0.138920
Si Si7 0.608965 0.000000 0.108160
O O1 0.857705 0.355642 0.500000
O O2 0.817637 0.500000 0.376084
O O3 0.700001 0.336601 0.402651
O O4 0.872035 0.314944 0.322530
O O5 0.500000 0.672299 0.617834
O O6 0.404874 0.500000 0.628508
O O7 0.378341 0.641757 0.754840
O O8 0.824676 0.203716 0.826861
O O9 0.674364 0.298160 0.913260
O O10 0.666446 0.102319 0.858566
O O11 0.775996 0.163161 0.000000
O O12 0.847057 0.600952 0.841514
O O13 0.000000 0.723728 0.804620
O O14 0.000000 0.500000 0.104430
O O15 0.844501 0.500000 0.000000
O O16 0.500000 0.623722 0.106747
O O17 0.347926 0.500000 0.117321
O O18 0.500000 0.000000 0.151205
O O19 0.600313 0.000000 0.000000
#
# Coordination Sequence:
#
# PCOD8195477 Si02
#       7
#     8   8   8   8   4   8   4
#     4  10  19  31  49  73 105 150 195 229 272 332
#     4   8  14  26  43  65  98 136 171 213 266 321
#     4  11  22  35  56  80 107 145 187 226 273 329
#     4  11  22  36  51  73 108 145 187 238 280 320
#     4   9  18  32  49  69 100 145 187 223 271 326
#     4   9  17  29  47  74 109 144 176 216 267 322
#     4   9  20  40  61  83 112 145 183 225 273 335
#
# _framework density 18.598928999999998
#
# number of rings (size 3 to 8) (size 9 to 14) (size 15 to 20)
#    0.000    2.333    2.500    2.000    1.167    3.000 
#    0.000    3.750    0.000    1.500    0.000    0.583 
#    0.000    2.000    0.000    0.000    0.000    0.000 
#
# Total GULP energy -594885.549724 kJ/mol
# GULP energy per Si atom -12393.448953 kJ/mol
# Density = 1.855660 g / cm^3
# Si number density = 18.598929 Si / 1000 Ang^3
#
#
#
# Elastic Constant Matrix: (Units=GPa)
#
#
# Indices 1 2 3 4 5 6 
#
# 1 87.7032 46.3311 34.2177 0.0000 0.0000 0.0000
# 2 46.3311 72.9815 23.0713 0.0000 0.0000 0.0000
# 3 34.2177 23.0713 96.8338 0.0000 0.0000 0.0000
# 4 0.0000 0.0000 0.0000 10.0177 0.0000 0.0000
# 5 0.0000 0.0000 0.0000 0.0000 16.6374 0.0000
# 6 0.0000 0.0000 0.0000 0.0000 0.0000 24.0754
#
#
#
# Elastic Compliance Matrix: (Units=1/GPa)
#
#
# Indices 1 2 3 4 5 6 
#
# 1 0.018514 -0.010474 -0.004047 0.000000 0.000000 0.000000
# 2 -0.010474 0.020744 -0.001241 0.000000 0.000000 0.000000
# 3 -0.004047 -0.001241 0.012053 0.000000 0.000000 0.000000
# 4 0.000000 0.000000 0.000000 0.099823 0.000000 0.000000
# 5 0.000000 0.000000 0.000000 0.000000 0.060106 0.000000
# 6 0.000000 0.000000 0.000000 0.000000 0.000000 0.041536
#
#
# Mechanical properties :
#
#
# Convention : Reuss Voigt Hill
#
# Bulk Modulus (GPa) = 50.53931 51.63986 51.08958
# Shear Modulus (GPa) = 17.18833 20.40599 18.79716
#
# Velocity S-wave (km/s) = 3.04329 3.31593 3.18253
# Velocity P-wave (km/s) = 6.29135 6.51811 6.40573
#
# Compressibility (1/GPa) = 0.01978658
#
# Stress axis : x y z
#
# Youngs Moduli (GPa) = 54.01287 48.20723 82.96920
#
# Poissons Ratio (x) = 0.50493 0.33575
# Poissons Ratio (y) = 0.56574 0.10298
# Poissons Ratio (z) = 0.21858 0.05983
#
# Static dielectric constant tensor:
#      x y z
#    x 3.548130 0.000000 0.000000 
#    y 0.000000 2.977750 0.000000 
#    z 0.000000 0.000000 3.335400 
# 
# 
# High freq. dielectric constant tensor:
#      x y z
#    x 1.735700 0.000000 0.000000 
#    y 0.000000 1.650450 0.000000 
#    z 0.000000 0.000000 1.712050 
# 
# From -- ./inp_files/23600.got.cif
#   From: 2010.03.12/outbox.cif.g09.slc.cpg/sg47_12_cif.got.tgz:23600.got - 2010.04.14 03:12:58.
