data_PCOD8195045
_publ_section_title
;
Structure prediction by ZEFSAII (Michael W. Deem and Ramdas Pophale) SiO2 
 PCOD8195045
Probable space group: P M M M
;
_chemical_formula_sum "Si O2"
_cell_formula_units_Z 52
_cell_length_a 23.114274
_cell_length_b 14.205102
_cell_length_c 9.306402
_cell_angle_alpha 90.000000
_cell_angle_beta 90.000000
_cell_angle_gamma 90.000000
_cell_volume 3055.669801
_symmetry_space_group_name_H-M "P M M M"
_symmetry_group_IT_number 47
_symmetry_cell_setting 'orthorhombic'
loop_
_space_group_symop_operation_xyz
x,y,z
-x,-y,z
x,-y,-z
-x,y,-z
-x,-y,-z
x,y,-z
-x,y,z
x,-y,z
loop_
_atom_site_type_symbol
_atom_site_label
_atom_site_fract_x
_atom_site_fract_y
_atom_site_fract_z
Si Si1 0.164762 0.294787 0.167858
Si Si2 0.663033 0.896161 0.667896
Si Si3 0.221127 0.104618 0.835200
Si Si4 0.933087 0.391963 0.334499
Si Si5 0.731361 0.610914 0.334572
Si Si6 0.500000 0.607245 0.671672
Si Si7 0.614217 0.294967 0.669115
O O1 0.172489 0.182910 0.196455
O O2 0.103482 0.323206 0.234249
O O3 0.215584 0.353640 0.240628
O O4 0.164717 0.318607 0.000000
O O5 0.676263 0.893083 0.500000
O O6 0.722983 0.870680 0.742582
O O7 0.615867 0.816545 0.708512
O O8 0.640222 0.000000 0.714556
O O9 0.196985 0.000000 0.797168
O O10 0.240959 0.109226 0.000000
O O11 0.917612 0.372108 0.500000
O O12 0.918363 0.500000 0.296907
O O13 0.000000 0.370756 0.304322
O O14 0.741492 0.641150 0.500000
O O15 0.726337 0.500000 0.319716
O O16 0.672065 0.655037 0.271992
O O17 0.500000 0.500000 0.725351
O O18 0.500000 0.612276 0.500000
O O19 0.443387 0.659122 0.736707
O O20 0.611964 0.311484 0.500000
#
# Coordination Sequence:
#
# PCOD8195045 Si02
#       7
#     8   8   8   8   8   4   8
#     4  11  21  31  48  75 101 124 156 199 245 284
#     4   9  16  27  45  68  92 118 151 195 246 293
#     4   9  18  32  48  68  96 128 160 193 234 287
#     4   9  19  36  55  73  97 133 170 197 227 275
#     4  10  19  30  45  66  94 127 159 194 239 289
#     4   9  16  26  41  61  88 125 165 199 234 284
#     4   9  16  27  42  63  91 122 158 199 238 283
#
# _framework density 17.017545999999999
#
# number of rings (size 3 to 8) (size 9 to 14) (size 15 to 20)
#    0.000    2.538    1.538    1.846    0.000    5.231 
#    0.000    1.154    0.000    2.769    0.000    5.385 
#    0.000    6.154    0.000    0.000    0.000    0.000 
#
# Total GULP energy -644634.807013 kJ/mol
# GULP energy per Si atom -12396.823212 kJ/mol
# Density = 1.697881 g / cm^3
# Si number density = 17.017546 Si / 1000 Ang^3
#
#
#
# Elastic Constant Matrix: (Units=GPa)
#
#
# Indices 1 2 3 4 5 6 
#
# 1 108.5023 68.2825 39.3627 0.0000 0.0000 0.0000
# 2 68.2825 126.0366 41.1983 0.0000 0.0000 0.0000
# 3 39.3627 41.1983 48.0894 0.0000 0.0000 0.0000
# 4 0.0000 0.0000 0.0000 20.4789 0.0000 0.0000
# 5 0.0000 0.0000 0.0000 0.0000 -2.3205 0.0000
# 6 0.0000 0.0000 0.0000 0.0000 0.0000 28.5164
#
#
#
# Elastic Compliance Matrix: (Units=1/GPa)
#
#
# Indices 1 2 3 4 5 6 
#
# 1 0.015843 -0.006034 -0.007799 0.000000 0.000000 0.000000
# 2 -0.006034 0.013318 -0.006471 0.000000 0.000000 0.000000
# 3 -0.007799 -0.006471 0.032722 0.000000 0.000000 0.000000
# 4 0.000000 0.000000 0.000000 0.048831 0.000000 0.000000
# 5 0.000000 0.000000 0.000000 0.000000 -0.430934 0.000000
# 6 0.000000 0.000000 0.000000 0.000000 0.000000 0.035068
#
#
# Mechanical properties :
#
#
# Convention : Reuss Voigt Hill
#
# Bulk Modulus (GPa) = 47.00133 64.47947 55.74040
# Shear Modulus (GPa) = -21.05672 18.25393 -1.40139
#
# Velocity S-wave (km/s) = -3.52142 3.27869 -0.90845
# Velocity P-wave (km/s) = 3.33848 7.23224 5.63253
#
# Compressibility (1/GPa) = 0.02127599
#
# Stress axis : x y z
#
# Youngs Moduli (GPa) = 63.11984 75.08399 30.56084
#
# Poissons Ratio (x) = 0.45306 0.23833
# Poissons Ratio (y) = 0.38087 0.19776
# Poissons Ratio (z) = 0.49224 0.48586
#
# Static dielectric constant tensor:
#      x y z
#    x 3.130790 0.000000 0.000000 
#    y 0.000000 3.495250 0.000000 
#    z 0.000000 0.000000 2.998100 
# 
# 
# High freq. dielectric constant tensor:
#      x y z
#    x 1.638570 0.000000 0.000000 
#    y 0.000000 1.670450 0.000000 
#    z 0.000000 0.000000 1.630500 
# 
# From -- ./inp_files/12536.got.cif
#   From: 2010.03.12/outbox.cif.g09.slc.cpg/sg47_7_cif.got.tgz:12536.got - 2010.04.14 03:12:58.
