data_PCOD8195984
_publ_section_title
;
Structure prediction by ZEFSAII (Michael W. Deem and Ramdas Pophale) SiO2 
 PCOD8195984
Probable space group: P M M M
;
_chemical_formula_sum "Si O2"
_cell_formula_units_Z 56
_cell_length_a 18.609873
_cell_length_b 8.914775
_cell_length_c 19.186676
_cell_angle_alpha 90.000000
_cell_angle_beta 90.000000
_cell_angle_gamma 90.000000
_cell_volume 3183.123858
_symmetry_space_group_name_H-M "P M M M"
_symmetry_group_IT_number 47
_symmetry_cell_setting 'orthorhombic'
loop_
_space_group_symop_operation_xyz
x,y,z
-x,-y,z
x,-y,-z
-x,y,-z
-x,-y,-z
x,y,-z
-x,y,z
x,-y,z
loop_
_atom_site_type_symbol
_atom_site_label
_atom_site_fract_x
_atom_site_fract_y
_atom_site_fract_z
Si Si1 0.812802 0.322213 0.575052
Si Si2 0.418321 0.175679 0.714790
Si Si3 0.155217 0.322919 0.278856
Si Si4 0.215297 0.826886 0.080146
Si Si5 0.337503 0.171636 0.577349
Si Si6 0.703600 0.322831 0.199814
Si Si7 0.080759 0.677908 0.143505
O O1 0.841761 0.259163 0.500000
O O2 0.816851 0.500000 0.573817
O O3 0.857720 0.259672 0.642176
O O4 0.730535 0.278309 0.585850
O O5 0.500000 0.228827 0.724348
O O6 0.395270 0.217181 0.635854
O O7 0.371696 0.261470 0.772398
O O8 0.409795 0.000000 0.728491
O O9 0.152666 0.500000 0.282447
O O10 0.233952 0.271803 0.253120
O O11 0.095765 0.267521 0.223411
O O12 0.277299 0.745829 0.124497
O O13 0.136455 0.755780 0.091788
O O14 0.211549 0.000000 0.101826
O O15 0.236512 0.805928 0.000000
O O16 0.371774 0.193028 0.500000
O O17 0.312174 0.000000 0.587570
O O18 0.699097 0.500000 0.191467
O O19 0.091743 0.500000 0.137535
O O20 0.000000 0.725354 0.123098
#
# Coordination Sequence:
#
# PCOD8195984 Si02
#       7
#     8   8   8   8   8   8   8
#     4   9  15  24  41  63  88 120 161 210 257 294
#     4  10  20  32  47  69  99 135 171 208 252 298
#     4   8  14  26  44  66  90 121 162 204 245 284
#     4  10  21  36  55  79 105 131 157 192 241 293
#     4   9  17  28  42  63  93 128 167 209 250 293
#     4  10  19  33  53  74  97 127 165 206 245 290
#     4   9  18  32  50  73 103 138 171 202 237 282
#
# _framework density 17.592780999999999
#
# number of rings (size 3 to 8) (size 9 to 14) (size 15 to 20)
#    0.000    2.714    1.429    1.714    0.000    2.286 
#    0.000    2.857    0.000    0.857    0.000    9.000 
#    0.000    0.000    0.000    7.286    0.000    8.571 
#
# Total GULP energy -693946.595434 kJ/mol
# GULP energy per Si atom -12391.903490 kJ/mol
# Density = 1.755274 g / cm^3
# Si number density = 17.592781 Si / 1000 Ang^3
#
#
#
# Elastic Constant Matrix: (Units=GPa)
#
#
# Indices 1 2 3 4 5 6 
#
# 1 59.7077 18.9434 33.0541 0.0000 0.0000 0.0000
# 2 18.9434 36.4631 32.7304 0.0000 0.0000 0.0000
# 3 33.0541 32.7304 113.9595 0.0000 0.0000 0.0000
# 4 0.0000 0.0000 0.0000 21.0577 0.0000 0.0000
# 5 0.0000 0.0000 0.0000 0.0000 19.7672 0.0000
# 6 0.0000 0.0000 0.0000 0.0000 0.0000 21.3434
#
#
#
# Elastic Compliance Matrix: (Units=1/GPa)
#
#
# Indices 1 2 3 4 5 6 
#
# 1 0.021358 -0.007458 -0.004053 0.000000 0.000000 0.000000
# 2 -0.007458 0.039556 -0.009198 0.000000 0.000000 0.000000
# 3 -0.004053 -0.009198 0.012592 0.000000 0.000000 0.000000
# 4 0.000000 0.000000 0.000000 0.047489 0.000000 0.000000
# 5 0.000000 0.000000 0.000000 0.000000 0.050589 0.000000
# 6 0.000000 0.000000 0.000000 0.000000 0.000000 0.046853
#
#
# Mechanical properties :
#
#
# Convention : Reuss Voigt Hill
#
# Bulk Modulus (GPa) = 31.16336 42.17622 36.66979
# Shear Modulus (GPa) = 18.48090 20.79383 19.63737
#
# Velocity S-wave (km/s) = 3.24463 3.44168 3.34461
# Velocity P-wave (km/s) = 5.63817 6.31025 5.98365
#
# Compressibility (1/GPa) = 0.03208897
#
# Stress axis : x y z
#
# Youngs Moduli (GPa) = 46.82052 25.28090 79.41388
#
# Poissons Ratio (x) = 0.18854 0.32186
# Poissons Ratio (y) = 0.34919 0.73042
# Poissons Ratio (z) = 0.18976 0.23252
#
# Static dielectric constant tensor:
#      x y z
#    x 3.039120 0.000000 0.000000 
#    y 0.000000 3.127760 0.000000 
#    z 0.000000 0.000000 3.672940 
# 
# 
# High freq. dielectric constant tensor:
#      x y z
#    x 1.644320 0.000000 0.000000 
#    y 0.000000 1.665420 0.000000 
#    z 0.000000 0.000000 1.691700 
# 
# From -- ./inp_files/9871.got.cif
#   From: 2010.03.12/outbox.cif.g09.slc.cpg/sg47_5_cif.got.tgz:9871.got - 2010.04.14 03:12:58.
