data_PCOD8195341
_publ_section_title
;
Structure prediction by ZEFSAII (Michael W. Deem and Ramdas Pophale) SiO2 
 PCOD8195341
Probable space group: P M M M
;
_chemical_formula_sum "Si O2"
_cell_formula_units_Z 44
_cell_length_a 13.282858
_cell_length_b 9.917946
_cell_length_c 18.239168
_cell_angle_alpha 90.000000
_cell_angle_beta 90.000000
_cell_angle_gamma 90.000000
_cell_volume 2402.803704
_symmetry_space_group_name_H-M "P M M M"
_symmetry_group_IT_number 47
_symmetry_cell_setting 'orthorhombic'
loop_
_space_group_symop_operation_xyz
x,y,z
-x,-y,z
x,-y,-z
-x,y,-z
-x,-y,-z
x,y,-z
-x,y,z
x,-y,z
loop_
_atom_site_type_symbol
_atom_site_label
_atom_site_fract_x
_atom_site_fract_y
_atom_site_fract_z
Si Si1 0.201290 0.659191 0.201577
Si Si2 0.880283 0.500000 0.419333
Si Si3 0.386661 0.347203 0.302448
Si Si4 0.702083 0.148004 0.416044
Si Si5 0.116567 0.153394 0.914596
Si Si6 0.114122 0.234458 0.340598
O O1 0.175857 0.500000 0.192747
O O2 0.313085 0.682421 0.233831
O O3 0.188825 0.737509 0.124956
O O4 0.121925 0.737634 0.254102
O O5 0.833642 0.500000 0.500000
O O6 0.841650 0.629371 0.376747
O O7 0.000000 0.500000 0.421163
O O8 0.500000 0.323312 0.273817
O O9 0.371308 0.500000 0.330130
O O10 0.367424 0.251091 0.371695
O O11 0.716110 0.197551 0.500000
O O12 0.810492 0.126073 0.375184
O O13 0.651228 0.000000 0.415075
O O14 0.000000 0.188094 0.899119
O O15 0.139803 0.000000 0.888263
O O16 0.140708 0.166577 0.000000
O O17 0.000000 0.196178 0.361673
#
# Coordination Sequence:
#
# PCOD8195341 Si02
#       6
#     8   4   8   8   8   8
#     4  10  19  32  53  79 105 130 165 216 263 304
#     4   9  16  26  42  64  90 128 174 211 246 290
#     4   9  20  39  59  77  98 128 168 214 266 320
#     4  10  22  36  49  71 102 134 171 217 265 311
#     4   9  19  35  53  76 110 149 180 203 236 291
#     4  10  19  31  47  70 102 139 174 211 256 307
#
# _framework density 18.311941999999998
#
# number of rings (size 3 to 8) (size 9 to 14) (size 15 to 20)
#    0.000    2.455    0.909    1.636    1.273    6.909 
#    0.000    3.636    0.000    0.545    0.000    3.818 
#    0.000    0.000    0.000    0.000    0.000    0.000 
#
# Total GULP energy -545349.353317 kJ/mol
# GULP energy per Si atom -12394.303484 kJ/mol
# Density = 1.827026 g / cm^3
# Si number density = 18.311942 Si / 1000 Ang^3
#
#
#
# Elastic Constant Matrix: (Units=GPa)
#
#
# Indices 1 2 3 4 5 6 
#
# 1 85.5471 36.5335 31.5160 0.0000 0.0000 0.0000
# 2 36.5335 93.5821 51.4311 0.0000 0.0000 0.0000
# 3 31.5160 51.4311 95.6385 0.0000 0.0000 0.0000
# 4 0.0000 0.0000 0.0000 32.7395 0.0000 0.0000
# 5 0.0000 0.0000 0.0000 0.0000 18.5573 0.0000
# 6 0.0000 0.0000 0.0000 0.0000 0.0000-1863.5324
#
#
#
# Elastic Compliance Matrix: (Units=1/GPa)
#
#
# Indices 1 2 3 4 5 6 
#
# 1 0.014421 -0.004284 -0.002448 0.000000 0.000000 0.000000
# 2 -0.004284 0.016442 -0.007430 0.000000 0.000000 0.000000
# 3 -0.002448 -0.007430 0.015258 0.000000 0.000000 0.000000
# 4 0.000000 0.000000 0.000000 0.030544 0.000000 0.000000
# 5 0.000000 0.000000 0.000000 0.000000 0.053887 0.000000
# 6 0.000000 0.000000 0.000000 0.000000 0.000000 -0.000537
#
#
# Mechanical properties :
#
#
# Convention : Reuss Voigt Hill
#
# Bulk Modulus (GPa) = 56.19204 57.08099 56.63651
# Shear Modulus (GPa) = 30.43711 -352.09465 -160.82877
#
# Velocity S-wave (km/s) = 4.08136 -13.88140 -9.38179
# Velocity P-wave (km/s) = 7.27755 15.02283 9.29308
#
# Compressibility (1/GPa) = 0.01779611
#
# Stress axis : x y z
#
# Youngs Moduli (GPa) = 69.34300 60.82068 65.53761
#
# Poissons Ratio (x) = 0.26058 0.16045
# Poissons Ratio (y) = 0.29709 0.48694
# Poissons Ratio (z) = 0.16977 0.45190
#
# Static dielectric constant tensor:
#      x y z
#    x 3.211530 0.000000 0.000000 
#    y 0.000000 3.443820 0.000000 
#    z 0.000000 0.000000 3.240610 
# 
# 
# High freq. dielectric constant tensor:
#      x y z
#    x 1.691100 0.000000 0.000000 
#    y 0.000000 1.715900 0.000000 
#    z 0.000000 0.000000 1.694760 
# 
# From -- ./inp_files/8999.got.cif
#   From: 2010.03.12/outbox.cif.g09.slc.cpg/sg47_5_cif.got.tgz:8999.got - 2010.04.14 03:12:58.
