data_PCOD8195236
_publ_section_title
;
Structure prediction by ZEFSAII (Michael W. Deem and Ramdas Pophale) SiO2 
 PCOD8195236
Probable space group: P M M M
;
_chemical_formula_sum "Si O2"
_cell_formula_units_Z 36
_cell_length_a 10.786127
_cell_length_b 9.249394
_cell_length_c 19.243313
_cell_angle_alpha 90.000000
_cell_angle_beta 90.000000
_cell_angle_gamma 90.000000
_cell_volume 1919.811784
_symmetry_space_group_name_H-M "P M M M"
_symmetry_group_IT_number 47
_symmetry_cell_setting 'orthorhombic'
loop_
_space_group_symop_operation_xyz
x,y,z
-x,-y,z
x,-y,-z
-x,y,-z
-x,-y,-z
x,y,-z
-x,y,z
x,-y,z
loop_
_atom_site_type_symbol
_atom_site_label
_atom_site_fract_x
_atom_site_fract_y
_atom_site_fract_z
Si Si1 0.747973 0.829948 0.652121
Si Si2 0.264248 0.832458 0.187113
Si Si3 0.500000 0.664477 0.646596
Si Si4 0.000000 0.828499 0.578907
Si Si5 0.500000 0.661243 0.811494
Si Si6 0.143577 0.341739 0.075697
O O1 0.769226 0.796794 0.733302
O O2 0.625947 0.747204 0.622194
O O3 0.873273 0.771801 0.614962
O O4 0.726471 0.000000 0.638522
O O5 0.382429 0.745396 0.160038
O O6 0.158517 0.779127 0.135249
O O7 0.290422 0.000000 0.177816
O O8 0.500000 0.500000 0.617022
O O9 0.500000 0.663265 0.728809
O O10 0.000000 0.772702 0.500000
O O11 0.000000 0.000000 0.583605
O O12 0.500000 0.500000 0.841306
O O13 0.198106 0.500000 0.097973
O O14 0.000000 0.359304 0.065292
O O15 0.200422 0.295695 0.000000
#
# Coordination Sequence:
#
# PCOD8195236 Si02
#       6
#     8   8   4   4   4   8
#     4   9  18  32  53  79 107 137 173 217 263 307
#     4  10  19  30  50  77 104 128 162 210 261 306
#     4   9  17  31  52  77 104 136 177 216 256 309
#     4   9  18  34  55  79 108 141 176 214 255 305
#     4   9  17  31  50  71 100 133 167 207 250 299
#     4   9  19  35  51  68  96 134 172 208 247 297
#
# _framework density 18.751839
#
# number of rings (size 3 to 8) (size 9 to 14) (size 15 to 20)
#    0.000    2.778    0.000    2.000    1.556    4.444 
#    0.000    2.778    0.000    8.000    0.000    0.000 
#    0.000    0.000    0.000    0.000    0.000    0.000 
#
# Total GULP energy -446095.731296 kJ/mol
# GULP energy per Si atom -12391.548092 kJ/mol
# Density = 1.870916 g / cm^3
# Si number density = 18.751839 Si / 1000 Ang^3
#
#
#
# Elastic Constant Matrix: (Units=GPa)
#
#
# Indices 1 2 3 4 5 6 
#
# 1 127.3445 53.1156 49.5102 0.0000 0.0000 0.0000
# 2 53.1156 94.8334 45.7694 0.0000 0.0000 0.0000
# 3 49.5102 45.7694 82.5060 0.0000 0.0000 0.0000
# 4 0.0000 0.0000 0.0000 16.9943 0.0000 0.0000
# 5 0.0000 0.0000 0.0000 0.0000 8.3376 0.0000
# 6 0.0000 0.0000 0.0000 0.0000 0.0000 29.5902
#
#
#
# Elastic Compliance Matrix: (Units=1/GPa)
#
#
# Indices 1 2 3 4 5 6 
#
# 1 0.011343 -0.004190 -0.004482 0.000000 0.000000 0.000000
# 2 -0.004190 0.015948 -0.006333 0.000000 0.000000 0.000000
# 3 -0.004482 -0.006333 0.018323 0.000000 0.000000 0.000000
# 4 0.000000 0.000000 0.000000 0.058843 0.000000 0.000000
# 5 0.000000 0.000000 0.000000 0.000000 0.119939 0.000000
# 6 0.000000 0.000000 0.000000 0.000000 0.000000 0.033795
#
#
# Mechanical properties :
#
#
# Convention : Reuss Voigt Hill
#
# Bulk Modulus (GPa) = 64.08568 66.83047 65.45807
# Shear Modulus (GPa) = 17.04144 21.40366 19.22255
#
# Velocity S-wave (km/s) = 3.01788 3.38215 3.20519
# Velocity P-wave (km/s) = 6.81127 7.13924 6.97718
#
# Compressibility (1/GPa) = 0.01560411
#
# Stress axis : x y z
#
# Youngs Moduli (GPa) = 88.16001 62.70451 54.57573
#
# Poissons Ratio (x) = 0.26272 0.24463
# Poissons Ratio (y) = 0.36937 0.34561
# Poissons Ratio (z) = 0.39517 0.39709
#
# Static dielectric constant tensor:
#      x y z
#    x 3.536210 0.000000 0.000000 
#    y 0.000000 3.400740 0.000000 
#    z 0.000000 0.000000 3.245760 
# 
# 
# High freq. dielectric constant tensor:
#      x y z
#    x 1.728220 0.000000 0.000000 
#    y 0.000000 1.717840 0.000000 
#    z 0.000000 0.000000 1.706010 
# 
# From -- ./inp_files/30295.got.cif
#   From: 2010.03.12/outbox.cif.g09.slc.cpg/sg47_16_cif.got.tgz:30295.got - 2010.04.14 03:12:58.
