data_PCOD8195801
_publ_section_title
;
Structure prediction by ZEFSAII (Michael W. Deem and Ramdas Pophale) SiO2 
 PCOD8195801
Probable space group: P M M M
;
_chemical_formula_sum "Si O2"
_cell_formula_units_Z 64
_cell_length_a 31.129533
_cell_length_b 14.142670
_cell_length_c 9.170701
_cell_angle_alpha 90.000000
_cell_angle_beta 90.000000
_cell_angle_gamma 90.000000
_cell_volume 4037.444332
_symmetry_space_group_name_H-M "P M M M"
_symmetry_group_IT_number 47
_symmetry_cell_setting 'orthorhombic'
loop_
_space_group_symop_operation_xyz
x,y,z
-x,-y,z
x,-y,-z
-x,y,-z
-x,-y,-z
x,y,-z
-x,y,z
x,-y,z
loop_
_atom_site_type_symbol
_atom_site_label
_atom_site_fract_x
_atom_site_fract_y
_atom_site_fract_z
Si Si1 0.917648 0.607005 0.170042
Si Si2 0.171759 0.393112 0.331176
Si Si3 0.288275 0.891644 0.829702
Si Si4 0.452768 0.887566 0.163913
Si Si5 0.371745 0.112750 0.336328
Si Si6 0.879790 0.109245 0.830723
Si Si7 0.048381 0.777936 0.667935
Si Si8 0.205139 0.775130 0.829226
O O1 0.934263 0.500000 0.192905
O O2 0.871519 0.622420 0.241276
O O3 0.950348 0.677799 0.247927
O O4 0.913835 0.632419 0.000000
O O5 0.163140 0.369500 0.500000
O O6 0.188908 0.500000 0.312462
O O7 0.206522 0.321890 0.262882
O O8 0.329862 0.849915 0.748225
O O9 0.246697 0.833624 0.780728
O O10 0.279747 0.000000 0.785692
O O11 0.297346 0.882122 0.000000
O O12 0.500000 0.855376 0.221287
O O13 0.415118 0.845002 0.264508
O O14 0.450306 0.000000 0.164791
O O15 0.445713 0.850126 0.000000
O O16 0.369511 0.151154 0.500000
O O17 0.372915 0.000000 0.330457
O O18 0.919706 0.146131 0.737476
O O19 0.836877 0.164929 0.786825
O O20 0.871970 0.000000 0.793879
O O21 0.890767 0.124289 0.000000
O O22 0.061070 0.761568 0.500000
O O23 0.000000 0.817602 0.681833
O O24 0.206105 0.751585 0.000000
#
# Coordination Sequence:
#
# PCOD8195801 Si02
#       8
#     8   8   8   8   8   8   8   8
#     4  10  20  35  56  79 100 122 149 181 217 260
#     4  10  20  33  51  75 101 125 146 173 215 266
#     4   9  17  29  44  62  87 119 152 186 226 269
#     4   8  13  21  33  48  67  97 140 187 233 278
#     4   9  16  24  34  51  77 108 144 187 231 271
#     4  10  21  37  56  76  96 120 153 191 227 263
#     4  11  24  39  54  74 100 127 153 182 220 267
#     4  10  19  32  52  75  95 118 150 187 224 264
#
# _framework density 15.851611999999999
#
# number of rings (size 3 to 8) (size 9 to 14) (size 15 to 20)
#    0.000    2.375    1.250    2.250    0.000    7.000 
#    0.000    3.750    0.000    2.250    0.000    0.000 
#    0.000    0.000    0.000    0.000    0.000    0.625 
#
# Total GULP energy -793552.294592 kJ/mol
# GULP energy per Si atom -12399.254603 kJ/mol
# Density = 1.581553 g / cm^3
# Si number density = 15.851612 Si / 1000 Ang^3
#
#
#
# Elastic Constant Matrix: (Units=GPa)
#
#
# Indices 1 2 3 4 5 6 
#
# 1 122.0372 39.2141 59.9048 0.0000 0.0000 0.0000
# 2 39.2141 67.1347 37.9435 0.0000 0.0000 0.0000
# 3 59.9048 37.9435 91.2530 0.0000 0.0000 0.0000
# 4 0.0000 0.0000 0.0000 19.8751 0.0000 0.0000
# 5 0.0000 0.0000 0.0000 0.0000 16.5852 0.0000
# 6 0.0000 0.0000 0.0000 0.0000 0.0000 6.5390
#
#
#
# Elastic Compliance Matrix: (Units=1/GPa)
#
#
# Indices 1 2 3 4 5 6 
#
# 1 0.012702 -0.003538 -0.006867 0.000000 0.000000 0.000000
# 2 -0.003538 0.020457 -0.006183 0.000000 0.000000 0.000000
# 3 -0.006867 -0.006183 0.018038 0.000000 0.000000 0.000000
# 4 0.000000 0.000000 0.000000 0.050314 0.000000 0.000000
# 5 0.000000 0.000000 0.000000 0.000000 0.060295 0.000000
# 6 0.000000 0.000000 0.000000 0.000000 0.000000 0.152927
#
#
# Mechanical properties :
#
#
# Convention : Reuss Voigt Hill
#
# Bulk Modulus (GPa) = 55.49690 61.61662 58.55676
# Shear Modulus (GPa) = 14.12759 18.15737 16.14248
#
# Velocity S-wave (km/s) = 2.98860 3.38813 3.19462
# Velocity P-wave (km/s) = 6.85531 7.36622 7.11535
#
# Compressibility (1/GPa) = 0.01801902
#
# Stress axis : x y z
#
# Youngs Moduli (GPa) = 78.72687 48.88346 55.43897
#
# Poissons Ratio (x) = 0.17295 0.38072
# Poissons Ratio (y) = 0.27854 0.34280
# Poissons Ratio (z) = 0.54065 0.30227
#
# Static dielectric constant tensor:
#      x y z
#    x 3.057810 0.000000 0.000000 
#    y 0.000000 2.822670 0.000000 
#    z 0.000000 0.000000 3.111700 
# 
# 
# High freq. dielectric constant tensor:
#      x y z
#    x 1.601360 0.000000 0.000000 
#    y 0.000000 1.569000 0.000000 
#    z 0.000000 0.000000 1.617840 
# 
# From -- ./inp_files/8278.got.cif
#   From: 2010.03.12/outbox.cif.g09.slc.cpg/sg47_5_cif.got.tgz:8278.got - 2010.04.14 03:12:58.
