data_PCOD8195722
_publ_section_title
;
Structure prediction by ZEFSAII (Michael W. Deem and Ramdas Pophale) SiO2 
 PCOD8195722
Probable space group: P M M M
;
_chemical_formula_sum "Si O2"
_cell_formula_units_Z 52
_cell_length_a 18.954399
_cell_length_b 9.165196
_cell_length_c 16.351387
_cell_angle_alpha 90.000000
_cell_angle_beta 90.000000
_cell_angle_gamma 90.000000
_cell_volume 2840.575735
_symmetry_space_group_name_H-M "P M M M"
_symmetry_group_IT_number 47
_symmetry_cell_setting 'orthorhombic'
loop_
_space_group_symop_operation_xyz
x,y,z
-x,-y,z
x,-y,-z
-x,y,-z
-x,-y,-z
x,y,-z
-x,y,z
x,-y,z
loop_
_atom_site_type_symbol
_atom_site_label
_atom_site_fract_x
_atom_site_fract_y
_atom_site_fract_z
Si Si1 0.687929 0.838208 0.000000
Si Si2 0.417381 0.342125 0.411722
Si Si3 0.144714 0.166038 0.000000
Si Si4 0.847818 0.328458 0.834470
Si Si5 0.083790 0.832352 0.500000
Si Si6 0.314809 0.331629 0.154537
Si Si7 0.417940 0.165018 0.263111
Si Si8 0.917036 0.331180 0.336167
O O1 0.771729 0.834338 0.000000
O O2 0.657362 0.757036 0.077522
O O3 0.657166 0.000000 0.000000
O O4 0.382231 0.312363 0.500000
O O5 0.500000 0.358457 0.421521
O O6 0.388897 0.500000 0.377436
O O7 0.401969 0.200229 0.357379
O O8 0.120496 0.247370 0.084332
O O9 0.114923 0.000000 0.000000
O O10 0.861127 0.500000 0.848360
O O11 0.765445 0.291335 0.822738
O O12 0.884090 0.274234 0.749922
O O13 0.112087 0.755639 0.416205
O O14 0.000000 0.819704 0.500000
O O15 0.109125 0.000000 0.500000
O O16 0.321362 0.500000 0.134133
O O17 0.369130 0.285965 0.223042
O O18 0.500000 0.189421 0.240121
O O19 0.394474 0.000000 0.243256
O O20 0.897095 0.500000 0.349573
O O21 0.000000 0.308047 0.327852
#
# Coordination Sequence:
#
# PCOD8195722 Si02
#       8
#     4   8   4   8   4   8   8   8
#     4   9  17  31  50  71  94 121 157 197 238 287
#     4   8  14  26  45  67  89 115 149 187 226 272
#     4   9  17  29  48  73  98 130 167 200 242 293
#     4   9  18  32  51  74  99 128 165 206 246 289
#     4   9  17  29  47  73 103 133 166 205 248 293
#     4  10  19  32  51  72  95 123 159 198 239 285
#     4  10  20  32  47  69  96 124 155 194 240 288
#     4   9  17  31  52  76 101 132 170 208 245 287
#
# _framework density 18.306146999999999
#
# number of rings (size 3 to 8) (size 9 to 14) (size 15 to 20)
#    0.000    2.846    0.000    2.077    0.000    5.231 
#    0.000    2.308    1.692    4.615    0.000    0.000 
#    0.000    0.000    0.000    0.000    0.000    0.000 
#
# Total GULP energy -644201.384010 kJ/mol
# GULP energy per Si atom -12388.488154 kJ/mol
# Density = 1.826448 g / cm^3
# Si number density = 18.306147 Si / 1000 Ang^3
#
#
#
# Elastic Constant Matrix: (Units=GPa)
#
#
# Indices 1 2 3 4 5 6 
#
# 1 30.0577 26.5973 31.1741 0.0000 0.0000 0.0000
# 2 26.5973 96.8781 65.0078 0.0000 0.0000 0.0000
# 3 31.1741 65.0078 149.0269 0.0000 0.0000 0.0000
# 4 0.0000 0.0000 0.0000 26.3931 0.0000 0.0000
# 5 0.0000 0.0000 0.0000 0.0000 23.2929 0.0000
# 6 0.0000 0.0000 0.0000 0.0000 0.0000 18.2209
#
#
#
# Elastic Compliance Matrix: (Units=1/GPa)
#
#
# Indices 1 2 3 4 5 6 
#
# 1 0.047459 -0.009003 -0.006000 0.000000 0.000000 0.000000
# 2 -0.009003 0.016302 -0.005228 0.000000 0.000000 0.000000
# 3 -0.006000 -0.005228 0.010246 0.000000 0.000000 0.000000
# 4 0.000000 0.000000 0.000000 0.037889 0.000000 0.000000
# 5 0.000000 0.000000 0.000000 0.000000 0.042931 0.000000
# 6 0.000000 0.000000 0.000000 0.000000 0.000000 0.054882
#
#
# Mechanical properties :
#
#
# Convention : Reuss Voigt Hill
#
# Bulk Modulus (GPa) = 29.81136 57.94679 43.87908
# Shear Modulus (GPa) = 19.13113 23.79362 21.46238
#
# Velocity S-wave (km/s) = 3.23626 3.60913 3.42777
# Velocity P-wave (km/s) = 5.50315 7.00648 6.29982
#
# Compressibility (1/GPa) = 0.03354426
#
# Stress axis : x y z
#
# Youngs Moduli (GPa) = 21.07063 61.34186 97.60035
#
# Poissons Ratio (x) = 0.55228 0.58564
# Poissons Ratio (y) = 0.18970 0.51024
# Poissons Ratio (z) = 0.12643 0.32069
#
# Static dielectric constant tensor:
#      x y z
#    x 2.949760 0.000000 0.000000 
#    y 0.000000 3.463130 0.000000 
#    z 0.000000 0.000000 4.056580 
# 
# 
# High freq. dielectric constant tensor:
#      x y z
#    x 1.659460 0.000000 0.000000 
#    y 0.000000 1.713940 0.000000 
#    z 0.000000 0.000000 1.722450 
# 
# From -- ./inp_files/25064.got.cif
#   From: 2010.03.12/outbox.cif.g09.slc.cpg/sg47_13_cif.got.tgz:25064.got - 2010.04.14 03:12:58.
