data_PCOD8195755
_publ_section_title
;
Structure prediction by ZEFSAII (Michael W. Deem and Ramdas Pophale) SiO2 
 PCOD8195755
Probable space group: P M M M
;
_chemical_formula_sum "Si O2"
_cell_formula_units_Z 56
_cell_length_a 18.901100
_cell_length_b 10.118502
_cell_length_c 15.248307
_cell_angle_alpha 90.000000
_cell_angle_beta 90.000000
_cell_angle_gamma 90.000000
_cell_volume 2916.251189
_symmetry_space_group_name_H-M "P M M M"
_symmetry_group_IT_number 47
_symmetry_cell_setting 'orthorhombic'
loop_
_space_group_symop_operation_xyz
x,y,z
-x,-y,z
x,-y,-z
-x,y,-z
-x,-y,-z
x,y,-z
-x,y,z
x,-y,z
loop_
_atom_site_type_symbol
_atom_site_label
_atom_site_fract_x
_atom_site_fract_y
_atom_site_fract_z
Si Si1 0.080395 0.146386 0.784536
Si Si2 0.192416 0.352568 0.830805
Si Si3 0.078665 0.242544 0.403770
Si Si4 0.417251 0.153368 0.231527
Si Si5 0.664409 0.149277 0.404313
Si Si6 0.778407 0.356755 0.367307
Si Si7 0.660129 0.348209 0.099445
O O1 0.128720 0.248632 0.838193
O O2 0.091360 0.145343 0.678708
O O3 0.000000 0.182510 0.808184
O O4 0.099976 0.000000 0.817414
O O5 0.161749 0.500000 0.847568
O O6 0.228779 0.342531 0.736429
O O7 0.255573 0.318982 0.897866
O O8 0.083905 0.171348 0.500000
O O9 0.139649 0.352625 0.397670
O O10 0.000000 0.307235 0.394716
O O11 0.500000 0.180897 0.230897
O O12 0.389294 0.193153 0.328169
O O13 0.381950 0.246085 0.159398
O O14 0.400337 0.000000 0.210017
O O15 0.626478 0.158284 0.500000
O O16 0.733336 0.240889 0.410069
O O17 0.690872 0.000000 0.386645
O O18 0.749047 0.500000 0.397047
O O19 0.645715 0.500000 0.129696
O O20 0.634293 0.327131 0.000000
#
# Coordination Sequence:
#
# PCOD8195755 Si02
#       7
#     8   8   8   8   8   8   8
#     4   9  18  31  48  72 101 138 184 230 276 325
#     4   9  18  33  53  77 105 139 179 223 272 326
#     4   9  18  30  42  63 100 142 182 228 279 325
#     4  10  22  40  61  86 117 150 183 224 273 325
#     4  10  21  36  55  80 110 148 191 230 271 321
#     4  10  19  32  51  74 102 139 184 233 279 322
#     4  10  21  39  63  89 116 146 182 224 274 335
#
# _framework density 19.202736999999999
#
# number of rings (size 3 to 8) (size 9 to 14) (size 15 to 20)
#    0.000    2.429    1.429    0.429    0.000    6.000 
#    0.000    7.857    0.000    0.429    0.000    5.000 
#    0.000    0.000    0.000    0.000    0.000    0.000 
#
# Total GULP energy -693930.059214 kJ/mol
# GULP energy per Si atom -12391.608200 kJ/mol
# Density = 1.915903 g / cm^3
# Si number density = 19.202737 Si / 1000 Ang^3
#
#
#
# Elastic Constant Matrix: (Units=GPa)
#
#
# Indices 1 2 3 4 5 6 
#
# 1 108.6709 77.1702 46.4555 0.0000 0.0000 0.0000
# 2 77.1702 123.0921 46.6403 0.0000 0.0000 0.0000
# 3 46.4555 46.6403 84.9063 0.0000 0.0000 0.0000
# 4 0.0000 0.0000 0.0000 14.3867 0.0000 0.0000
# 5 0.0000 0.0000 0.0000 0.0000 12.5639 0.0000
# 6 0.0000 0.0000 0.0000 0.0000 0.0000 28.7099
#
#
#
# Elastic Compliance Matrix: (Units=1/GPa)
#
#
# Indices 1 2 3 4 5 6 
#
# 1 0.017895 -0.009483 -0.004582 0.000000 0.000000 0.000000
# 2 -0.009483 0.015284 -0.003208 0.000000 0.000000 0.000000
# 3 -0.004582 -0.003208 0.016047 0.000000 0.000000 0.000000
# 4 0.000000 0.000000 0.000000 0.069509 0.000000 0.000000
# 5 0.000000 0.000000 0.000000 0.000000 0.079593 0.000000
# 6 0.000000 0.000000 0.000000 0.000000 0.000000 0.034831
#
#
# Mechanical properties :
#
#
# Convention : Reuss Voigt Hill
#
# Bulk Modulus (GPa) = 68.11367 73.02235 70.56801
# Shear Modulus (GPa) = 18.34210 20.89231 19.61720
#
# Velocity S-wave (km/s) = 3.09395 3.30204 3.19969
# Velocity P-wave (km/s) = 6.95063 7.25587 7.10489
#
# Compressibility (1/GPa) = 0.01468134
#
# Stress axis : x y z
#
# Youngs Moduli (GPa) = 55.88262 65.42662 62.31838
#
# Poissons Ratio (x) = 0.62041 0.28554
# Poissons Ratio (y) = 0.52991 0.19989
# Poissons Ratio (z) = 0.25605 0.20986
#
# Static dielectric constant tensor:
#      x y z
#    x 3.375610 0.000000 0.000000 
#    y 0.000000 3.445990 0.000000 
#    z 0.000000 0.000000 3.501410 
# 
# 
# High freq. dielectric constant tensor:
#      x y z
#    x 1.734150 0.000000 0.000000 
#    y 0.000000 1.737780 0.000000 
#    z 0.000000 0.000000 1.737470 
# 
# From -- ./inp_files/25152.got.cif
#   From: 2010.03.12/outbox.cif.g09.slc.cpg/sg47_13_cif.got.tgz:25152.got - 2010.04.14 03:12:58.
