data_PCOD8195143
_publ_section_title
;
Structure prediction by ZEFSAII (Michael W. Deem and Ramdas Pophale) SiO2 
 PCOD8195143
Probable space group: P M M M
;
_chemical_formula_sum "Si O2"
_cell_formula_units_Z 64
_cell_length_a 8.991983
_cell_length_b 18.809261
_cell_length_c 23.268636
_cell_angle_alpha 90.000000
_cell_angle_beta 90.000000
_cell_angle_gamma 90.000000
_cell_volume 3935.483862
_symmetry_space_group_name_H-M "P M M M"
_symmetry_group_IT_number 47
_symmetry_cell_setting 'orthorhombic'
loop_
_space_group_symop_operation_xyz
x,y,z
-x,-y,z
x,-y,-z
-x,y,-z
-x,-y,-z
x,y,-z
-x,y,z
x,-y,z
loop_
_atom_site_type_symbol
_atom_site_label
_atom_site_fract_x
_atom_site_fract_y
_atom_site_fract_z
Si Si1 0.826631 0.335336 0.336922
Si Si2 0.673273 0.703379 0.838192
Si Si3 0.828898 0.209192 0.934596
Si Si4 0.173520 0.581247 0.223272
Si Si5 0.172343 0.080058 0.762873
Si Si6 0.326741 0.211371 0.722840
Si Si7 0.671891 0.080233 0.884633
Si Si8 0.670714 0.418538 0.566235
O O1 0.787660 0.391573 0.287035
O O2 0.740373 0.261885 0.326117
O O3 0.775687 0.367623 0.397148
O O4 0.000000 0.318152 0.339370
O O5 0.500000 0.696793 0.850870
O O6 0.753056 0.732106 0.894744
O O7 0.736408 0.625498 0.824097
O O8 0.706944 0.756272 0.785572
O O9 0.749316 0.132804 0.929378
O O10 0.000000 0.200678 0.916523
O O11 0.813022 0.235305 0.000000
O O12 0.225373 0.500000 0.218833
O O13 0.000000 0.590194 0.210197
O O14 0.246997 0.134753 0.718257
O O15 0.252422 0.088950 0.823385
O O16 0.000000 0.098860 0.770968
O O17 0.193602 0.000000 0.739059
O O18 0.500000 0.201929 0.711050
O O19 0.500000 0.101732 0.877493
O O20 0.689184 0.000000 0.908141
O O21 0.692650 0.397693 0.500000
O O22 0.500000 0.407631 0.584861
O O23 0.718447 0.500000 0.576368
#
# Coordination Sequence:
#
# PCOD8195143 Si02
#       8
#     8   8   8   8   8   8   8   8
#     4  10  19  30  47  72 101 131 165 205 242 280
#     4  10  20  33  50  71  93 119 151 190 235 284
#     4  11  23  36  51  69  90 119 154 193 236 284
#     4   9  18  32  50  72  98 126 153 188 236 286
#     4  10  19  30  47  70  96 127 159 193 236 285
#     4  10  19  31  48  70  96 127 161 197 240 287
#     4  10  20  33  49  69  93 122 155 191 231 277
#     4   9  18  32  48  67  97 138 177 210 245 285
#
# _framework density 16.262295999999999
#
# number of rings (size 3 to 8) (size 9 to 14) (size 15 to 20)
#    0.000    2.125    1.250    3.000    0.000    5.500 
#    0.000    1.875    0.000    0.375    0.000    2.625 
#    0.000    0.500    0.000    5.250    0.000    2.250 
#
# Total GULP energy -793792.500311 kJ/mol
# GULP energy per Si atom -12403.007817 kJ/mol
# Density = 1.622528 g / cm^3
# Si number density = 16.262296 Si / 1000 Ang^3
#
#
#
# Elastic Constant Matrix: (Units=GPa)
#
#
# Indices 1 2 3 4 5 6 
#
# 1 103.9550 55.8933 41.2454 0.0000 0.0000 0.0000
# 2 55.8933 105.3557 41.9108 0.0000 0.0000 0.0000
# 3 41.2454 41.9108 65.7865 0.0000 0.0000 0.0000
# 4 0.0000 0.0000 0.0000 25.6401 0.0000 0.0000
# 5 0.0000 0.0000 0.0000 0.0000 25.2584 0.0000
# 6 0.0000 0.0000 0.0000 0.0000 0.0000 31.5626
#
#
#
# Elastic Compliance Matrix: (Units=1/GPa)
#
#
# Indices 1 2 3 4 5 6 
#
# 1 0.014938 -0.005625 -0.005782 0.000000 0.000000 0.000000
# 2 -0.005625 0.014832 -0.005922 0.000000 0.000000 0.000000
# 3 -0.005782 -0.005922 0.022599 0.000000 0.000000 0.000000
# 4 0.000000 0.000000 0.000000 0.039001 0.000000 0.000000
# 5 0.000000 0.000000 0.000000 0.000000 0.039591 0.000000
# 6 0.000000 0.000000 0.000000 0.000000 0.000000 0.031683
#
#
# Mechanical properties :
#
#
# Convention : Reuss Voigt Hill
#
# Bulk Modulus (GPa) = 56.46535 61.46625 58.96580
# Shear Modulus (GPa) = 24.60566 25.56206 25.08386
#
# Velocity S-wave (km/s) = 3.89401 3.96897 3.93167
# Velocity P-wave (km/s) = 7.41720 7.67349 7.54643
#
# Compressibility (1/GPa) = 0.01770998
#
# Stress axis : x y z
#
# Youngs Moduli (GPa) = 66.94379 67.42351 44.25015
#
# Poissons Ratio (x) = 0.37924 0.25586
# Poissons Ratio (y) = 0.37654 0.26207
# Poissons Ratio (z) = 0.38707 0.39931
#
# Static dielectric constant tensor:
#      x y z
#    x 3.187970 0.000000 0.000000 
#    y 0.000000 3.163400 0.000000 
#    z 0.000000 0.000000 2.752070 
# 
# 
# High freq. dielectric constant tensor:
#      x y z
#    x 1.642630 0.000000 0.000000 
#    y 0.000000 1.623700 0.000000 
#    z 0.000000 0.000000 1.588210 
# 
# From -- ./inp_files/10059.got.cif
#   From: 2010.03.12/outbox.cif.g09.slc.cpg/sg47_6_cif.got.tgz:10059.got - 2010.04.14 03:12:58.
