data_PCOD8195543
_publ_section_title
;
Structure prediction by ZEFSAII (Michael W. Deem and Ramdas Pophale) SiO2 
 PCOD8195543
Probable space group: P M M M
;
_chemical_formula_sum "Si O2"
_cell_formula_units_Z 40
_cell_length_a 20.006466
_cell_length_b 8.989017
_cell_length_c 12.312424
_cell_angle_alpha 90.000000
_cell_angle_beta 90.000000
_cell_angle_gamma 90.000000
_cell_volume 2214.247408
_symmetry_space_group_name_H-M "P M M M"
_symmetry_group_IT_number 47
_symmetry_cell_setting 'orthorhombic'
loop_
_space_group_symop_operation_xyz
x,y,z
-x,-y,z
x,-y,-z
-x,y,-z
-x,-y,-z
x,y,-z
-x,y,z
x,-y,z
loop_
_atom_site_type_symbol
_atom_site_label
_atom_site_fract_x
_atom_site_fract_y
_atom_site_fract_z
Si Si1 0.765089 0.175561 0.781535
Si Si2 0.388912 0.174253 0.215137
Si Si3 0.133488 0.671820 0.371688
Si Si4 0.000000 0.831873 0.370908
Si Si5 0.391141 0.333424 0.000000
Si Si6 0.500000 0.823608 0.620615
Si Si7 0.767592 0.331675 0.000000
O O1 0.687728 0.217586 0.762108
O O2 0.804217 0.244023 0.680606
O O3 0.776114 0.000000 0.786680
O O4 0.793251 0.246206 0.893023
O O5 0.417621 0.251865 0.107317
O O6 0.433362 0.229543 0.316498
O O7 0.396664 0.000000 0.195577
O O8 0.140428 0.690882 0.500000
O O9 0.133442 0.500000 0.337082
O O10 0.065235 0.745846 0.328071
O O11 0.000000 0.832774 0.500000
O O12 0.000000 0.000000 0.325041
O O13 0.419336 0.500000 0.000000
O O14 0.311682 0.329763 0.000000
O O15 0.500000 0.752537 0.500000
O O16 0.500000 0.000000 0.611755
O O17 0.795574 0.500000 0.000000
#
# Coordination Sequence:
#
# PCOD8195543 Si02
#       7
#     8   8   8   4   4   4   4
#     4  10  19  31  50  76 102 129 166 211 254 296
#     4   9  18  32  51  73  97 126 163 208 252 296
#     4  10  20  33  50  74 104 137 170 204 247 299
#     4   9  17  31  51  74 101 132 167 209 252 291
#     4   9  17  30  50  73  97 123 155 200 251 301
#     4   9  18  33  51  70  94 129 170 207 248 299
#     4   9  17  31  50  71  98 132 165 200 249 304
#
# _framework density 18.064830000000001
#
# number of rings (size 3 to 8) (size 9 to 14) (size 15 to 20)
#    0.000    2.600    0.000    2.100    0.000    6.800 
#    0.000    4.500    0.000    1.800    0.000    4.200 
#    0.000    0.000    0.000    0.000    0.000    0.000 
#
# Total GULP energy -496013.213410 kJ/mol
# GULP energy per Si atom -12400.330335 kJ/mol
# Density = 1.802371 g / cm^3
# Si number density = 18.064830 Si / 1000 Ang^3
#
#
#
# Elastic Constant Matrix: (Units=GPa)
#
#
# Indices 1 2 3 4 5 6 
#
# 1 96.3764 49.4870 56.4121 0.0000 0.0000 0.0000
# 2 49.4870 104.1598 49.3079 0.0000 0.0000 0.0000
# 3 56.4121 49.3079 108.5739 0.0000 0.0000 0.0000
# 4 0.0000 0.0000 0.0000 28.4501 0.0000 0.0000
# 5 0.0000 0.0000 0.0000 0.0000 7.1861 0.0000
# 6 0.0000 0.0000 0.0000 0.0000 0.0000 17.8342
#
#
#
# Elastic Compliance Matrix: (Units=1/GPa)
#
#
# Indices 1 2 3 4 5 6 
#
# 1 0.016639 -0.004857 -0.006440 0.000000 0.000000 0.000000
# 2 -0.004857 0.013648 -0.003674 0.000000 0.000000 0.000000
# 3 -0.006440 -0.003674 0.014225 0.000000 0.000000 0.000000
# 4 0.000000 0.000000 0.000000 0.035149 0.000000 0.000000
# 5 0.000000 0.000000 0.000000 0.000000 0.139158 0.000000
# 6 0.000000 0.000000 0.000000 0.000000 0.000000 0.056072
#
#
# Mechanical properties :
#
#
# Convention : Reuss Voigt Hill
#
# Bulk Modulus (GPa) = 68.63498 68.83599 68.73549
# Shear Modulus (GPa) = 16.14521 20.95429 18.54975
#
# Velocity S-wave (km/s) = 2.99279 3.40950 3.20792
# Velocity P-wave (km/s) = 7.07238 7.32716 7.20090
#
# Compressibility (1/GPa) = 0.01456983
#
# Stress axis : x y z
#
# Youngs Moduli (GPa) = 60.09908 73.27281 70.29972
#
# Poissons Ratio (x) = 0.35589 0.45270
# Poissons Ratio (y) = 0.29190 0.25831
# Poissons Ratio (z) = 0.38701 0.26923
#
# Static dielectric constant tensor:
#      x y z
#    x 3.274700 0.000000 0.000000 
#    y 0.000000 3.400230 0.000000 
#    z 0.000000 0.000000 3.364090 
# 
# 
# High freq. dielectric constant tensor:
#      x y z
#    x 1.687540 0.000000 0.000000 
#    y 0.000000 1.701700 0.000000 
#    z 0.000000 0.000000 1.688030 
# 
# From -- ./inp_files/15161.got.cif
#   From: 2010.03.12/outbox.cif.g09.slc.cpg/sg47_8_cif.got.tgz:15161.got - 2010.04.14 03:12:58.
