data_PCOD8195922
_publ_section_title
;
Structure prediction by ZEFSAII (Michael W. Deem and Ramdas Pophale) SiO2 
 PCOD8195922
Probable space group: P M M M
;
_chemical_formula_sum "Si O2"
_cell_formula_units_Z 52
_cell_length_a 14.663665
_cell_length_b 20.187615
_cell_length_c 9.767735
_cell_angle_alpha 90.000000
_cell_angle_beta 90.000000
_cell_angle_gamma 90.000000
_cell_volume 2891.488122
_symmetry_space_group_name_H-M "P M M M"
_symmetry_group_IT_number 47
_symmetry_cell_setting 'orthorhombic'
loop_
_space_group_symop_operation_xyz
x,y,z
-x,-y,z
x,-y,-z
-x,y,-z
-x,-y,-z
x,y,-z
-x,y,z
x,-y,z
loop_
_atom_site_type_symbol
_atom_site_label
_atom_site_fract_x
_atom_site_fract_y
_atom_site_fract_z
Si Si1 0.650208 0.075798 0.655430
Si Si2 0.267104 0.310915 0.837268
Si Si3 0.601147 0.807909 0.844840
Si Si4 0.106169 0.275171 0.344630
Si Si5 0.000000 0.923811 0.147471
Si Si6 0.853729 0.876585 0.350471
Si Si7 0.398470 0.573875 0.837664
O O1 0.615674 0.085968 0.500000
O O2 0.597835 0.126125 0.753494
O O3 0.755827 0.092038 0.666459
O O4 0.632217 0.000000 0.701866
O O5 0.323812 0.245188 0.795052
O O6 0.169858 0.316232 0.759647
O O7 0.325314 0.373400 0.782933
O O8 0.249684 0.313161 0.000000
O O9 0.500000 0.775349 0.837195
O O10 0.623887 0.829217 0.000000
O O11 0.115068 0.302509 0.500000
O O12 0.146066 0.201855 0.336767
O O13 0.000000 0.277648 0.297719
O O14 0.910605 0.906164 0.228859
O O15 0.000000 0.000000 0.117830
O O16 0.000000 0.886546 0.000000
O O17 0.894166 0.895877 0.500000
O O18 0.500000 0.589834 0.780301
O O19 0.368699 0.500000 0.791102
O O20 0.401881 0.578324 0.000000
#
# Coordination Sequence:
#
# PCOD8195922 Si02
#       7
#     8   8   8   8   4   8   8
#     4  10  21  36  53  71  92 124 170 220 263 306
#     4  10  19  32  54  82 109 137 171 213 256 301
#     4  10  21  35  51  74 104 136 168 206 258 316
#     4  10  20  35  54  75 100 133 173 215 260 311
#     4  11  23  33  45  71 101 125 156 207 270 329
#     4  10  19  35  54  69  90 126 170 214 263 318
#     4   8  14  27  51  84 118 147 174 206 247 298
#
# _framework density 17.983819
#
# number of rings (size 3 to 8) (size 9 to 14) (size 15 to 20)
#    0.000    2.231    2.308    1.615    0.000    5.538 
#    0.000    1.538    0.000    2.308    0.000    4.308 
#    0.000    0.000    0.000    0.000    0.000    0.000 
#
# Total GULP energy -644491.847727 kJ/mol
# GULP energy per Si atom -12394.073995 kJ/mol
# Density = 1.794289 g / cm^3
# Si number density = 17.983819 Si / 1000 Ang^3
#
#
#
# Elastic Constant Matrix: (Units=GPa)
#
#
# Indices 1 2 3 4 5 6 
#
# 1 89.1552 40.7189 45.7489 0.0000 0.0000 0.0000
# 2 40.7189 91.4172 35.4740 0.0000 0.0000 0.0000
# 3 45.7489 35.4740 78.5962 0.0000 0.0000 0.0000
# 4 0.0000 0.0000 0.0000 21.8605 0.0000 0.0000
# 5 0.0000 0.0000 0.0000 0.0000 25.7233 0.0000
# 6 0.0000 0.0000 0.0000 0.0000 0.0000 18.9612
#
#
#
# Elastic Compliance Matrix: (Units=1/GPa)
#
#
# Indices 1 2 3 4 5 6 
#
# 1 0.017487 -0.004655 -0.008078 0.000000 0.000000 0.000000
# 2 -0.004655 0.014500 -0.003835 0.000000 0.000000 0.000000
# 3 -0.008078 -0.003835 0.019156 0.000000 0.000000 0.000000
# 4 0.000000 0.000000 0.000000 0.045745 0.000000 0.000000
# 5 0.000000 0.000000 0.000000 0.000000 0.038875 0.000000
# 6 0.000000 0.000000 0.000000 0.000000 0.000000 0.052739
#
#
# Mechanical properties :
#
#
# Convention : Reuss Voigt Hill
#
# Bulk Modulus (GPa) = 55.53073 55.89468 55.71270
# Shear Modulus (GPa) = 21.96427 22.45744 22.21086
#
# Velocity S-wave (km/s) = 3.49855 3.53761 3.51814
# Velocity P-wave (km/s) = 6.87496 6.91623 6.89562
#
# Compressibility (1/GPa) = 0.01800805
#
# Stress axis : x y z
#
# Youngs Moduli (GPa) = 57.18393 68.96370 52.20170
#
# Poissons Ratio (x) = 0.32099 0.42170
# Poissons Ratio (y) = 0.26616 0.20021
# Poissons Ratio (z) = 0.46194 0.26450
#
# Static dielectric constant tensor:
#      x y z
#    x 3.352560 0.000000 0.000000 
#    y 0.000000 3.291320 0.000000 
#    z 0.000000 0.000000 3.784700 
# 
# 
# High freq. dielectric constant tensor:
#      x y z
#    x 1.701040 0.000000 0.000000 
#    y 0.000000 1.675900 0.000000 
#    z 0.000000 0.000000 1.680920 
# 
# From -- ./inp_files/7070.got.cif
#   From: 2010.03.12/outbox.cif.g09.slc.cpg/sg47_4_cif.got.tgz:7070.got - 2010.04.14 03:12:58.
