data_PCOD8195721
_publ_section_title
;
Structure prediction by ZEFSAII (Michael W. Deem and Ramdas Pophale) SiO2 
 PCOD8195721
Probable space group: P M M M
;
_chemical_formula_sum "Si O2"
_cell_formula_units_Z 64
_cell_length_a 9.357216
_cell_length_b 17.701706
_cell_length_c 20.717171
_cell_angle_alpha 90.000000
_cell_angle_beta 90.000000
_cell_angle_gamma 90.000000
_cell_volume 3431.564995
_symmetry_space_group_name_H-M "P M M M"
_symmetry_group_IT_number 47
_symmetry_cell_setting 'orthorhombic'
loop_
_space_group_symop_operation_xyz
x,y,z
-x,-y,z
x,-y,-z
-x,y,-z
-x,-y,-z
x,y,-z
-x,y,z
x,-y,z
loop_
_atom_site_type_symbol
_atom_site_label
_atom_site_fract_x
_atom_site_fract_y
_atom_site_fract_z
Si Si1 0.844475 0.695599 0.074040
Si Si2 0.837030 0.363597 0.261242
Si Si3 0.661430 0.416791 0.149050
Si Si4 0.663908 0.915283 0.197004
Si Si5 0.335280 0.730186 0.429938
Si Si6 0.331082 0.783306 0.292270
Si Si7 0.833012 0.869094 0.926684
Si Si8 0.162571 0.415472 0.403421
O O1 0.717218 0.644661 0.099348
O O2 0.800666 0.781620 0.085488
O O3 0.000000 0.679076 0.106953
O O4 0.861440 0.677440 0.000000
O O5 0.763913 0.418798 0.210579
O O6 0.751116 0.285113 0.258861
O O7 0.826061 0.408586 0.327076
O O8 0.000000 0.345476 0.242899
O O9 0.500000 0.395628 0.169035
O O10 0.667011 0.500000 0.117225
O O11 0.500000 0.896558 0.180583
O O12 0.717930 0.859301 0.254479
O O13 0.748980 0.912268 0.129476
O O14 0.681189 0.000000 0.224707
O O15 0.309832 0.771089 0.500000
O O16 0.500000 0.710168 0.420133
O O17 0.286457 0.783112 0.369250
O O18 0.256372 0.649854 0.434880
O O19 0.500000 0.771347 0.285314
O O20 0.000000 0.887491 0.919564
O O21 0.784046 0.892135 0.000000
O O22 0.214779 0.500000 0.423422
O O23 0.000000 0.403783 0.426578
#
# Coordination Sequence:
#
# PCOD8195721 Si02
#       8
#     8   8   8   8   8   8   8   8
#     4   9  19  36  55  72  91 120 161 206 249 295
#     4  10  19  32  51  72  94 123 164 209 249 294
#     4  11  23  34  45  66  96 128 163 206 255 302
#     4  10  21  35  52  77 107 136 165 199 242 293
#     4   9  18  32  50  72  97 129 170 211 251 297
#     4   9  18  34  54  74 100 133 166 204 251 300
#     4   9  19  36  56  78 104 133 165 201 242 291
#     4   9  18  31  46  67  97 131 164 201 248 297
#
# _framework density 18.650383000000001
#
# number of rings (size 3 to 8) (size 9 to 14) (size 15 to 20)
#    0.000    2.500    0.000    2.625    0.000    7.000 
#    0.000    5.000    0.000    0.375    0.000    2.625 
#    0.000    0.000    0.000    7.375    0.000    7.750 
#
# Total GULP energy -793047.552044 kJ/mol
# GULP energy per Si atom -12391.368001 kJ/mol
# Density = 1.860793 g / cm^3
# Si number density = 18.650383 Si / 1000 Ang^3
#
#
#
# Elastic Constant Matrix: (Units=GPa)
#
#
# Indices 1 2 3 4 5 6 
#
# 1 57.4879 33.9934 21.3408 0.0000 0.0000 0.0000
# 2 33.9934 82.7285 49.8344 0.0000 0.0000 0.0000
# 3 21.3408 49.8344 85.7930 0.0000 0.0000 0.0000
# 4 0.0000 0.0000 0.0000 6.8718 0.0000 0.0000
# 5 0.0000 0.0000 0.0000 0.0000 18.1615 0.0000
# 6 0.0000 0.0000 0.0000 0.0000 0.0000 20.0959
#
#
#
# Elastic Compliance Matrix: (Units=1/GPa)
#
#
# Indices 1 2 3 4 5 6 
#
# 1 0.022985 -0.009230 -0.000356 0.000000 0.000000 0.000000
# 2 -0.009230 0.022300 -0.010658 0.000000 0.000000 0.000000
# 3 -0.000356 -0.010658 0.017935 0.000000 0.000000 0.000000
# 4 0.000000 0.000000 0.000000 0.145522 0.000000 0.000000
# 5 0.000000 0.000000 0.000000 0.000000 0.055062 0.000000
# 6 0.000000 0.000000 0.000000 0.000000 0.000000 0.049761
#
#
# Mechanical properties :
#
#
# Convention : Reuss Voigt Hill
#
# Bulk Modulus (GPa) = 43.98871 48.48297 46.23584
# Shear Modulus (GPa) = 13.82626 17.08188 15.45407
#
# Velocity S-wave (km/s) = 2.72571 3.02967 2.88170
# Velocity P-wave (km/s) = 5.79164 6.18794 5.99307
#
# Compressibility (1/GPa) = 0.02273311
#
# Stress axis : x y z
#
# Youngs Moduli (GPa) = 43.50653 44.84208 55.75628
#
# Poissons Ratio (x) = 0.41390 0.01985
# Poissons Ratio (y) = 0.40158 0.59423
# Poissons Ratio (z) = 0.01549 0.47791
#
# Static dielectric constant tensor:
#      x y z
#    x 3.408140 0.000000 0.000000 
#    y 0.000000 3.352360 0.000000 
#    z 0.000000 0.000000 3.603410 
# 
# 
# High freq. dielectric constant tensor:
#      x y z
#    x 1.721960 0.000000 0.000000 
#    y 0.000000 1.703350 0.000000 
#    z 0.000000 0.000000 1.729680 
# 
# From -- ./inp_files/9974.got.cif
#   From: 2010.03.12/outbox.cif.g09.slc.cpg/sg47_5_cif.got.tgz:9974.got - 2010.04.14 03:12:58.
