data_PCOD8195977
_publ_section_title
;
Structure prediction by ZEFSAII (Michael W. Deem and Ramdas Pophale) SiO2 
 PCOD8195977
Probable space group: P M M M
;
_chemical_formula_sum "Si O2"
_cell_formula_units_Z 60
_cell_length_a 19.310875
_cell_length_b 9.240968
_cell_length_c 19.484947
_cell_angle_alpha 90.000000
_cell_angle_beta 90.000000
_cell_angle_gamma 90.000000
_cell_volume 3477.111744
_symmetry_space_group_name_H-M "P M M M"
_symmetry_group_IT_number 47
_symmetry_cell_setting 'orthorhombic'
loop_
_space_group_symop_operation_xyz
x,y,z
-x,-y,z
x,-y,-z
-x,y,-z
-x,-y,-z
x,y,-z
-x,y,z
x,-y,z
loop_
_atom_site_type_symbol
_atom_site_label
_atom_site_fract_x
_atom_site_fract_y
_atom_site_fract_z
Si Si1 0.076431 0.344892 0.000000
Si Si2 0.695291 0.170950 0.422507
Si Si3 0.214789 0.336097 0.677783
Si Si4 0.577944 0.170486 0.319524
Si Si5 0.136160 0.171859 0.118756
Si Si6 0.272060 0.334202 0.921671
Si Si7 0.920320 0.665476 0.753454
Si Si8 0.333425 0.335075 0.217918
O O1 0.085621 0.245202 0.065360
O O2 0.119959 0.500000 0.000000
O O3 0.000000 0.400881 0.000000
O O4 0.690871 0.229817 0.500000
O O5 0.762710 0.235307 0.385254
O O6 0.625693 0.221439 0.383073
O O7 0.702872 0.000000 0.421280
O O8 0.230858 0.500000 0.656215
O O9 0.132311 0.315140 0.689520
O O10 0.258940 0.297111 0.746782
O O11 0.500000 0.224412 0.333845
O O12 0.605852 0.237185 0.248731
O O13 0.580617 0.000000 0.310596
O O14 0.212156 0.224276 0.098478
O O15 0.108250 0.221414 0.191929
O O16 0.133551 0.000000 0.114423
O O17 0.245998 0.500000 0.914619
O O18 0.331286 0.306851 0.864407
O O19 0.298069 0.303981 0.000000
O O20 0.915084 0.500000 0.781291
O O21 0.000000 0.700835 0.732245
O O22 0.353106 0.500000 0.233467
#
# Coordination Sequence:
#
# PCOD8195977 Si02
#       8
#     4   8   8   8   8   8   8   8
#     4  11  23  37  49  59  83 129 172 203 250 317
#     4   9  18  32  51  77 107 138 168 198 240 294
#     4   9  17  31  51  74  98 127 168 212 251 294
#     4   9  18  32  51  77 107 138 168 198 240 294
#     4  12  23  32  46  70  97 123 158 210 264 311
#     4  10  19  33  53  71  94 130 170 210 257 310
#     4  10  20  35  53  70  93 129 170 210 257 310
#     4   9  17  31  51  74  98 127 168 212 251 294
#
# _framework density 17.255700999999998
#
# number of rings (size 3 to 8) (size 9 to 14) (size 15 to 20)
#    0.000    2.200    2.000    1.800    0.000    4.267 
#    0.000    1.333    0.000    0.800    0.000    9.333 
#    0.000    0.000    0.000    0.000    0.000    0.000 
#
# Total GULP energy -743579.165006 kJ/mol
# GULP energy per Si atom -12392.986083 kJ/mol
# Density = 1.721643 g / cm^3
# Si number density = 17.255701 Si / 1000 Ang^3
#
#
#
# Elastic Constant Matrix: (Units=GPa)
#
#
# Indices 1 2 3 4 5 6 
#
# 1 83.2190 35.8456 59.7593 0.0000 0.0000 0.0000
# 2 35.8456 73.8891 42.9850 0.0000 0.0000 0.0000
# 3 59.7593 42.9850 123.9921 0.0000 0.0000 0.0000
# 4 0.0000 0.0000 0.0000 26.7344 0.0000 0.0000
# 5 0.0000 0.0000 0.0000 0.0000 18.8468 0.0000
# 6 0.0000 0.0000 0.0000 0.0000 0.0000 27.4609
#
#
#
# Elastic Compliance Matrix: (Units=1/GPa)
#
#
# Indices 1 2 3 4 5 6 
#
# 1 0.019787 -0.005075 -0.007777 0.000000 0.000000 0.000000
# 2 -0.005075 0.018254 -0.003882 0.000000 0.000000 0.000000
# 3 -0.007777 -0.003882 0.013159 0.000000 0.000000 0.000000
# 4 0.000000 0.000000 0.000000 0.037405 0.000000 0.000000
# 5 0.000000 0.000000 0.000000 0.000000 0.053059 0.000000
# 6 0.000000 0.000000 0.000000 0.000000 0.000000 0.036415
#
#
# Mechanical properties :
#
#
# Convention : Reuss Voigt Hill
#
# Bulk Modulus (GPa) = 56.39630 62.03111 59.21371
# Shear Modulus (GPa) = 22.99265 24.10911 23.55088
#
# Velocity S-wave (km/s) = 3.65426 3.74193 3.69835
# Velocity P-wave (km/s) = 7.11045 7.39565 7.25445
#
# Compressibility (1/GPa) = 0.01773166
#
# Stress axis : x y z
#
# Youngs Moduli (GPa) = 50.53730 54.78140 75.99152
#
# Poissons Ratio (x) = 0.27801 0.59102
# Poissons Ratio (y) = 0.25647 0.29503
# Poissons Ratio (z) = 0.39305 0.21269
#
# Static dielectric constant tensor:
#      x y z
#    x 3.165000 0.000000 0.000000 
#    y 0.000000 3.161770 0.000000 
#    z 0.000000 0.000000 3.269910 
# 
# 
# High freq. dielectric constant tensor:
#      x y z
#    x 1.646140 0.000000 0.000000 
#    y 0.000000 1.665340 0.000000 
#    z 0.000000 0.000000 1.652870 
# 
# From -- ./inp_files/28789.got.cif
#   From: 2010.03.12/outbox.cif.g09.slc.cpg/sg47_15_cif.got.tgz:28789.got - 2010.04.14 03:12:58.
