data_PCOD8195442
_publ_section_title
;
Structure prediction by ZEFSAII (Michael W. Deem and Ramdas Pophale) SiO2 
 PCOD8195442
Probable space group: P M M M
;
_chemical_formula_sum "Si O2"
_cell_formula_units_Z 64
_cell_length_a 20.203048
_cell_length_b 17.854198
_cell_length_c 9.165183
_cell_angle_alpha 90.000000
_cell_angle_beta 90.000000
_cell_angle_gamma 90.000000
_cell_volume 3305.966004
_symmetry_space_group_name_H-M "P M M M"
_symmetry_group_IT_number 47
_symmetry_cell_setting 'orthorhombic'
loop_
_space_group_symop_operation_xyz
x,y,z
-x,-y,z
x,-y,-z
-x,y,-z
-x,-y,-z
x,y,-z
-x,y,z
x,-y,z
loop_
_atom_site_type_symbol
_atom_site_label
_atom_site_fract_x
_atom_site_fract_y
_atom_site_fract_z
Si Si1 0.371066 0.084405 0.333624
Si Si2 0.927246 0.243162 0.668980
Si Si3 0.576889 0.358412 0.672332
Si Si4 0.757486 0.876171 0.168153
Si Si5 0.117414 0.081912 0.334543
Si Si6 0.424692 0.785639 0.158989
Si Si7 0.302826 0.416194 0.167614
Si Si8 0.798436 0.709637 0.168583
O O1 0.370607 0.112568 0.500000
O O2 0.298283 0.088941 0.268697
O O3 0.419432 0.135204 0.238450
O O4 0.397828 0.000000 0.323802
O O5 0.915153 0.259685 0.500000
O O6 0.929010 0.153156 0.698342
O O7 0.869715 0.287500 0.752953
O O8 0.000000 0.272593 0.717911
O O9 0.585449 0.356688 0.500000
O O10 0.500000 0.377263 0.712520
O O11 0.602736 0.279427 0.737210
O O12 0.628153 0.416993 0.741971
O O13 0.824159 0.915765 0.217858
O O14 0.759290 0.786886 0.194580
O O15 0.744366 0.895779 0.000000
O O16 0.145164 0.088982 0.500000
O O17 0.081694 0.000000 0.316138
O O18 0.500000 0.768094 0.128736
O O19 0.387705 0.786517 0.000000
O O20 0.273266 0.500000 0.180509
O O21 0.247612 0.358049 0.229144
O O22 0.319621 0.395773 0.000000
O O23 0.814439 0.696363 0.000000
#
# Coordination Sequence:
#
# PCOD8195442 Si02
#       8
#     8   8   8   8   8   8   8   8
#     4  11  23  35  48  69  98 132 171 218 271 322
#     4   9  18  32  51  76 103 134 176 221 264 315
#     4  10  21  37  58  84 114 147 180 214 256 312
#     4  10  19  31  49  71  96 129 171 216 259 309
#     4   9  17  29  45  67  99 136 170 209 260 313
#     4  10  21  37  56  75  96 127 170 217 262 311
#     4  10  21  37  58  84 113 144 179 220 264 312
#     4   9  19  35  54  77 104 135 173 217 265 317
#
# _framework density 19.35894
#
# number of rings (size 3 to 8) (size 9 to 14) (size 15 to 20)
#    0.000    2.250    0.000    2.625    0.000    7.500 
#    0.000    3.750    0.000    0.375    0.000    6.125 
#    0.000    0.000    0.000    0.000    0.000    0.000 
#
# Total GULP energy -793231.721524 kJ/mol
# GULP energy per Si atom -12394.245649 kJ/mol
# Density = 1.931488 g / cm^3
# Si number density = 19.358940 Si / 1000 Ang^3
#
#
#
# Elastic Constant Matrix: (Units=GPa)
#
#
# Indices 1 2 3 4 5 6 
#
# 1 81.5987 36.7511 35.7941 0.0000 0.0000 0.0000
# 2 36.7511 91.9795 33.5838 0.0000 0.0000 0.0000
# 3 35.7941 33.5838 88.8141 0.0000 0.0000 0.0000
# 4 0.0000 0.0000 0.0000 23.6321 0.0000 0.0000
# 5 0.0000 0.0000 0.0000 0.0000 28.8227 0.0000
# 6 0.0000 0.0000 0.0000 0.0000 0.0000 5.3694
#
#
#
# Elastic Compliance Matrix: (Units=1/GPa)
#
#
# Indices 1 2 3 4 5 6 
#
# 1 0.016563 -0.004850 -0.004841 0.000000 0.000000 0.000000
# 2 -0.004850 0.014034 -0.003352 0.000000 0.000000 0.000000
# 3 -0.004841 -0.003352 0.014478 0.000000 0.000000 0.000000
# 4 0.000000 0.000000 0.000000 0.042315 0.000000 0.000000
# 5 0.000000 0.000000 0.000000 0.000000 0.034695 0.000000
# 6 0.000000 0.000000 0.000000 0.000000 0.000000 0.186242
#
#
# Mechanical properties :
#
#
# Convention : Reuss Voigt Hill
#
# Bulk Modulus (GPa) = 52.66436 52.73893 52.70164
# Shear Modulus (GPa) = 14.67378 21.98238 18.32808
#
# Velocity S-wave (km/s) = 2.75614 3.37340 3.08027
# Velocity P-wave (km/s) = 6.11487 6.51728 6.31928
#
# Compressibility (1/GPa) = 0.01898817
#
# Stress axis : x y z
#
# Youngs Moduli (GPa) = 60.37442 71.25641 69.06982
#
# Poissons Ratio (x) = 0.34562 0.33439
# Poissons Ratio (y) = 0.29284 0.23152
# Poissons Ratio (z) = 0.29229 0.23884
#
# Static dielectric constant tensor:
#      x y z
#    x 3.408020 0.000000 0.000000 
#    y 0.000000 3.493550 0.000000 
#    z 0.000000 0.000000 3.603880 
# 
# 
# High freq. dielectric constant tensor:
#      x y z
#    x 1.737980 0.000000 0.000000 
#    y 0.000000 1.740610 0.000000 
#    z 0.000000 0.000000 1.756400 
# 
# From -- ./inp_files/9923.got.cif
#   From: 2010.03.12/outbox.cif.g09.slc.cpg/sg47_5_cif.got.tgz:9923.got - 2010.04.14 03:12:58.
