data_PCOD8195188
_publ_section_title
;
Structure prediction by ZEFSAII (Michael W. Deem and Ramdas Pophale) SiO2 
 PCOD8195188
Probable space group: P M M M
;
_chemical_formula_sum "Si O2"
_cell_formula_units_Z 64
_cell_length_a 15.237748
_cell_length_b 9.070743
_cell_length_c 24.880502
_cell_angle_alpha 90.000000
_cell_angle_beta 90.000000
_cell_angle_gamma 90.000000
_cell_volume 3438.925662
_symmetry_space_group_name_H-M "P M M M"
_symmetry_group_IT_number 47
_symmetry_cell_setting 'orthorhombic'
loop_
_space_group_symop_operation_xyz
x,y,z
-x,-y,z
x,-y,-z
-x,y,-z
-x,-y,-z
x,y,-z
-x,y,z
x,-y,z
loop_
_atom_site_type_symbol
_atom_site_label
_atom_site_fract_x
_atom_site_fract_y
_atom_site_fract_z
Si Si1 0.401013 0.330831 0.648719
Si Si2 0.270072 0.324964 0.440689
Si Si3 0.904575 0.332376 0.385332
Si Si4 0.730466 0.824753 0.140379
Si Si5 0.400217 0.330984 0.062979
Si Si6 0.673804 0.165020 0.743552
Si Si7 0.901912 0.328005 0.829741
Si Si8 0.870885 0.833047 0.279514
O O1 0.500000 0.310406 0.628231
O O2 0.375488 0.500000 0.656650
O O3 0.338176 0.259214 0.603154
O O4 0.392455 0.258916 0.707557
O O5 0.290989 0.260125 0.500000
O O6 0.279360 0.500000 0.442507
O O7 0.171079 0.276727 0.425482
O O8 0.883568 0.500000 0.367250
O O9 0.911624 0.231194 0.333216
O O10 0.000000 0.323706 0.414357
O O11 0.668222 0.775423 0.092126
O O12 0.684864 0.771666 0.196010
O O13 0.827545 0.753562 0.134543
O O14 0.742862 0.000000 0.140282
O O15 0.500000 0.288563 0.079050
O O16 0.381393 0.500000 0.079026
O O17 0.386569 0.307910 0.000000
O O18 0.766654 0.170561 0.713859
O O19 0.636223 0.000000 0.746673
O O20 0.878327 0.500000 0.827693
O O21 0.902868 0.264843 0.769841
O O22 0.000000 0.303965 0.854516
O O23 0.903944 0.000000 0.270427
#
# Coordination Sequence:
#
# PCOD8195188 Si02
#       8
#     8   8   8   8   8   8   8   8
#     4  10  20  33  52  76  97 124 164 207 256 313
#     4   9  18  33  51  71  97 126 159 209 263 307
#     4  10  19  30  48  73  97 126 164 202 249 311
#     4  10  21  35  54  83 115 149 187 227 275 326
#     4   9  19  37  60  85 114 150 192 236 280 325
#     4   9  19  34  50  72 104 139 170 203 252 309
#     4  10  20  33  51  77 110 148 187 225 267 318
#     4  10  19  31  49  73 102 136 171 209 256 310
#
# _framework density 18.610462999999999
#
# number of rings (size 3 to 8) (size 9 to 14) (size 15 to 20)
#    0.000    2.375    1.250    2.625    0.000    7.000 
#    0.000    5.625    0.000    1.875    0.000    4.375 
#    0.000    0.000    0.000    0.000    0.000    0.000 
#
# Total GULP energy -793386.591543 kJ/mol
# GULP energy per Si atom -12396.665493 kJ/mol
# Density = 1.856810 g / cm^3
# Si number density = 18.610463 Si / 1000 Ang^3
#
#
#
# Elastic Constant Matrix: (Units=GPa)
#
#
# Indices 1 2 3 4 5 6 
#
# 1 108.7269 43.1793 50.6400 0.0000 0.0000 0.0000
# 2 43.1793 74.2748 32.7648 0.0000 0.0000 0.0000
# 3 50.6400 32.7648 75.0010 0.0000 0.0000 0.0000
# 4 0.0000 0.0000 0.0000 15.1197 0.0000 0.0000
# 5 0.0000 0.0000 0.0000 0.0000 19.7098 0.0000
# 6 0.0000 0.0000 0.0000 0.0000 0.0000 17.2128
#
#
#
# Elastic Compliance Matrix: (Units=1/GPa)
#
#
# Indices 1 2 3 4 5 6 
#
# 1 0.014894 -0.005230 -0.007771 0.000000 0.000000 0.000000
# 2 -0.005230 0.018514 -0.004557 0.000000 0.000000 0.000000
# 3 -0.007771 -0.004557 0.020571 0.000000 0.000000 0.000000
# 4 0.000000 0.000000 0.000000 0.066139 0.000000 0.000000
# 5 0.000000 0.000000 0.000000 0.000000 0.050736 0.000000
# 6 0.000000 0.000000 0.000000 0.000000 0.000000 0.058096
#
#
# Mechanical properties :
#
#
# Convention : Reuss Voigt Hill
#
# Bulk Modulus (GPa) = 53.01533 56.79676 54.90604
# Shear Modulus (GPa) = 18.49421 19.16970 18.83196
#
# Velocity S-wave (km/s) = 3.15581 3.21292 3.18449
# Velocity P-wave (km/s) = 6.46742 6.65949 6.56416
#
# Compressibility (1/GPa) = 0.01886247
#
# Stress axis : x y z
#
# Youngs Moduli (GPa) = 67.14068 54.01255 48.61231
#
# Poissons Ratio (x) = 0.28251 0.37779
# Poissons Ratio (y) = 0.35117 0.22150
# Poissons Ratio (z) = 0.52178 0.24611
#
# Static dielectric constant tensor:
#      x y z
#    x 3.530320 0.000000 0.000000 
#    y 0.000000 3.286990 0.000000 
#    z 0.000000 0.000000 3.224620 
# 
# 
# High freq. dielectric constant tensor:
#      x y z
#    x 1.731680 0.000000 0.000000 
#    y 0.000000 1.707340 0.000000 
#    z 0.000000 0.000000 1.696620 
# 
# From -- ./inp_files/21937.got.cif
#   From: 2010.03.12/outbox.cif.g09.slc.cpg/sg47_11_cif.got.tgz:21937.got - 2010.04.14 03:12:58.
