data_PCOD8195589
_publ_section_title
;
Structure prediction by ZEFSAII (Michael W. Deem and Ramdas Pophale) SiO2 
 PCOD8195589
Probable space group: P M M M
;
_chemical_formula_sum "Si O2"
_cell_formula_units_Z 44
_cell_length_a 15.226379
_cell_length_b 8.823677
_cell_length_c 17.988792
_cell_angle_alpha 90.000000
_cell_angle_beta 90.000000
_cell_angle_gamma 90.000000
_cell_volume 2416.841879
_symmetry_space_group_name_H-M "P M M M"
_symmetry_group_IT_number 47
_symmetry_cell_setting 'orthorhombic'
loop_
_space_group_symop_operation_xyz
x,y,z
-x,-y,z
x,-y,-z
-x,y,-z
-x,-y,-z
x,y,-z
-x,y,z
x,-y,z
loop_
_atom_site_type_symbol
_atom_site_label
_atom_site_fract_x
_atom_site_fract_y
_atom_site_fract_z
Si Si1 0.664482 0.672445 0.147207
Si Si2 0.597864 0.179705 0.583145
Si Si3 0.735314 0.819834 0.705747
Si Si4 0.846553 0.326341 0.080523
Si Si5 0.500000 0.177094 0.081069
Si Si6 0.900651 0.677699 0.239796
O O1 0.632473 0.500000 0.154220
O O2 0.696893 0.730905 0.225496
O O3 0.741468 0.688098 0.086762
O O4 0.585001 0.777327 0.125628
O O5 0.615667 0.242185 0.500000
O O6 0.500000 0.234153 0.610058
O O7 0.677376 0.236471 0.635528
O O8 0.598265 0.000000 0.582205
O O9 0.837603 0.766830 0.702001
O O10 0.730036 0.000000 0.715879
O O11 0.876199 0.500000 0.077527
O O12 0.891103 0.255634 0.154872
O O13 0.873788 0.251255 0.000000
O O14 0.500000 0.000000 0.072149
O O15 0.500000 0.255886 0.000000
O O16 0.874570 0.500000 0.239532
O O17 0.000000 0.703132 0.267112
#
# Coordination Sequence:
#
# PCOD8195589 Si02
#       6
#     8   8   8   8   4   8
#     4  10  20  33  48  68  96 133 171 204 246 306
#     4   8  15  29  50  77 106 133 161 197 246 304
#     4  10  19  31  52  78 102 130 164 207 253 301
#     4   8  14  26  45  67  89 115 156 208 251 289
#     4  11  23  35  47  67  96 129 170 221 267 300
#     4   9  18  32  49  70  98 132 169 210 258 309
#
# _framework density 18.205576000000001
#
# number of rings (size 3 to 8) (size 9 to 14) (size 15 to 20)
#    0.000    2.818    0.000    3.545    1.273    2.182 
#    0.000    1.818    0.000    7.636    0.000   14.000 
#    0.000    0.000    0.000    0.000    0.000    0.000 
#
# Total GULP energy -545135.734517 kJ/mol
# GULP energy per Si atom -12389.448512 kJ/mol
# Density = 1.816414 g / cm^3
# Si number density = 18.205576 Si / 1000 Ang^3
#
#
#
# Elastic Constant Matrix: (Units=GPa)
#
#
# Indices 1 2 3 4 5 6 
#
# 1 108.2415 15.2912 44.3590 0.0000 0.0000 0.0000
# 2 15.2912 36.7767 11.4888 0.0000 0.0000 0.0000
# 3 44.3590 11.4888 85.1216 0.0000 0.0000 0.0000
# 4 0.0000 0.0000 0.0000 13.9804 0.0000 0.0000
# 5 0.0000 0.0000 0.0000 0.0000 -65.8532 0.0000
# 6 0.0000 0.0000 0.0000 0.0000 0.0000 30.6941
#
#
#
# Elastic Compliance Matrix: (Units=1/GPa)
#
#
# Indices 1 2 3 4 5 6 
#
# 1 0.012097 -0.003195 -0.005873 0.000000 0.000000 0.000000
# 2 -0.003195 0.029232 -0.002280 0.000000 0.000000 0.000000
# 3 -0.005873 -0.002280 0.015116 0.000000 0.000000 0.000000
# 4 0.000000 0.000000 0.000000 0.071529 0.000000 0.000000
# 5 0.000000 0.000000 0.000000 0.000000 -0.015185 0.000000
# 6 0.000000 0.000000 0.000000 0.000000 0.000000 0.032580
#
#
# Mechanical properties :
#
#
# Convention : Reuss Voigt Hill
#
# Bulk Modulus (GPa) = 29.63091 41.37976 35.50534
# Shear Modulus (GPa) = 27.88417 6.36431 17.12424
#
# Velocity S-wave (km/s) = 3.91785 1.87174 3.07025
# Velocity P-wave (km/s) = 6.06441 5.23925 5.66687
#
# Compressibility (1/GPa) = 0.03374854
#
# Stress axis : x y z
#
# Youngs Moduli (GPa) = 82.66748 34.20909 66.15471
#
# Poissons Ratio (x) = 0.10930 0.38850
# Poissons Ratio (y) = 0.26412 0.15086
# Poissons Ratio (z) = 0.48548 0.07801
#
# Static dielectric constant tensor:
#      x y z
#    x 3.792590 0.000000 0.000000 
#    y 0.000000 3.096450 0.000000 
#    z 0.000000 0.000000 3.497270 
# 
# 
# High freq. dielectric constant tensor:
#      x y z
#    x 1.710200 0.000000 0.000000 
#    y 0.000000 1.670530 0.000000 
#    z 0.000000 0.000000 1.688990 
# 
# From -- ./inp_files/8957.got.cif
#   From: 2010.03.12/outbox.cif.g09.slc.cpg/sg47_5_cif.got.tgz:8957.got - 2010.04.14 03:12:58.
