data_PCOD8195976
_publ_section_title
;
Structure prediction by ZEFSAII (Michael W. Deem and Ramdas Pophale) SiO2 
 PCOD8195976
Probable space group: P M M M
;
_chemical_formula_sum "Si O2"
_cell_formula_units_Z 52
_cell_length_a 9.227171
_cell_length_b 11.814092
_cell_length_c 28.609310
_cell_angle_alpha 90.000000
_cell_angle_beta 90.000000
_cell_angle_gamma 90.000000
_cell_volume 3118.719396
_symmetry_space_group_name_H-M "P M M M"
_symmetry_group_IT_number 47
_symmetry_cell_setting 'orthorhombic'
loop_
_space_group_symop_operation_xyz
x,y,z
-x,-y,z
x,-y,-z
-x,y,-z
-x,-y,-z
x,y,-z
-x,y,z
x,-y,z
loop_
_atom_site_type_symbol
_atom_site_label
_atom_site_fract_x
_atom_site_fract_y
_atom_site_fract_z
Si Si1 0.833275 0.714818 0.053228
Si Si2 0.337447 0.864717 0.400085
Si Si3 0.169856 0.128486 0.689400
Si Si4 0.672140 0.500000 0.197989
Si Si5 0.327369 0.124481 0.500000
Si Si6 0.329175 0.500000 0.910504
Si Si7 0.170951 0.125383 0.864831
Si Si8 0.828059 0.274801 0.221492
O O1 0.733810 0.608449 0.063756
O O2 0.785049 0.819004 0.085861
O O3 0.000000 0.680788 0.063193
O O4 0.811426 0.754269 0.000000
O O5 0.500000 0.822661 0.389834
O O6 0.238468 0.820247 0.357871
O O7 0.281970 0.815048 0.450775
O O8 0.332235 0.000000 0.403262
O O9 0.216805 0.205669 0.732598
O O10 0.000000 0.130345 0.682280
O O11 0.223854 0.000000 0.698883
O O12 0.500000 0.500000 0.205054
O O13 0.716449 0.500000 0.143610
O O14 0.741731 0.391698 0.222894
O O15 0.500000 0.113055 0.500000
O O16 0.256425 0.000000 0.500000
O O17 0.500000 0.500000 0.916786
O O18 0.228931 0.202911 0.822748
O O19 0.000000 0.114233 0.859860
O O20 0.241044 0.000000 0.862132
O O21 0.000000 0.297860 0.218801
#
# Coordination Sequence:
#
# PCOD8195976 Si02
#       8
#     8   8   8   4   4   4   8   8
#     4  10  20  33  52  77 100 122 153 193 230 269
#     4   8  13  22  37  57  84 122 163 197 230 267
#     4   9  17  28  43  67  97 124 154 192 230 274
#     4  11  23  36  52  73  94 115 149 198 239 272
#     4   7  10  18  33  53  79 116 163 202 225 259
#     4  11  22  36  53  72  96 124 153 189 235 282
#     4   9  17  30  50  74  97 122 153 187 224 269
#     4  10  19  33  53  71  91 123 157 187 228 282
#
# _framework density 16.673508999999999
#
# number of rings (size 3 to 8) (size 9 to 14) (size 15 to 20)
#    0.000    2.692    1.538    2.077    0.000    4.615 
#    0.000    1.923    0.000    5.077    0.000    1.077 
#    0.000    0.615    0.000    6.923    0.000    4.923 
#
# Total GULP energy -644524.050531 kJ/mol
# GULP energy per Si atom -12394.693279 kJ/mol
# Density = 1.663556 g / cm^3
# Si number density = 16.673509 Si / 1000 Ang^3
#
#
#
# Elastic Constant Matrix: (Units=GPa)
#
#
# Indices 1 2 3 4 5 6 
#
# 1 35.0264 30.4888 41.7848 0.0000 0.0000 0.0000
# 2 30.4888 100.1235 58.3946 0.0000 0.0000 0.0000
# 3 41.7848 58.3946 163.3612 0.0000 0.0000 0.0000
# 4 0.0000 0.0000 0.0000 17.7593 0.0000 0.0000
# 5 0.0000 0.0000 0.0000 0.0000 25.5828 0.0000
# 6 0.0000 0.0000 0.0000 0.0000 0.0000 6.0934
#
#
#
# Elastic Compliance Matrix: (Units=1/GPa)
#
#
# Indices 1 2 3 4 5 6 
#
# 1 0.046978 -0.009219 -0.008721 0.000000 0.000000 0.000000
# 2 -0.009219 0.014428 -0.002799 0.000000 0.000000 0.000000
# 3 -0.008721 -0.002799 0.009353 0.000000 0.000000 0.000000
# 4 0.000000 0.000000 0.000000 0.056309 0.000000 0.000000
# 5 0.000000 0.000000 0.000000 0.000000 0.039089 0.000000
# 6 0.000000 0.000000 0.000000 0.000000 0.000000 0.164113
#
#
# Mechanical properties :
#
#
# Convention : Reuss Voigt Hill
#
# Bulk Modulus (GPa) = 34.15279 62.20527 48.17903
# Shear Modulus (GPa) = 13.10592 21.07662 17.09127
#
# Velocity S-wave (km/s) = 2.80667 3.55924 3.20512
# Velocity P-wave (km/s) = 5.57054 7.36748 6.53111
#
# Compressibility (1/GPa) = 0.02928018
#
# Stress axis : x y z
#
# Youngs Moduli (GPa) = 21.28648 69.31180 106.92272
#
# Poissons Ratio (x) = 0.63901 0.93244
# Poissons Ratio (y) = 0.19625 0.29929
# Poissons Ratio (z) = 0.18563 0.19401
#
# Static dielectric constant tensor:
#      x y z
#    x 2.891780 0.000000 0.000000 
#    y 0.000000 3.139380 0.000000 
#    z 0.000000 0.000000 3.483920 
# 
# 
# High freq. dielectric constant tensor:
#      x y z
#    x 1.615460 0.000000 0.000000 
#    y 0.000000 1.607000 0.000000 
#    z 0.000000 0.000000 1.658070 
# 
# From -- ./inp_files/34353.got.cif
#   From: 2010.03.12/outbox.cif.g09.slc.cpg/sg47_18_cif.got.tgz:34353.got - 2010.04.14 03:12:58.
