data_PCOD8195309
_publ_section_title
;
Structure prediction by ZEFSAII (Michael W. Deem and Ramdas Pophale) SiO2 
 PCOD8195309
Probable space group: P M M M
;
_chemical_formula_sum "Si O2"
_cell_formula_units_Z 52
_cell_length_a 9.374182
_cell_length_b 22.419165
_cell_length_c 15.443309
_cell_angle_alpha 90.000000
_cell_angle_beta 90.000000
_cell_angle_gamma 90.000000
_cell_volume 3245.586405
_symmetry_space_group_name_H-M "P M M M"
_symmetry_group_IT_number 47
_symmetry_cell_setting 'orthorhombic'
loop_
_space_group_symop_operation_xyz
x,y,z
-x,-y,z
x,-y,-z
-x,y,-z
-x,-y,-z
x,y,-z
-x,y,z
x,-y,z
loop_
_atom_site_type_symbol
_atom_site_label
_atom_site_fract_x
_atom_site_fract_y
_atom_site_fract_z
Si Si1 0.834600 0.776727 0.763040
Si Si2 0.661256 0.064370 0.642971
Si Si3 0.168468 0.678747 0.900643
Si Si4 0.659586 0.565448 0.897373
Si Si5 0.334881 0.805456 0.405000
Si Si6 0.655459 0.000000 0.901235
Si Si7 0.165516 0.089713 0.806267
O O1 0.778200 0.729117 0.833479
O O2 0.753042 0.772980 0.671069
O O3 0.807430 0.839818 0.808495
O O4 0.000000 0.766547 0.741530
O O5 0.500000 0.070813 0.679599
O O6 0.695639 0.123182 0.587034
O O7 0.775633 0.060923 0.718968
O O8 0.674615 0.000000 0.592645
O O9 0.234065 0.616866 0.865367
O O10 0.000000 0.672353 0.897756
O O11 0.217439 0.693418 0.000000
O O12 0.500000 0.579477 0.863546
O O13 0.708860 0.500000 0.862673
O O14 0.659948 0.563901 0.000000
O O15 0.292828 0.779352 0.500000
O O16 0.500000 0.793121 0.385189
O O17 0.746241 0.940448 0.882843
O O18 0.500000 0.000000 0.852748
O O19 0.620622 0.000000 0.000000
O O20 0.000000 0.073890 0.815800
#
# Coordination Sequence:
#
# PCOD8195309 Si02
#       7
#     8   8   8   8   8   4   8
#     4   9  19  33  48  67  91 120 150 186 231 272
#     4   9  16  27  45  64  84 109 132 165 216 272
#     4   9  17  29  45  66  93 124 158 192 222 259
#     4   8  14  25  41  63  93 126 156 186 220 257
#     4   9  18  31  46  66  90 116 149 186 224 273
#     4  11  23  35  45  59  80 105 138 183 231 276
#     4  10  19  31  47  63  80 106 141 180 222 270
#
# _framework density 16.021757999999998
#
# number of rings (size 3 to 8) (size 9 to 14) (size 15 to 20)
#    0.000    2.846    0.769    1.154    0.000    3.385 
#    0.000    4.615    0.000    1.846    0.000    4.308 
#    0.000    0.615    0.000    6.769    0.000    5.231 
#
# Total GULP energy -644184.098091 kJ/mol
# GULP energy per Si atom -12388.155733 kJ/mol
# Density = 1.598529 g / cm^3
# Si number density = 16.021758 Si / 1000 Ang^3
#
#
#
# Elastic Constant Matrix: (Units=GPa)
#
#
# Indices 1 2 3 4 5 6 
#
# 1 70.7732 40.2765 39.9351 0.0000 0.0000 0.0000
# 2 40.2765 101.7899 47.7735 0.0000 0.0000 0.0000
# 3 39.9351 47.7735 83.8633 0.0000 0.0000 0.0000
# 4 0.0000 0.0000 0.0000 -7.1718 0.0000 0.0000
# 5 0.0000 0.0000 0.0000 0.0000 17.9819 0.0000
# 6 0.0000 0.0000 0.0000 0.0000 0.0000 7.3095
#
#
#
# Elastic Compliance Matrix: (Units=1/GPa)
#
#
# Indices 1 2 3 4 5 6 
#
# 1 0.020992 -0.004934 -0.007186 0.000000 0.000000 0.000000
# 2 -0.004934 0.014569 -0.005950 0.000000 0.000000 0.000000
# 3 -0.007186 -0.005950 0.018735 0.000000 0.000000 0.000000
# 4 0.000000 0.000000 0.000000 -0.139434 0.000000 0.000000
# 5 0.000000 0.000000 0.000000 0.000000 0.055611 0.000000
# 6 0.000000 0.000000 0.000000 0.000000 0.000000 0.136809
#
#
# Mechanical properties :
#
#
# Convention : Reuss Voigt Hill
#
# Bulk Modulus (GPa) = 55.07328 56.93297 56.00313
# Shear Modulus (GPa) = 33.45075 12.18667 22.81871
#
# Velocity S-wave (km/s) = 4.57424 2.76095 3.77799
# Velocity P-wave (km/s) = 7.89600 6.76577 7.35264
#
# Compressibility (1/GPa) = 0.01815762
#
# Stress axis : x y z
#
# Youngs Moduli (GPa) = 47.63708 68.63986 53.37498
#
# Poissons Ratio (x) = 0.33865 0.38354
# Poissons Ratio (y) = 0.23503 0.31757
# Poissons Ratio (z) = 0.34231 0.40840
#
# Static dielectric constant tensor:
#      x y z
#    x 3.105190 0.000000 0.000000 
#    y 0.000000 3.276260 0.000000 
#    z 0.000000 0.000000 2.836020 
# 
# 
# High freq. dielectric constant tensor:
#      x y z
#    x 1.619300 0.000000 0.000000 
#    y 0.000000 1.600060 0.000000 
#    z 0.000000 0.000000 1.583920 
# 
# From -- ./inp_files/21738.got.cif
#   From: 2010.03.12/outbox.cif.g09.slc.cpg/sg47_11_cif.got.tgz:21738.got - 2010.04.14 03:12:58.
