data_PCOD8195814
_publ_section_title
;
Structure prediction by ZEFSAII (Michael W. Deem and Ramdas Pophale) SiO2 
 PCOD8195814
Probable space group: P M M M
;
_chemical_formula_sum "Si O2"
_cell_formula_units_Z 44
_cell_length_a 9.641436
_cell_length_b 7.763117
_cell_length_c 31.742864
_cell_angle_alpha 90.000000
_cell_angle_beta 90.000000
_cell_angle_gamma 90.000000
_cell_volume 2375.877052
_symmetry_space_group_name_H-M "P M M M"
_symmetry_group_IT_number 47
_symmetry_cell_setting 'orthorhombic'
loop_
_space_group_symop_operation_xyz
x,y,z
-x,-y,z
x,-y,-z
-x,y,-z
-x,-y,-z
x,y,-z
-x,y,z
x,-y,z
loop_
_atom_site_type_symbol
_atom_site_label
_atom_site_fract_x
_atom_site_fract_y
_atom_site_fract_z
Si Si1 0.345192 0.795881 0.546399
Si Si2 0.658306 0.303482 0.089964
Si Si3 0.837262 0.198512 0.623657
Si Si4 0.835860 0.500000 0.684482
Si Si5 0.664311 0.193393 0.000000
Si Si6 0.158761 0.191719 0.163774
Si Si7 0.835300 0.500000 0.221738
O O1 0.301365 0.725913 0.500000
O O2 0.500000 0.729384 0.557550
O O3 0.237788 0.732174 0.581580
O O4 0.344570 0.000000 0.545299
O O5 0.500000 0.234922 0.092439
O O6 0.667127 0.500000 0.104291
O O7 0.717593 0.286293 0.042395
O O8 0.752364 0.193261 0.121181
O O9 0.787606 0.324769 0.661107
O O10 0.000000 0.215439 0.615279
O O11 0.797520 0.000000 0.634869
O O12 0.770416 0.500000 0.731353
O O13 0.000000 0.500000 0.687563
O O14 0.500000 0.201117 0.000000
O O15 0.721184 0.000000 0.000000
O O16 0.216987 0.328789 0.197574
O O17 0.000000 0.236851 0.152103
O O18 0.169720 0.000000 0.183461
O O19 0.000000 0.500000 0.224813
#
# Coordination Sequence:
#
# PCOD8195814 Si02
#       7
#     8   8   8   4   4   8   4
#     4   8  14  26  45  68  95 129 165 197 233 281
#     4  10  19  32  52  76 103 136 171 206 247 295
#     4   9  17  29  47  71  96 123 158 199 241 284
#     4   9  18  32  50  72  98 125 156 199 247 292
#     4   9  17  29  46  71 102 135 172 209 243 286
#     4  10  20  34  54  78 102 131 167 206 251 301
#     4   9  18  34  53  73  99 127 159 203 249 298
#
# _framework density 18.519476999999998
#
# number of rings (size 3 to 8) (size 9 to 14) (size 15 to 20)
#    0.000    2.818    0.909    1.364    0.000    3.273 
#    0.000    6.818    0.000    7.636    0.000    2.545 
#    0.000    0.000    0.000    0.000    0.000    0.000 
#
# Total GULP energy -545380.549166 kJ/mol
# GULP energy per Si atom -12395.012481 kJ/mol
# Density = 1.847733 g / cm^3
# Si number density = 18.519477 Si / 1000 Ang^3
#
#
#
# Elastic Constant Matrix: (Units=GPa)
#
#
# Indices 1 2 3 4 5 6 
#
# 1 43.2573 25.3291 47.0869 0.0000 0.0000 0.0000
# 2 25.3291 100.6519 60.6301 0.0000 0.0000 0.0000
# 3 47.0869 60.6301 158.8488 0.0000 0.0000 0.0000
# 4 0.0000 0.0000 0.0000 21.8528 0.0000 0.0000
# 5 0.0000 0.0000 0.0000 0.0000 11.0007 0.0000
# 6 0.0000 0.0000 0.0000 0.0000 0.0000 13.3453
#
#
#
# Elastic Compliance Matrix: (Units=1/GPa)
#
#
# Indices 1 2 3 4 5 6 
#
# 1 0.034964 -0.003319 -0.009097 0.000000 0.000000 0.000000
# 2 -0.003319 0.013216 -0.004061 0.000000 0.000000 0.000000
# 3 -0.009097 -0.004061 0.010542 0.000000 0.000000 0.000000
# 4 0.000000 0.000000 0.000000 0.045761 0.000000 0.000000
# 5 0.000000 0.000000 0.000000 0.000000 0.090903 0.000000
# 6 0.000000 0.000000 0.000000 0.000000 0.000000 0.074933
#
#
# Mechanical properties :
#
#
# Convention : Reuss Voigt Hill
#
# Bulk Modulus (GPa) = 38.80729 63.20556 51.00643
# Shear Modulus (GPa) = 16.03275 20.55390 18.29333
#
# Velocity S-wave (km/s) = 2.94551 3.33506 3.14632
# Velocity P-wave (km/s) = 5.70687 7.00239 6.38756
#
# Compressibility (1/GPa) = 0.02576835
#
# Stress axis : x y z
#
# Youngs Moduli (GPa) = 28.60123 75.66315 94.85890
#
# Poissons Ratio (x) = 0.25109 0.86298
# Poissons Ratio (y) = 0.09491 0.38521
# Poissons Ratio (z) = 0.26020 0.30725
#
# Static dielectric constant tensor:
#      x y z
#    x 3.143160 0.000000 0.000000 
#    y 0.000000 3.412210 0.000000 
#    z 0.000000 0.000000 3.663870 
# 
# 
# High freq. dielectric constant tensor:
#      x y z
#    x 1.677870 0.000000 0.000000 
#    y 0.000000 1.721420 0.000000 
#    z 0.000000 0.000000 1.715280 
# 
# From -- ./inp_files/33989.got.cif
#   From: 2010.03.12/outbox.cif.g09.slc.cpg/sg47_17_cif.got.tgz:33989.got - 2010.04.14 03:12:58.
