data_PCOD8195121
_publ_section_title
;
Structure prediction by ZEFSAII (Michael W. Deem and Ramdas Pophale) SiO2 
 PCOD8195121
Probable space group: P M M M
;
_chemical_formula_sum "Si O2"
_cell_formula_units_Z 52
_cell_length_a 27.925805
_cell_length_b 11.806210
_cell_length_c 8.774293
_cell_angle_alpha 90.000000
_cell_angle_beta 90.000000
_cell_angle_gamma 90.000000
_cell_volume 2892.866136
_symmetry_space_group_name_H-M "P M M M"
_symmetry_group_IT_number 47
_symmetry_cell_setting 'orthorhombic'
loop_
_space_group_symop_operation_xyz
x,y,z
-x,-y,z
x,-y,-z
-x,y,-z
-x,-y,-z
x,y,-z
-x,y,z
x,-y,z
loop_
_atom_site_type_symbol
_atom_site_label
_atom_site_fract_x
_atom_site_fract_y
_atom_site_fract_z
Si Si1 0.345135 0.500000 0.680153
Si Si2 0.239397 0.500000 0.319078
Si Si3 0.098131 0.369314 0.819764
Si Si4 0.269816 0.869186 0.179061
Si Si5 0.360703 0.253751 0.678250
Si Si6 0.000000 0.366042 0.329326
Si Si7 0.553742 0.133375 0.827439
Si Si8 0.810831 0.274386 0.681013
O O1 0.341815 0.500000 0.500000
O O2 0.292206 0.500000 0.750577
O O3 0.370418 0.383564 0.733513
O O4 0.239831 0.500000 0.500000
O O5 0.213703 0.388649 0.257679
O O6 0.107869 0.500000 0.767047
O O7 0.135777 0.280537 0.748091
O O8 0.046870 0.325449 0.761122
O O9 0.099554 0.360443 0.000000
O O10 0.315178 0.798392 0.237221
O O11 0.220052 0.830351 0.255894
O O12 0.278352 0.000000 0.221812
O O13 0.265286 0.851486 0.000000
O O14 0.348882 0.248020 0.500000
O O15 0.409396 0.188030 0.711042
O O16 0.000000 0.500000 0.337282
O O17 0.000000 0.314628 0.500000
O O18 0.500000 0.174483 0.787512
O O19 0.557199 0.000000 0.808893
O O20 0.567016 0.168431 0.000000
O O21 0.813114 0.265630 0.500000
#
# Coordination Sequence:
#
# PCOD8195121 Si02
#       8
#     4   4   8   8   8   4   8   8
#     4   9  18  34  51  75 107 140 169 206 257 307
#     4   9  16  30  50  72 102 136 169 210 255 300
#     4  10  19  30  46  72 106 141 176 216 264 318
#     4  11  24  39  53  74 107 141 173 214 265 316
#     4  11  21  35  57  81 106 137 174 214 257 309
#     4   9  17  29  45  67  98 139 182 221 263 310
#     4   9  19  37  58  78 104 138 173 214 266 314
#     4  11  20  33  54  77 103 137 179 220 261 310
#
# _framework density 17.975252999999999
#
# number of rings (size 3 to 8) (size 9 to 14) (size 15 to 20)
#    0.000    1.923    2.308    3.000    0.000    5.231 
#    0.000    3.462    0.000    2.308    0.000    0.538 
#    0.000    4.308    0.000    0.000    0.000    0.000 
#
# Total GULP energy -644695.123351 kJ/mol
# GULP energy per Si atom -12397.983141 kJ/mol
# Density = 1.793434 g / cm^3
# Si number density = 17.975253 Si / 1000 Ang^3
#
#
#
# Elastic Constant Matrix: (Units=GPa)
#
#
# Indices 1 2 3 4 5 6 
#
# 1 122.3535 41.0147 38.9491 0.0000 0.0000 0.0000
# 2 41.0147 74.4596 37.2762 0.0000 0.0000 0.0000
# 3 38.9491 37.2762 77.3211 0.0000 0.0000 0.0000
# 4 0.0000 0.0000 0.0000 20.5902 0.0000 0.0000
# 5 0.0000 0.0000 0.0000 0.0000 34.8526 0.0000
# 6 0.0000 0.0000 0.0000 0.0000 0.0000 22.9225
#
#
#
# Elastic Compliance Matrix: (Units=1/GPa)
#
#
# Indices 1 2 3 4 5 6 
#
# 1 0.010641 -0.004189 -0.003341 0.000000 0.000000 0.000000
# 2 -0.004189 0.019352 -0.007219 0.000000 0.000000 0.000000
# 3 -0.003341 -0.007219 0.018096 0.000000 0.000000 0.000000
# 4 0.000000 0.000000 0.000000 0.048567 0.000000 0.000000
# 5 0.000000 0.000000 0.000000 0.000000 0.028692 0.000000
# 6 0.000000 0.000000 0.000000 0.000000 0.000000 0.043625
#
#
# Mechanical properties :
#
#
# Convention : Reuss Voigt Hill
#
# Bulk Modulus (GPa) = 53.78936 56.51267 55.15102
# Shear Modulus (GPa) = 24.42989 26.13265 25.28127
#
# Velocity S-wave (km/s) = 3.69058 3.81703 3.75433
# Velocity P-wave (km/s) = 6.93899 7.13678 7.03858
#
# Compressibility (1/GPa) = 0.01859104
#
# Stress axis : x y z
#
# Youngs Moduli (GPa) = 93.97957 51.67540 55.26008
#
# Poissons Ratio (x) = 0.21646 0.18460
# Poissons Ratio (y) = 0.39366 0.39894
# Poissons Ratio (z) = 0.31395 0.37306
#
# Static dielectric constant tensor:
#      x y z
#    x 3.436120 0.000000 0.000000 
#    y 0.000000 3.296770 0.000000 
#    z 0.000000 0.000000 3.243290 
# 
# 
# High freq. dielectric constant tensor:
#      x y z
#    x 1.701260 0.000000 0.000000 
#    y 0.000000 1.669390 0.000000 
#    z 0.000000 0.000000 1.694530 
# 
# From -- ./inp_files/13305.got.cif
#   From: 2010.03.12/outbox.cif.g09.slc.cpg/sg47_7_cif.got.tgz:13305.got - 2010.04.14 03:12:58.
