data_PCOD8195395
_publ_section_title
;
Structure prediction by ZEFSAII (Michael W. Deem and Ramdas Pophale) SiO2 
 PCOD8195395
Probable space group: P M M M
;
_chemical_formula_sum "Si O2"
_cell_formula_units_Z 52
_cell_length_a 9.320286
_cell_length_b 28.337314
_cell_length_c 11.715584
_cell_angle_alpha 90.000000
_cell_angle_beta 90.000000
_cell_angle_gamma 90.000000
_cell_volume 3094.224810
_symmetry_space_group_name_H-M "P M M M"
_symmetry_group_IT_number 47
_symmetry_cell_setting 'orthorhombic'
loop_
_space_group_symop_operation_xyz
x,y,z
-x,-y,z
x,-y,-z
-x,y,-z
-x,-y,-z
x,y,-z
-x,y,z
x,-y,z
loop_
_atom_site_type_symbol
_atom_site_label
_atom_site_fract_x
_atom_site_fract_y
_atom_site_fract_z
Si Si1 0.330273 0.142406 0.758555
Si Si2 0.328624 0.398013 0.369809
Si Si3 0.670395 0.052075 0.371916
Si Si4 0.344062 0.500000 0.365422
Si Si5 0.331251 0.180633 0.000000
Si Si6 0.164327 0.222959 0.366465
Si Si7 0.833680 0.682347 0.757745
Si Si8 0.835490 0.721982 0.000000
O O1 0.500000 0.146284 0.744323
O O2 0.273091 0.091085 0.717774
O O3 0.262178 0.180900 0.676505
O O4 0.283084 0.150707 0.889337
O O5 0.283426 0.385987 0.500000
O O6 0.500000 0.396998 0.358358
O O7 0.267298 0.450277 0.333466
O O8 0.259840 0.361240 0.283680
O O9 0.725210 0.064233 0.500000
O O10 0.500000 0.051722 0.371962
O O11 0.727098 0.000000 0.335479
O O12 0.500000 0.500000 0.305819
O O13 0.366997 0.500000 0.500000
O O14 0.259148 0.231389 0.000000
O O15 0.500000 0.189601 0.000000
O O16 0.185095 0.228972 0.500000
O O17 0.217051 0.271007 0.308286
O O18 0.000000 0.212226 0.332927
O O19 0.000000 0.671636 0.733098
O O20 0.801968 0.689654 0.891150
O O21 0.000000 0.739161 0.000000
#
# Coordination Sequence:
#
# PCOD8195395 Si02
#       8
#     8   8   8   4   4   8   8   4
#     4  10  19  31  48  70  95 124 158 197 237 278
#     4   9  17  30  50  75 101 129 159 193 237 286
#     4   8  14  26  45  68  93 122 156 192 233 284
#     4   7  12  26  47  70  97 128 160 191 228 281
#     4  10  20  32  47  70  97 121 156 206 242 268
#     4  10  20  32  47  69  96 124 154 192 239 288
#     4  10  20  33  49  69  94 124 161 201 238 281
#     4  10  20  36  54  66  86 129 173 196 229 286
#
# _framework density 16.805502000000001
#
# number of rings (size 3 to 8) (size 9 to 14) (size 15 to 20)
#    0.000    2.692    1.538    2.308    0.000    3.077 
#    0.000    0.769    0.000    4.615    0.000    5.385 
#    0.000    1.846    0.000    0.000    0.000    0.000 
#
# Total GULP energy -644519.492856 kJ/mol
# GULP energy per Si atom -12394.605632 kJ/mol
# Density = 1.676725 g / cm^3
# Si number density = 16.805502 Si / 1000 Ang^3
#
#
#
# Elastic Constant Matrix: (Units=GPa)
#
#
# Indices 1 2 3 4 5 6 
#
# 1 21.5261 31.2509 22.4370 0.0000 0.0000 0.0000
# 2 31.2509 146.6871 65.1918 0.0000 0.0000 0.0000
# 3 22.4370 65.1918 98.6573 0.0000 0.0000 0.0000
# 4 0.0000 0.0000 0.0000 6.5538 0.0000 0.0000
# 5 0.0000 0.0000 0.0000 0.0000 20.7435 0.0000
# 6 0.0000 0.0000 0.0000 0.0000 0.0000 -1.2773
#
#
#
# Elastic Compliance Matrix: (Units=1/GPa)
#
#
# Indices 1 2 3 4 5 6 
#
# 1 0.072361 -0.011471 -0.008877 0.000000 0.000000 0.000000
# 2 -0.011471 0.011470 -0.004971 0.000000 0.000000 0.000000
# 3 -0.008877 -0.004971 0.015439 0.000000 0.000000 0.000000
# 4 0.000000 0.000000 0.000000 0.152582 0.000000 0.000000
# 5 0.000000 0.000000 0.000000 0.000000 0.048208 0.000000
# 6 0.000000 0.000000 0.000000 0.000000 0.000000 -0.782878
#
#
# Mechanical properties :
#
#
# Convention : Reuss Voigt Hill
#
# Bulk Modulus (GPa) = 20.56182 56.06998 38.31590
# Shear Modulus (GPa) = -12.02010 15.07006 1.52498
#
# Velocity S-wave (km/s) = -2.67731 2.99780 0.95363
# Velocity P-wave (km/s) = 1.64451 6.73935 4.90527
#
# Compressibility (1/GPa) = 0.04863382
#
# Stress axis : x y z
#
# Youngs Moduli (GPa) = 13.81966 87.18293 64.76961
#
# Poissons Ratio (x) = 1.00008 0.57493
# Poissons Ratio (y) = 0.15853 0.32194
# Poissons Ratio (z) = 0.12267 0.43335
#
# Static dielectric constant tensor:
#      x y z
#    x 2.884850 0.000000 0.000000 
#    y 0.000000 3.463970 0.000000 
#    z 0.000000 0.000000 3.237660 
# 
# 
# High freq. dielectric constant tensor:
#      x y z
#    x 1.618000 0.000000 0.000000 
#    y 0.000000 1.655270 0.000000 
#    z 0.000000 0.000000 1.641440 
# 
# From -- ./inp_files/15505.got.cif
#   From: 2010.03.12/outbox.cif.g09.slc.cpg/sg47_8_cif.got.tgz:15505.got - 2010.04.14 03:12:58.
