data_PCOD8195272
_publ_section_title
;
Structure prediction by ZEFSAII (Michael W. Deem and Ramdas Pophale) SiO2 
 PCOD8195272
Probable space group: P M M M
;
_chemical_formula_sum "Si O2"
_cell_formula_units_Z 52
_cell_length_a 13.350094
_cell_length_b 21.248556
_cell_length_c 10.005916
_cell_angle_alpha 90.000000
_cell_angle_beta 90.000000
_cell_angle_gamma 90.000000
_cell_volume 2838.380393
_symmetry_space_group_name_H-M "P M M M"
_symmetry_group_IT_number 47
_symmetry_cell_setting 'orthorhombic'
loop_
_space_group_symop_operation_xyz
x,y,z
-x,-y,z
x,-y,-z
-x,y,-z
-x,-y,-z
x,y,-z
-x,y,z
x,-y,z
loop_
_atom_site_type_symbol
_atom_site_label
_atom_site_fract_x
_atom_site_fract_y
_atom_site_fract_z
Si Si1 0.611881 0.500000 0.158454
Si Si2 0.884655 0.321553 0.653515
Si Si3 0.258772 0.927492 0.748184
Si Si4 0.275321 0.624072 0.152729
Si Si5 0.389421 0.073075 0.000000
Si Si6 0.383756 0.752980 0.847539
Si Si7 0.782099 0.194239 0.656843
Si Si8 0.393648 0.927300 0.500000
O O1 0.500000 0.500000 0.220619
O O2 0.671312 0.438523 0.207358
O O3 0.603495 0.500000 0.000000
O O4 0.856856 0.337746 0.500000
O O5 0.819943 0.364057 0.752613
O O6 0.865133 0.247488 0.681254
O O7 0.000000 0.335688 0.683352
O O8 0.321790 0.908625 0.876161
O O9 0.175110 0.873136 0.718790
O O10 0.334053 0.910870 0.631035
O O11 0.217475 0.000000 0.749167
O O12 0.356053 0.679552 0.161616
O O13 0.237067 0.616074 0.000000
O O14 0.500000 0.106696 0.000000
O O15 0.411428 0.000000 0.000000
O O16 0.500000 0.760606 0.810586
O O17 0.318835 0.790432 0.739149
O O18 0.363185 0.777811 0.000000
O O19 0.755936 0.188319 0.500000
O O20 0.500000 0.890909 0.500000
O O21 0.416446 0.000000 0.500000
#
# Coordination Sequence:
#
# PCOD8195272 Si02
#       8
#     4   8   8   8   4   8   8   4
#     4   9  16  28  52  85 118 152 179 201 236 283
#     4   9  19  37  58  74  95 130 169 213 264 310
#     4  10  19  31  45  62  87 121 156 198 250 298
#     4   9  17  31  53  80 108 135 172 211 243 287
#     4   9  18  30  42  58  85 123 163 194 224 277
#     4   9  18  31  46  67  98 134 167 202 240 283
#     4  10  20  33  48  70  93 119 162 208 253 307
#     4   9  16  26  40  58  83 117 155 190 230 285
#
# _framework density 18.320307
#
# number of rings (size 3 to 8) (size 9 to 14) (size 15 to 20)
#    0.000    2.692    0.769    0.923    1.077    5.538 
#    0.000    0.769    0.000    4.615    0.000    2.154 
#    0.000    1.846    0.000    0.000    0.000    0.000 
#
# Total GULP energy -644207.260037 kJ/mol
# GULP energy per Si atom -12388.601155 kJ/mol
# Density = 1.827861 g / cm^3
# Si number density = 18.320307 Si / 1000 Ang^3
#
#
#
# Elastic Constant Matrix: (Units=GPa)
#
#
# Indices 1 2 3 4 5 6 
#
# 1 76.4850 33.7759 38.8548 0.0000 0.0000 0.0000
# 2 33.7759 107.8924 39.1792 0.0000 0.0000 0.0000
# 3 38.8548 39.1792 101.1823 0.0000 0.0000 0.0000
# 4 0.0000 0.0000 0.0000 24.3683 0.0000 0.0000
# 5 0.0000 0.0000 0.0000 0.0000 24.7475 0.0000
# 6 0.0000 0.0000 0.0000 0.0000 0.0000 15.8353
#
#
#
# Elastic Compliance Matrix: (Units=1/GPa)
#
#
# Indices 1 2 3 4 5 6 
#
# 1 0.017307 -0.003496 -0.005292 0.000000 0.000000 0.000000
# 2 -0.003496 0.011491 -0.003107 0.000000 0.000000 0.000000
# 3 -0.005292 -0.003107 0.013118 0.000000 0.000000 0.000000
# 4 0.000000 0.000000 0.000000 0.041037 0.000000 0.000000
# 5 0.000000 0.000000 0.000000 0.000000 0.040408 0.000000
# 6 0.000000 0.000000 0.000000 0.000000 0.000000 0.063150
#
#
# Mechanical properties :
#
#
# Convention : Reuss Voigt Hill
#
# Bulk Modulus (GPa) = 55.17002 56.57551 55.87276
# Shear Modulus (GPa) = 23.11130 24.57354 23.84242
#
# Velocity S-wave (km/s) = 3.55563 3.66639 3.61143
# Velocity P-wave (km/s) = 6.85829 6.99082 6.92487
#
# Compressibility (1/GPa) = 0.01812579
#
# Stress axis : x y z
#
# Youngs Moduli (GPa) = 57.78066 87.02285 76.22839
#
# Poissons Ratio (x) = 0.30425 0.40342
# Poissons Ratio (y) = 0.20201 0.23684
# Poissons Ratio (z) = 0.30579 0.27038
#
# Static dielectric constant tensor:
#      x y z
#    x 3.173130 0.000000 0.000000 
#    y 0.000000 3.631360 0.000000 
#    z 0.000000 0.000000 3.870450 
# 
# 
# High freq. dielectric constant tensor:
#      x y z
#    x 1.668880 0.000000 0.000000 
#    y 0.000000 1.722290 0.000000 
#    z 0.000000 0.000000 1.713130 
# 
# From -- ./inp_files/7162.got.cif
#   From: 2010.03.12/outbox.cif.g09.slc.cpg/sg47_4_cif.got.tgz:7162.got - 2010.04.14 03:12:58.
