data_PCOD8195233
_publ_section_title
;
Structure prediction by ZEFSAII (Michael W. Deem and Ramdas Pophale) SiO2 
 PCOD8195233
Probable space group: P M M M
;
_chemical_formula_sum "Si O2"
_cell_formula_units_Z 60
_cell_length_a 9.216774
_cell_length_b 18.452457
_cell_length_c 20.150640
_cell_angle_alpha 90.000000
_cell_angle_beta 90.000000
_cell_angle_gamma 90.000000
_cell_volume 3427.062183
_symmetry_space_group_name_H-M "P M M M"
_symmetry_group_IT_number 47
_symmetry_cell_setting 'orthorhombic'
loop_
_space_group_symop_operation_xyz
x,y,z
-x,-y,z
x,-y,-z
-x,y,-z
-x,-y,-z
x,y,-z
-x,y,z
x,-y,z
loop_
_atom_site_type_symbol
_atom_site_label
_atom_site_fract_x
_atom_site_fract_y
_atom_site_fract_z
Si Si1 0.669444 0.347006 0.365412
Si Si2 0.834551 0.915051 0.424226
Si Si3 0.327772 0.418224 0.500000
Si Si4 0.329846 0.815100 0.675667
Si Si5 0.665577 0.422108 0.120502
Si Si6 0.161948 0.385119 0.243088
Si Si7 0.163558 0.220438 0.198203
Si Si8 0.669490 0.733105 0.074228
O O1 0.500000 0.361913 0.356339
O O2 0.727668 0.373693 0.436392
O O3 0.705858 0.262404 0.356935
O O4 0.752244 0.395326 0.311405
O O5 0.794495 0.894936 0.500000
O O6 0.725739 0.875148 0.375067
O O7 0.000000 0.891598 0.409040
O O8 0.815425 0.000000 0.412626
O O9 0.264542 0.500000 0.500000
O O10 0.500000 0.421254 0.500000
O O11 0.500000 0.825423 0.687675
O O12 0.251147 0.825771 0.746929
O O13 0.500000 0.410403 0.142690
O O14 0.682812 0.500000 0.082038
O O15 0.760175 0.430531 0.186389
O O16 0.713632 0.352521 0.077313
O O17 0.161925 0.301933 0.222598
O O18 0.000000 0.415056 0.252423
O O19 0.241963 0.217854 0.126385
O O20 0.000000 0.189654 0.191047
O O21 0.500000 0.742922 0.089900
O O22 0.707116 0.759986 0.000000
#
# Coordination Sequence:
#
# PCOD8195233 Si02
#       8
#     8   8   4   8   8   8   8   8
#     4   9  18  31  47  66  87 112 149 196 243 293
#     4   9  19  35  52  73 106 144 175 202 236 284
#     4   9  18  32  47  61  80 109 146 190 241 297
#     4  10  19  30  50  75 100 128 162 208 250 286
#     4   9  17  28  42  60  82 111 148 185 228 291
#     4   9  17  29  44  61  81 105 138 184 235 280
#     4   9  17  30  47  66  91 121 157 195 234 286
#     4   9  17  29  45  65  91 120 151 195 249 296
#
# _framework density 17.507705999999999
#
# number of rings (size 3 to 8) (size 9 to 14) (size 15 to 20)
#    0.000    2.867    0.000    1.600    0.933    5.600 
#    0.000    3.667    0.000    0.400    0.000    3.733 
#    0.000    0.533    0.000    5.600    0.000    2.400 
#
# Total GULP energy -743724.430876 kJ/mol
# GULP energy per Si atom -12395.407181 kJ/mol
# Density = 1.746786 g / cm^3
# Si number density = 17.507706 Si / 1000 Ang^3
#
#
#
# Elastic Constant Matrix: (Units=GPa)
#
#
# Indices 1 2 3 4 5 6 
#
# 1 84.5805 25.8219 58.1467 0.0000 0.0000 0.0000
# 2 25.8219 37.8842 30.3540 0.0000 0.0000 0.0000
# 3 58.1467 30.3540 133.0040 0.0000 0.0000 0.0000
# 4 0.0000 0.0000 0.0000 14.5495 0.0000 0.0000
# 5 0.0000 0.0000 0.0000 0.0000 24.2411 0.0000
# 6 0.0000 0.0000 0.0000 0.0000 0.0000 16.6310
#
#
#
# Elastic Compliance Matrix: (Units=1/GPa)
#
#
# Indices 1 2 3 4 5 6 
#
# 1 0.018494 -0.007499 -0.006374 0.000000 0.000000 0.000000
# 2 -0.007499 0.035343 -0.004788 0.000000 0.000000 0.000000
# 3 -0.006374 -0.004788 0.011398 0.000000 0.000000 0.000000
# 4 0.000000 0.000000 0.000000 0.068731 0.000000 0.000000
# 5 0.000000 0.000000 0.000000 0.000000 0.041252 0.000000
# 6 0.000000 0.000000 0.000000 0.000000 0.000000 0.060129
#
#
# Mechanical properties :
#
#
# Convention : Reuss Voigt Hill
#
# Bulk Modulus (GPa) = 35.82347 53.79042 44.80695
# Shear Modulus (GPa) = 17.73218 20.49406 19.11312
#
# Velocity S-wave (km/s) = 3.18594 3.42508 3.30767
# Velocity P-wave (km/s) = 5.83434 6.81411 6.34317
#
# Compressibility (1/GPa) = 0.02791466
#
# Stress axis : x y z
#
# Youngs Moduli (GPa) = 54.07067 28.29378 87.73615
#
# Poissons Ratio (x) = 0.21217 0.55923
# Poissons Ratio (y) = 0.40546 0.42006
# Poissons Ratio (z) = 0.34465 0.13546
#
# Static dielectric constant tensor:
#      x y z
#    x 3.292050 0.000000 0.000000 
#    y 0.000000 2.885320 0.000000 
#    z 0.000000 0.000000 3.313810 
# 
# 
# High freq. dielectric constant tensor:
#      x y z
#    x 1.673380 0.000000 0.000000 
#    y 0.000000 1.634760 0.000000 
#    z 0.000000 0.000000 1.675850 
# 
# From -- ./inp_files/29973.got.cif
#   From: 2010.03.12/outbox.cif.g09.slc.cpg/sg47_15_cif.got.tgz:29973.got - 2010.04.14 03:12:58.
