data_PCOD8195229
_publ_section_title
;
Structure prediction by ZEFSAII (Michael W. Deem and Ramdas Pophale) SiO2 
 PCOD8195229
Probable space group: P M M M
;
_chemical_formula_sum "Si O2"
_cell_formula_units_Z 64
_cell_length_a 25.170693
_cell_length_b 8.757876
_cell_length_c 14.794717
_cell_angle_alpha 90.000000
_cell_angle_beta 90.000000
_cell_angle_gamma 90.000000
_cell_volume 3261.374166
_symmetry_space_group_name_H-M "P M M M"
_symmetry_group_IT_number 47
_symmetry_cell_setting 'orthorhombic'
loop_
_space_group_symop_operation_xyz
x,y,z
-x,-y,z
x,-y,-z
-x,y,-z
-x,-y,-z
x,y,-z
-x,y,z
x,-y,z
loop_
_atom_site_type_symbol
_atom_site_label
_atom_site_fract_x
_atom_site_fract_y
_atom_site_fract_z
Si Si1 0.751639 0.177219 0.222175
Si Si2 0.189534 0.171697 0.401314
Si Si3 0.844699 0.680615 0.104703
Si Si4 0.940998 0.175541 0.785147
Si Si5 0.558257 0.318461 0.900680
Si Si6 0.637926 0.318550 0.246349
Si Si7 0.559321 0.681527 0.398570
Si Si8 0.919165 0.322984 0.600974
O O1 0.768386 0.208703 0.324941
O O2 0.791788 0.253801 0.151095
O O3 0.693842 0.247645 0.220763
O O4 0.749720 0.000000 0.197780
O O5 0.217052 0.186691 0.500000
O O6 0.143479 0.295487 0.392623
O O7 0.166090 0.000000 0.388558
O O8 0.841800 0.500000 0.110684
O O9 0.897814 0.732427 0.157128
O O10 0.847309 0.734995 0.000000
O O11 0.946407 0.228770 0.680968
O O12 0.000000 0.196084 0.828189
O O13 0.923038 0.000000 0.786564
O O14 0.500000 0.257825 0.873251
O O15 0.557964 0.500000 0.897644
O O16 0.601034 0.253711 0.832576
O O17 0.573605 0.259620 0.000000
O O18 0.644214 0.500000 0.248261
O O19 0.608285 0.258076 0.337104
O O20 0.570332 0.740023 0.500000
O O21 0.500000 0.737388 0.367145
O O22 0.559120 0.500000 0.394407
O O23 0.939481 0.273734 0.500000
O O24 0.931464 0.500000 0.616909
#
# Coordination Sequence:
#
# PCOD8195229 Si02
#       8
#     8   8   8   8   8   8   8   8
#     4  11  23  38  57  82 114 153 191 230 283 347
#     4   9  18  34  56  79 106 145 190 231 275 332
#     4  11  25  45  68  90 113 145 189 243 299 350
#     4  11  24  41  63  92 125 160 195 233 281 343
#     4   8  14  26  46  72  99 127 165 217 274 328
#     4  10  19  30  49  77 107 139 180 231 281 333
#     4   8  14  26  46  74 108 146 190 240 291 338
#     4  10  20  34  57  89 122 156 194 237 282 326
#
# _framework density 19.623629999999999
#
# number of rings (size 3 to 8) (size 9 to 14) (size 15 to 20)
#    0.000    2.250    1.250    2.625    0.000    6.250 
#    0.000    3.750    0.000    1.500    0.000    1.750 
#    0.000    0.000    0.000    0.000    0.000    0.000 
#
# Total GULP energy -793056.801016 kJ/mol
# GULP energy per Si atom -12391.512516 kJ/mol
# Density = 1.957897 g / cm^3
# Si number density = 19.623630 Si / 1000 Ang^3
#
#
#
# Elastic Constant Matrix: (Units=GPa)
#
#
# Indices 1 2 3 4 5 6 
#
# 1 141.9259 35.8877 86.1296 0.0000 0.0000 0.0000
# 2 35.8877 56.9530 39.1752 0.0000 0.0000 0.0000
# 3 86.1296 39.1752 138.7000 0.0000 0.0000 0.0000
# 4 0.0000 0.0000 0.0000 20.7800 0.0000 0.0000
# 5 0.0000 0.0000 0.0000 0.0000 -5.1246 0.0000
# 6 0.0000 0.0000 0.0000 0.0000 0.0000 76.6068
#
#
#
# Elastic Compliance Matrix: (Units=1/GPa)
#
#
# Indices 1 2 3 4 5 6 
#
# 1 0.011692 -0.002946 -0.006428 0.000000 0.000000 0.000000
# 2 -0.002946 0.022534 -0.004536 0.000000 0.000000 0.000000
# 3 -0.006428 -0.004536 0.012483 0.000000 0.000000 0.000000
# 4 0.000000 0.000000 0.000000 0.048123 0.000000 0.000000
# 5 0.000000 0.000000 0.000000 0.000000 -0.195139 0.000000
# 6 0.000000 0.000000 0.000000 0.000000 0.000000 0.013054
#
#
# Mechanical properties :
#
#
# Convention : Reuss Voigt Hill
#
# Bulk Modulus (GPa) = 52.93875 73.32930 63.13403
# Shear Modulus (GPa) = -94.09574 30.21154 -31.94210
#
# Velocity S-wave (km/s) = -6.93212 3.92797 -4.03890
# Velocity P-wave (km/s) = 6.08579 7.61714 3.23914
#
# Compressibility (1/GPa) = 0.01888975
#
# Stress axis : x y z
#
# Youngs Moduli (GPa) = 85.52877 44.37692 80.11026
#
# Poissons Ratio (x) = 0.13072 0.51499
# Poissons Ratio (y) = 0.25193 0.36334
# Poissons Ratio (z) = 0.54982 0.20127
#
# Static dielectric constant tensor:
#      x y z
#    x 3.582800 0.000000 0.000000 
#    y 0.000000 3.313690 0.000000 
#    z 0.000000 0.000000 4.013830 
# 
# 
# High freq. dielectric constant tensor:
#      x y z
#    x 1.764290 0.000000 0.000000 
#    y 0.000000 1.736280 0.000000 
#    z 0.000000 0.000000 1.775140 
# 
# From -- ./inp_files/25568.got.cif
#   From: 2010.03.12/outbox.cif.g09.slc.cpg/sg47_13_cif.got.tgz:25568.got - 2010.04.14 03:12:58.
