data_PCOD8195387
_publ_section_title
;
Structure prediction by ZEFSAII (Michael W. Deem and Ramdas Pophale) SiO2 
 PCOD8195387
Probable space group: P M M M
;
_chemical_formula_sum "Si O2"
_cell_formula_units_Z 60
_cell_length_a 15.301791
_cell_length_b 14.012416
_cell_length_c 15.630023
_cell_angle_alpha 90.000000
_cell_angle_beta 90.000000
_cell_angle_gamma 90.000000
_cell_volume 3351.312336
_symmetry_space_group_name_H-M "P M M M"
_symmetry_group_IT_number 47
_symmetry_cell_setting 'orthorhombic'
loop_
_space_group_symop_operation_xyz
x,y,z
-x,-y,z
x,-y,-z
-x,y,-z
-x,-y,-z
x,y,-z
-x,y,z
x,-y,z
loop_
_atom_site_type_symbol
_atom_site_label
_atom_site_fract_x
_atom_site_fract_y
_atom_site_fract_z
Si Si1 0.601644 0.612251 0.161265
Si Si2 0.600226 0.107011 0.732602
Si Si3 0.500000 0.602186 0.593587
Si Si4 0.687284 0.105634 0.094780
Si Si5 0.825934 0.609234 0.596304
Si Si6 0.231925 0.702004 0.905504
Si Si7 0.341828 0.702167 0.663958
Si Si8 0.097089 0.610472 0.225064
O O1 0.500000 0.648176 0.153389
O O2 0.605022 0.500000 0.146485
O O3 0.668255 0.661337 0.094679
O O4 0.643657 0.639615 0.251559
O O5 0.500000 0.127142 0.711171
O O6 0.612136 0.120439 0.834534
O O7 0.658170 0.184371 0.682407
O O8 0.627755 0.000000 0.703797
O O9 0.500000 0.500000 0.648795
O O10 0.500000 0.561922 0.500000
O O11 0.418589 0.671171 0.602798
O O12 0.763508 0.183737 0.107772
O O13 0.729529 0.000000 0.105105
O O14 0.645196 0.117002 0.000000
O O15 0.863706 0.630184 0.500000
O O16 0.792628 0.500000 0.600427
O O17 0.746904 0.679938 0.615294
O O18 0.895406 0.627649 0.672302
O O19 0.170043 0.664488 0.830084
O O20 0.193264 0.677800 0.000000
O O21 0.109813 0.500000 0.203463
O O22 0.000000 0.644890 0.198404
#
# Coordination Sequence:
#
# PCOD8195387 Si02
#       8
#     8   8   4   8   8   8   8   8
#     4  11  21  32  49  72 103 145 185 219 259 309
#     4  10  19  31  48  69  95 135 183 226 272 319
#     4  11  22  32  47  73 100 131 175 219 261 314
#     4   9  18  32  50  73  99 129 171 224 277 321
#     4  10  20  34  55  81 106 134 171 215 267 324
#     4  11  22  36  55  77 106 144 182 223 266 313
#     4  12  19  32  50  71 102 137 173 220 267 310
#     4  10  21  37  57  81 110 142 175 213 260 318
#
# _framework density 17.903435000000002
#
# number of rings (size 3 to 8) (size 9 to 14) (size 15 to 20)
#    0.000    1.533    4.000    2.000    0.000    3.200 
#    0.000    5.333    0.000    2.400    0.000    1.867 
#    0.000    0.000    0.000    5.600    0.000    0.267 
#
# Total GULP energy -743345.196017 kJ/mol
# GULP energy per Si atom -12389.086600 kJ/mol
# Density = 1.786269 g / cm^3
# Si number density = 17.903435 Si / 1000 Ang^3
#
#
#
# Elastic Constant Matrix: (Units=GPa)
#
#
# Indices 1 2 3 4 5 6 
#
# 1 68.8253 28.1444 23.9802 0.0000 0.0000 0.0000
# 2 28.1444 100.3415 33.8777 0.0000 0.0000 0.0000
# 3 23.9802 33.8777 90.6217 0.0000 0.0000 0.0000
# 4 0.0000 0.0000 0.0000 19.0589 0.0000 0.0000
# 5 0.0000 0.0000 0.0000 0.0000 19.5444 0.0000
# 6 0.0000 0.0000 0.0000 0.0000 0.0000 12.6311
#
#
#
# Elastic Compliance Matrix: (Units=1/GPa)
#
#
# Indices 1 2 3 4 5 6 
#
# 1 0.017157 -0.003753 -0.003137 0.000000 0.000000 0.000000
# 2 -0.003753 0.012227 -0.003578 0.000000 0.000000 0.000000
# 3 -0.003137 -0.003578 0.013202 0.000000 0.000000 0.000000
# 4 0.000000 0.000000 0.000000 0.052469 0.000000 0.000000
# 5 0.000000 0.000000 0.000000 0.000000 0.051166 0.000000
# 6 0.000000 0.000000 0.000000 0.000000 0.000000 0.079170
#
#
# Mechanical properties :
#
#
# Convention : Reuss Voigt Hill
#
# Bulk Modulus (GPa) = 46.18805 47.97702 47.08253
# Shear Modulus (GPa) = 19.72051 21.83263 20.77657
#
# Velocity S-wave (km/s) = 3.32248 3.49587 3.41028
# Velocity P-wave (km/s) = 6.36969 6.56892 6.47007
#
# Compressibility (1/GPa) = 0.02165062
#
# Stress axis : x y z
#
# Youngs Moduli (GPa) = 58.28408 81.78910 75.74370
#
# Poissons Ratio (x) = 0.30698 0.23761
# Poissons Ratio (y) = 0.21876 0.27098
# Poissons Ratio (z) = 0.18284 0.29261
#
# Static dielectric constant tensor:
#      x y z
#    x 3.143390 0.000000 0.000000 
#    y 0.000000 3.495790 0.000000 
#    z 0.000000 0.000000 3.420260 
# 
# 
# High freq. dielectric constant tensor:
#      x y z
#    x 1.656580 0.000000 0.000000 
#    y 0.000000 1.691470 0.000000 
#    z 0.000000 0.000000 1.695620 
# 
# From -- ./inp_files/23900.got.cif
#   From: 2010.03.12/outbox.cif.g09.slc.cpg/sg47_12_cif.got.tgz:23900.got - 2010.04.14 03:12:58.
