data_PCOD8195388
_publ_section_title
;
Structure prediction by ZEFSAII (Michael W. Deem and Ramdas Pophale) SiO2 
 PCOD8195388
Probable space group: P M M M
;
_chemical_formula_sum "Si O2"
_cell_formula_units_Z 52
_cell_length_a 21.273741
_cell_length_b 15.660504
_cell_length_c 9.250099
_cell_angle_alpha 90.000000
_cell_angle_beta 90.000000
_cell_angle_gamma 90.000000
_cell_volume 3081.739913
_symmetry_space_group_name_H-M "P M M M"
_symmetry_group_IT_number 47
_symmetry_cell_setting 'orthorhombic'
loop_
_space_group_symop_operation_xyz
x,y,z
-x,-y,z
x,-y,-z
-x,y,-z
-x,-y,-z
x,y,-z
-x,y,z
x,-y,z
loop_
_atom_site_type_symbol
_atom_site_label
_atom_site_fract_x
_atom_site_fract_y
_atom_site_fract_z
Si Si1 0.284740 0.907339 0.338481
Si Si2 0.806405 0.674546 0.827190
Si Si3 0.072132 0.000000 0.671123
Si Si4 0.146379 0.165628 0.335314
Si Si5 0.321503 0.238186 0.158645
Si Si6 0.210202 0.500000 0.674638
Si Si7 0.571386 0.636419 0.839430
Si Si8 0.354724 0.500000 0.330567
O O1 0.310160 0.913182 0.500000
O O2 0.215001 0.872649 0.334338
O O3 0.330557 0.844478 0.255535
O O4 0.286616 0.000000 0.264126
O O5 0.853276 0.748632 0.764519
O O6 0.733786 0.697731 0.787365
O O7 0.821204 0.584840 0.745501
O O8 0.817008 0.664517 0.000000
O O9 0.102342 0.089292 0.729290
O O10 0.082182 0.000000 0.500000
O O11 0.000000 0.000000 0.719048
O O12 0.126250 0.190248 0.500000
O O13 0.391110 0.275782 0.156814
O O14 0.300349 0.208427 0.000000
O O15 0.201298 0.500000 0.500000
O O16 0.283114 0.500000 0.722994
O O17 0.500000 0.651898 0.788522
O O18 0.607677 0.580880 0.724277
O O19 0.572561 0.594390 0.000000
O O20 0.356582 0.500000 0.500000
#
# Coordination Sequence:
#
# PCOD8195388 Si02
#       8
#     8   8   4   8   8   4   8   4
#     4   9  16  27  45  67  91 120 151 187 236 284
#     4  10  19  31  48  69  96 129 163 204 248 292
#     4   9  16  28  51  81 111 145 178 203 232 274
#     4   9  16  29  47  71 103 134 166 203 237 278
#     4   9  18  30  44  65  88 113 150 194 238 284
#     4  11  21  32  48  71  97 129 162 199 250 298
#     4  10  20  34  49  62  83 118 155 191 236 289
#     4  11  22  32  45  66  92 117 149 191 234 287
#
# _framework density 16.873584999999999
#
# number of rings (size 3 to 8) (size 9 to 14) (size 15 to 20)
#    0.000    2.385    2.308    1.154    0.000    3.385 
#    0.000    0.385    0.000    1.385    0.000    3.769 
#    0.000    4.308    0.000    0.000    0.000    0.000 
#
# Total GULP energy -644324.745398 kJ/mol
# GULP energy per Si atom -12390.860488 kJ/mol
# Density = 1.683518 g / cm^3
# Si number density = 16.873585 Si / 1000 Ang^3
#
#
#
# Elastic Constant Matrix: (Units=GPa)
#
#
# Indices 1 2 3 4 5 6 
#
# 1 53.1458 31.6137 19.3403 0.0000 0.0000 0.0000
# 2 31.6137 136.6263 55.3366 0.0000 0.0000 0.0000
# 3 19.3403 55.3366 61.9438 0.0000 0.0000 0.0000
# 4 0.0000 0.0000 0.0000 27.3771 0.0000 0.0000
# 5 0.0000 0.0000 0.0000 0.0000 13.4736 0.0000
# 6 0.0000 0.0000 0.0000 0.0000 0.0000 42.9074
#
#
#
# Elastic Compliance Matrix: (Units=1/GPa)
#
#
# Indices 1 2 3 4 5 6 
#
# 1 0.022346 -0.003674 -0.003695 0.000000 0.000000 0.000000
# 2 -0.003674 0.012073 -0.009638 0.000000 0.000000 0.000000
# 3 -0.003695 -0.009638 0.025907 0.000000 0.000000 0.000000
# 4 0.000000 0.000000 0.000000 0.036527 0.000000 0.000000
# 5 0.000000 0.000000 0.000000 0.000000 0.074219 0.000000
# 6 0.000000 0.000000 0.000000 0.000000 0.000000 0.023306
#
#
# Mechanical properties :
#
#
# Convention : Reuss Voigt Hill
#
# Bulk Modulus (GPa) = 38.00464 51.58856 44.79660
# Shear Modulus (GPa) = 21.08246 26.44663 23.76454
#
# Velocity S-wave (km/s) = 3.53857 3.96326 3.75692
# Velocity P-wave (km/s) = 6.26637 7.18214 6.73983
#
# Compressibility (1/GPa) = 0.02631257
#
# Stress axis : x y z
#
# Youngs Moduli (GPa) = 44.75008 82.82904 38.59909
#
# Poissons Ratio (x) = 0.30433 0.14261
# Poissons Ratio (y) = 0.16442 0.37202
# Poissons Ratio (z) = 0.16534 0.79832
#
# Static dielectric constant tensor:
#      x y z
#    x 2.878110 0.000000 0.000000 
#    y 0.000000 3.547450 0.000000 
#    z 0.000000 0.000000 3.273090 
# 
# 
# High freq. dielectric constant tensor:
#      x y z
#    x 1.608200 0.000000 0.000000 
#    y 0.000000 1.654780 0.000000 
#    z 0.000000 0.000000 1.644660 
# 
# From -- ./inp_files/12610.got.cif
#   From: 2010.03.12/outbox.cif.g09.slc.cpg/sg47_7_cif.got.tgz:12610.got - 2010.04.14 03:12:58.
