data_PCOD8195846
_publ_section_title
;
Structure prediction by ZEFSAII (Michael W. Deem and Ramdas Pophale) SiO2 
 PCOD8195846
Probable space group: P M M M
;
_chemical_formula_sum "Si O2"
_cell_formula_units_Z 40
_cell_length_a 28.801970
_cell_length_b 9.163593
_cell_length_c 7.822664
_cell_angle_alpha 90.000000
_cell_angle_beta 90.000000
_cell_angle_gamma 90.000000
_cell_volume 2064.632038
_symmetry_space_group_name_H-M "P M M M"
_symmetry_group_IT_number 47
_symmetry_cell_setting 'orthorhombic'
loop_
_space_group_symop_operation_xyz
x,y,z
-x,-y,z
x,-y,-z
-x,y,-z
-x,-y,-z
x,y,-z
-x,y,z
x,-y,z
loop_
_atom_site_type_symbol
_atom_site_label
_atom_site_fract_x
_atom_site_fract_y
_atom_site_fract_z
Si Si1 0.051329 0.331658 0.301517
Si Si2 0.765982 0.827315 0.688160
Si Si3 0.862058 0.839456 0.806555
Si Si4 0.604903 0.674216 0.000000
Si Si5 0.703486 0.825599 0.000000
Si Si6 0.554675 0.167177 0.694906
O O1 0.061107 0.307024 0.500000
O O2 0.053490 0.500000 0.252507
O O3 0.090971 0.251882 0.197081
O O4 0.000000 0.270871 0.253273
O O5 0.747125 0.783201 0.500000
O O6 0.818512 0.764415 0.708712
O O7 0.730851 0.769476 0.831856
O O8 0.770135 0.000000 0.709861
O O9 0.872807 0.000000 0.730175
O O10 0.845120 0.852655 0.000000
O O11 0.655454 0.742551 0.000000
O O12 0.579222 0.726078 0.828136
O O13 0.607109 0.500000 0.000000
O O14 0.695712 0.000000 0.000000
O O15 0.569164 0.207774 0.500000
O O16 0.500000 0.185782 0.717705
O O17 0.569201 0.000000 0.733808
#
# Coordination Sequence:
#
# PCOD8195846 Si02
#       6
#     8   8   8   4   4   8
#     4   9  19  35  51  69  98 136 176 214 254 311
#     4   9  17  32  56  81 103 131 172 227 284 328
#     4  10  19  32  52  79 107 131 164 216 271 325
#     4  12  25  37  54  85 126 165 195 234 295 355
#     4  10  20  37  57  78 105 142 192 239 275 330
#     4   9  19  38  64  91 118 154 204 253 290 333
#
# _framework density 19.373912000000001
#
# number of rings (size 3 to 8) (size 9 to 14) (size 15 to 20)
#    0.000    2.400    1.000    3.000    0.000    5.200 
#    0.000    7.000    0.000    1.200    0.000    0.000 
#    0.000    0.000    0.000    0.000    0.000    0.000 
#
# Total GULP energy -495816.238125 kJ/mol
# GULP energy per Si atom -12395.405953 kJ/mol
# Density = 1.932982 g / cm^3
# Si number density = 19.373912 Si / 1000 Ang^3
#
#
#
# Elastic Constant Matrix: (Units=GPa)
#
#
# Indices 1 2 3 4 5 6 
#
# 1 117.5263 45.3649 65.1403 0.0000 0.0000 0.0000
# 2 45.3649 63.7758 42.9674 0.0000 0.0000 0.0000
# 3 65.1403 42.9674 131.5037 0.0000 0.0000 0.0000
# 4 0.0000 0.0000 0.0000 19.6495 0.0000 0.0000
# 5 0.0000 0.0000 0.0000 0.0000 -0.8133 0.0000
# 6 0.0000 0.0000 0.0000 0.0000 0.0000 -45.1836
#
#
#
# Elastic Compliance Matrix: (Units=1/GPa)
#
#
# Indices 1 2 3 4 5 6 
#
# 1 0.013587 -0.006578 -0.004581 0.000000 0.000000 0.000000
# 2 -0.006578 0.023291 -0.004351 0.000000 0.000000 0.000000
# 3 -0.004581 -0.004351 0.011295 0.000000 0.000000 0.000000
# 4 0.000000 0.000000 0.000000 0.050892 0.000000 0.000000
# 5 0.000000 0.000000 0.000000 0.000000 -1.229617 0.000000
# 6 0.000000 0.000000 0.000000 0.000000 0.000000 -0.022132
#
#
# Mechanical properties :
#
#
# Convention : Reuss Voigt Hill
#
# Bulk Modulus (GPa) = 58.30316 68.86122 63.58219
# Shear Modulus (GPa) = -4.48051 5.35273 0.43611
#
# Velocity S-wave (km/s) = -1.52239 1.66399 0.47497
# Velocity P-wave (km/s) = 5.20276 6.26995 5.76112
#
# Compressibility (1/GPa) = 0.01715173
#
# Stress axis : x y z
#
# Youngs Moduli (GPa) = 73.59974 42.93510 88.53252
#
# Poissons Ratio (x) = 0.28245 0.40556
# Poissons Ratio (y) = 0.48417 0.38524
# Poissons Ratio (z) = 0.33715 0.18683
#
# Static dielectric constant tensor:
#      x y z
#    x 3.696640 0.000000 0.000000 
#    y 0.000000 3.187590 0.000000 
#    z 0.000000 0.000000 3.683230 
# 
# 
# High freq. dielectric constant tensor:
#      x y z
#    x 1.758500 0.000000 0.000000 
#    y 0.000000 1.710970 0.000000 
#    z 0.000000 0.000000 1.767010 
# 
# From -- ./inp_files/1892.got.cif
#   From: 2010.03.12/outbox.cif.g09.slc.cpg/sg47_1_cif.got.tgz:1892.got - 2010.04.14 03:12:58.
