data_PCOD8195299
_publ_section_title
;
Structure prediction by ZEFSAII (Michael W. Deem and Ramdas Pophale) SiO2 
 PCOD8195299
Probable space group: P M M M
;
_chemical_formula_sum "Si O2"
_cell_formula_units_Z 36
_cell_length_a 15.455004
_cell_length_b 16.891437
_cell_length_c 8.782225
_cell_angle_alpha 90.000000
_cell_angle_beta 90.000000
_cell_angle_gamma 90.000000
_cell_volume 2292.663300
_symmetry_space_group_name_H-M "P M M M"
_symmetry_group_IT_number 47
_symmetry_cell_setting 'orthorhombic'
loop_
_space_group_symop_operation_xyz
x,y,z
-x,-y,z
x,-y,-z
-x,y,-z
-x,-y,-z
x,y,-z
-x,y,z
x,-y,z
loop_
_atom_site_type_symbol
_atom_site_label
_atom_site_fract_x
_atom_site_fract_y
_atom_site_fract_z
Si Si1 0.897267 0.000000 0.828559
Si Si2 0.676866 0.592535 0.678113
Si Si3 0.000000 0.411524 0.818908
Si Si4 0.500000 0.593794 0.171227
Si Si5 0.900470 0.838901 0.320259
Si Si6 0.834557 0.684001 0.180426
O O1 0.863820 0.077988 0.742072
O O2 0.000000 0.000000 0.826800
O O3 0.860865 0.000000 0.000000
O O4 0.683654 0.609976 0.500000
O O5 0.690564 0.500000 0.714313
O O6 0.584247 0.622958 0.737791
O O7 0.747614 0.642014 0.767898
O O8 0.915277 0.367038 0.757476
O O9 0.000000 0.500000 0.751094
O O10 0.000000 0.413977 0.000000
O O11 0.500000 0.500000 0.164648
O O12 0.500000 0.628962 0.000000
O O13 0.892147 0.839016 0.500000
O O14 0.840136 0.771109 0.250871
O O15 0.000000 0.825417 0.268508
O O16 0.836203 0.690919 0.000000
#
# Coordination Sequence:
#
# PCOD8195299 Si02
#       6
#     4   8   4   4   8   8
#     4   9  17  29  47  67  87 114 153 192 231 279
#     4  10  20  33  48  68  94 123 155 195 243 288
#     4   9  18  30  43  60  85 120 161 201 234 265
#     4   9  17  31  51  71  89 114 151 194 239 287
#     4  10  19  31  46  65  92 122 154 192 238 282
#     4  11  20  31  47  66  92 124 162 200 234 275
#
# _framework density 15.702263
#
# number of rings (size 3 to 8) (size 9 to 14) (size 15 to 20)
#    0.000    2.111    1.111    3.333    0.000    5.778 
#    0.000    0.000    0.000    2.667    0.000    0.000 
#    0.000    0.889    0.000    8.889    0.000    5.333 
#
# Total GULP energy -446478.248055 kJ/mol
# GULP energy per Si atom -12402.173557 kJ/mol
# Density = 1.566652 g / cm^3
# Si number density = 15.702263 Si / 1000 Ang^3
#
#
#
# Elastic Constant Matrix: (Units=GPa)
#
#
# Indices 1 2 3 4 5 6 
#
# 1 83.7308 40.1355 22.1395 0.0000 0.0000 0.0000
# 2 40.1355 105.3864 36.9730 0.0000 0.0000 0.0000
# 3 22.1395 36.9730 73.4709 0.0000 0.0000 0.0000
# 4 0.0000 0.0000 0.0000 26.9603 0.0000 0.0000
# 5 0.0000 0.0000 0.0000 0.0000 24.4432 0.0000
# 6 0.0000 0.0000 0.0000 0.0000 0.0000 0.5941
#
#
#
# Elastic Compliance Matrix: (Units=1/GPa)
#
#
# Indices 1 2 3 4 5 6 
#
# 1 0.014843 -0.004959 -0.001977 0.000000 0.000000 0.000000
# 2 -0.004959 0.013180 -0.005138 0.000000 0.000000 0.000000
# 3 -0.001977 -0.005138 0.016792 0.000000 0.000000 0.000000
# 4 0.000000 0.000000 0.000000 0.037092 0.000000 0.000000
# 5 0.000000 0.000000 0.000000 0.000000 0.040911 0.000000
# 6 0.000000 0.000000 0.000000 0.000000 0.000000 1.683182
#
#
# Mechanical properties :
#
#
# Convention : Reuss Voigt Hill
#
# Bulk Modulus (GPa) = 48.38792 51.23157 49.80974
# Shear Modulus (GPa) = 2.72177 21.28887 12.00532
#
# Velocity S-wave (km/s) = 1.31800 3.68609 2.76807
# Velocity P-wave (km/s) = 5.76185 7.12840 6.48124
#
# Compressibility (1/GPa) = 0.02066631
#
# Stress axis : x y z
#
# Youngs Moduli (GPa) = 67.37213 75.87105 59.55073
#
# Poissons Ratio (x) = 0.37626 0.11774
# Poissons Ratio (y) = 0.33411 0.30599
# Poissons Ratio (z) = 0.13320 0.38985
#
# Static dielectric constant tensor:
#      x y z
#    x 2.876550 0.000000 0.000000 
#    y 0.000000 2.975750 0.000000 
#    z 0.000000 0.000000 3.034840 
# 
# 
# High freq. dielectric constant tensor:
#      x y z
#    x 1.574330 0.000000 0.000000 
#    y 0.000000 1.589640 0.000000 
#    z 0.000000 0.000000 1.614740 
# 
# From -- ./inp_files/5571.got.cif
#   From: 2010.03.12/outbox.cif.g09.slc.cpg/sg47_3_cif.got.tgz:5571.got - 2010.04.14 03:12:58.
