data_PCOD8195628
_publ_section_title
;
Structure prediction by ZEFSAII (Michael W. Deem and Ramdas Pophale) SiO2 
 PCOD8195628
Probable space group: P M M M
;
_chemical_formula_sum "Si O2"
_cell_formula_units_Z 52
_cell_length_a 8.389446
_cell_length_b 16.991533
_cell_length_c 27.232994
_cell_angle_alpha 90.000000
_cell_angle_beta 90.000000
_cell_angle_gamma 90.000000
_cell_volume 3882.051001
_symmetry_space_group_name_H-M "P M M M"
_symmetry_group_IT_number 47
_symmetry_cell_setting 'orthorhombic'
loop_
_space_group_symop_operation_xyz
x,y,z
-x,-y,z
x,-y,-z
-x,y,-z
-x,-y,-z
x,y,-z
-x,y,z
x,-y,z
loop_
_atom_site_type_symbol
_atom_site_label
_atom_site_fract_x
_atom_site_fract_y
_atom_site_fract_z
Si Si1 0.000000 0.406513 0.444161
Si Si2 0.818829 0.407025 0.000000
Si Si3 0.319115 0.405995 0.611363
Si Si4 0.814430 0.838580 0.945188
Si Si5 0.816957 0.591340 0.819329
Si Si6 0.681846 0.000000 0.942214
Si Si7 0.683142 0.682293 0.908613
Si Si8 0.682083 0.410179 0.280040
O O1 0.167360 0.374683 0.420410
O O2 0.000000 0.500000 0.440448
O O3 0.000000 0.376994 0.500000
O O4 0.736531 0.376021 0.951322
O O5 0.806614 0.500000 0.000000
O O6 0.000000 0.377003 0.000000
O O7 0.500000 0.379506 0.593289
O O8 0.319291 0.500000 0.611697
O O9 0.290148 0.371214 0.666403
O O10 0.771801 0.765727 0.910518
O O11 0.000000 0.844691 0.950571
O O12 0.755675 0.919897 0.920197
O O13 0.738876 0.826168 0.000000
O O14 0.763217 0.500000 0.822062
O O15 0.712974 0.641648 0.856645
O O16 0.788224 0.625563 0.764181
O O17 0.000000 0.600843 0.834075
O O18 0.500000 0.000000 0.927669
O O19 0.715624 0.000000 0.000000
O O20 0.500000 0.701074 0.915217
O O21 0.500000 0.401382 0.263608
O O22 0.733309 0.500000 0.286326
#
# Coordination Sequence:
#
# PCOD8195628 Si02
#       8
#     4   4   8   8   8   4   8   8
#     4   9  16  22  30  46  66  88 114 141 175 222
#     4  11  23  37  49  58  73  98 127 155 183 225
#     4   8  14  23  34  47  64  86 112 143 180 221
#     4  10  19  32  49  65  83 103 123 145 175 216
#     4  10  20  31  43  58  75  96 123 157 194 230
#     4   9  17  29  47  69  89 101 119 145 170 206
#     4  12  23  33  46  61  79 100 124 152 186 225
#     4   8  14  25  39  53  67  85 113 150 188 223
#
# _framework density 13.39498
#
# number of rings (size 3 to 8) (size 9 to 14) (size 15 to 20)
#    0.000    2.385    0.769    4.154    1.077    5.231 
#    0.000    1.538    0.000    0.000    0.000    0.000 
#    0.000    0.000    0.000    0.000    0.000    0.000 
#
# Total GULP energy -644370.238731 kJ/mol
# GULP energy per Si atom -12391.735360 kJ/mol
# Density = 1.336449 g / cm^3
# Si number density = 13.394980 Si / 1000 Ang^3
#
#
#
# Elastic Constant Matrix: (Units=GPa)
#
#
# Indices 1 2 3 4 5 6 
#
# 1 73.2291 18.1010 32.3705 0.0000 0.0000 0.0000
# 2 18.1010 45.4801 18.3372 0.0000 0.0000 0.0000
# 3 32.3705 18.3372 73.1582 0.0000 0.0000 0.0000
# 4 0.0000 0.0000 0.0000 1.3190 0.0000 0.0000
# 5 0.0000 0.0000 0.0000 0.0000 22.1737 0.0000
# 6 0.0000 0.0000 0.0000 0.0000 0.0000 30.2686
#
#
#
# Elastic Compliance Matrix: (Units=1/GPa)
#
#
# Indices 1 2 3 4 5 6 
#
# 1 0.017710 -0.004326 -0.006752 0.000000 0.000000 0.000000
# 2 -0.004326 0.025516 -0.004481 0.000000 0.000000 0.000000
# 3 -0.006752 -0.004481 0.017780 0.000000 0.000000 0.000000
# 4 0.000000 0.000000 0.000000 0.758173 0.000000 0.000000
# 5 0.000000 0.000000 0.000000 0.000000 0.045099 0.000000
# 6 0.000000 0.000000 0.000000 0.000000 0.000000 0.033037
#
#
# Mechanical properties :
#
#
# Convention : Reuss Voigt Hill
#
# Bulk Modulus (GPa) = 33.45933 36.60943 35.03438
# Shear Modulus (GPa) = 5.32824 18.95617 12.14220
#
# Velocity S-wave (km/s) = 1.99660 3.76596 3.01404
# Velocity P-wave (km/s) = 5.50894 6.80441 6.19065
#
# Compressibility (1/GPa) = 0.02988703
#
# Stress axis : x y z
#
# Youngs Moduli (GPa) = 56.46628 39.19057 56.24388
#
# Poissons Ratio (x) = 0.16955 0.37974
# Poissons Ratio (y) = 0.24429 0.25205
# Poissons Ratio (z) = 0.38124 0.17563
#
# Static dielectric constant tensor:
#      x y z
#    x 2.874220 0.000000 0.000000 
#    y 0.000000 2.380830 0.000000 
#    z 0.000000 0.000000 2.741010 
# 
# 
# High freq. dielectric constant tensor:
#      x y z
#    x 1.530480 0.000000 0.000000 
#    y 0.000000 1.451770 0.000000 
#    z 0.000000 0.000000 1.490360 
# 
# From -- ./inp_files/32032.got.cif
#   From: 2010.03.12/outbox.cif.g09.slc.cpg/sg47_17_cif.got.tgz:32032.got - 2010.04.14 03:12:58.
