data_PCOD8195253
_publ_section_title
;
Structure prediction by ZEFSAII (Michael W. Deem and Ramdas Pophale) SiO2 
 PCOD8195253
Probable space group: P M M M
;
_chemical_formula_sum "Si O2"
_cell_formula_units_Z 44
_cell_length_a 7.909423
_cell_length_b 27.640941
_cell_length_c 10.240212
_cell_angle_alpha 90.000000
_cell_angle_beta 90.000000
_cell_angle_gamma 90.000000
_cell_volume 2238.755028
_symmetry_space_group_name_H-M "P M M M"
_symmetry_group_IT_number 47
_symmetry_cell_setting 'orthorhombic'
loop_
_space_group_symop_operation_xyz
x,y,z
-x,-y,z
x,-y,-z
-x,y,-z
-x,-y,-z
x,y,-z
-x,y,z
x,-y,z
loop_
_atom_site_type_symbol
_atom_site_label
_atom_site_fract_x
_atom_site_fract_y
_atom_site_fract_z
Si Si1 0.188299 0.778306 0.646799
Si Si2 0.685908 0.943418 0.500000
Si Si3 0.187656 0.446000 0.845433
Si Si4 0.500000 0.709142 0.348368
Si Si5 0.500000 0.380699 0.156649
Si Si6 0.806525 0.054095 0.776932
Si Si7 0.308682 0.152286 0.856210
O O1 0.220354 0.798139 0.500000
O O2 0.330182 0.739114 0.681844
O O3 0.192670 0.823074 0.747037
O O4 0.000000 0.755046 0.656954
O O5 0.500000 0.918126 0.500000
O O6 0.791217 0.928611 0.373018
O O7 0.658375 0.000000 0.500000
O O8 0.222414 0.500000 0.789843
O O9 0.333546 0.409962 0.797517
O O10 0.000000 0.428290 0.799717
O O11 0.193355 0.448468 0.000000
O O12 0.500000 0.691195 0.500000
O O13 0.500000 0.667231 0.241998
O O14 0.500000 0.369931 0.000000
O O15 0.709629 0.094028 0.861158
O O16 0.000000 0.053686 0.819590
O O17 0.729301 0.000000 0.799059
O O18 0.500000 0.166034 0.823050
O O19 0.259091 0.171929 0.000000
#
# Coordination Sequence:
#
# PCOD8195253 Si02
#       7
#     8   4   8   4   4   8   8
#     4  10  22  42  67  88 107 142 190 236 287 347
#     4   9  17  31  51  75 103 137 177 219 259 301
#     4   8  14  26  46  76 116 158 200 246 289 329
#     4  10  22  41  59  83 117 149 184 237 296 353
#     4  10  19  30  52  84 114 149 197 244 287 341
#     4  10  21  36  54  79 112 147 181 217 262 322
#     4  11  24  40  60  86 114 144 180 224 277 338
#
# _framework density 19.653780000000001
#
# number of rings (size 3 to 8) (size 9 to 14) (size 15 to 20)
#    0.000    2.273    0.909    2.182    1.273    6.545 
#    0.000    1.818    0.000    1.091    0.000    1.273 
#    0.000    0.000    0.000    0.000    0.000    0.000 
#
# Total GULP energy -545301.604025 kJ/mol
# GULP energy per Si atom -12393.218273 kJ/mol
# Density = 1.960905 g / cm^3
# Si number density = 19.653780 Si / 1000 Ang^3
#
#
#
# Elastic Constant Matrix: (Units=GPa)
#
#
# Indices 1 2 3 4 5 6 
#
# 1 126.7632 59.2533 43.9430 0.0000 0.0000 0.0000
# 2 59.2533 101.4866 50.2864 0.0000 0.0000 0.0000
# 3 43.9430 50.2864 78.4209 0.0000 0.0000 0.0000
# 4 0.0000 0.0000 0.0000 25.0059 0.0000 0.0000
# 5 0.0000 0.0000 0.0000 0.0000 3.3160 0.0000
# 6 0.0000 0.0000 0.0000 0.0000 0.0000 23.0261
#
#
#
# Elastic Compliance Matrix: (Units=1/GPa)
#
#
# Indices 1 2 3 4 5 6 
#
# 1 0.011339 -0.005089 -0.003090 0.000000 0.000000 0.000000
# 2 -0.005089 0.016726 -0.007874 0.000000 0.000000 0.000000
# 3 -0.003090 -0.007874 0.019533 0.000000 0.000000 0.000000
# 4 0.000000 0.000000 0.000000 0.039991 0.000000 0.000000
# 5 0.000000 0.000000 0.000000 0.000000 0.301570 0.000000
# 6 0.000000 0.000000 0.000000 0.000000 0.000000 0.043429
#
#
# Mechanical properties :
#
#
# Convention : Reuss Voigt Hill
#
# Bulk Modulus (GPa) = 64.55394 68.18178 66.36786
# Shear Modulus (GPa) = 10.64153 20.48212 15.56183
#
# Velocity S-wave (km/s) = 2.32943 3.23173 2.81694
# Velocity P-wave (km/s) = 6.33655 6.97798 6.66499
#
# Compressibility (1/GPa) = 0.01549092
#
# Stress axis : x y z
#
# Youngs Moduli (GPa) = 88.19326 59.78649 51.19663
#
# Poissons Ratio (x) = 0.30424 0.15822
# Poissons Ratio (y) = 0.44880 0.40312
# Poissons Ratio (z) = 0.27256 0.47076
#
# Static dielectric constant tensor:
#      x y z
#    x 3.841150 0.000000 0.000000 
#    y 0.000000 3.343670 0.000000 
#    z 0.000000 0.000000 3.493240 
# 
# 
# High freq. dielectric constant tensor:
#      x y z
#    x 1.780020 0.000000 0.000000 
#    y 0.000000 1.735180 0.000000 
#    z 0.000000 0.000000 1.745260 
# 
# From -- ./inp_files/2338.got.cif
#   From: 2010.03.12/outbox.cif.g09.slc.cpg/sg47_2_cif.got.tgz:2338.got - 2010.04.14 03:12:58.
