data_PCOD8195619
_publ_section_title
;
Structure prediction by ZEFSAII (Michael W. Deem and Ramdas Pophale) SiO2 
 PCOD8195619
Probable space group: P M M M
;
_chemical_formula_sum "Si O2"
_cell_formula_units_Z 52
_cell_length_a 15.340852
_cell_length_b 9.392609
_cell_length_c 27.361607
_cell_angle_alpha 90.000000
_cell_angle_beta 90.000000
_cell_angle_gamma 90.000000
_cell_volume 3942.551042
_symmetry_space_group_name_H-M "P M M M"
_symmetry_group_IT_number 47
_symmetry_cell_setting 'orthorhombic'
loop_
_space_group_symop_operation_xyz
x,y,z
-x,-y,z
x,-y,-z
-x,y,-z
-x,-y,-z
x,y,-z
-x,y,z
x,-y,z
loop_
_atom_site_type_symbol
_atom_site_label
_atom_site_fract_x
_atom_site_fract_y
_atom_site_fract_z
Si Si1 0.603912 0.839391 0.804591
Si Si2 0.595460 0.330991 0.000000
Si Si3 0.600590 0.662706 0.712867
Si Si4 0.500000 0.834778 0.557603
Si Si5 0.834873 0.664284 0.443409
Si Si6 0.000000 0.838993 0.558138
Si Si7 0.604438 0.339723 0.895172
Si Si8 0.345251 0.335032 0.393942
O O1 0.500000 0.832829 0.805307
O O2 0.638471 0.760421 0.756151
O O3 0.641372 0.762898 0.853008
O O4 0.638934 0.000000 0.803959
O O5 0.642115 0.287818 0.051455
O O6 0.585045 0.500000 0.000000
O O7 0.500000 0.259368 0.000000
O O8 0.500000 0.698207 0.701499
O O9 0.610884 0.500000 0.729892
O O10 0.654493 0.694735 0.663934
O O11 0.500000 0.813340 0.500000
O O12 0.414241 0.762729 0.578945
O O13 0.500000 0.000000 0.572461
O O14 0.815662 0.697579 0.500000
O O15 0.860377 0.500000 0.436061
O O16 0.914009 0.758754 0.422602
O O17 0.749820 0.706339 0.413001
O O18 0.000000 0.834470 0.500000
O O19 0.000000 0.000000 0.578113
O O20 0.500000 0.335565 0.897329
O O21 0.635783 0.500000 0.883388
O O22 0.368056 0.500000 0.404930
#
# Coordination Sequence:
#
# PCOD8195619 Si02
#       8
#     8   4   8   4   8   4   8   8
#     4   9  16  23  31  44  61  81 107 138 173 211
#     4   7  10  16  27  41  55  71  95 127 165 208
#     4   9  16  27  40  52  66  87 117 150 181 212
#     4  11  23  33  41  57  81 105 125 148 181 222
#     4   9  17  29  46  65  81  97 119 148 181 217
#     4   9  17  29  45  63  83 103 119 139 171 214
#     4   8  12  19  30  42  55  74 100 131 167 208
#     4  10  19  32  47  61  75  97 128 158 185 217
#
# _framework density 13.189429000000001
#
# number of rings (size 3 to 8) (size 9 to 14) (size 15 to 20)
#    0.000    3.000    0.769    2.308    0.000    5.231 
#    0.000    1.923    0.000    2.308    0.000    0.000 
#    0.000    0.000    0.000    0.000    0.000    0.000 
#
# Total GULP energy -644507.832256 kJ/mol
# GULP energy per Si atom -12394.381390 kJ/mol
# Density = 1.315941 g / cm^3
# Si number density = 13.189429 Si / 1000 Ang^3
#
#
#
# Elastic Constant Matrix: (Units=GPa)
#
#
# Indices 1 2 3 4 5 6 
#
# 1 57.2156 39.6080 38.4649 0.0000 0.0000 0.0000
# 2 39.6080 88.0736 57.6088 0.0000 0.0000 0.0000
# 3 38.4649 57.6088 102.0999 0.0000 0.0000 0.0000
# 4 0.0000 0.0000 0.0000 13.0514 0.0000 0.0000
# 5 0.0000 0.0000 0.0000 0.0000 -5.4116 0.0000
# 6 0.0000 0.0000 0.0000 0.0000 0.0000 7.8576
#
#
#
# Elastic Compliance Matrix: (Units=1/GPa)
#
#
# Indices 1 2 3 4 5 6 
#
# 1 0.027060 -0.008719 -0.005275 0.000000 0.000000 0.000000
# 2 -0.008719 0.020805 -0.008454 0.000000 0.000000 0.000000
# 3 -0.005275 -0.008454 0.016552 0.000000 0.000000 0.000000
# 4 0.000000 0.000000 0.000000 0.076620 0.000000 0.000000
# 5 0.000000 0.000000 0.000000 0.000000 -0.184787 0.000000
# 6 0.000000 0.000000 0.000000 0.000000 0.000000 0.127265
#
#
# Mechanical properties :
#
#
# Convention : Reuss Voigt Hill
#
# Bulk Modulus (GPa) = 51.22828 57.63919 54.43374
# Shear Modulus (GPa) = 37.05960 10.54663 23.80311
#
# Velocity S-wave (km/s) = 5.30650 2.83084 4.25280
# Velocity P-wave (km/s) = 8.74471 7.38111 8.09169
#
# Compressibility (1/GPa) = 0.01952047
#
# Stress axis : x y z
#
# Youngs Moduli (GPa) = 36.95538 48.06508 60.41614
#
# Poissons Ratio (x) = 0.41907 0.31869
# Poissons Ratio (y) = 0.32221 0.51078
# Poissons Ratio (z) = 0.19494 0.40636
#
# Static dielectric constant tensor:
#      x y z
#    x 2.231030 0.000000 0.000000 
#    y 0.000000 2.711120 0.000000 
#    z 0.000000 0.000000 2.827350 
# 
# 
# High freq. dielectric constant tensor:
#      x y z
#    x 1.436000 0.000000 0.000000 
#    y 0.000000 1.504210 0.000000 
#    z 0.000000 0.000000 1.503350 
# 
# From -- ./inp_files/33800.got.cif
#   From: 2010.03.12/outbox.cif.g09.slc.cpg/sg47_17_cif.got.tgz:33800.got - 2010.04.14 03:12:58.
