data_PCOD8195565
_publ_section_title
;
Structure prediction by ZEFSAII (Michael W. Deem and Ramdas Pophale) SiO2 
 PCOD8195565
Probable space group: P M M M
;
_chemical_formula_sum "Si O2"
_cell_formula_units_Z 64
_cell_length_a 20.339918
_cell_length_b 18.681056
_cell_length_c 8.793142
_cell_angle_alpha 90.000000
_cell_angle_beta 90.000000
_cell_angle_gamma 90.000000
_cell_volume 3341.140253
_symmetry_space_group_name_H-M "P M M M"
_symmetry_group_IT_number 47
_symmetry_cell_setting 'orthorhombic'
loop_
_space_group_symop_operation_xyz
x,y,z
-x,-y,z
x,-y,-z
-x,y,-z
-x,-y,-z
x,y,-z
-x,y,z
x,-y,z
loop_
_atom_site_type_symbol
_atom_site_label
_atom_site_fract_x
_atom_site_fract_y
_atom_site_fract_z
Si Si1 0.693801 0.330019 0.680978
Si Si2 0.427359 0.080327 0.319203
Si Si3 0.427265 0.419643 0.680947
Si Si4 0.923612 0.827549 0.322598
Si Si5 0.304756 0.168712 0.681000
Si Si6 0.185716 0.917269 0.821633
Si Si7 0.924261 0.320764 0.176826
Si Si8 0.820173 0.417219 0.678304
O O1 0.690995 0.330318 0.500000
O O2 0.627705 0.366363 0.748247
O O3 0.698606 0.249458 0.744138
O O4 0.756509 0.374613 0.737945
O O5 0.425321 0.080690 0.500000
O O6 0.500000 0.105455 0.263939
O O7 0.371621 0.133029 0.253928
O O8 0.413149 0.000000 0.259564
O O9 0.423965 0.419460 0.500000
O O10 0.500000 0.394483 0.734510
O O11 0.413149 0.500000 0.740188
O O12 0.908022 0.833505 0.500000
O O13 0.884685 0.888799 0.233657
O O14 0.900342 0.749504 0.266971
O O15 0.000000 0.839436 0.285449
O O16 0.304225 0.167764 0.500000
O O17 0.242529 0.125460 0.737778
O O18 0.191307 0.000000 0.776161
O O19 0.192468 0.905495 0.000000
O O20 0.883681 0.388995 0.232992
O O21 0.000000 0.337657 0.212479
O O22 0.912158 0.306674 0.000000
O O23 0.831356 0.405323 0.500000
O O24 0.809929 0.500000 0.718165
#
# Coordination Sequence:
#
# PCOD8195565 Si02
#       8
#     8   8   8   8   8   8   8   8
#     4   9  17  28  43  67  98 130 168 215 263 308
#     4   8  14  25  42  67  99 131 164 209 268 327
#     4   8  13  22  38  62  96 137 172 202 246 306
#     4  10  21  38  61  86 110 137 171 211 254 306
#     4  10  19  31  51  76 101 134 177 224 271 319
#     4  11  24  39  55  77 107 142 177 216 263 312
#     4  10  21  37  57  80 107 138 170 209 260 315
#     4  10  20  33  50  72 101 139 180 222 267 314
#
# _framework density 19.155138000000001
#
# number of rings (size 3 to 8) (size 9 to 14) (size 15 to 20)
#    0.000    2.500    0.000    3.375    0.000    6.750 
#    0.000    5.000    0.000    0.375    0.000    1.750 
#    0.000    1.500    0.000    6.875    0.000    6.250 
#
# Total GULP energy -793616.317787 kJ/mol
# GULP energy per Si atom -12400.254965 kJ/mol
# Density = 1.911154 g / cm^3
# Si number density = 19.155138 Si / 1000 Ang^3
#
#
#
# Elastic Constant Matrix: (Units=GPa)
#
#
# Indices 1 2 3 4 5 6 
#
# 1 127.4319 82.1767 19.0979 0.0000 0.0000 0.0000
# 2 82.1767 145.8929 21.6373 0.0000 0.0000 0.0000
# 3 19.0979 21.6373 16.4007 0.0000 0.0000 0.0000
# 4 0.0000 0.0000 0.0000 18.7475 0.0000 0.0000
# 5 0.0000 0.0000 0.0000 0.0000 7.9555 0.0000
# 6 0.0000 0.0000 0.0000 0.0000 0.0000 44.3398
#
#
#
# Elastic Compliance Matrix: (Units=1/GPa)
#
#
# Indices 1 2 3 4 5 6 
#
# 1 0.012899 -0.006264 -0.006757 0.000000 0.000000 0.000000
# 2 -0.006264 0.011563 -0.007962 0.000000 0.000000 0.000000
# 3 -0.006757 -0.007962 0.079345 0.000000 0.000000 0.000000
# 4 0.000000 0.000000 0.000000 0.053340 0.000000 0.000000
# 5 0.000000 0.000000 0.000000 0.000000 0.125700 0.000000
# 6 0.000000 0.000000 0.000000 0.000000 0.000000 0.022553
#
#
# Mechanical properties :
#
#
# Convention : Reuss Voigt Hill
#
# Bulk Modulus (GPa) = 16.17000 59.50549 37.83775
# Shear Modulus (GPa) = 13.58773 25.32946 19.45860
#
# Velocity S-wave (km/s) = 2.66625 3.64033 3.19069
# Velocity P-wave (km/s) = 4.23538 6.98583 5.77669
#
# Compressibility (1/GPa) = 0.06184292
#
# Stress axis : x y z
#
# Youngs Moduli (GPa) = 77.52459 86.48155 12.60319
#
# Poissons Ratio (x) = 0.54168 0.08516
# Poissons Ratio (y) = 0.48558 0.10034
# Poissons Ratio (z) = 0.52384 0.68853
#
# Static dielectric constant tensor:
#      x y z
#    x 3.760690 0.000000 0.000000 
#    y 0.000000 3.682780 0.000000 
#    z 0.000000 0.000000 3.060660 
# 
# 
# High freq. dielectric constant tensor:
#      x y z
#    x 1.760580 0.000000 0.000000 
#    y 0.000000 1.749250 0.000000 
#    z 0.000000 0.000000 1.700430 
# 
# From -- ./inp_files/11552.got.cif
#   From: 2010.03.12/outbox.cif.g09.slc.cpg/sg47_6_cif.got.tgz:11552.got - 2010.04.14 03:12:58.
