data_PCOD8195424
_publ_section_title
;
Structure prediction by ZEFSAII (Michael W. Deem and Ramdas Pophale) SiO2 
 PCOD8195424
Probable space group: P M M M
;
_chemical_formula_sum "Si O2"
_cell_formula_units_Z 52
_cell_length_a 20.727926
_cell_length_b 8.731647
_cell_length_c 16.388555
_cell_angle_alpha 90.000000
_cell_angle_beta 90.000000
_cell_angle_gamma 90.000000
_cell_volume 2966.147081
_symmetry_space_group_name_H-M "P M M M"
_symmetry_group_IT_number 47
_symmetry_cell_setting 'orthorhombic'
loop_
_space_group_symop_operation_xyz
x,y,z
-x,-y,z
x,-y,-z
-x,y,-z
-x,-y,-z
x,y,-z
-x,y,z
x,-y,z
loop_
_atom_site_type_symbol
_atom_site_label
_atom_site_fract_x
_atom_site_fract_y
_atom_site_fract_z
Si Si1 0.200523 0.325710 0.500000
Si Si2 0.869058 0.819134 0.349164
Si Si3 0.350566 0.821802 0.334569
Si Si4 0.572198 0.821980 0.175258
Si Si5 0.310079 0.319378 0.909454
Si Si6 0.000000 0.318659 0.405642
Si Si7 0.766786 0.318937 0.754620
Si Si8 0.353164 0.326702 0.500000
O O1 0.173361 0.500000 0.500000
O O2 0.175990 0.236227 0.421883
O O3 0.276539 0.323490 0.500000
O O4 0.938878 0.744367 0.357119
O O5 0.834607 0.763827 0.265399
O O6 0.876537 0.000000 0.349829
O O7 0.405587 0.791489 0.267806
O O8 0.286630 0.727051 0.312018
O O9 0.378876 0.761294 0.420100
O O10 0.331904 0.000000 0.340730
O O11 0.500000 0.755992 0.164986
O O12 0.618866 0.740675 0.111150
O O13 0.573974 0.000000 0.154773
O O14 0.313728 0.500000 0.905220
O O15 0.256986 0.261459 0.843981
O O16 0.290078 0.262802 0.000000
O O17 0.000000 0.500000 0.402521
O O18 0.000000 0.261363 0.500000
O O19 0.777181 0.500000 0.750632
O O20 0.379580 0.500000 0.500000
#
# Coordination Sequence:
#
# PCOD8195424 Si02
#       8
#     4   8   8   8   8   4   8   4
#     4  11  21  32  48  70  99 136 173 209 254 301
#     4  12  23  34  51  75 104 137 176 215 251 294
#     4  10  19  31  49  70  93 125 168 213 253 296
#     4   9  19  35  52  72 100 133 166 202 250 307
#     4   9  19  35  55  80 106 131 163 204 249 301
#     4  11  23  37  53  71 103 146 183 216 250 293
#     4  10  19  33  52  73 101 133 165 205 254 303
#     4  11  21  31  47  69  96 127 166 213 259 301
#
# _framework density 17.53116
#
# number of rings (size 3 to 8) (size 9 to 14) (size 15 to 20)
#    0.000    1.769    2.308    3.000    0.000    3.077 
#    0.000    1.923    0.000    2.308    0.000    0.538 
#    0.000    4.308    0.000    0.000    0.000    0.000 
#
# Total GULP energy -644845.822665 kJ/mol
# GULP energy per Si atom -12400.881205 kJ/mol
# Density = 1.749126 g / cm^3
# Si number density = 17.531160 Si / 1000 Ang^3
#
#
#
# Elastic Constant Matrix: (Units=GPa)
#
#
# Indices 1 2 3 4 5 6 
#
# 1 97.2432 27.1876 47.1511 0.0000 0.0000 0.0000
# 2 27.1876 67.7618 33.6355 0.0000 0.0000 0.0000
# 3 47.1511 33.6355 120.8590 0.0000 0.0000 0.0000
# 4 0.0000 0.0000 0.0000 21.6834 0.0000 0.0000
# 5 0.0000 0.0000 0.0000 0.0000 14.9917 0.0000
# 6 0.0000 0.0000 0.0000 0.0000 0.0000 26.2247
#
#
#
# Elastic Compliance Matrix: (Units=1/GPa)
#
#
# Indices 1 2 3 4 5 6 
#
# 1 0.013252 -0.003192 -0.004282 0.000000 0.000000 0.000000
# 2 -0.003192 0.017892 -0.003734 0.000000 0.000000 0.000000
# 3 -0.004282 -0.003734 0.010984 0.000000 0.000000 0.000000
# 4 0.000000 0.000000 0.000000 0.046118 0.000000 0.000000
# 5 0.000000 0.000000 0.000000 0.000000 0.066704 0.000000
# 6 0.000000 0.000000 0.000000 0.000000 0.000000 0.038132
#
#
# Mechanical properties :
#
#
# Convention : Reuss Voigt Hill
#
# Bulk Modulus (GPa) = 50.72971 55.75694 53.24333
# Shear Modulus (GPa) = 22.51572 24.43928 23.47750
#
# Velocity S-wave (km/s) = 3.58764 3.73775 3.66346
# Velocity P-wave (km/s) = 6.79420 7.10642 6.95206
#
# Compressibility (1/GPa) = 0.01971231
#
# Stress axis : x y z
#
# Youngs Moduli (GPa) = 75.46048 55.89188 91.04310
#
# Poissons Ratio (x) = 0.17839 0.38983
# Poissons Ratio (y) = 0.24084 0.33997
# Poissons Ratio (z) = 0.32311 0.20871
#
# Static dielectric constant tensor:
#      x y z
#    x 3.249660 0.000000 0.000000 
#    y 0.000000 3.330820 0.000000 
#    z 0.000000 0.000000 3.112060 
# 
# 
# High freq. dielectric constant tensor:
#      x y z
#    x 1.658770 0.000000 0.000000 
#    y 0.000000 1.686960 0.000000 
#    z 0.000000 0.000000 1.667890 
# 
# From -- ./inp_files/25057.got.cif
#   From: 2010.03.12/outbox.cif.g09.slc.cpg/sg47_13_cif.got.tgz:25057.got - 2010.04.14 03:12:58.
