data_PCOD8195261
_publ_section_title
;
Structure prediction by ZEFSAII (Michael W. Deem and Ramdas Pophale) SiO2 
 PCOD8195261
Probable space group: P M M M
;
_chemical_formula_sum "Si O2"
_cell_formula_units_Z 40
_cell_length_a 8.000203
_cell_length_b 22.204392
_cell_length_c 14.450601
_cell_angle_alpha 90.000000
_cell_angle_beta 90.000000
_cell_angle_gamma 90.000000
_cell_volume 2566.999610
_symmetry_space_group_name_H-M "P M M M"
_symmetry_group_IT_number 47
_symmetry_cell_setting 'orthorhombic'
loop_
_space_group_symop_operation_xyz
x,y,z
-x,-y,z
x,-y,-z
-x,y,-z
-x,-y,-z
x,y,-z
-x,y,z
x,-y,z
loop_
_atom_site_type_symbol
_atom_site_label
_atom_site_fract_x
_atom_site_fract_y
_atom_site_fract_z
Si Si1 0.306255 0.618460 0.710253
Si Si2 0.000000 0.931796 0.610470
Si Si3 0.684666 0.142568 0.390003
Si Si4 0.194815 0.500000 0.608698
Si Si5 0.190887 0.731509 0.603464
Si Si6 0.301522 0.432512 0.898988
O O1 0.500000 0.635537 0.710291
O O2 0.280556 0.558706 0.650660
O O3 0.205812 0.673908 0.668535
O O4 0.236072 0.608723 0.814838
O O5 0.831854 0.899886 0.650190
O O6 0.000000 0.929870 0.500000
O O7 0.000000 0.000000 0.647155
O O8 0.697837 0.141795 0.500000
O O9 0.500000 0.119948 0.357752
O O10 0.706971 0.211613 0.356346
O O11 0.227520 0.500000 0.500000
O O12 0.000000 0.500000 0.632790
O O13 0.253384 0.714223 0.500000
O O14 0.000000 0.752476 0.599731
O O15 0.500000 0.435746 0.893414
O O16 0.229531 0.500000 0.886562
O O17 0.245389 0.406859 0.000000
#
# Coordination Sequence:
#
# PCOD8195261 Si02
#       6
#     8   4   8   4   8   8
#     4  11  20  30  46  66  80  99 138 180 217 261
#     4   9  16  26  40  60  86 113 144 183 222 255
#     4   9  16  27  42  59  81 111 148 185 218 256
#     4  11  23  35  42  53  80 112 135 167 220 269
#     4  10  19  31  44  58  82 116 147 177 217 263
#     4   8  14  27  46  64  81 100 125 165 218 270
#
# _framework density 15.582395
#
# number of rings (size 3 to 8) (size 9 to 14) (size 15 to 20)
#    0.000    2.400    2.000    2.700    0.000    4.800 
#    0.000    2.000    0.000    3.000    0.000    0.000 
#    0.000    0.000    0.000    0.000    0.000    2.000 
#
# Total GULP energy -495778.960577 kJ/mol
# GULP energy per Si atom -12394.474014 kJ/mol
# Density = 1.554693 g / cm^3
# Si number density = 15.582395 Si / 1000 Ang^3
#
#
#
# Elastic Constant Matrix: (Units=GPa)
#
#
# Indices 1 2 3 4 5 6 
#
# 1 74.3716 36.4745 15.0974 0.0000 0.0000 0.0000
# 2 36.4745 99.2338 30.8894 0.0000 0.0000 0.0000
# 3 15.0974 30.8894 72.7569 0.0000 0.0000 0.0000
# 4 0.0000 0.0000 0.0000 -4.4026 0.0000 0.0000
# 5 0.0000 0.0000 0.0000 0.0000 5.5777 0.0000
# 6 0.0000 0.0000 0.0000 0.0000 0.0000 19.8482
#
#
#
# Elastic Compliance Matrix: (Units=1/GPa)
#
#
# Indices 1 2 3 4 5 6 
#
# 1 0.016463 -0.005747 -0.000976 0.000000 0.000000 0.000000
# 2 -0.005747 0.013618 -0.004589 0.000000 0.000000 0.000000
# 3 -0.000976 -0.004589 0.015895 0.000000 0.000000 0.000000
# 4 0.000000 0.000000 0.000000 -0.227136 0.000000 0.000000
# 5 0.000000 0.000000 0.000000 0.000000 0.179285 0.000000
# 6 0.000000 0.000000 0.000000 0.000000 0.000000 0.050382
#
#
# Mechanical properties :
#
#
# Convention : Reuss Voigt Hill
#
# Bulk Modulus (GPa) = 42.82401 45.69831 44.26116
# Shear Modulus (GPa) = 63.35833 15.13139 39.24486
#
# Velocity S-wave (km/s) = 6.38345 3.11956 5.02395
# Velocity P-wave (km/s) = 9.04838 6.50892 7.88160
#
# Compressibility (1/GPa) = 0.02335139
#
# Stress axis : x y z
#
# Youngs Moduli (GPa) = 60.74304 73.43131 62.91186
#
# Poissons Ratio (x) = 0.42203 0.06141
# Poissons Ratio (y) = 0.34911 0.28871
# Poissons Ratio (z) = 0.05929 0.33698
#
# Static dielectric constant tensor:
#      x y z
#    x 3.042410 0.000000 0.000000 
#    y 0.000000 2.889010 0.000000 
#    z 0.000000 0.000000 2.876310 
# 
# 
# High freq. dielectric constant tensor:
#      x y z
#    x 1.605540 0.000000 0.000000 
#    y 0.000000 1.579110 0.000000 
#    z 0.000000 0.000000 1.549440 
# 
# From -- ./inp_files/21262.got.cif
#   From: 2010.03.12/outbox.cif.g09.slc.cpg/sg47_11_cif.got.tgz:21262.got - 2010.04.14 03:12:58.
