data_PCOD8195769
_publ_section_title
;
Structure prediction by ZEFSAII (Michael W. Deem and Ramdas Pophale) SiO2 
 PCOD8195769
Probable space group: P M M M
;
_chemical_formula_sum "Si O2"
_cell_formula_units_Z 48
_cell_length_a 9.019055
_cell_length_b 18.525369
_cell_length_c 16.396437
_cell_angle_alpha 90.000000
_cell_angle_beta 90.000000
_cell_angle_gamma 90.000000
_cell_volume 2739.538369
_symmetry_space_group_name_H-M "P M M M"
_symmetry_group_IT_number 47
_symmetry_cell_setting 'orthorhombic'
loop_
_space_group_symop_operation_xyz
x,y,z
-x,-y,z
x,-y,-z
-x,y,-z
-x,-y,-z
x,y,-z
-x,y,z
x,-y,z
loop_
_atom_site_type_symbol
_atom_site_label
_atom_site_fract_x
_atom_site_fract_y
_atom_site_fract_z
Si Si1 0.170360 0.081282 0.198607
Si Si2 0.173542 0.215722 0.907331
Si Si3 0.326257 0.702538 0.768613
Si Si4 0.824071 0.810434 0.500000
Si Si5 0.826181 0.583368 0.330539
Si Si6 0.175729 0.354027 0.500000
Si Si7 0.326596 0.159071 0.336829
O O1 0.211851 0.135599 0.125495
O O2 0.272823 0.096078 0.276744
O O3 0.000000 0.092326 0.225211
O O4 0.199586 0.000000 0.167496
O O5 0.258625 0.276368 0.855881
O O6 0.000000 0.231776 0.900599
O O7 0.229611 0.220154 0.000000
O O8 0.500000 0.692825 0.779439
O O9 0.256314 0.627526 0.739742
O O10 0.286175 0.763640 0.702387
O O11 0.767203 0.727962 0.500000
O O12 0.760345 0.850328 0.421044
O O13 0.000000 0.815782 0.500000
O O14 0.790980 0.500000 0.315482
O O15 0.763544 0.605779 0.419544
O O16 0.000000 0.600302 0.324947
O O17 0.000000 0.357484 0.500000
O O18 0.500000 0.150711 0.352969
#
# Coordination Sequence:
#
# PCOD8195769 Si02
#       7
#     8   8   8   4   8   4   8
#     4   9  18  33  53  77 105 134 164 201 248 301
#     4   9  18  33  55  81 105 130 163 203 248 300
#     4  10  20  33  50  72 102 137 171 207 248 298
#     4  11  19  30  52  74  96 131 174 219 258 293
#     4  10  19  32  51  75 104 137 173 211 252 299
#     4   9  17  29  48  74 102 132 167 210 253 293
#     4  10  20  33  49  71 100 135 174 212 250 295
#
# _framework density 17.5212
#
# number of rings (size 3 to 8) (size 9 to 14) (size 15 to 20)
#    0.000    2.333    1.667    1.500    0.000    3.667 
#    0.000    2.500    0.000    4.000    0.000    8.167 
#    0.000    0.000    0.000    0.000    0.000    0.000 
#
# Total GULP energy -595336.741951 kJ/mol
# GULP energy per Si atom -12402.848791 kJ/mol
# Density = 1.748132 g / cm^3
# Si number density = 17.521200 Si / 1000 Ang^3
#
#
#
# Elastic Constant Matrix: (Units=GPa)
#
#
# Indices 1 2 3 4 5 6 
#
# 1 60.1470 33.3940 51.9503 0.0000 0.0000 0.0000
# 2 33.3940 92.0494 58.0011 0.0000 0.0000 0.0000
# 3 51.9503 58.0011 148.5921 0.0000 0.0000 0.0000
# 4 0.0000 0.0000 0.0000 20.4341 0.0000 0.0000
# 5 0.0000 0.0000 0.0000 0.0000 20.0222 0.0000
# 6 0.0000 0.0000 0.0000 0.0000 0.0000 20.8493
#
#
#
# Elastic Compliance Matrix: (Units=1/GPa)
#
#
# Indices 1 2 3 4 5 6 
#
# 1 0.025313 -0.004783 -0.006983 0.000000 0.000000 0.000000
# 2 -0.004783 0.015311 -0.004304 0.000000 0.000000 0.000000
# 3 -0.006983 -0.004304 0.010851 0.000000 0.000000 0.000000
# 4 0.000000 0.000000 0.000000 0.048938 0.000000 0.000000
# 5 0.000000 0.000000 0.000000 0.000000 0.049945 0.000000
# 6 0.000000 0.000000 0.000000 0.000000 0.000000 0.047963
#
#
# Mechanical properties :
#
#
# Convention : Reuss Voigt Hill
#
# Bulk Modulus (GPa) = 51.72016 65.27545 58.49781
# Shear Modulus (GPa) = 21.10545 22.75733 21.93139
#
# Velocity S-wave (km/s) = 3.47445 3.60786 3.54178
# Velocity P-wave (km/s) = 6.75858 7.39537 7.08414
#
# Compressibility (1/GPa) = 0.01933482
#
# Stress axis : x y z
#
# Youngs Moduli (GPa) = 39.50594 65.31199 92.15573
#
# Poissons Ratio (x) = 0.31240 0.64349
# Poissons Ratio (y) = 0.18896 0.39666
# Poissons Ratio (z) = 0.27586 0.28112
#
# Static dielectric constant tensor:
#      x y z
#    x 3.129860 0.000000 0.000000 
#    y 0.000000 3.136890 0.000000 
#    z 0.000000 0.000000 3.221890 
# 
# 
# High freq. dielectric constant tensor:
#      x y z
#    x 1.670260 0.000000 0.000000 
#    y 0.000000 1.663610 0.000000 
#    z 0.000000 0.000000 1.670750 
# 
# From -- ./inp_files/6516.got.cif
#   From: 2010.03.12/outbox.cif.g09.slc.cpg/sg47_4_cif.got.tgz:6516.got - 2010.04.14 03:12:58.
