data_PCOD8195640
_publ_section_title
;
Structure prediction by ZEFSAII (Michael W. Deem and Ramdas Pophale) SiO2 
 PCOD8195640
Probable space group: P M M M
;
_chemical_formula_sum "Si O2"
_cell_formula_units_Z 36
_cell_length_a 8.708992
_cell_length_b 16.843269
_cell_length_c 15.386994
_cell_angle_alpha 90.000000
_cell_angle_beta 90.000000
_cell_angle_gamma 90.000000
_cell_volume 2257.085760
_symmetry_space_group_name_H-M "P M M M"
_symmetry_group_IT_number 47
_symmetry_cell_setting 'orthorhombic'
loop_
_space_group_symop_operation_xyz
x,y,z
-x,-y,z
x,-y,-z
-x,y,-z
-x,-y,-z
x,y,-z
-x,y,z
x,-y,z
loop_
_atom_site_type_symbol
_atom_site_label
_atom_site_fract_x
_atom_site_fract_y
_atom_site_fract_z
Si Si1 0.680143 0.680226 0.839027
Si Si2 0.820915 0.406928 0.321301
Si Si3 0.672478 0.593984 0.500000
Si Si4 0.818439 0.589420 0.000000
Si Si5 0.179931 0.162755 0.101440
Si Si6 0.672724 0.000000 0.103145
O O1 0.500000 0.675225 0.853216
O O2 0.724347 0.642716 0.747465
O O3 0.733583 0.771293 0.842094
O O4 0.762342 0.632067 0.914292
O O5 0.787246 0.500000 0.307452
O O6 0.765247 0.377270 0.415532
O O7 0.000000 0.388258 0.310694
O O8 0.663820 0.500000 0.500000
O O9 0.500000 0.629737 0.500000
O O10 0.755179 0.500000 0.000000
O O11 0.000000 0.591662 0.000000
O O12 0.000000 0.169368 0.117868
O O13 0.237926 0.077765 0.136094
O O14 0.220198 0.175011 0.000000
O O15 0.500000 0.000000 0.140531
O O16 0.670781 0.000000 0.000000
#
# Coordination Sequence:
#
# PCOD8195640 Si02
#       6
#     8   8   4   4   8   4
#     4  12  23  33  48  69  95 125 162 204 243 281
#     4  10  20  34  51  70  94 126 162 199 243 293
#     4   9  17  31  51  73  95 118 151 198 247 291
#     4  11  23  37  49  62  87 126 167 203 239 283
#     4  10  19  32  49  67  92 125 161 196 237 286
#     4   9  17  29  47  69  93 118 153 196 238 282
#
# _framework density 15.949771
#
# number of rings (size 3 to 8) (size 9 to 14) (size 15 to 20)
#    0.000    1.667    1.111    5.000    0.000    8.444 
#    0.000    0.000    0.000    0.000    0.000    0.000 
#    0.000    0.889    0.000    8.889    0.000    5.333 
#
# Total GULP energy -446519.893911 kJ/mol
# GULP energy per Si atom -12403.330386 kJ/mol
# Density = 1.591347 g / cm^3
# Si number density = 15.949771 Si / 1000 Ang^3
#
#
#
# Elastic Constant Matrix: (Units=GPa)
#
#
# Indices 1 2 3 4 5 6 
#
# 1 54.4627 21.0869 5.2846 0.0000 0.0000 0.0000
# 2 21.0869 92.9608 29.5729 0.0000 0.0000 0.0000
# 3 5.2846 29.5729 71.7967 0.0000 0.0000 0.0000
# 4 0.0000 0.0000 0.0000 -53.8048 0.0000 0.0000
# 5 0.0000 0.0000 0.0000 0.0000 27.2760 0.0000
# 6 0.0000 0.0000 0.0000 0.0000 0.0000 25.5057
#
#
#
# Elastic Compliance Matrix: (Units=1/GPa)
#
#
# Indices 1 2 3 4 5 6 
#
# 1 0.020142 -0.004715 0.000460 0.000000 0.000000 0.000000
# 2 -0.004715 0.013483 -0.005207 0.000000 0.000000 0.000000
# 3 0.000460 -0.005207 0.016039 0.000000 0.000000 0.000000
# 4 0.000000 0.000000 0.000000 -0.018586 0.000000 0.000000
# 5 0.000000 0.000000 0.000000 0.000000 0.036662 0.000000
# 6 0.000000 0.000000 0.000000 0.000000 0.000000 0.039207
#
#
# Mechanical properties :
#
#
# Convention : Reuss Voigt Hill
#
# Bulk Modulus (GPa) = 32.53096 36.78990 34.66043
# Shear Modulus (GPa) = 36.73256 10.68042 23.70649
#
# Velocity S-wave (km/s) = 4.80418 2.59053 3.85947
# Velocity P-wave (km/s) = 7.15637 5.66250 6.45281
#
# Compressibility (1/GPa) = 0.03073994
#
# Stress axis : x y z
#
# Youngs Moduli (GPa) = 49.64688 74.16668 62.34812
#
# Poissons Ratio (x) = 0.34971 -0.02866
# Poissons Ratio (y) = 0.23410 0.32462
# Poissons Ratio (z) = -0.02282 0.38616
#
# Static dielectric constant tensor:
#      x y z
#    x 3.210170 0.000000 0.000000 
#    y 0.000000 3.099630 0.000000 
#    z 0.000000 0.000000 3.063470 
# 
# 
# High freq. dielectric constant tensor:
#      x y z
#    x 1.635760 0.000000 0.000000 
#    y 0.000000 1.600470 0.000000 
#    z 0.000000 0.000000 1.583600 
# 
# From -- ./inp_files/20592.got.cif
#   From: 2010.03.12/outbox.cif.g09.slc.cpg/sg47_11_cif.got.tgz:20592.got - 2010.04.14 03:12:58.
