data_PCOD8195627
_publ_section_title
;
Structure prediction by ZEFSAII (Michael W. Deem and Ramdas Pophale) SiO2 
 PCOD8195627
Probable space group: P M M M
;
_chemical_formula_sum "Si O2"
_cell_formula_units_Z 48
_cell_length_a 10.658546
_cell_length_b 12.591152
_cell_length_c 22.201851
_cell_angle_alpha 90.000000
_cell_angle_beta 90.000000
_cell_angle_gamma 90.000000
_cell_volume 2979.563286
_symmetry_space_group_name_H-M "P M M M"
_symmetry_group_IT_number 47
_symmetry_cell_setting 'orthorhombic'
loop_
_space_group_symop_operation_xyz
x,y,z
-x,-y,z
x,-y,-z
-x,y,-z
-x,-y,-z
x,y,-z
-x,y,z
x,-y,z
loop_
_atom_site_type_symbol
_atom_site_label
_atom_site_fract_x
_atom_site_fract_y
_atom_site_fract_z
Si Si1 0.144542 0.880381 0.194021
Si Si2 0.640640 0.379166 0.267087
Si Si3 0.269782 0.318624 0.137637
Si Si4 0.500000 0.378399 0.070100
Si Si5 0.856958 0.500000 0.066855
Si Si6 0.853731 0.237520 0.316331
Si Si7 0.148197 0.882381 0.434189
O O1 0.215714 0.798469 0.150438
O O2 0.161239 0.850126 0.264103
O O3 0.000000 0.875920 0.175553
O O4 0.197550 0.000000 0.185011
O O5 0.500000 0.328514 0.277163
O O6 0.634250 0.500000 0.287359
O O7 0.677377 0.371584 0.197663
O O8 0.753378 0.329881 0.305941
O O9 0.382215 0.309439 0.090804
O O10 0.169226 0.395758 0.106600
O O11 0.500000 0.500000 0.096712
O O12 0.500000 0.385825 0.000000
O O13 0.000000 0.500000 0.051380
O O14 0.787437 0.500000 0.000000
O O15 0.806876 0.191188 0.379884
O O16 0.000000 0.277859 0.317919
O O17 0.188593 0.836012 0.500000
O O18 0.000000 0.891843 0.430749
O O19 0.206382 0.000000 0.426324
#
# Coordination Sequence:
#
# PCOD8195627 Si02
#       7
#     8   8   8   4   4   8   8
#     4   9  18  32  50  72  99 131 161 193 238 291
#     4  10  19  32  48  68  97 129 160 198 247 297
#     4  11  19  33  52  73  97 126 162 198 243 295
#     4  11  20  32  53  75  95 123 157 197 244 294
#     4  11  22  33  49  77 107 126 152 203 256 299
#     4   9  17  28  47  74 100 126 161 203 244 288
#     4   8  13  23  43  71 100 128 159 198 242 288
#
# _framework density 16.109743999999999
#
# number of rings (size 3 to 8) (size 9 to 14) (size 15 to 20)
#    0.000    2.333    2.500    2.000    0.000    3.000 
#    0.000    0.417    0.000    5.000    0.000   10.500 
#    0.000    0.000    0.000    0.000    0.000    0.000 
#
# Total GULP energy -594708.096271 kJ/mol
# GULP energy per Si atom -12389.752006 kJ/mol
# Density = 1.607308 g / cm^3
# Si number density = 16.109744 Si / 1000 Ang^3
#
#
#
# Elastic Constant Matrix: (Units=GPa)
#
#
# Indices 1 2 3 4 5 6 
#
# 1 85.7624 48.8140 41.5285 0.0000 0.0000 0.0000
# 2 48.8140 104.6337 50.6079 0.0000 0.0000 0.0000
# 3 41.5285 50.6079 96.7286 0.0000 0.0000 0.0000
# 4 0.0000 0.0000 0.0000 23.0771 0.0000 0.0000
# 5 0.0000 0.0000 0.0000 0.0000 16.6788 0.0000
# 6 0.0000 0.0000 0.0000 0.0000 0.0000 17.2817
#
#
#
# Elastic Compliance Matrix: (Units=1/GPa)
#
#
# Indices 1 2 3 4 5 6 
#
# 1 0.017081 -0.005920 -0.004236 0.000000 0.000000 0.000000
# 2 -0.005920 0.014847 -0.005226 0.000000 0.000000 0.000000
# 3 -0.004236 -0.005226 0.014891 0.000000 0.000000 0.000000
# 4 0.000000 0.000000 0.000000 0.043333 0.000000 0.000000
# 5 0.000000 0.000000 0.000000 0.000000 0.059956 0.000000
# 6 0.000000 0.000000 0.000000 0.000000 0.000000 0.057865
#
#
# Mechanical properties :
#
#
# Convention : Reuss Voigt Hill
#
# Bulk Modulus (GPa) = 62.28755 63.22505 62.75630
# Shear Modulus (GPa) = 20.48444 21.15248 20.81846
#
# Velocity S-wave (km/s) = 3.56976 3.62750 3.59874
# Velocity P-wave (km/s) = 7.46588 7.54166 7.50387
#
# Compressibility (1/GPa) = 0.01605457
#
# Stress axis : x y z
#
# Youngs Moduli (GPa) = 58.54561 67.35589 67.15377
#
# Poissons Ratio (x) = 0.39872 0.28447
# Poissons Ratio (y) = 0.34657 0.35095
# Poissons Ratio (z) = 0.24801 0.35201
#
# Static dielectric constant tensor:
#      x y z
#    x 3.032380 0.000000 0.000000 
#    y 0.000000 3.022960 0.000000 
#    z 0.000000 0.000000 3.214460 
# 
# 
# High freq. dielectric constant tensor:
#      x y z
#    x 1.609670 0.000000 0.000000 
#    y 0.000000 1.599080 0.000000 
#    z 0.000000 0.000000 1.617740 
# 
# From -- ./inp_files/32441.got.cif
#   From: 2010.03.12/outbox.cif.g09.slc.cpg/sg47_17_cif.got.tgz:32441.got - 2010.04.14 03:12:58.
