data_PCOD8195689
_publ_section_title
;
Structure prediction by ZEFSAII (Michael W. Deem and Ramdas Pophale) SiO2 
 PCOD8195689
Probable space group: P M M M
;
_chemical_formula_sum "Si O2"
_cell_formula_units_Z 52
_cell_length_a 12.482045
_cell_length_b 25.470849
_cell_length_c 8.589514
_cell_angle_alpha 90.000000
_cell_angle_beta 90.000000
_cell_angle_gamma 90.000000
_cell_volume 2730.849441
_symmetry_space_group_name_H-M "P M M M"
_symmetry_group_IT_number 47
_symmetry_cell_setting 'orthorhombic'
loop_
_space_group_symop_operation_xyz
x,y,z
-x,-y,z
x,-y,-z
-x,y,-z
-x,-y,-z
x,y,-z
-x,y,z
x,-y,z
loop_
_atom_site_type_symbol
_atom_site_label
_atom_site_fract_x
_atom_site_fract_y
_atom_site_fract_z
Si Si1 0.828571 0.387864 0.181567
Si Si2 0.617471 0.667249 0.175245
Si Si3 0.222921 0.147075 0.819583
Si Si4 0.379680 0.059071 0.185392
Si Si5 0.378790 0.775262 0.322829
Si Si6 0.000000 0.689874 0.316558
Si Si7 0.875677 0.500000 0.170085
Si Si8 0.000000 0.808010 0.813824
O O1 0.703536 0.377540 0.207254
O O2 0.895473 0.342398 0.265379
O O3 0.845709 0.445652 0.258166
O O4 0.862772 0.388370 0.000000
O O5 0.500000 0.641799 0.196819
O O6 0.634023 0.713488 0.298236
O O7 0.630694 0.690072 0.000000
O O8 0.286457 0.097076 0.744147
O O9 0.298059 0.197015 0.794385
O O10 0.104645 0.159980 0.750193
O O11 0.207651 0.136065 0.000000
O O12 0.500000 0.075027 0.243784
O O13 0.353389 0.000000 0.241011
O O14 0.378700 0.062486 0.000000
O O15 0.348243 0.788928 0.500000
O O16 0.500000 0.793131 0.284461
O O17 0.000000 0.748124 0.244574
O O18 0.000000 0.696625 0.500000
O O19 0.000000 0.500000 0.145928
O O20 0.818310 0.500000 0.000000
O O21 0.000000 0.805328 0.000000
#
# Coordination Sequence:
#
# PCOD8195689 Si02
#       8
#     8   8   8   8   8   4   4   4
#     4  10  19  34  55  75  99 131 163 198 245 296
#     4   9  18  32  50  73 100 130 164 199 237 290
#     4  10  19  32  50  71  98 133 169 203 241 289
#     4   8  14  26  47  75 101 124 157 203 249 288
#     4  10  20  32  48  72 100 128 161 204 251 295
#     4  12  24  35  51  75 100 127 166 211 252 291
#     4   9  16  30  53  77  97 124 163 200 241 295
#     4  10  22  36  48  69 102 136 169 203 240 287
#
# _framework density 19.041692999999999
#
# number of rings (size 3 to 8) (size 9 to 14) (size 15 to 20)
#    0.000    2.385    0.769    3.000    0.000    6.462 
#    0.000    1.538    0.000    5.077    0.000    2.154 
#    0.000    5.538    0.000    0.000    0.000    0.000 
#
# Total GULP energy -644370.922698 kJ/mol
# GULP energy per Si atom -12391.748513 kJ/mol
# Density = 1.899835 g / cm^3
# Si number density = 19.041693 Si / 1000 Ang^3
#
#
#
# Elastic Constant Matrix: (Units=GPa)
#
#
# Indices 1 2 3 4 5 6 
#
# 1 156.3337 91.2271 18.0706 0.0000 0.0000 0.0000
# 2 91.2271 133.8992 15.0959 0.0000 0.0000 0.0000
# 3 18.0706 15.0959 24.8447 0.0000 0.0000 0.0000
# 4 0.0000 0.0000 0.0000 1.1785 0.0000 0.0000
# 5 0.0000 0.0000 0.0000 0.0000 11.8120 0.0000
# 6 0.0000 0.0000 0.0000 0.0000 0.0000 30.5467
#
#
#
# Elastic Compliance Matrix: (Units=1/GPa)
#
#
# Indices 1 2 3 4 5 6 
#
# 1 0.010922 -0.007027 -0.003674 0.000000 0.000000 0.000000
# 2 -0.007027 0.012539 -0.002508 0.000000 0.000000 0.000000
# 3 -0.003674 -0.002508 0.044446 0.000000 0.000000 0.000000
# 4 0.000000 0.000000 0.000000 0.848520 0.000000 0.000000
# 5 0.000000 0.000000 0.000000 0.000000 0.084660 0.000000
# 6 0.000000 0.000000 0.000000 0.000000 0.000000 0.032737
#
#
# Mechanical properties :
#
#
# Convention : Reuss Voigt Hill
#
# Bulk Modulus (GPa) = 24.10278 62.65163 43.37721
# Shear Modulus (GPa) = 4.65519 21.41970 13.03745
#
# Velocity S-wave (km/s) = 1.56526 3.35757 2.61948
# Velocity P-wave (km/s) = 3.99401 6.92855 5.65495
#
# Compressibility (1/GPa) = 0.04148898
#
# Stress axis : x y z
#
# Youngs Moduli (GPa) = 91.56044 79.75434 22.49913
#
# Poissons Ratio (x) = 0.56042 0.08267
# Poissons Ratio (y) = 0.64338 0.05642
# Poissons Ratio (z) = 0.33642 0.19999
#
# Static dielectric constant tensor:
#      x y z
#    x 3.805610 0.000000 0.000000 
#    y 0.000000 3.586430 0.000000 
#    z 0.000000 0.000000 3.149300 
# 
# 
# High freq. dielectric constant tensor:
#      x y z
#    x 1.747030 0.000000 0.000000 
#    y 0.000000 1.732700 0.000000 
#    z 0.000000 0.000000 1.699400 
# 
# From -- ./inp_files/4633.got.cif
#   From: 2010.03.12/outbox.cif.g09.slc.cpg/sg47_3_cif.got.tgz:4633.got - 2010.04.14 03:12:58.
