data_PCOD8195789
_publ_section_title
;
Structure prediction by ZEFSAII (Michael W. Deem and Ramdas Pophale) SiO2 
 PCOD8195789
Probable space group: P M M M
;
_chemical_formula_sum "Si O2"
_cell_formula_units_Z 64
_cell_length_a 9.173914
_cell_length_b 22.857990
_cell_length_c 17.549993
_cell_angle_alpha 90.000000
_cell_angle_beta 90.000000
_cell_angle_gamma 90.000000
_cell_volume 3680.184997
_symmetry_space_group_name_H-M "P M M M"
_symmetry_group_IT_number 47
_symmetry_cell_setting 'orthorhombic'
loop_
_space_group_symop_operation_xyz
x,y,z
-x,-y,z
x,-y,-z
-x,y,-z
-x,-y,-z
x,y,-z
-x,y,z
x,-y,z
loop_
_atom_site_type_symbol
_atom_site_label
_atom_site_fract_x
_atom_site_fract_y
_atom_site_fract_z
Si Si1 0.828085 0.171745 0.286757
Si Si2 0.831148 0.263894 0.413058
Si Si3 0.335380 0.743044 0.184093
Si Si4 0.837539 0.069172 0.083525
Si Si5 0.831152 0.657633 0.086898
Si Si6 0.329483 0.932311 0.768672
Si Si7 0.829886 0.566668 0.785152
Si Si8 0.663595 0.350947 0.317319
O O1 0.786249 0.207705 0.362673
O O2 0.759874 0.202186 0.211919
O O3 0.755855 0.107263 0.293352
O O4 0.000000 0.166106 0.276399
O O5 0.794898 0.248009 0.500000
O O6 0.743077 0.321957 0.389691
O O7 0.000000 0.278618 0.400459
O O8 0.500000 0.763360 0.165346
O O9 0.261984 0.714804 0.109394
O O10 0.334395 0.694999 0.249501
O O11 0.722470 0.088541 0.147428
O O12 0.000000 0.092045 0.105001
O O13 0.840779 0.000000 0.078782
O O14 0.791187 0.094044 0.000000
O O15 0.787325 0.602017 0.138496
O O16 0.000000 0.673636 0.098774
O O17 0.796377 0.640725 0.000000
O O18 0.500000 0.920785 0.761650
O O19 0.290225 0.000000 0.752999
O O20 0.782244 0.500000 0.798737
O O21 0.746463 0.591057 0.710941
O O22 0.000000 0.572391 0.767553
O O23 0.500000 0.367965 0.341303
#
# Coordination Sequence:
#
# PCOD8195789 Si02
#       8
#     8   8   8   8   8   8   8   8
#     4  10  19  32  52  74  96 122 153 191 233 281
#     4   9  18  33  54  79 102 122 148 187 236 287
#     4   9  17  30  47  66  90 120 155 195 239 286
#     4   8  14  26  44  64  86 114 150 191 231 269
#     4   9  17  29  45  66  94 127 164 208 252 289
#     4  10  20  32  47  69  98 131 164 197 234 279
#     4   9  17  29  46  68  95 131 172 207 241 283
#     4   9  17  29  47  71  97 125 156 191 233 280
#
# _framework density 17.390429000000001
#
# number of rings (size 3 to 8) (size 9 to 14) (size 15 to 20)
#    0.000    2.875    0.000    1.875    0.000    5.500 
#    0.000    3.125    0.000    4.500    0.000    8.750 
#    0.000    0.000    0.000    0.000    0.000    0.000 
#
# Total GULP energy -793419.928319 kJ/mol
# GULP energy per Si atom -12397.186380 kJ/mol
# Density = 1.735085 g / cm^3
# Si number density = 17.390429 Si / 1000 Ang^3
#
#
#
# Elastic Constant Matrix: (Units=GPa)
#
#
# Indices 1 2 3 4 5 6 
#
# 1 95.2785 54.1590 47.4577 0.0000 0.0000 0.0000
# 2 54.1590 93.2367 51.6509 0.0000 0.0000 0.0000
# 3 47.4577 51.6509 91.5464 0.0000 0.0000 0.0000
# 4 0.0000 0.0000 0.0000 19.2015 0.0000 0.0000
# 5 0.0000 0.0000 0.0000 0.0000 18.5837 0.0000
# 6 0.0000 0.0000 0.0000 0.0000 0.0000 26.1786
#
#
#
# Elastic Compliance Matrix: (Units=1/GPa)
#
#
# Indices 1 2 3 4 5 6 
#
# 1 0.016956 -0.007244 -0.004703 0.000000 0.000000 0.000000
# 2 -0.007244 0.018697 -0.006793 0.000000 0.000000 0.000000
# 3 -0.004703 -0.006793 0.017194 0.000000 0.000000 0.000000
# 4 0.000000 0.000000 0.000000 0.052079 0.000000 0.000000
# 5 0.000000 0.000000 0.000000 0.000000 0.053811 0.000000
# 6 0.000000 0.000000 0.000000 0.000000 0.000000 0.038199
#
#
# Mechanical properties :
#
#
# Convention : Reuss Voigt Hill
#
# Bulk Modulus (GPa) = 65.07784 65.17740 65.12762
# Shear Modulus (GPa) = 20.87353 21.24569 21.05961
#
# Velocity S-wave (km/s) = 3.46828 3.49906 3.48370
# Velocity P-wave (km/s) = 7.31720 7.34063 7.32892
#
# Compressibility (1/GPa) = 0.01536621
#
# Stress axis : x y z
#
# Youngs Moduli (GPa) = 58.97752 53.48554 58.15902
#
# Poissons Ratio (x) = 0.38745 0.27351
# Poissons Ratio (y) = 0.42723 0.39510
# Poissons Ratio (z) = 0.27736 0.36335
#
# Static dielectric constant tensor:
#      x y z
#    x 3.340130 0.000000 0.000000 
#    y 0.000000 3.190380 0.000000 
#    z 0.000000 0.000000 3.134850 
# 
# 
# High freq. dielectric constant tensor:
#      x y z
#    x 1.676820 0.000000 0.000000 
#    y 0.000000 1.657490 0.000000 
#    z 0.000000 0.000000 1.645740 
# 
# From -- ./inp_files/27064.got.cif
#   From: 2010.03.12/outbox.cif.g09.slc.cpg/sg47_14_cif.got.tgz:27064.got - 2010.04.14 03:12:58.
