data_PCOD8195447
_publ_section_title
;
Structure prediction by ZEFSAII (Michael W. Deem and Ramdas Pophale) SiO2 
 PCOD8195447
Probable space group: P M M M
;
_chemical_formula_sum "Si O2"
_cell_formula_units_Z 52
_cell_length_a 28.148601
_cell_length_b 11.859099
_cell_length_c 8.487613
_cell_angle_alpha 90.000000
_cell_angle_beta 90.000000
_cell_angle_gamma 90.000000
_cell_volume 2833.309899
_symmetry_space_group_name_H-M "P M M M"
_symmetry_group_IT_number 47
_symmetry_cell_setting 'orthorhombic'
loop_
_space_group_symop_operation_xyz
x,y,z
-x,-y,z
x,-y,-z
-x,y,-z
-x,-y,-z
x,y,-z
-x,y,z
x,-y,z
loop_
_atom_site_type_symbol
_atom_site_label
_atom_site_fract_x
_atom_site_fract_y
_atom_site_fract_z
Si Si1 0.342032 0.500000 0.681101
Si Si2 0.242809 0.500000 0.179758
Si Si3 0.098786 0.368839 0.815544
Si Si4 0.265455 0.869789 0.186063
Si Si5 0.358921 0.261504 0.813768
Si Si6 0.000000 0.366322 0.676796
Si Si7 0.552082 0.126689 0.812618
Si Si8 0.808254 0.291652 0.682903
O O1 0.356512 0.500000 0.500000
O O2 0.285581 0.500000 0.697851
O O3 0.363219 0.390356 0.763586
O O4 0.212057 0.389566 0.206482
O O5 0.261930 0.500000 0.000000
O O6 0.105726 0.500000 0.766204
O O7 0.046646 0.324297 0.768737
O O8 0.135746 0.288918 0.721917
O O9 0.106343 0.353064 0.000000
O O10 0.310833 0.798388 0.249044
O O11 0.217936 0.824684 0.271528
O O12 0.272880 0.000000 0.232548
O O13 0.259269 0.855511 0.000000
O O14 0.405447 0.201313 0.740758
O O15 0.359074 0.251819 0.000000
O O16 0.000000 0.500000 0.673470
O O17 0.000000 0.317076 0.500000
O O18 0.500000 0.172406 0.758966
O O19 0.559017 0.000000 0.749790
O O20 0.554946 0.127471 0.000000
O O21 0.800191 0.318496 0.500000
#
# Coordination Sequence:
#
# PCOD8195447 Si02
#       8
#     4   4   8   8   8   4   8   8
#     4  12  24  36  51  75 105 140 176 216 261 314
#     4  12  22  36  54  74 102 138 178 219 259 316
#     4  10  19  31  49  72 103 142 182 220 261 315
#     4  10  21  36  54  76 104 139 178 218 262 315
#     4  10  19  33  55  79 106 139 175 215 263 317
#     4   9  17  29  45  69 104 139 176 221 268 317
#     4   8  14  27  51  83 111 133 168 221 271 311
#     4  12  23  34  52  78 108 141 177 219 266 315
#
# _framework density 18.353093000000001
#
# number of rings (size 3 to 8) (size 9 to 14) (size 15 to 20)
#    0.000    1.769    2.308    4.385    0.000    3.692 
#    0.000    0.385    0.000    4.154    0.000    1.615 
#    0.000    4.308    0.000    0.000    0.000    0.000 
#
# Total GULP energy -644782.725873 kJ/mol
# GULP energy per Si atom -12399.667805 kJ/mol
# Density = 1.831132 g / cm^3
# Si number density = 18.353093 Si / 1000 Ang^3
#
#
#
# Elastic Constant Matrix: (Units=GPa)
#
#
# Indices 1 2 3 4 5 6 
#
# 1 150.7186 59.8032 24.8048 0.0000 0.0000 0.0000
# 2 59.8032 101.0900 19.5924 0.0000 0.0000 0.0000
# 3 24.8048 19.5924 52.3363 0.0000 0.0000 0.0000
# 4 0.0000 0.0000 0.0000 7.3530 0.0000 0.0000
# 5 0.0000 0.0000 0.0000 0.0000 11.8307 0.0000
# 6 0.0000 0.0000 0.0000 0.0000 0.0000 30.8489
#
#
#
# Elastic Compliance Matrix: (Units=1/GPa)
#
#
# Indices 1 2 3 4 5 6 
#
# 1 0.008949 -0.004822 -0.002436 0.000000 0.000000 0.000000
# 2 -0.004822 0.013264 -0.002680 0.000000 0.000000 0.000000
# 3 -0.002436 -0.002680 0.021265 0.000000 0.000000 0.000000
# 4 0.000000 0.000000 0.000000 0.135999 0.000000 0.000000
# 5 0.000000 0.000000 0.000000 0.000000 0.084526 0.000000
# 6 0.000000 0.000000 0.000000 0.000000 0.000000 0.032416
#
#
# Mechanical properties :
#
#
# Convention : Reuss Voigt Hill
#
# Bulk Modulus (GPa) = 42.36986 56.94952 49.65969
# Shear Modulus (GPa) = 15.42433 23.33616 19.38025
#
# Velocity S-wave (km/s) = 2.90215 3.56969 3.25309
# Velocity P-wave (km/s) = 5.86225 6.93452 6.42081
#
# Compressibility (1/GPa) = 0.02360168
#
# Stress axis : x y z
#
# Youngs Moduli (GPa) = 111.74255 75.39078 47.02517
#
# Poissons Ratio (x) = 0.36353 0.11457
# Poissons Ratio (y) = 0.53882 0.12603
# Poissons Ratio (z) = 0.27224 0.20206
#
# Static dielectric constant tensor:
#      x y z
#    x 3.701760 0.000000 0.000000 
#    y 0.000000 3.172490 0.000000 
#    z 0.000000 0.000000 3.147770 
# 
# 
# High freq. dielectric constant tensor:
#      x y z
#    x 1.720310 0.000000 0.000000 
#    y 0.000000 1.678880 0.000000 
#    z 0.000000 0.000000 1.697500 
# 
# From -- ./inp_files/13306.got.cif
#   From: 2010.03.12/outbox.cif.g09.slc.cpg/sg47_7_cif.got.tgz:13306.got - 2010.04.14 03:12:58.
