data_PCOD8195458
_publ_section_title
;
Structure prediction by ZEFSAII (Michael W. Deem and Ramdas Pophale) SiO2 
 PCOD8195458
Probable space group: P M M M
;
_chemical_formula_sum "Si O2"
_cell_formula_units_Z 40
_cell_length_a 13.769000
_cell_length_b 18.360768
_cell_length_c 9.318643
_cell_angle_alpha 90.000000
_cell_angle_beta 90.000000
_cell_angle_gamma 90.000000
_cell_volume 2355.840682
_symmetry_space_group_name_H-M "P M M M"
_symmetry_group_IT_number 47
_symmetry_cell_setting 'orthorhombic'
loop_
_space_group_symop_operation_xyz
x,y,z
-x,-y,z
x,-y,-z
-x,y,-z
-x,-y,-z
x,y,-z
-x,y,z
x,-y,z
loop_
_atom_site_type_symbol
_atom_site_label
_atom_site_fract_x
_atom_site_fract_y
_atom_site_fract_z
Si Si1 0.611438 0.220831 0.831930
Si Si2 0.888936 0.415280 0.835730
Si Si3 0.773278 0.298976 0.331982
Si Si4 0.109844 0.844754 0.332904
Si Si5 0.729235 0.081247 0.165593
O O1 0.500000 0.227542 0.785826
O O2 0.671083 0.280838 0.743449
O O3 0.646756 0.139342 0.790470
O O4 0.626026 0.235986 0.000000
O O5 0.865437 0.500000 0.817300
O O6 0.816190 0.372879 0.732080
O O7 0.000000 0.399217 0.790841
O O8 0.871893 0.391008 0.000000
O O9 0.754721 0.309471 0.500000
O O10 0.849661 0.235252 0.298478
O O11 0.115925 0.862240 0.500000
O O12 0.172025 0.905717 0.252541
O O13 0.000000 0.848341 0.276117
O O14 0.689969 0.000000 0.199384
O O15 0.756436 0.090000 0.000000
#
# Coordination Sequence:
#
# PCOD8195458 Si02
#       5
#     8   8   8   8   8
#     4   9  18  33  52  71  91 120 158 197 241 292
#     4   9  18  32  50  74 104 135 163 190 224 270
#     4  10  19  31  49  72  98 126 158 198 239 279
#     4   9  18  31  45  63  90 125 161 192 226 274
#     4   9  18  31  46  67  93 118 150 195 242 285
#
# _framework density 16.979077
#
# number of rings (size 3 to 8) (size 9 to 14) (size 15 to 20)
#    0.000    2.800    0.000    1.800    0.000    4.400 
#    0.000    5.000    0.000    0.600    0.000    9.800 
#    0.000    0.000    0.000    0.000    0.000    0.000 
#
# Total GULP energy -496042.016875 kJ/mol
# GULP energy per Si atom -12401.050422 kJ/mol
# Density = 1.694043 g / cm^3
# Si number density = 16.979077 Si / 1000 Ang^3
#
#
#
# Elastic Constant Matrix: (Units=GPa)
#
#
# Indices 1 2 3 4 5 6 
#
# 1 134.5211 53.2243 56.4373 0.0000 0.0000 0.0000
# 2 53.2243 83.3478 43.7747 0.0000 0.0000 0.0000
# 3 56.4373 43.7747 64.7344 0.0000 0.0000 0.0000
# 4 0.0000 0.0000 0.0000 26.3095 0.0000 0.0000
# 5 0.0000 0.0000 0.0000 0.0000 24.5836 0.0000
# 6 0.0000 0.0000 0.0000 0.0000 0.0000 20.9217
#
#
#
# Elastic Compliance Matrix: (Units=1/GPa)
#
#
# Indices 1 2 3 4 5 6 
#
# 1 0.012331 -0.003455 -0.008414 0.000000 0.000000 0.000000
# 2 -0.003455 0.019574 -0.010224 0.000000 0.000000 0.000000
# 3 -0.008414 -0.010224 0.029697 0.000000 0.000000 0.000000
# 4 0.000000 0.000000 0.000000 0.038009 0.000000 0.000000
# 5 0.000000 0.000000 0.000000 0.000000 0.040678 0.000000
# 6 0.000000 0.000000 0.000000 0.000000 0.000000 0.047797
#
#
# Mechanical properties :
#
#
# Convention : Reuss Voigt Hill
#
# Bulk Modulus (GPa) = 57.41998 65.49734 61.45866
# Shear Modulus (GPa) = 21.00160 22.97409 21.98785
#
# Velocity S-wave (km/s) = 3.52079 3.68242 3.60251
# Velocity P-wave (km/s) = 7.10066 7.53255 7.31979
#
# Compressibility (1/GPa) = 0.01741554
#
# Stress axis : x y z
#
# Youngs Moduli (GPa) = 81.09736 51.08803 33.67358
#
# Poissons Ratio (x) = 0.17652 0.28333
# Poissons Ratio (y) = 0.28021 0.34428
# Poissons Ratio (z) = 0.68235 0.52232
#
# Static dielectric constant tensor:
#      x y z
#    x 3.137290 0.000000 0.000000 
#    y 0.000000 3.080440 0.000000 
#    z 0.000000 0.000000 3.141850 
# 
# 
# High freq. dielectric constant tensor:
#      x y z
#    x 1.644870 0.000000 0.000000 
#    y 0.000000 1.646360 0.000000 
#    z 0.000000 0.000000 1.654410 
# 
# From -- ./inp_files/3704.got.cif
#   From: 2010.03.12/outbox.cif.g09.slc.cpg/sg47_2_cif.got.tgz:3704.got - 2010.04.14 03:12:58.
