data_PCOD8195605
_publ_section_title
;
Structure prediction by ZEFSAII (Michael W. Deem and Ramdas Pophale) SiO2 
 PCOD8195605
Probable space group: P M M M
;
_chemical_formula_sum "Si O2"
_cell_formula_units_Z 52
_cell_length_a 9.896357
_cell_length_b 14.594381
_cell_length_c 20.602483
_cell_angle_alpha 90.000000
_cell_angle_beta 90.000000
_cell_angle_gamma 90.000000
_cell_volume 2975.641437
_symmetry_space_group_name_H-M "P M M M"
_symmetry_group_IT_number 47
_symmetry_cell_setting 'orthorhombic'
loop_
_space_group_symop_operation_xyz
x,y,z
-x,-y,z
x,-y,-z
-x,y,-z
-x,-y,-z
x,y,-z
-x,y,z
x,-y,z
loop_
_atom_site_type_symbol
_atom_site_label
_atom_site_fract_x
_atom_site_fract_y
_atom_site_fract_z
Si Si1 0.149600 0.000000 0.423588
Si Si2 0.149763 0.397205 0.252700
Si Si3 0.655150 0.768335 0.072119
Si Si4 0.659661 0.103436 0.189185
Si Si5 0.650173 0.156127 0.426887
Si Si6 0.846464 0.396805 0.900083
Si Si7 0.651804 0.246748 0.295878
O O1 0.235416 0.087197 0.402272
O O2 0.134372 0.000000 0.500000
O O3 0.000000 0.000000 0.391201
O O4 0.173079 0.500000 0.277861
O O5 0.167680 0.392499 0.176435
O O6 0.259029 0.334876 0.286179
O O7 0.000000 0.363486 0.272305
O O8 0.500000 0.742029 0.088702
O O9 0.710599 0.841396 0.125121
O O10 0.743028 0.675828 0.070247
O O11 0.664351 0.812706 0.000000
O O12 0.500000 0.093661 0.186656
O O13 0.704912 0.159090 0.254039
O O14 0.722537 0.000000 0.190695
O O15 0.680327 0.193151 0.500000
O O16 0.500000 0.110261 0.425932
O O17 0.655294 0.234926 0.373487
O O18 0.810925 0.500000 0.924245
O O19 0.000000 0.372426 0.921224
O O20 0.500000 0.268079 0.272126
#
# Coordination Sequence:
#
# PCOD8195605 Si02
#       7
#     4   8   8   8   8   8   8
#     4   9  17  29  45  67  97 133 172 207 242 292
#     4   9  18  33  53  76 102 130 160 201 253 302
#     4  10  20  33  50  73 100 130 165 205 248 289
#     4   9  18  32  49  71  99 128 163 206 245 284
#     4   9  18  31  47  70 102 136 167 203 252 305
#     4   9  18  33  52  73  99 131 162 195 245 306
#     4  10  19  31  53  78  99 129 167 206 247 292
#
# _framework density 17.475224000000001
#
# number of rings (size 3 to 8) (size 9 to 14) (size 15 to 20)
#    0.000    2.692    1.538    1.154    1.077    3.077 
#    0.000    4.615    0.000    1.846    0.000    4.308 
#    0.000    0.000    0.000    0.000    0.000    0.000 
#
# Total GULP energy -644349.265967 kJ/mol
# GULP energy per Si atom -12391.332038 kJ/mol
# Density = 1.743545 g / cm^3
# Si number density = 17.475224 Si / 1000 Ang^3
#
#
#
# Elastic Constant Matrix: (Units=GPa)
#
#
# Indices 1 2 3 4 5 6 
#
# 1 84.2953 47.1262 31.3683 0.0000 0.0000 0.0000
# 2 47.1262 88.1855 44.5978 0.0000 0.0000 0.0000
# 3 31.3683 44.5978 96.7853 0.0000 0.0000 0.0000
# 4 0.0000 0.0000 0.0000 16.6332 0.0000 0.0000
# 5 0.0000 0.0000 0.0000 0.0000 15.4786 0.0000
# 6 0.0000 0.0000 0.0000 0.0000 0.0000 20.2036
#
#
#
# Elastic Compliance Matrix: (Units=1/GPa)
#
#
# Indices 1 2 3 4 5 6 
#
# 1 0.017139 -0.008279 -0.001740 0.000000 0.000000 0.000000
# 2 -0.008279 0.018785 -0.005972 0.000000 0.000000 0.000000
# 3 -0.001740 -0.005972 0.013648 0.000000 0.000000 0.000000
# 4 0.000000 0.000000 0.000000 0.060121 0.000000 0.000000
# 5 0.000000 0.000000 0.000000 0.000000 0.064605 0.000000
# 6 0.000000 0.000000 0.000000 0.000000 0.000000 0.049496
#
#
# Mechanical properties :
#
#
# Convention : Reuss Voigt Hill
#
# Bulk Modulus (GPa) = 56.85455 57.27231 57.06343
# Shear Modulus (GPa) = 19.11026 20.20801 19.65914
#
# Velocity S-wave (km/s) = 3.31049 3.40425 3.35770
# Velocity P-wave (km/s) = 6.87150 6.94957 6.91064
#
# Compressibility (1/GPa) = 0.01758874
#
# Stress axis : x y z
#
# Youngs Moduli (GPa) = 58.34626 53.23521 73.27036
#
# Poissons Ratio (x) = 0.44075 0.12748
# Poissons Ratio (y) = 0.48306 0.43760
# Poissons Ratio (z) = 0.10151 0.31794
#
# Static dielectric constant tensor:
#      x y z
#    x 3.409860 0.000000 0.000000 
#    y 0.000000 3.478890 0.000000 
#    z 0.000000 0.000000 3.275430 
# 
# 
# High freq. dielectric constant tensor:
#      x y z
#    x 1.662610 0.000000 0.000000 
#    y 0.000000 1.654380 0.000000 
#    z 0.000000 0.000000 1.673870 
# 
# From -- ./inp_files/11099.got.cif
#   From: 2010.03.12/outbox.cif.g09.slc.cpg/sg47_6_cif.got.tgz:11099.got - 2010.04.14 03:12:58.
