data_PCOD8195113
_publ_section_title
;
Structure prediction by ZEFSAII (Michael W. Deem and Ramdas Pophale) SiO2 
 PCOD8195113
Probable space group: P M M M
;
_chemical_formula_sum "Si O2"
_cell_formula_units_Z 52
_cell_length_a 11.932451
_cell_length_b 29.428599
_cell_length_c 8.032001
_cell_angle_alpha 90.000000
_cell_angle_beta 90.000000
_cell_angle_gamma 90.000000
_cell_volume 2820.479846
_symmetry_space_group_name_H-M "P M M M"
_symmetry_group_IT_number 47
_symmetry_cell_setting 'orthorhombic'
loop_
_space_group_symop_operation_xyz
x,y,z
-x,-y,z
x,-y,-z
-x,y,-z
-x,-y,-z
x,y,-z
-x,y,z
x,-y,z
loop_
_atom_site_type_symbol
_atom_site_label
_atom_site_fract_x
_atom_site_fract_y
_atom_site_fract_z
Si Si1 0.500000 0.749724 0.199832
Si Si2 0.870398 0.449003 0.192687
Si Si3 0.500000 0.649125 0.809214
Si Si4 0.632338 0.050513 0.500000
Si Si5 0.126451 0.718125 0.698533
Si Si6 0.369235 0.889243 0.812397
Si Si7 0.734742 0.633126 0.688260
Si Si8 0.719182 0.798718 0.307675
O O1 0.500000 0.698776 0.271415
O O2 0.606751 0.771323 0.283655
O O3 0.500000 0.755774 0.000000
O O4 0.828884 0.500000 0.234582
O O5 0.804090 0.413168 0.302526
O O6 0.000000 0.444433 0.238467
O O7 0.849619 0.437952 0.000000
O O8 0.613090 0.622353 0.764579
O O9 0.500000 0.658581 0.000000
O O10 0.500000 0.046979 0.500000
O O11 0.670707 0.075385 0.670546
O O12 0.685507 0.000000 0.500000
O O13 0.125068 0.715114 0.500000
O O14 0.198743 0.675658 0.773056
O O15 0.179388 0.766389 0.755735
O O16 0.000000 0.715006 0.769464
O O17 0.500000 0.875721 0.783797
O O18 0.289859 0.845064 0.797736
O O19 0.353799 0.909421 0.000000
O O20 0.715133 0.646887 0.500000
O O21 0.735254 0.811952 0.500000
#
# Coordination Sequence:
#
# PCOD8195113 Si02
#       8
#     4   8   4   4   8   8   8   8
#     4  11  21  31  47  72 100 134 178 222 258 298
#     4   9  19  37  59  81 106 137 172 210 259 320
#     4  11  23  37  52  74 107 141 180 217 259 319
#     4   9  18  32  48  70 101 139 183 221 265 323
#     4   9  19  33  49  73 105 140 173 209 259 315
#     4  10  19  30  46  71 103 137 177 223 266 314
#     4  11  21  35  56  80 107 135 173 221 266 312
#     4  11  19  30  50  72 102 139 179 217 257 313
#
# _framework density 18.436579999999999
#
# number of rings (size 3 to 8) (size 9 to 14) (size 15 to 20)
#    0.000    1.923    3.077    2.308    0.000    2.154 
#    0.000    2.692    0.000    6.923    0.000    0.000 
#    0.000    1.231    0.000    1.385    0.000    0.154 
#
# Total GULP energy -644575.449774 kJ/mol
# GULP energy per Si atom -12395.681726 kJ/mol
# Density = 1.839462 g / cm^3
# Si number density = 18.436580 Si / 1000 Ang^3
#
#
#
# Elastic Constant Matrix: (Units=GPa)
#
#
# Indices 1 2 3 4 5 6 
#
# 1 96.5536 40.0557 17.8881 0.0000 0.0000 0.0000
# 2 40.0557 115.7044 35.0864 0.0000 0.0000 0.0000
# 3 17.8881 35.0864 66.5562 0.0000 0.0000 0.0000
# 4 0.0000 0.0000 0.0000 22.1402 0.0000 0.0000
# 5 0.0000 0.0000 0.0000 0.0000 22.7728 0.0000
# 6 0.0000 0.0000 0.0000 0.0000 0.0000 31.9922
#
#
#
# Elastic Compliance Matrix: (Units=1/GPa)
#
#
# Indices 1 2 3 4 5 6 
#
# 1 0.012181 -0.003838 -0.001251 0.000000 0.000000 0.000000
# 2 -0.003838 0.011496 -0.005029 0.000000 0.000000 0.000000
# 3 -0.001251 -0.005029 0.018012 0.000000 0.000000 0.000000
# 4 0.000000 0.000000 0.000000 0.045167 0.000000 0.000000
# 5 0.000000 0.000000 0.000000 0.000000 0.043912 0.000000
# 6 0.000000 0.000000 0.000000 0.000000 0.000000 0.031258
#
#
# Mechanical properties :
#
#
# Convention : Reuss Voigt Hill
#
# Bulk Modulus (GPa) = 46.61033 51.65273 49.13153
# Shear Modulus (GPa) = 26.39753 27.76665 27.08209
#
# Velocity S-wave (km/s) = 3.78802 3.88501 3.83682
# Velocity P-wave (km/s) = 6.66847 6.94274 6.80699
#
# Compressibility (1/GPa) = 0.02145447
#
# Stress axis : x y z
#
# Youngs Moduli (GPa) = 82.09722 86.98483 55.51789
#
# Poissons Ratio (x) = 0.33381 0.06944
# Poissons Ratio (y) = 0.31505 0.27920
# Poissons Ratio (z) = 0.10268 0.43745
#
# Static dielectric constant tensor:
#      x y z
#    x 3.326380 0.000000 0.000000 
#    y 0.000000 3.427170 0.000000 
#    z 0.000000 0.000000 3.304200 
# 
# 
# High freq. dielectric constant tensor:
#      x y z
#    x 1.685250 0.000000 0.000000 
#    y 0.000000 1.705370 0.000000 
#    z 0.000000 0.000000 1.711340 
# 
# From -- ./inp_files/4593.got.cif
#   From: 2010.03.12/outbox.cif.g09.slc.cpg/sg47_3_cif.got.tgz:4593.got - 2010.04.14 03:12:58.
