data_PCOD8195392
_publ_section_title
;
Structure prediction by ZEFSAII (Michael W. Deem and Ramdas Pophale) SiO2 
 PCOD8195392
Probable space group: P M M M
;
_chemical_formula_sum "Si O2"
_cell_formula_units_Z 52
_cell_length_a 17.108429
_cell_length_b 12.273029
_cell_length_c 13.762676
_cell_angle_alpha 90.000000
_cell_angle_beta 90.000000
_cell_angle_gamma 90.000000
_cell_volume 2889.779981
_symmetry_space_group_name_H-M "P M M M"
_symmetry_group_IT_number 47
_symmetry_cell_setting 'orthorhombic'
loop_
_space_group_symop_operation_xyz
x,y,z
-x,-y,z
x,-y,-z
-x,y,-z
-x,-y,-z
x,y,-z
-x,y,z
x,-y,z
loop_
_atom_site_type_symbol
_atom_site_label
_atom_site_fract_x
_atom_site_fract_y
_atom_site_fract_z
Si Si1 0.587023 0.779314 0.746163
Si Si2 0.275894 0.000000 0.393293
Si Si3 0.342078 0.625913 0.890836
Si Si4 0.909941 0.788454 0.112268
Si Si5 0.736173 0.236686 0.612646
Si Si6 0.813316 0.627154 0.772913
Si Si7 0.643100 0.000000 0.791285
Si Si8 0.812262 0.000000 0.886588
O O1 0.500000 0.777657 0.701132
O O2 0.593648 0.682701 0.823986
O O3 0.649396 0.763662 0.659604
O O4 0.598285 0.888108 0.813659
O O5 0.227514 0.113300 0.377583
O O6 0.312462 0.000000 0.500000
O O7 0.351424 0.000000 0.325628
O O8 0.363166 0.500000 0.890711
O O9 0.256419 0.648053 0.848134
O O10 0.343772 0.673394 0.000000
O O11 0.888226 0.685932 0.180151
O O12 0.859868 0.893122 0.144698
O O13 0.000000 0.817779 0.129198
O O14 0.894364 0.758094 0.000000
O O15 0.730407 0.272899 0.500000
O O16 0.792408 0.320691 0.668341
O O17 0.831824 0.500000 0.757675
O O18 0.729932 0.000000 0.833434
O O19 0.795533 0.000000 0.000000
#
# Coordination Sequence:
#
# PCOD8195392 Si02
#       8
#     8   4   8   8   8   8   4   4
#     4  10  20  32  47  71 102 131 165 211 260 309
#     4   8  14  27  48  72  92 112 150 202 247 289
#     4   9  18  33  51  68  89 124 171 216 253 292
#     4  10  20  33  52  80 111 139 167 205 255 305
#     4   9  18  33  53  75  98 129 170 212 256 305
#     4  10  20  33  51  75 102 134 173 212 249 299
#     4  10  19  31  48  70 100 137 168 198 245 302
#     4  10  19  33  53  75 103 139 178 214 248 295
#
# _framework density 17.994450000000001
#
# number of rings (size 3 to 8) (size 9 to 14) (size 15 to 20)
#    0.000    2.462    0.000    3.692    0.000    5.231 
#    0.000    1.538    0.000    6.462    0.000    5.385 
#    0.000    9.846    0.000    0.000    0.000    0.000 
#
# Total GULP energy -644454.108569 kJ/mol
# GULP energy per Si atom -12393.348242 kJ/mol
# Density = 1.795349 g / cm^3
# Si number density = 17.994450 Si / 1000 Ang^3
#
#
#
# Elastic Constant Matrix: (Units=GPa)
#
#
# Indices 1 2 3 4 5 6 
#
# 1 64.3865 27.9538 27.5642 0.0000 0.0000 0.0000
# 2 27.9538 98.6822 50.0871 0.0000 0.0000 0.0000
# 3 27.5642 50.0871 102.3761 0.0000 0.0000 0.0000
# 4 0.0000 0.0000 0.0000 28.0213 0.0000 0.0000
# 5 0.0000 0.0000 0.0000 0.0000 17.0919 0.0000
# 6 0.0000 0.0000 0.0000 0.0000 0.0000 20.7191
#
#
#
# Elastic Compliance Matrix: (Units=1/GPa)
#
#
# Indices 1 2 3 4 5 6 
#
# 1 0.018470 -0.003602 -0.003210 0.000000 0.000000 0.000000
# 2 -0.003602 0.014184 -0.005969 0.000000 0.000000 0.000000
# 3 -0.003210 -0.005969 0.013553 0.000000 0.000000 0.000000
# 4 0.000000 0.000000 0.000000 0.035687 0.000000 0.000000
# 5 0.000000 0.000000 0.000000 0.000000 0.058507 0.000000
# 6 0.000000 0.000000 0.000000 0.000000 0.000000 0.048265
#
#
# Mechanical properties :
#
#
# Convention : Reuss Voigt Hill
#
# Bulk Modulus (GPa) = 48.44554 52.96169 50.70362
# Shear Modulus (GPa) = 22.61313 23.82243 23.21778
#
# Velocity S-wave (km/s) = 3.54880 3.64246 3.59594
# Velocity P-wave (km/s) = 6.61611 6.86922 6.74385
#
# Compressibility (1/GPa) = 0.02064173
#
# Stress axis : x y z
#
# Youngs Moduli (GPa) = 54.14303 70.50264 73.78541
#
# Poissons Ratio (x) = 0.25398 0.23688
# Poissons Ratio (y) = 0.19505 0.44046
# Poissons Ratio (z) = 0.17382 0.42086
#
# Static dielectric constant tensor:
#      x y z
#    x 2.992070 0.000000 0.000000 
#    y 0.000000 3.590300 0.000000 
#    z 0.000000 0.000000 3.338950 
# 
# 
# High freq. dielectric constant tensor:
#      x y z
#    x 1.662600 0.000000 0.000000 
#    y 0.000000 1.711890 0.000000 
#    z 0.000000 0.000000 1.689930 
# 
# From -- ./inp_files/24655.got.cif
#   From: 2010.03.12/outbox.cif.g09.slc.cpg/sg47_13_cif.got.tgz:24655.got - 2010.04.14 03:12:58.
