data_PCOD8195404
_publ_section_title
;
Structure prediction by ZEFSAII (Michael W. Deem and Ramdas Pophale) SiO2 
 PCOD8195404
Probable space group: P M M M
;
_chemical_formula_sum "Si O2"
_cell_formula_units_Z 52
_cell_length_a 11.612980
_cell_length_b 17.859042
_cell_length_c 14.947766
_cell_angle_alpha 90.000000
_cell_angle_beta 90.000000
_cell_angle_gamma 90.000000
_cell_volume 3100.117304
_symmetry_space_group_name_H-M "P M M M"
_symmetry_group_IT_number 47
_symmetry_cell_setting 'orthorhombic'
loop_
_space_group_symop_operation_xyz
x,y,z
-x,-y,z
x,-y,-z
-x,y,-z
-x,-y,-z
x,y,-z
-x,y,z
x,-y,z
loop_
_atom_site_type_symbol
_atom_site_label
_atom_site_fract_x
_atom_site_fract_y
_atom_site_fract_z
Si Si1 0.862820 0.722861 0.287504
Si Si2 0.500000 0.085772 0.629929
Si Si3 0.253230 0.852678 0.398957
Si Si4 0.136391 0.417301 0.599760
Si Si5 0.129310 0.000000 0.606589
Si Si6 0.500000 0.916501 0.839480
Si Si7 0.866318 0.225709 0.098855
Si Si8 0.259702 0.082055 0.103452
O O1 0.785454 0.784865 0.336244
O O2 0.822163 0.643565 0.328112
O O3 0.831357 0.719799 0.181181
O O4 0.000000 0.738256 0.302215
O O5 0.389881 0.132937 0.597676
O O6 0.500000 0.082423 0.734677
O O7 0.500000 0.000000 0.591207
O O8 0.210077 0.835997 0.500000
O O9 0.194132 0.926638 0.357435
O O10 0.181519 0.396297 0.500000
O O11 0.182867 0.500000 0.627092
O O12 0.000000 0.418994 0.597941
O O13 0.132503 0.000000 0.500000
O O14 0.000000 0.000000 0.643956
O O15 0.382674 0.878503 0.874035
O O16 0.500000 0.000000 0.880415
O O17 0.836429 0.141629 0.132390
O O18 0.000000 0.230360 0.084236
O O19 0.809223 0.244549 0.000000
O O20 0.244307 0.000000 0.151786
O O21 0.249155 0.067347 0.000000
#
# Coordination Sequence:
#
# PCOD8195404 Si02
#       8
#     8   4   8   8   4   4   8   8
#     4  10  19  31  48  71  95 119 150 191 238 281
#     4  11  21  33  45  59  84 127 167 195 227 271
#     4  11  21  32  47  64  88 121 159 196 232 272
#     4   8  14  26  46  72  99 122 144 178 229 285
#     4   9  18  31  45  61  84 115 151 192 235 272
#     4   9  17  27  41  59  77 100 138 194 238 276
#     4   9  18  31  44  60  86 120 152 182 223 275
#     4   9  16  27  43  60  79 106 146 196 244 279
#
# _framework density 16.773558999999999
#
# number of rings (size 3 to 8) (size 9 to 14) (size 15 to 20)
#    0.000    2.538    0.769    2.769    0.000    3.077 
#    1.385    1.538    0.000    0.462    0.000    3.769 
#    0.000    2.462    0.000    0.000    0.000   16.462 
#
# Total GULP energy -644199.328391 kJ/mol
# GULP energy per Si atom -12388.448623 kJ/mol
# Density = 1.673538 g / cm^3
# Si number density = 16.773559 Si / 1000 Ang^3
#
#
#
# Elastic Constant Matrix: (Units=GPa)
#
#
# Indices 1 2 3 4 5 6 
#
# 1 41.4508 24.4723 25.9957 0.0000 0.0000 0.0000
# 2 24.4723 106.2074 66.0902 0.0000 0.0000 0.0000
# 3 25.9957 66.0902 84.9163 0.0000 0.0000 0.0000
# 4 0.0000 0.0000 0.0000 21.6298 0.0000 0.0000
# 5 0.0000 0.0000 0.0000 0.0000 19.6468 0.0000
# 6 0.0000 0.0000 0.0000 0.0000 0.0000 7.4395
#
#
#
# Elastic Compliance Matrix: (Units=1/GPa)
#
#
# Indices 1 2 3 4 5 6 
#
# 1 0.030153 -0.002334 -0.007414 0.000000 0.000000 0.000000
# 2 -0.002334 0.018439 -0.013636 0.000000 0.000000 0.000000
# 3 -0.007414 -0.013636 0.024659 0.000000 0.000000 0.000000
# 4 0.000000 0.000000 0.000000 0.046233 0.000000 0.000000
# 5 0.000000 0.000000 0.000000 0.000000 0.050899 0.000000
# 6 0.000000 0.000000 0.000000 0.000000 0.000000 0.134417
#
#
# Mechanical properties :
#
#
# Convention : Reuss Voigt Hill
#
# Bulk Modulus (GPa) = 37.76213 51.74344 44.75278
# Shear Modulus (GPa) = 13.87360 17.47762 15.67561
#
# Velocity S-wave (km/s) = 2.87907 3.23146 3.06035
# Velocity P-wave (km/s) = 5.79775 6.69614 6.26307
#
# Compressibility (1/GPa) = 0.02648156
#
# Stress axis : x y z
#
# Youngs Moduli (GPa) = 33.16438 54.23276 40.55276
#
# Poissons Ratio (x) = 0.12659 0.30066
# Poissons Ratio (y) = 0.07741 0.55300
# Poissons Ratio (z) = 0.24588 0.73954
#
# Static dielectric constant tensor:
#      x y z
#    x 2.980360 0.000000 0.000000 
#    y 0.000000 2.963900 0.000000 
#    z 0.000000 0.000000 3.403130 
# 
# 
# High freq. dielectric constant tensor:
#      x y z
#    x 1.621400 0.000000 0.000000 
#    y 0.000000 1.606960 0.000000 
#    z 0.000000 0.000000 1.657100 
# 
# From -- ./inp_files/22908.got.cif
#   From: 2010.03.12/outbox.cif.g09.slc.cpg/sg47_12_cif.got.tgz:22908.got - 2010.04.14 03:12:58.
