data_PCOD8195582
_publ_section_title
;
Structure prediction by ZEFSAII (Michael W. Deem and Ramdas Pophale) SiO2 
 PCOD8195582
Probable space group: P M M M
;
_chemical_formula_sum "Si O2"
_cell_formula_units_Z 64
_cell_length_a 14.039989
_cell_length_b 27.876172
_cell_length_c 9.113891
_cell_angle_alpha 90.000000
_cell_angle_beta 90.000000
_cell_angle_gamma 90.000000
_cell_volume 3567.005125
_symmetry_space_group_name_H-M "P M M M"
_symmetry_group_IT_number 47
_symmetry_cell_setting 'orthorhombic'
loop_
_space_group_symop_operation_xyz
x,y,z
-x,-y,z
x,-y,-z
-x,y,-z
-x,-y,-z
x,y,-z
-x,y,z
x,-y,z
loop_
_atom_site_type_symbol
_atom_site_label
_atom_site_fract_x
_atom_site_fract_y
_atom_site_fract_z
Si Si1 0.763489 0.277456 0.327718
Si Si2 0.606284 0.553431 0.174329
Si Si3 0.733217 0.130073 0.830396
Si Si4 0.391045 0.777732 0.831450
Si Si5 0.111984 0.446860 0.662386
Si Si6 0.607578 0.943861 0.331204
Si Si7 0.768711 0.623223 0.172063
Si Si8 0.889876 0.812736 0.327484
O O1 0.758190 0.284844 0.500000
O O2 0.660636 0.260998 0.269946
O O3 0.788421 0.327249 0.252923
O O4 0.844483 0.238673 0.284211
O O5 0.500000 0.566023 0.228584
O O6 0.635063 0.500000 0.231621
O O7 0.675431 0.595235 0.233967
O O8 0.611084 0.553013 0.000000
O O9 0.654085 0.170494 0.805672
O O10 0.688729 0.082084 0.763016
O O11 0.832374 0.144730 0.752876
O O12 0.755980 0.121173 0.000000
O O13 0.500000 0.780308 0.781737
O O14 0.380637 0.761411 0.000000
O O15 0.148307 0.430772 0.500000
O O16 0.151413 0.500000 0.698369
O O17 0.143378 0.410909 0.789873
O O18 0.000000 0.447735 0.662457
O O19 0.619093 0.928419 0.500000
O O20 0.500000 0.930998 0.277749
O O21 0.625572 0.000000 0.311934
O O22 0.762730 0.633098 0.000000
O O23 0.880767 0.821666 0.500000
O O24 0.000000 0.813435 0.276569
#
# Coordination Sequence:
#
# PCOD8195582 Si02
#       8
#     8   8   8   8   8   8   8   8
#     4  10  21  35  50  72 100 130 167 207 249 301
#     4   8  15  29  48  69  93 123 160 198 235 280
#     4  10  19  31  51  80 109 136 170 214 264 313
#     4   9  18  33  51  71  99 134 169 207 252 301
#     4   9  19  36  55  73  95 125 158 192 237 293
#     4   9  18  32  50  75 110 151 189 220 251 293
#     4  11  21  32  50  76 102 128 159 198 247 298
#     4   9  19  37  58  75  94 128 174 219 261 308
#
# _framework density 17.942222000000001
#
# number of rings (size 3 to 8) (size 9 to 14) (size 15 to 20)
#    0.000    2.625    0.000    3.000    0.000    4.500 
#    0.000    3.750    0.000    1.500    0.000    7.000 
#    0.000    0.000    0.000    0.000    0.000    0.000 
#
# Total GULP energy -793457.944697 kJ/mol
# GULP energy per Si atom -12397.780386 kJ/mol
# Density = 1.790138 g / cm^3
# Si number density = 17.942222 Si / 1000 Ang^3
#
#
#
# Elastic Constant Matrix: (Units=GPa)
#
#
# Indices 1 2 3 4 5 6 
#
# 1 118.2045 50.1103 44.2198 0.0000 0.0000 0.0000
# 2 50.1103 87.8280 42.3835 0.0000 0.0000 0.0000
# 3 44.2198 42.3835 63.0058 0.0000 0.0000 0.0000
# 4 0.0000 0.0000 0.0000 29.1378 0.0000 0.0000
# 5 0.0000 0.0000 0.0000 0.0000 26.3397 0.0000
# 6 0.0000 0.0000 0.0000 0.0000 0.0000 -8.9014
#
#
#
# Elastic Compliance Matrix: (Units=1/GPa)
#
#
# Indices 1 2 3 4 5 6 
#
# 1 0.012472 -0.004282 -0.005873 0.000000 0.000000 0.000000
# 2 -0.004282 0.018329 -0.009324 0.000000 0.000000 0.000000
# 3 -0.005873 -0.009324 0.026266 0.000000 0.000000 0.000000
# 4 0.000000 0.000000 0.000000 0.034320 0.000000 0.000000
# 5 0.000000 0.000000 0.000000 0.000000 0.037965 0.000000
# 6 0.000000 0.000000 0.000000 0.000000 0.000000 -0.112342
#
#
# Mechanical properties :
#
#
# Convention : Reuss Voigt Hill
#
# Bulk Modulus (GPa) = 55.22369 60.27392 57.74880
# Shear Modulus (GPa) = 80.63958 18.13688 49.38823
#
# Velocity S-wave (km/s) = 6.71130 3.18283 5.25224
# Velocity P-wave (km/s) = 9.53420 6.86830 8.30886
#
# Compressibility (1/GPa) = 0.01810817
#
# Stress axis : x y z
#
# Youngs Moduli (GPa) = 80.17834 54.55970 38.07211
#
# Poissons Ratio (x) = 0.23361 0.22360
# Poissons Ratio (y) = 0.34331 0.35500
# Poissons Ratio (z) = 0.47090 0.50873
#
# Static dielectric constant tensor:
#      x y z
#    x 3.355710 0.000000 0.000000 
#    y 0.000000 3.284580 0.000000 
#    z 0.000000 0.000000 3.257680 
# 
# 
# High freq. dielectric constant tensor:
#      x y z
#    x 1.691110 0.000000 0.000000 
#    y 0.000000 1.687860 0.000000 
#    z 0.000000 0.000000 1.685600 
# 
# From -- ./inp_files/7892.got.cif
#   From: 2010.03.12/outbox.cif.g09.slc.cpg/sg47_4_cif.got.tgz:7892.got - 2010.04.14 03:12:58.
