data_PCOD8195402
_publ_section_title
;
Structure prediction by ZEFSAII (Michael W. Deem and Ramdas Pophale) SiO2 
 PCOD8195402
Probable space group: P M M M
;
_chemical_formula_sum "Si O2"
_cell_formula_units_Z 52
_cell_length_a 12.486304
_cell_length_b 25.175084
_cell_length_c 8.739050
_cell_angle_alpha 90.000000
_cell_angle_beta 90.000000
_cell_angle_gamma 90.000000
_cell_volume 2747.065766
_symmetry_space_group_name_H-M "P M M M"
_symmetry_group_IT_number 47
_symmetry_cell_setting 'orthorhombic'
loop_
_space_group_symop_operation_xyz
x,y,z
-x,-y,z
x,-y,-z
-x,y,-z
-x,-y,-z
x,y,-z
-x,y,z
x,-y,z
loop_
_atom_site_type_symbol
_atom_site_label
_atom_site_fract_x
_atom_site_fract_y
_atom_site_fract_z
Si Si1 0.820460 0.385614 0.177891
Si Si2 0.618932 0.652151 0.328609
Si Si3 0.223516 0.149254 0.821975
Si Si4 0.379631 0.059658 0.182175
Si Si5 0.381283 0.777278 0.328104
Si Si6 0.000000 0.687775 0.318809
Si Si7 0.880269 0.500000 0.818928
Si Si8 0.000000 0.806229 0.183131
O O1 0.697202 0.371148 0.201566
O O2 0.829274 0.445535 0.244053
O O3 0.894983 0.344401 0.267997
O O4 0.852438 0.382841 0.000000
O O5 0.654259 0.635146 0.500000
O O6 0.500000 0.630477 0.293644
O O7 0.620312 0.714807 0.315140
O O8 0.287447 0.098717 0.748716
O O9 0.295671 0.200739 0.791454
O O10 0.104051 0.160640 0.756702
O O11 0.211634 0.139449 0.000000
O O12 0.500000 0.075243 0.239503
O O13 0.351997 0.000000 0.236841
O O14 0.378463 0.062984 0.000000
O O15 0.350387 0.795280 0.500000
O O16 0.500000 0.798478 0.286321
O O17 0.000000 0.746726 0.248761
O O18 0.000000 0.693715 0.500000
O O19 0.000000 0.500000 0.759008
O O20 0.871783 0.500000 0.000000
O O21 0.000000 0.801047 0.000000
#
# Coordination Sequence:
#
# PCOD8195402 Si02
#       8
#     8   8   8   8   8   4   4   4
#     4  11  21  36  59  82 105 135 173 217 262 308
#     4   9  19  36  54  75 108 145 177 211 256 313
#     4  10  19  31  48  71 100 133 170 211 252 296
#     4   8  14  26  46  72  99 127 163 209 259 305
#     4   9  18  32  50  72  99 131 165 204 253 305
#     4  12  24  37  55  79 106 137 174 213 262 319
#     4   9  18  36  57  78 105 135 166 209 267 318
#     4  10  22  36  48  71 106 138 171 213 252 293
#
# _framework density 18.929288
#
# number of rings (size 3 to 8) (size 9 to 14) (size 15 to 20)
#    0.000    2.385    0.769    3.923    0.000    4.923 
#    0.000    4.231    0.000    5.077    0.000    2.154 
#    0.000    1.846    0.000    0.000    0.000    0.000 
#
# Total GULP energy -644428.389085 kJ/mol
# GULP energy per Si atom -12392.853636 kJ/mol
# Density = 1.888620 g / cm^3
# Si number density = 18.929288 Si / 1000 Ang^3
#
#
#
# Elastic Constant Matrix: (Units=GPa)
#
#
# Indices 1 2 3 4 5 6 
#
# 1 149.5385 78.2403 21.1995 0.0000 0.0000 0.0000
# 2 78.2403 110.0481 26.2927 0.0000 0.0000 0.0000
# 3 21.1995 26.2927 26.6993 0.0000 0.0000 0.0000
# 4 0.0000 0.0000 0.0000 5.6200 0.0000 0.0000
# 5 0.0000 0.0000 0.0000 0.0000 23.6784 0.0000
# 6 0.0000 0.0000 0.0000 0.0000 0.0000 8.0040
#
#
#
# Elastic Compliance Matrix: (Units=1/GPa)
#
#
# Indices 1 2 3 4 5 6 
#
# 1 0.010683 -0.007282 -0.001311 0.000000 0.000000 0.000000
# 2 -0.007282 0.016846 -0.010808 0.000000 0.000000 0.000000
# 3 -0.001311 -0.010808 0.049139 0.000000 0.000000 0.000000
# 4 0.000000 0.000000 0.000000 0.177937 0.000000 0.000000
# 5 0.000000 0.000000 0.000000 0.000000 0.042233 0.000000
# 6 0.000000 0.000000 0.000000 0.000000 0.000000 0.124938
#
#
# Mechanical properties :
#
#
# Convention : Reuss Voigt Hill
#
# Bulk Modulus (GPa) = 26.40910 59.75010 43.07960
# Shear Modulus (GPa) = 10.56634 18.16403 14.36518
#
# Velocity S-wave (km/s) = 2.36519 3.10106 2.75778
# Velocity P-wave (km/s) = 4.63040 6.66750 5.74004
#
# Compressibility (1/GPa) = 0.03786574
#
# Stress axis : x y z
#
# Youngs Moduli (GPa) = 93.60468 59.35960 20.35052
#
# Poissons Ratio (x) = 0.43226 0.02669
# Poissons Ratio (y) = 0.68164 0.21995
# Poissons Ratio (z) = 0.12275 0.64155
#
# Static dielectric constant tensor:
#      x y z
#    x 4.001180 0.000000 0.000000 
#    y 0.000000 3.613700 0.000000 
#    z 0.000000 0.000000 3.166290 
# 
# 
# High freq. dielectric constant tensor:
#      x y z
#    x 1.742060 0.000000 0.000000 
#    y 0.000000 1.731470 0.000000 
#    z 0.000000 0.000000 1.703050 
# 
# From -- ./inp_files/4631.got.cif
#   From: 2010.03.12/outbox.cif.g09.slc.cpg/sg47_3_cif.got.tgz:4631.got - 2010.04.14 03:12:58.
