data_PCOD8195168
_publ_section_title
;
Structure prediction by ZEFSAII (Michael W. Deem and Ramdas Pophale) SiO2 
 PCOD8195168
Probable space group: P M M M
;
_chemical_formula_sum "Si O2"
_cell_formula_units_Z 64
_cell_length_a 13.919362
_cell_length_b 9.742199
_cell_length_c 28.239694
_cell_angle_alpha 90.000000
_cell_angle_beta 90.000000
_cell_angle_gamma 90.000000
_cell_volume 3829.449199
_symmetry_space_group_name_H-M "P M M M"
_symmetry_group_IT_number 47
_symmetry_cell_setting 'orthorhombic'
loop_
_space_group_symop_operation_xyz
x,y,z
-x,-y,z
x,-y,-z
-x,y,-z
-x,-y,-z
x,y,-z
-x,y,z
x,-y,z
loop_
_atom_site_type_symbol
_atom_site_label
_atom_site_fract_x
_atom_site_fract_y
_atom_site_fract_z
Si Si1 0.106012 0.162835 0.447218
Si Si2 0.387371 0.349193 0.552009
Si Si3 0.241034 0.341651 0.135971
Si Si4 0.388143 0.159891 0.188262
Si Si5 0.109962 0.655937 0.225735
Si Si6 0.277201 0.160787 0.616973
Si Si7 0.254232 0.158410 0.724902
Si Si8 0.892829 0.337029 0.053182
O O1 0.137066 0.212359 0.500000
O O2 0.178835 0.216480 0.407026
O O3 0.000000 0.220808 0.435082
O O4 0.103283 0.000000 0.446314
O O5 0.348589 0.303992 0.500000
O O6 0.500000 0.359943 0.549997
O O7 0.345032 0.500000 0.565000
O O8 0.363275 0.237752 0.591456
O O9 0.274598 0.500000 0.130754
O O10 0.334085 0.249651 0.148289
O O11 0.159593 0.326325 0.175289
O O12 0.190558 0.283116 0.088312
O O13 0.500000 0.201929 0.189687
O O14 0.342457 0.192245 0.239753
O O15 0.375718 0.000000 0.175346
O O16 0.118923 0.500000 0.243852
O O17 0.160206 0.753862 0.263582
O O18 0.000000 0.701193 0.220261
O O19 0.284410 0.198104 0.672050
O O20 0.290188 0.000000 0.608421
O O21 0.224302 0.000000 0.728563
O O22 0.895876 0.500000 0.056973
O O23 0.000000 0.281203 0.066361
O O24 0.865861 0.289986 0.000000
#
# Coordination Sequence:
#
# PCOD8195168 Si02
#       8
#     8   8   8   8   8   8   8   8
#     4   8  14  25  41  62  88 115 141 170 206 249
#     4   9  19  35  51  67  90 119 146 172 211 266
#     4   9  16  27  46  71  94 116 151 196 230 261
#     4   9  18  33  49  62  83 118 155 191 235 284
#     4   9  17  29  45  65  91 123 155 186 220 259
#     4  10  19  30  48  72  92 112 144 186 226 262
#     4   9  19  32  45  66  92 116 146 186 231 275
#     4   8  13  22  40  69 102 130 152 178 221 275
#
# _framework density 16.712586000000002
#
# number of rings (size 3 to 8) (size 9 to 14) (size 15 to 20)
#    0.000    3.125    0.000    1.875    0.000    4.500 
#    0.000    3.125    0.000    2.250    0.000    5.250 
#    0.000    0.000    0.000    0.000    0.000    0.000 
#
# Total GULP energy -793235.273551 kJ/mol
# GULP energy per Si atom -12394.301149 kJ/mol
# Density = 1.667455 g / cm^3
# Si number density = 16.712586 Si / 1000 Ang^3
#
#
#
# Elastic Constant Matrix: (Units=GPa)
#
#
# Indices 1 2 3 4 5 6 
#
# 1 107.9971 43.4396 54.4752 0.0000 0.0000 0.0000
# 2 43.4396 47.6122 43.3622 0.0000 0.0000 0.0000
# 3 54.4752 43.3622 111.0893 0.0000 0.0000 0.0000
# 4 0.0000 0.0000 0.0000 19.1430 0.0000 0.0000
# 5 0.0000 0.0000 0.0000 0.0000 17.5413 0.0000
# 6 0.0000 0.0000 0.0000 0.0000 0.0000 24.5981
#
#
#
# Elastic Compliance Matrix: (Units=1/GPa)
#
#
# Indices 1 2 3 4 5 6 
#
# 1 0.015324 -0.011074 -0.003192 0.000000 0.000000 0.000000
# 2 -0.011074 0.040591 -0.010414 0.000000 0.000000 0.000000
# 3 -0.003192 -0.010414 0.014632 0.000000 0.000000 0.000000
# 4 0.000000 0.000000 0.000000 0.052238 0.000000 0.000000
# 5 0.000000 0.000000 0.000000 0.000000 0.057008 0.000000
# 6 0.000000 0.000000 0.000000 0.000000 0.000000 0.040654
#
#
# Mechanical properties :
#
#
# Convention : Reuss Voigt Hill
#
# Bulk Modulus (GPa) = 47.19798 61.02808 54.11303
# Shear Modulus (GPa) = 18.05917 20.61791 19.33854
#
# Velocity S-wave (km/s) = 3.29077 3.51618 3.40534
# Velocity P-wave (km/s) = 6.53768 7.28562 6.92176
#
# Compressibility (1/GPa) = 0.02118735
#
# Stress axis : x y z
#
# Youngs Moduli (GPa) = 65.25814 24.63626 68.34452
#
# Poissons Ratio (x) = 0.27282 0.21814
# Poissons Ratio (y) = 0.72267 0.71171
# Poissons Ratio (z) = 0.20829 0.25655
#
# Static dielectric constant tensor:
#      x y z
#    x 3.158930 0.000000 0.000000 
#    y 0.000000 2.971820 0.000000 
#    z 0.000000 0.000000 3.229950 
# 
# 
# High freq. dielectric constant tensor:
#      x y z
#    x 1.638980 0.000000 0.000000 
#    y 0.000000 1.617790 0.000000 
#    z 0.000000 0.000000 1.638750 
# 
# From -- ./inp_files/34665.got.cif
#   From: 2010.03.12/outbox.cif.g09.slc.cpg/sg47_18_cif.got.tgz:34665.got - 2010.04.14 03:12:58.
