data_PCOD8195588
_publ_section_title
;
Structure prediction by ZEFSAII (Michael W. Deem and Ramdas Pophale) SiO2 
 PCOD8195588
Probable space group: P M M M
;
_chemical_formula_sum "Si O2"
_cell_formula_units_Z 36
_cell_length_a 13.088436
_cell_length_b 7.842027
_cell_length_c 19.121701
_cell_angle_alpha 90.000000
_cell_angle_beta 90.000000
_cell_angle_gamma 90.000000
_cell_volume 1962.648876
_symmetry_space_group_name_H-M "P M M M"
_symmetry_group_IT_number 47
_symmetry_cell_setting 'orthorhombic'
loop_
_space_group_symop_operation_xyz
x,y,z
-x,-y,z
x,-y,-z
-x,y,-z
-x,-y,-z
x,y,-z
-x,y,z
x,-y,z
loop_
_atom_site_type_symbol
_atom_site_label
_atom_site_fract_x
_atom_site_fract_y
_atom_site_fract_z
Si Si1 0.886835 0.187106 0.917245
Si Si2 0.000000 0.699750 0.420887
Si Si3 0.380586 0.801260 0.309997
Si Si4 0.751623 0.500000 0.917253
Si Si5 0.381444 0.500000 0.790426
Si Si6 0.782760 0.197765 0.422582
O O1 0.812912 0.334506 0.891079
O O2 0.000000 0.216839 0.885793
O O3 0.845692 0.000000 0.894196
O O4 0.894136 0.197280 0.000000
O O5 0.893773 0.765255 0.386257
O O6 0.000000 0.500000 0.416399
O O7 0.000000 0.770276 0.500000
O O8 0.500000 0.776600 0.329793
O O9 0.346179 0.675258 0.247425
O O10 0.310945 0.738498 0.374887
O O11 0.359269 0.000000 0.289550
O O12 0.650160 0.500000 0.871634
O O13 0.726437 0.500000 0.000000
O O14 0.500000 0.500000 0.792431
O O15 0.776689 0.285815 0.500000
O O16 0.768781 0.000000 0.432341
#
# Coordination Sequence:
#
# PCOD8195588 Si02
#       6
#     8   4   8   4   4   8
#     4   8  14  26  47  76 106 131 155 189 239 299
#     4   9  17  27  43  71 105 139 171 204 247 298
#     4   9  19  36  56  76 100 134 172 210 257 308
#     4  10  19  31  52  78 100 127 167 213 255 297
#     4  10  22  38  54  72  97 133 172 208 253 310
#     4   9  17  30  51  77 103 133 170 211 251 295
#
# _framework density 18.342556999999999
#
# number of rings (size 3 to 8) (size 9 to 14) (size 15 to 20)
#    0.000    3.000    0.000    1.333    1.556    4.222 
#    0.000    2.222    4.889    2.000    0.000    6.222 
#    0.000    0.000    0.000    0.000    0.000    0.000 
#
# Total GULP energy -445970.786749 kJ/mol
# GULP energy per Si atom -12388.077410 kJ/mol
# Density = 1.830081 g / cm^3
# Si number density = 18.342557 Si / 1000 Ang^3
#
#
#
# Elastic Constant Matrix: (Units=GPa)
#
#
# Indices 1 2 3 4 5 6 
#
# 1 64.2789 25.4080 48.6390 0.0000 0.0000 0.0000
# 2 25.4080 91.7663 37.7597 0.0000 0.0000 0.0000
# 3 48.6390 37.7597 73.8130 0.0000 0.0000 0.0000
# 4 0.0000 0.0000 0.0000 9.4350 0.0000 0.0000
# 5 0.0000 0.0000 0.0000 0.0000 22.7291 0.0000
# 6 0.0000 0.0000 0.0000 0.0000 0.0000 41.7855
#
#
#
# Elastic Compliance Matrix: (Units=1/GPa)
#
#
# Indices 1 2 3 4 5 6 
#
# 1 0.031032 -0.000225 -0.020333 0.000000 0.000000 0.000000
# 2 -0.000225 0.013804 -0.006913 0.000000 0.000000 0.000000
# 3 -0.020333 -0.006913 0.030483 0.000000 0.000000 0.000000
# 4 0.000000 0.000000 0.000000 0.105988 0.000000 0.000000
# 5 0.000000 0.000000 0.000000 0.000000 0.043996 0.000000
# 6 0.000000 0.000000 0.000000 0.000000 0.000000 0.023932
#
#
# Mechanical properties :
#
#
# Convention : Reuss Voigt Hill
#
# Bulk Modulus (GPa) = 49.07846 50.38573 49.73209
# Shear Modulus (GPa) = 16.07867 22.66004 19.36936
#
# Velocity S-wave (km/s) = 2.96392 3.51861 3.25311
# Velocity P-wave (km/s) = 6.20707 6.63600 6.42512
#
# Compressibility (1/GPa) = 0.02037554
#
# Stress axis : x y z
#
# Youngs Moduli (GPa) = 32.22456 72.44142 32.80534
#
# Poissons Ratio (x) = 0.01633 0.66704
# Poissons Ratio (y) = 0.00726 0.22679
# Poissons Ratio (z) = 0.65523 0.50080
#
# Static dielectric constant tensor:
#      x y z
#    x 3.580410 0.000000 0.000000 
#    y 0.000000 3.928740 0.000000 
#    z 0.000000 0.000000 3.168580 
# 
# 
# High freq. dielectric constant tensor:
#      x y z
#    x 1.710140 0.000000 0.000000 
#    y 0.000000 1.723760 0.000000 
#    z 0.000000 0.000000 1.661450 
# 
# From -- ./inp_files/15042.got.cif
#   From: 2010.03.12/outbox.cif.g09.slc.cpg/sg47_8_cif.got.tgz:15042.got - 2010.04.14 03:12:58.
