data_PCOD8195738
_publ_section_title
;
Structure prediction by ZEFSAII (Michael W. Deem and Ramdas Pophale) SiO2 
 PCOD8195738
Probable space group: P M M M
;
_chemical_formula_sum "Si O2"
_cell_formula_units_Z 64
_cell_length_a 9.202894
_cell_length_b 15.847955
_cell_length_c 23.319846
_cell_angle_alpha 90.000000
_cell_angle_beta 90.000000
_cell_angle_gamma 90.000000
_cell_volume 3401.130745
_symmetry_space_group_name_H-M "P M M M"
_symmetry_group_IT_number 47
_symmetry_cell_setting 'orthorhombic'
loop_
_space_group_symop_operation_xyz
x,y,z
-x,-y,z
x,-y,-z
-x,y,-z
-x,-y,-z
x,y,-z
-x,y,z
x,-y,z
loop_
_atom_site_type_symbol
_atom_site_label
_atom_site_fract_x
_atom_site_fract_y
_atom_site_fract_z
Si Si1 0.669353 0.596255 0.154193
Si Si2 0.163256 0.405586 0.390224
Si Si3 0.829278 0.347091 0.733731
Si Si4 0.841118 0.096639 0.235841
Si Si5 0.670607 0.743677 0.437550
Si Si6 0.672455 0.190297 0.682082
Si Si7 0.669766 0.903187 0.874683
Si Si8 0.328604 0.265069 0.063270
O O1 0.500000 0.613536 0.167404
O O2 0.691255 0.500000 0.131560
O O3 0.759886 0.605973 0.212411
O O4 0.730596 0.664027 0.107672
O O5 0.182705 0.500000 0.412639
O O6 0.200106 0.403138 0.322701
O O7 0.267802 0.349427 0.428745
O O8 0.000000 0.372406 0.399982
O O9 0.747603 0.258956 0.723362
O O10 0.000000 0.332941 0.744589
O O11 0.742639 0.105144 0.293364
O O12 0.753961 0.130491 0.181046
O O13 0.000000 0.141374 0.241290
O O14 0.868630 0.000000 0.225625
O O15 0.721024 0.779648 0.500000
O O16 0.500000 0.734350 0.436099
O O17 0.721153 0.802490 0.384645
O O18 0.500000 0.193451 0.688949
O O19 0.500000 0.900352 0.859987
O O20 0.711215 0.832606 0.921832
O O21 0.712118 0.000000 0.893586
O O22 0.500000 0.275163 0.061486
O O23 0.262903 0.283087 0.000000
#
# Coordination Sequence:
#
# PCOD8195738 Si02
#       8
#     8   8   8   8   8   8   8   8
#     4  10  20  32  48  71  97 128 169 215 259 302
#     4   9  18  31  46  67  95 125 158 197 242 293
#     4  10  19  32  51  73  98 128 162 202 252 305
#     4  10  20  33  51  77 107 134 160 194 239 293
#     4   9  19  34  49  67  92 124 163 203 242 285
#     4  10  19  32  52  75 100 130 163 202 246 292
#     4   9  17  30  51  78 104 130 162 202 249 301
#     4   9  18  32  49  70  97 129 167 211 254 296
#
# _framework density 18.817271999999999
#
# number of rings (size 3 to 8) (size 9 to 14) (size 15 to 20)
#    0.000    2.500    0.000    2.250    0.000    4.750 
#    0.000    3.750    0.000    1.875    0.000    5.250 
#    0.000    0.000    0.000    0.000    0.000    0.000 
#
# Total GULP energy -793062.903116 kJ/mol
# GULP energy per Si atom -12391.607861 kJ/mol
# Density = 1.877444 g / cm^3
# Si number density = 18.817272 Si / 1000 Ang^3
#
#
#
# Elastic Constant Matrix: (Units=GPa)
#
#
# Indices 1 2 3 4 5 6 
#
# 1 49.5189 17.2819 37.0117 0.0000 0.0000 0.0000
# 2 17.2819 58.5037 35.1492 0.0000 0.0000 0.0000
# 3 37.0117 35.1492 116.3854 0.0000 0.0000 0.0000
# 4 0.0000 0.0000 0.0000 17.0314 0.0000 0.0000
# 5 0.0000 0.0000 0.0000 0.0000 15.3210 0.0000
# 6 0.0000 0.0000 0.0000 0.0000 0.0000 20.3519
#
#
#
# Elastic Compliance Matrix: (Units=1/GPa)
#
#
# Indices 1 2 3 4 5 6 
#
# 1 0.027048 -0.003448 -0.007560 0.000000 0.000000 0.000000
# 2 -0.003448 0.021321 -0.005343 0.000000 0.000000 0.000000
# 3 -0.007560 -0.005343 0.012610 0.000000 0.000000 0.000000
# 4 0.000000 0.000000 0.000000 0.058715 0.000000 0.000000
# 5 0.000000 0.000000 0.000000 0.000000 0.065270 0.000000
# 6 0.000000 0.000000 0.000000 0.000000 0.000000 0.049135
#
#
# Mechanical properties :
#
#
# Convention : Reuss Voigt Hill
#
# Bulk Modulus (GPa) = 35.36332 44.81038 40.08685
# Shear Modulus (GPa) = 18.10099 19.53855 18.81977
#
# Velocity S-wave (km/s) = 3.10487 3.22581 3.16592
# Velocity P-wave (km/s) = 5.62916 6.14326 5.89182
#
# Compressibility (1/GPa) = 0.02827789
#
# Stress axis : x y z
#
# Youngs Moduli (GPa) = 36.97077 46.90137 79.30223
#
# Poissons Ratio (x) = 0.16170 0.59956
# Poissons Ratio (y) = 0.12746 0.42369
# Poissons Ratio (z) = 0.27951 0.25058
#
# Static dielectric constant tensor:
#      x y z
#    x 3.572040 0.000000 0.000000 
#    y 0.000000 3.528200 0.000000 
#    z 0.000000 0.000000 3.688830 
# 
# 
# High freq. dielectric constant tensor:
#      x y z
#    x 1.719100 0.000000 0.000000 
#    y 0.000000 1.720420 0.000000 
#    z 0.000000 0.000000 1.726760 
# 
# From -- ./inp_files/9949.got.cif
#   From: 2010.03.12/outbox.cif.g09.slc.cpg/sg47_5_cif.got.tgz:9949.got - 2010.04.14 03:12:58.
