data_PCOD8195659
_publ_section_title
;
Structure prediction by ZEFSAII (Michael W. Deem and Ramdas Pophale) SiO2 
 PCOD8195659
Probable space group: P M M M
;
_chemical_formula_sum "Si O2"
_cell_formula_units_Z 44
_cell_length_a 19.380500
_cell_length_b 9.689750
_cell_length_c 13.539438
_cell_angle_alpha 90.000000
_cell_angle_beta 90.000000
_cell_angle_gamma 90.000000
_cell_volume 2542.600847
_symmetry_space_group_name_H-M "P M M M"
_symmetry_group_IT_number 47
_symmetry_cell_setting 'orthorhombic'
loop_
_space_group_symop_operation_xyz
x,y,z
-x,-y,z
x,-y,-z
-x,y,-z
-x,-y,-z
x,y,-z
-x,y,z
x,-y,z
loop_
_atom_site_type_symbol
_atom_site_label
_atom_site_fract_x
_atom_site_fract_y
_atom_site_fract_z
Si Si1 0.687205 0.154222 0.614005
Si Si2 0.196322 0.160980 0.108742
Si Si3 0.670610 0.344635 0.890222
Si Si4 0.077808 0.165034 0.500000
Si Si5 0.833276 0.837933 0.681565
Si Si6 0.421202 0.660294 0.708745
O O1 0.705658 0.148543 0.500000
O O2 0.755197 0.217229 0.666845
O O3 0.621898 0.252443 0.629915
O O4 0.670208 0.000000 0.653466
O O5 0.266894 0.240943 0.125503
O O6 0.146127 0.196119 0.203039
O O7 0.214703 0.000000 0.111939
O O8 0.163677 0.198635 0.000000
O O9 0.698225 0.500000 0.871307
O O10 0.608239 0.308290 0.817392
O O11 0.639958 0.330062 0.000000
O O12 0.114475 0.224952 0.599843
O O13 0.000000 0.221981 0.500000
O O14 0.078035 0.000000 0.500000
O O15 0.832715 0.000000 0.662125
O O16 0.500000 0.709943 0.705505
O O17 0.414889 0.500000 0.680641
#
# Coordination Sequence:
#
# PCOD8195659 Si02
#       6
#     8   8   8   4   8   8
#     4  10  19  32  50  68  87 115 154 198 237 276
#     4   9  16  26  44  68  92 120 152 189 235 278
#     4   9  17  29  45  65  89 116 151 195 236 277
#     4   9  16  26  44  72 102 129 154 182 223 273
#     4   9  15  26  44  67  94 121 152 189 225 266
#     4  10  21  34  46  63  90 122 155 194 240 287
#
# _framework density 17.305114
#
# number of rings (size 3 to 8) (size 9 to 14) (size 15 to 20)
#    0.000    2.636    2.727    0.000    0.000    1.455 
#    0.000    3.636    0.000    0.545    0.000    7.636 
#    0.000    5.818    0.000    4.545    0.000    4.727 
#
# Total GULP energy -545152.815573 kJ/mol
# GULP energy per Si atom -12389.836718 kJ/mol
# Density = 1.726573 g / cm^3
# Si number density = 17.305114 Si / 1000 Ang^3
#
#
#
# Elastic Constant Matrix: (Units=GPa)
#
#
# Indices 1 2 3 4 5 6 
#
# 1 80.2095 18.8360 55.7622 0.0000 0.0000 0.0000
# 2 18.8360 29.1028 23.5520 0.0000 0.0000 0.0000
# 3 55.7622 23.5520 139.3062 0.0000 0.0000 0.0000
# 4 0.0000 0.0000 0.0000 19.4571 0.0000 0.0000
# 5 0.0000 0.0000 0.0000 0.0000 20.7605 0.0000
# 6 0.0000 0.0000 0.0000 0.0000 0.0000 7.0680
#
#
#
# Elastic Compliance Matrix: (Units=1/GPa)
#
#
# Indices 1 2 3 4 5 6 
#
# 1 0.018394 -0.006889 -0.006198 0.000000 0.000000 0.000000
# 2 -0.006889 0.042388 -0.004409 0.000000 0.000000 0.000000
# 3 -0.006198 -0.004409 0.010405 0.000000 0.000000 0.000000
# 4 0.000000 0.000000 0.000000 0.051395 0.000000 0.000000
# 5 0.000000 0.000000 0.000000 0.000000 0.048168 0.000000
# 6 0.000000 0.000000 0.000000 0.000000 0.000000 0.141483
#
#
# Mechanical properties :
#
#
# Convention : Reuss Voigt Hill
#
# Bulk Modulus (GPa) = 27.62848 49.43543 38.53195
# Shear Modulus (GPa) = 13.91632 19.48833 16.70233
#
# Velocity S-wave (km/s) = 2.83887 3.35947 3.11008
# Velocity P-wave (km/s) = 5.17163 6.60886 5.93392
#
# Compressibility (1/GPa) = 0.03619454
#
# Stress axis : x y z
#
# Youngs Moduli (GPa) = 54.36496 23.59181 96.10917
#
# Poissons Ratio (x) = 0.16253 0.59570
# Poissons Ratio (y) = 0.37453 0.42371
# Poissons Ratio (z) = 0.33696 0.10401
#
# Static dielectric constant tensor:
#      x y z
#    x 3.005140 0.000000 0.000000 
#    y 0.000000 3.001840 0.000000 
#    z 0.000000 0.000000 3.651170 
# 
# 
# High freq. dielectric constant tensor:
#      x y z
#    x 1.627790 0.000000 0.000000 
#    y 0.000000 1.635400 0.000000 
#    z 0.000000 0.000000 1.693470 
# 
# From -- ./inp_files/6113.got.cif
#   From: 2010.03.12/outbox.cif.g09.slc.cpg/sg47_4_cif.got.tgz:6113.got - 2010.04.14 03:12:58.
