data_PCOD8195012
_publ_section_title
;
Structure prediction by ZEFSAII (Michael W. Deem and Ramdas Pophale) SiO2 
 PCOD8195012
Probable space group: P M M M
;
_chemical_formula_sum "Si O2"
_cell_formula_units_Z 64
_cell_length_a 19.307640
_cell_length_b 9.211383
_cell_length_c 23.746269
_cell_angle_alpha 90.000000
_cell_angle_beta 90.000000
_cell_angle_gamma 90.000000
_cell_volume 4223.275529
_symmetry_space_group_name_H-M "P M M M"
_symmetry_group_IT_number 47
_symmetry_cell_setting 'orthorhombic'
loop_
_space_group_symop_operation_xyz
x,y,z
-x,-y,z
x,-y,-z
-x,y,-z
-x,-y,-z
x,y,-z
-x,y,z
x,-y,z
loop_
_atom_site_type_symbol
_atom_site_label
_atom_site_fract_x
_atom_site_fract_y
_atom_site_fract_z
Si Si1 0.078392 0.169511 0.564278
Si Si2 0.923498 0.672256 0.773376
Si Si3 0.700359 0.330374 0.936269
Si Si4 0.718072 0.329654 0.274059
Si Si5 0.845822 0.328894 0.660615
Si Si6 0.423890 0.668579 0.235340
Si Si7 0.578633 0.168619 0.119040
Si Si8 0.792681 0.327712 0.164061
O O1 0.097953 0.205441 0.500000
O O2 0.131915 0.252935 0.603445
O O3 0.000000 0.221331 0.576851
O O4 0.085104 0.000000 0.576192
O O5 0.927504 0.500000 0.775626
O O6 0.895643 0.718726 0.711959
O O7 0.870970 0.728577 0.822481
O O8 0.000000 0.740076 0.783062
O O9 0.685925 0.500000 0.925596
O O10 0.629199 0.245603 0.925089
O O11 0.762127 0.271973 0.895518
O O12 0.724436 0.300508 0.000000
O O13 0.730763 0.500000 0.272708
O O14 0.767365 0.272753 0.324495
O O15 0.636240 0.290859 0.280956
O O16 0.742789 0.268259 0.213561
O O17 0.849008 0.500000 0.650417
O O18 0.500000 0.699636 0.261817
O O19 0.416710 0.500000 0.217882
O O20 0.411873 0.762675 0.180253
O O21 0.500000 0.191077 0.097621
O O22 0.597681 0.000000 0.123159
O O23 0.793869 0.500000 0.163754
#
# Coordination Sequence:
#
# PCOD8195012 Si02
#       8
#     8   8   8   8   8   8   8   8
#     4   9  18  31  43  56  82 120 151 173 203 240
#     4   8  13  21  37  61  84 106 130 158 199 247
#     4  10  19  30  45  60  73  98 138 174 201 240
#     4   8  13  23  40  61  84 106 130 166 208 240
#     4   9  16  25  41  64  86 108 139 175 204 236
#     4   9  15  25  44  64  82 109 141 165 190 236
#     4  10  20  31  42  58  81 106 130 161 203 245
#     4   8  13  23  38  55  78 102 126 161 202 240
#
# _framework density 15.154114999999999
#
# number of rings (size 3 to 8) (size 9 to 14) (size 15 to 20)
#    0.000    3.125    1.250    2.625    0.000    2.250 
#    0.000    2.500    0.000    0.375    0.000    2.625 
#    0.000    0.500    0.000    7.375    0.000    2.250 
#
# Total GULP energy -792907.298795 kJ/mol
# GULP energy per Si atom -12389.176544 kJ/mol
# Density = 1.511962 g / cm^3
# Si number density = 15.154115 Si / 1000 Ang^3
#
#
#
# Elastic Constant Matrix: (Units=GPa)
#
#
# Indices 1 2 3 4 5 6 
#
# 1 135.7529 28.1846 67.1529 0.0000 0.0000 0.0000
# 2 28.1846 30.9792 29.2136 0.0000 0.0000 0.0000
# 3 67.1529 29.2136 92.7052 0.0000 0.0000 0.0000
# 4 0.0000 0.0000 0.0000 6.1250 0.0000 0.0000
# 5 0.0000 0.0000 0.0000 0.0000 27.0930 0.0000
# 6 0.0000 0.0000 0.0000 0.0000 0.0000 11.7635
#
#
#
# Elastic Compliance Matrix: (Units=1/GPa)
#
#
# Indices 1 2 3 4 5 6 
#
# 1 0.011786 -0.003802 -0.007340 0.000000 0.000000 0.000000
# 2 -0.003802 0.047154 -0.012105 0.000000 0.000000 0.000000
# 3 -0.007340 -0.012105 0.019918 0.000000 0.000000 0.000000
# 4 0.000000 0.000000 0.000000 0.163264 0.000000 0.000000
# 5 0.000000 0.000000 0.000000 0.000000 0.036910 0.000000
# 6 0.000000 0.000000 0.000000 0.000000 0.000000 0.085009
#
#
# Mechanical properties :
#
#
# Convention : Reuss Voigt Hill
#
# Bulk Modulus (GPa) = 30.89773 56.50442 43.70107
# Shear Modulus (GPa) = 11.86736 17.98872 14.92804
#
# Velocity S-wave (km/s) = 2.80145 3.44910 3.14201
# Velocity P-wave (km/s) = 5.55854 7.29583 6.48562
#
# Compressibility (1/GPa) = 0.03236484
#
# Stress axis : x y z
#
# Youngs Moduli (GPa) = 84.84388 21.20707 50.20524
#
# Poissons Ratio (x) = 0.08062 0.36849
# Poissons Ratio (y) = 0.32256 0.60776
# Poissons Ratio (z) = 0.62273 0.25672
#
# Static dielectric constant tensor:
#      x y z
#    x 3.348920 0.000000 0.000000 
#    y 0.000000 2.602940 0.000000 
#    z 0.000000 0.000000 2.759530 
# 
# 
# High freq. dielectric constant tensor:
#      x y z
#    x 1.587100 0.000000 0.000000 
#    y 0.000000 1.546980 0.000000 
#    z 0.000000 0.000000 1.548130 
# 
# From -- ./inp_files/32906.got.cif
#   From: 2010.03.12/outbox.cif.g09.slc.cpg/sg47_17_cif.got.tgz:32906.got - 2010.04.14 03:12:58.
