data_PCOD8195409
_publ_section_title
;
Structure prediction by ZEFSAII (Michael W. Deem and Ramdas Pophale) SiO2 
 PCOD8195409
Probable space group: P M M M
;
_chemical_formula_sum "Si O2"
_cell_formula_units_Z 44
_cell_length_a 9.472065
_cell_length_b 31.807523
_cell_length_c 7.834222
_cell_angle_alpha 90.000000
_cell_angle_beta 90.000000
_cell_angle_gamma 90.000000
_cell_volume 2360.317322
_symmetry_space_group_name_H-M "P M M M"
_symmetry_group_IT_number 47
_symmetry_cell_setting 'orthorhombic'
loop_
_space_group_symop_operation_xyz
x,y,z
-x,-y,z
x,-y,-z
-x,y,-z
-x,-y,-z
x,y,-z
-x,y,z
x,-y,z
loop_
_atom_site_type_symbol
_atom_site_label
_atom_site_fract_x
_atom_site_fract_y
_atom_site_fract_z
Si Si1 0.832445 0.710172 0.187708
Si Si2 0.833685 0.858759 0.500000
Si Si3 0.834612 0.919125 0.197566
Si Si4 0.661123 0.453029 0.800485
Si Si5 0.155936 0.377369 0.306250
Si Si6 0.168988 0.235154 0.500000
Si Si7 0.341388 0.000000 0.201151
O O1 0.774883 0.662341 0.207670
O O2 0.771211 0.741451 0.331252
O O3 0.000000 0.707993 0.208830
O O4 0.788735 0.727019 0.000000
O O5 0.786649 0.881978 0.325212
O O6 0.768091 0.812015 0.500000
O O7 0.000000 0.854999 0.500000
O O8 0.745107 0.959162 0.259697
O O9 0.000000 0.929876 0.218609
O O10 0.802000 0.906594 0.000000
O O11 0.500000 0.447944 0.742660
O O12 0.714146 0.500000 0.753629
O O13 0.751715 0.419063 0.701519
O O14 0.677204 0.444902 0.000000
O O15 0.144285 0.362412 0.500000
O O16 0.000000 0.387856 0.232873
O O17 0.000000 0.234498 0.500000
O O18 0.500000 0.000000 0.280696
O O19 0.352777 0.000000 0.000000
#
# Coordination Sequence:
#
# PCOD8195409 Si02
#       7
#     8   4   8   8   8   4   4
#     4   9  16  27  45  68  96 129 159 194 244 291
#     4   9  18  29  44  67  96 129 163 200 239 288
#     4   9  17  30  47  68  97 131 163 198 243 287
#     4   9  19  35  51  68  94 128 165 203 242 289
#     4  10  19  31  48  72 101 128 160 203 244 289
#     4   9  16  28  43  66  98 125 156 199 243 290
#     4   9  17  30  49  72  97 127 166 207 241 280
#
# _framework density 18.641560999999999
#
# number of rings (size 3 to 8) (size 9 to 14) (size 15 to 20)
#    0.000    2.818    0.909    1.364    0.000    4.364 
#    0.000    8.636    0.000    0.000    0.000    2.545 
#    0.000    2.909    0.000    0.000    0.000    0.000 
#
# Total GULP energy -545357.782183 kJ/mol
# GULP energy per Si atom -12394.495050 kJ/mol
# Density = 1.859913 g / cm^3
# Si number density = 18.641561 Si / 1000 Ang^3
#
#
#
# Elastic Constant Matrix: (Units=GPa)
#
#
# Indices 1 2 3 4 5 6 
#
# 1 42.3141 38.7470 20.8974 0.0000 0.0000 0.0000
# 2 38.7470 158.2893 69.9652 0.0000 0.0000 0.0000
# 3 20.8974 69.9652 113.7174 0.0000 0.0000 0.0000
# 4 0.0000 0.0000 0.0000 29.2999 0.0000 0.0000
# 5 0.0000 0.0000 0.0000 0.0000 12.0804 0.0000
# 6 0.0000 0.0000 0.0000 0.0000 0.0000 -1.0545
#
#
#
# Elastic Compliance Matrix: (Units=1/GPa)
#
#
# Indices 1 2 3 4 5 6 
#
# 1 0.030621 -0.006879 -0.001395 0.000000 0.000000 0.000000
# 2 -0.006879 0.010223 -0.005025 0.000000 0.000000 0.000000
# 3 -0.001395 -0.005025 0.012142 0.000000 0.000000 0.000000
# 4 0.000000 0.000000 0.000000 0.034130 0.000000 0.000000
# 5 0.000000 0.000000 0.000000 0.000000 0.082778 0.000000
# 6 0.000000 0.000000 0.000000 0.000000 0.000000 -0.948318
#
#
# Mechanical properties :
#
#
# Convention : Reuss Voigt Hill
#
# Bulk Modulus (GPa) = 37.89740 63.72666 50.81203
# Shear Modulus (GPa) = -6.72920 20.37926 6.82503
#
# Velocity S-wave (km/s) = -1.90200 3.30997 1.91550
# Velocity P-wave (km/s) = 3.94337 6.99052 5.67528
#
# Compressibility (1/GPa) = 0.02638703
#
# Stress axis : x y z
#
# Youngs Moduli (GPa) = 32.65767 97.82115 82.35900
#
# Poissons Ratio (x) = 0.67292 0.11486
# Poissons Ratio (y) = 0.22465 0.41389
# Poissons Ratio (z) = 0.04555 0.49160
#
# Static dielectric constant tensor:
#      x y z
#    x 3.074360 0.000000 0.000000 
#    y 0.000000 3.554560 0.000000 
#    z 0.000000 0.000000 3.455050 
# 
# 
# High freq. dielectric constant tensor:
#      x y z
#    x 1.668420 0.000000 0.000000 
#    y 0.000000 1.723730 0.000000 
#    z 0.000000 0.000000 1.730620 
# 
# From -- ./inp_files/2357.got.cif
#   From: 2010.03.12/outbox.cif.g09.slc.cpg/sg47_2_cif.got.tgz:2357.got - 2010.04.14 03:12:58.
