data_PCOD8195513
_publ_section_title
;
Structure prediction by ZEFSAII (Michael W. Deem and Ramdas Pophale) SiO2 
 PCOD8195513
Probable space group: P M M M
;
_chemical_formula_sum "Si O2"
_cell_formula_units_Z 52
_cell_length_a 14.298958
_cell_length_b 9.276269
_cell_length_c 20.573491
_cell_angle_alpha 90.000000
_cell_angle_beta 90.000000
_cell_angle_gamma 90.000000
_cell_volume 2728.888025
_symmetry_space_group_name_H-M "P M M M"
_symmetry_group_IT_number 47
_symmetry_cell_setting 'orthorhombic'
loop_
_space_group_symop_operation_xyz
x,y,z
-x,-y,z
x,-y,-z
-x,y,-z
-x,-y,-z
x,y,-z
-x,y,z
x,-y,z
loop_
_atom_site_type_symbol
_atom_site_label
_atom_site_fract_x
_atom_site_fract_y
_atom_site_fract_z
Si Si1 0.224379 0.665102 0.426501
Si Si2 0.109694 0.165056 0.320588
Si Si3 0.392351 0.327982 0.000000
Si Si4 0.392824 0.164762 0.616405
Si Si5 0.105102 0.666547 0.191275
Si Si6 0.607465 0.162962 0.765473
Si Si7 0.710734 0.332727 0.873084
O O1 0.186147 0.675519 0.500000
O O2 0.226840 0.500000 0.402767
O O3 0.157265 0.756273 0.380684
O O4 0.329012 0.729581 0.425695
O O5 0.136938 0.238402 0.252516
O O6 0.000000 0.176141 0.332416
O O7 0.144220 0.000000 0.318054
O O8 0.336424 0.264919 0.937592
O O9 0.390110 0.500000 0.000000
O O10 0.500000 0.272626 0.000000
O O11 0.500000 0.212562 0.607388
O O12 0.360677 0.179406 0.691150
O O13 0.379979 0.000000 0.593191
O O14 0.109655 0.500000 0.213023
O O15 0.176966 0.695172 0.131344
O O16 0.000000 0.707548 0.168082
O O17 0.500000 0.206826 0.772747
O O18 0.667276 0.269563 0.808285
O O19 0.623499 0.000000 0.789432
O O20 0.687361 0.500000 0.873152
#
# Coordination Sequence:
#
# PCOD8195513 Si02
#       7
#     8   8   4   8   8   8   8
#     4  11  24  38  52  74 105 140 175 212 258 312
#     4  10  21  37  58  82 105 132 169 213 261 314
#     4   9  18  32  48  70 104 141 177 217 254 291
#     4   9  19  36  56  77 102 134 173 218 267 315
#     4   9  18  33  53  78 106 132 163 209 262 310
#     4   9  18  32  50  74 102 128 159 207 262 307
#     4  10  19  31  50  74 100 136 177 210 247 299
#
# _framework density 19.055378999999999
#
# number of rings (size 3 to 8) (size 9 to 14) (size 15 to 20)
#    0.000    2.385    0.000    3.231    0.000    7.692 
#    0.000    5.385    0.000    3.692    0.000    0.000 
#    0.000    3.692    0.000    0.000    0.000    0.000 
#
# Total GULP energy -644752.168499 kJ/mol
# GULP energy per Si atom -12399.080163 kJ/mol
# Density = 1.901201 g / cm^3
# Si number density = 19.055379 Si / 1000 Ang^3
#
#
#
# Elastic Constant Matrix: (Units=GPa)
#
#
# Indices 1 2 3 4 5 6 
#
# 1 86.2773 40.6650 61.1418 0.0000 0.0000 0.0000
# 2 40.6650 76.6971 39.4614 0.0000 0.0000 0.0000
# 3 61.1418 39.4614 79.2124 0.0000 0.0000 0.0000
# 4 0.0000 0.0000 0.0000 10.8697 0.0000 0.0000
# 5 0.0000 0.0000 0.0000 0.0000 28.6213 0.0000
# 6 0.0000 0.0000 0.0000 0.0000 0.0000 27.2620
#
#
#
# Elastic Compliance Matrix: (Units=1/GPa)
#
#
# Indices 1 2 3 4 5 6 
#
# 1 0.026840 -0.004803 -0.018325 0.000000 0.000000 0.000000
# 2 -0.004803 0.018391 -0.005455 0.000000 0.000000 0.000000
# 3 -0.018325 -0.005455 0.029486 0.000000 0.000000 0.000000
# 4 0.000000 0.000000 0.000000 0.091999 0.000000 0.000000
# 5 0.000000 0.000000 0.000000 0.000000 0.034939 0.000000
# 6 0.000000 0.000000 0.000000 0.000000 0.000000 0.036681
#
#
# Mechanical properties :
#
#
# Convention : Reuss Voigt Hill
#
# Bulk Modulus (GPa) = 56.97020 58.30258 57.63639
# Shear Modulus (GPa) = 16.59187 20.07850 18.33518
#
# Velocity S-wave (km/s) = 2.95399 3.24958 3.10531
# Velocity P-wave (km/s) = 6.44956 6.68899 6.57037
#
# Compressibility (1/GPa) = 0.01755304
#
# Stress axis : x y z
#
# Youngs Moduli (GPa) = 37.25746 54.37350 33.91413
#
# Poissons Ratio (x) = 0.26113 0.62147
# Poissons Ratio (y) = 0.17893 0.18501
# Poissons Ratio (z) = 0.68273 0.29661
#
# Static dielectric constant tensor:
#      x y z
#    x 3.698710 0.000000 0.000000 
#    y 0.000000 3.413990 0.000000 
#    z 0.000000 0.000000 3.401170 
# 
# 
# High freq. dielectric constant tensor:
#      x y z
#    x 1.754230 0.000000 0.000000 
#    y 0.000000 1.729790 0.000000 
#    z 0.000000 0.000000 1.724520 
# 
# From -- ./inp_files/21387.got.cif
#   From: 2010.03.12/outbox.cif.g09.slc.cpg/sg47_11_cif.got.tgz:21387.got - 2010.04.14 03:12:58.
