data_PCOD8195441
_publ_section_title
;
Structure prediction by ZEFSAII (Michael W. Deem and Ramdas Pophale) SiO2 
 PCOD8195441
Probable space group: P M M M
;
_chemical_formula_sum "Si O2"
_cell_formula_units_Z 64
_cell_length_a 8.993842
_cell_length_b 19.973800
_cell_length_c 20.141555
_cell_angle_alpha 90.000000
_cell_angle_beta 90.000000
_cell_angle_gamma 90.000000
_cell_volume 3618.253137
_symmetry_space_group_name_H-M "P M M M"
_symmetry_group_IT_number 47
_symmetry_cell_setting 'orthorhombic'
loop_
_space_group_symop_operation_xyz
x,y,z
-x,-y,z
x,-y,-z
-x,y,-z
-x,-y,-z
x,y,-z
-x,y,z
x,-y,z
loop_
_atom_site_type_symbol
_atom_site_label
_atom_site_fract_x
_atom_site_fract_y
_atom_site_fract_z
Si Si1 0.174275 0.286215 0.249244
Si Si2 0.676682 0.925101 0.073936
Si Si3 0.670387 0.107705 0.425893
Si Si4 0.170213 0.074969 0.703223
Si Si5 0.173499 0.427224 0.294865
Si Si6 0.329736 0.604624 0.572850
Si Si7 0.676281 0.166851 0.191766
Si Si8 0.666693 0.252079 0.378549
O O1 0.232853 0.364194 0.250803
O O2 0.256900 0.242324 0.192660
O O3 0.212968 0.252754 0.319642
O O4 0.000000 0.282421 0.235274
O O5 0.500000 0.925471 0.076755
O O6 0.739289 0.871448 0.126695
O O7 0.735030 0.000000 0.091199
O O8 0.730767 0.904608 0.000000
O O9 0.713835 0.083733 0.500000
O O10 0.500000 0.087956 0.410189
O O11 0.777368 0.072457 0.373113
O O12 0.692147 0.187504 0.423388
O O13 0.274140 0.125646 0.743508
O O14 0.000000 0.099617 0.707464
O O15 0.185558 0.000000 0.732497
O O16 0.208258 0.500000 0.261070
O O17 0.238555 0.429796 0.368736
O O18 0.000000 0.415982 0.303727
O O19 0.274350 0.580334 0.500000
O O20 0.500000 0.583587 0.583165
O O21 0.310745 0.684518 0.574323
O O22 0.500000 0.171633 0.190999
O O23 0.500000 0.252375 0.346977
#
# Coordination Sequence:
#
# PCOD8195441 Si02
#       8
#     8   8   8   8   8   8   8   8
#     4  10  19  31  49  71  96 124 158 200 243 287
#     4   8  15  29  50  78 110 140 169 199 231 273
#     4  10  20  33  50  69  88 115 155 204 255 304
#     4  11  24  38  50  67  94 127 162 202 248 295
#     4   9  19  34  48  63  88 123 159 196 240 290
#     4   9  17  28  43  64  89 115 146 187 239 300
#     4  11  20  32  54  80 103 130 164 202 240 281
#     4   9  16  29  47  66  88 115 149 193 244 296
#
# _framework density 17.688092999999999
#
# number of rings (size 3 to 8) (size 9 to 14) (size 15 to 20)
#    0.000    2.375    1.250    2.250    0.000    4.750 
#    0.000    2.500    0.000    3.750    0.000    4.375 
#    0.000    0.500    0.000    6.250    0.000    0.000 
#
# Total GULP energy -793206.892122 kJ/mol
# GULP energy per Si atom -12393.857689 kJ/mol
# Density = 1.764783 g / cm^3
# Si number density = 17.688093 Si / 1000 Ang^3
#
#
#
# Elastic Constant Matrix: (Units=GPa)
#
#
# Indices 1 2 3 4 5 6 
#
# 1 47.8007 32.2956 20.6520 0.0000 0.0000 0.0000
# 2 32.2956 120.6898 48.5911 0.0000 0.0000 0.0000
# 3 20.6520 48.5911 83.7008 0.0000 0.0000 0.0000
# 4 0.0000 0.0000 0.0000 18.3019 0.0000 0.0000
# 5 0.0000 0.0000 0.0000 0.0000 4.5335 0.0000
# 6 0.0000 0.0000 0.0000 0.0000 0.0000 20.1851
#
#
#
# Elastic Compliance Matrix: (Units=1/GPa)
#
#
# Indices 1 2 3 4 5 6 
#
# 1 0.026146 -0.005741 -0.003118 0.000000 0.000000 0.000000
# 2 -0.005741 0.012074 -0.005593 0.000000 0.000000 0.000000
# 3 -0.003118 -0.005593 0.015963 0.000000 0.000000 0.000000
# 4 0.000000 0.000000 0.000000 0.054639 0.000000 0.000000
# 5 0.000000 0.000000 0.000000 0.000000 0.220582 0.000000
# 6 0.000000 0.000000 0.000000 0.000000 0.000000 0.049541
#
#
# Mechanical properties :
#
#
# Convention : Reuss Voigt Hill
#
# Bulk Modulus (GPa) = 39.55805 50.58541 45.07173
# Shear Modulus (GPa) = 12.01127 18.64761 15.32944
#
# Velocity S-wave (km/s) = 2.60870 3.25044 2.94709
# Velocity P-wave (km/s) = 5.61129 6.53818 6.09239
#
# Compressibility (1/GPa) = 0.02527930
#
# Stress axis : x y z
#
# Youngs Moduli (GPa) = 38.24633 82.82529 62.64313
#
# Poissons Ratio (x) = 0.47550 0.19534
# Poissons Ratio (y) = 0.21957 0.35034
# Poissons Ratio (z) = 0.11927 0.46321
#
# Static dielectric constant tensor:
#      x y z
#    x 3.139510 0.000000 0.000000 
#    y 0.000000 3.619630 0.000000 
#    z 0.000000 0.000000 3.115170 
# 
# 
# High freq. dielectric constant tensor:
#      x y z
#    x 1.669690 0.000000 0.000000 
#    y 0.000000 1.694160 0.000000 
#    z 0.000000 0.000000 1.638910 
# 
# From -- ./inp_files/30125.got.cif
#   From: 2010.03.12/outbox.cif.g09.slc.cpg/sg47_16_cif.got.tgz:30125.got - 2010.04.14 03:12:58.
