data_PCOD8195207
_publ_section_title
;
Structure prediction by ZEFSAII (Michael W. Deem and Ramdas Pophale) SiO2 
 PCOD8195207
Probable space group: P M M M
;
_chemical_formula_sum "Si O2"
_cell_formula_units_Z 52
_cell_length_a 9.062516
_cell_length_b 23.759863
_cell_length_c 13.963475
_cell_angle_alpha 90.000000
_cell_angle_beta 90.000000
_cell_angle_gamma 90.000000
_cell_volume 3006.673226
_symmetry_space_group_name_H-M "P M M M"
_symmetry_group_IT_number 47
_symmetry_cell_setting 'orthorhombic'
loop_
_space_group_symop_operation_xyz
x,y,z
-x,-y,z
x,-y,-z
-x,y,-z
-x,-y,-z
x,y,-z
-x,y,z
x,-y,z
loop_
_atom_site_type_symbol
_atom_site_label
_atom_site_fract_x
_atom_site_fract_y
_atom_site_fract_z
Si Si1 0.663265 0.566057 0.500000
Si Si2 0.171676 0.156589 0.777142
Si Si3 0.326395 0.935717 0.107977
Si Si4 0.335772 0.244472 0.892507
Si Si5 0.173453 0.761286 0.388995
Si Si6 0.825472 0.563861 0.309589
Si Si7 0.332556 0.331751 0.732047
O O1 0.645047 0.500000 0.500000
O O2 0.500000 0.594033 0.500000
O O3 0.758030 0.584905 0.409722
O O4 0.253037 0.098865 0.804933
O O5 0.212670 0.200920 0.859123
O O6 0.219069 0.183293 0.673777
O O7 0.000000 0.143843 0.778816
O O8 0.500000 0.930034 0.119544
O O9 0.275717 0.000000 0.120816
O O10 0.280892 0.915026 0.000000
O O11 0.500000 0.217121 0.882581
O O12 0.327657 0.301010 0.832667
O O13 0.300405 0.262081 0.000000
O O14 0.215524 0.772374 0.500000
O O15 0.257844 0.706143 0.350936
O O16 0.000000 0.749715 0.376698
O O17 0.777033 0.500000 0.282490
O O18 0.755314 0.610614 0.240657
O O19 0.000000 0.568067 0.313549
O O20 0.500000 0.345230 0.699980
#
# Coordination Sequence:
#
# PCOD8195207 Si02
#       7
#     4   8   8   8   8   8   8
#     4   9  17  29  45  65  87 113 149 189 224 263
#     4  10  19  30  48  75 100 124 160 201 240 280
#     4   9  18  32  49  70  99 135 167 193 232 288
#     4   9  18  33  51  70  95 127 159 192 237 292
#     4   9  19  35  51  67  94 131 163 193 235 288
#     4  10  20  33  48  66  92 126 158 188 233 293
#     4  10  20  32  49  73  96 120 156 201 241 279
#
# _framework density 17.294861999999998
#
# number of rings (size 3 to 8) (size 9 to 14) (size 15 to 20)
#    0.000    2.538    0.000    2.538    1.077    6.154 
#    0.000    0.769    0.000    0.923    0.000    6.462 
#    0.000    0.000    0.000    0.000    0.000    0.000 
#
# Total GULP energy -644438.632345 kJ/mol
# GULP energy per Si atom -12393.050622 kJ/mol
# Density = 1.725550 g / cm^3
# Si number density = 17.294862 Si / 1000 Ang^3
#
#
#
# Elastic Constant Matrix: (Units=GPa)
#
#
# Indices 1 2 3 4 5 6 
#
# 1 69.8575 45.7098 32.5902 0.0000 0.0000 0.0000
# 2 45.7098 103.2139 45.5996 0.0000 0.0000 0.0000
# 3 32.5902 45.5996 101.8176 0.0000 0.0000 0.0000
# 4 0.0000 0.0000 0.0000 17.7151 0.0000 0.0000
# 5 0.0000 0.0000 0.0000 0.0000 22.2844 0.0000
# 6 0.0000 0.0000 0.0000 0.0000 0.0000 33.0131
#
#
#
# Elastic Compliance Matrix: (Units=1/GPa)
#
#
# Indices 1 2 3 4 5 6 
#
# 1 0.020950 -0.007873 -0.003180 0.000000 0.000000 0.000000
# 2 -0.007873 0.015037 -0.004214 0.000000 0.000000 0.000000
# 3 -0.003180 -0.004214 0.012727 0.000000 0.000000 0.000000
# 4 0.000000 0.000000 0.000000 0.056449 0.000000 0.000000
# 5 0.000000 0.000000 0.000000 0.000000 0.044874 0.000000
# 6 0.000000 0.000000 0.000000 0.000000 0.000000 0.030291
#
#
# Mechanical properties :
#
#
# Convention : Reuss Voigt Hill
#
# Bulk Modulus (GPa) = 55.00772 58.07647 56.54210
# Shear Modulus (GPa) = 23.04965 24.66847 23.85906
#
# Velocity S-wave (km/s) = 3.65464 3.78080 3.71825
# Velocity P-wave (km/s) = 7.04864 7.26033 7.15527
#
# Compressibility (1/GPa) = 0.01817927
#
# Stress axis : x y z
#
# Youngs Moduli (GPa) = 47.73285 66.50123 78.57487
#
# Poissons Ratio (x) = 0.52358 0.24984
# Poissons Ratio (y) = 0.37581 0.33115
# Poissons Ratio (z) = 0.15178 0.28027
#
# Static dielectric constant tensor:
#      x y z
#    x 3.303000 0.000000 0.000000 
#    y 0.000000 3.265270 0.000000 
#    z 0.000000 0.000000 3.247260 
# 
# 
# High freq. dielectric constant tensor:
#      x y z
#    x 1.674200 0.000000 0.000000 
#    y 0.000000 1.664070 0.000000 
#    z 0.000000 0.000000 1.646450 
# 
# From -- ./inp_files/7632.got.cif
#   From: 2010.03.12/outbox.cif.g09.slc.cpg/sg47_4_cif.got.tgz:7632.got - 2010.04.14 03:12:58.
