data_PCOD8195838
_publ_section_title
;
Structure prediction by ZEFSAII (Michael W. Deem and Ramdas Pophale) SiO2 
 PCOD8195838
Probable space group: P M M M
;
_chemical_formula_sum "Si O2"
_cell_formula_units_Z 40
_cell_length_a 9.061811
_cell_length_b 29.655963
_cell_length_c 7.729168
_cell_angle_alpha 90.000000
_cell_angle_beta 90.000000
_cell_angle_gamma 90.000000
_cell_volume 2077.111347
_symmetry_space_group_name_H-M "P M M M"
_symmetry_group_IT_number 47
_symmetry_cell_setting 'orthorhombic'
loop_
_space_group_symop_operation_xyz
x,y,z
-x,-y,z
x,-y,-z
-x,y,-z
-x,-y,-z
x,y,-z
-x,y,z
x,-y,z
loop_
_atom_site_type_symbol
_atom_site_label
_atom_site_fract_x
_atom_site_fract_y
_atom_site_fract_z
Si Si1 0.169096 0.823124 0.806826
Si Si2 0.176112 0.340508 0.500000
Si Si3 0.160242 0.500000 0.795985
Si Si4 0.833404 0.000000 0.705796
Si Si5 0.176773 0.403051 0.806046
Si Si6 0.175017 0.239676 0.500000
Si Si7 0.671495 0.911056 0.702454
O O1 0.230919 0.786407 0.671220
O O2 0.264685 0.868176 0.800861
O O3 0.000000 0.835417 0.760868
O O4 0.181318 0.802590 0.000000
O O5 0.235235 0.365761 0.671676
O O6 0.242139 0.289982 0.500000
O O7 0.000000 0.339675 0.500000
O O8 0.241001 0.452610 0.747564
O O9 0.000000 0.500000 0.704425
O O10 0.137675 0.500000 0.000000
O O11 0.750977 0.044349 0.775700
O O12 0.828933 0.000000 0.500000
O O13 0.000000 0.000000 0.776600
O O14 0.000000 0.405840 0.803817
O O15 0.231045 0.390197 0.000000
O O16 0.000000 0.243135 0.500000
O O17 0.702422 0.904741 0.500000
O O18 0.500000 0.915795 0.744087
#
# Coordination Sequence:
#
# PCOD8195838 Si02
#       7
#     8   4   4   4   8   4   8
#     4  10  20  34  53  73  94 127 166 202 246 297
#     4   9  16  23  34  52  70  96 133 180 239 287
#     4   7  10  17  27  39  60  93 129 168 217 271
#     4   9  17  29  50  79 110 144 173 197 234 287
#     4   8  13  20  29  43  66  95 130 174 224 278
#     4   9  18  32  46  62  87 113 149 202 250 297
#     4  10  19  32  52  78 107 136 166 203 245 287
#
# _framework density 19.257512999999999
#
# number of rings (size 3 to 8) (size 9 to 14) (size 15 to 20)
#    0.000    3.000    1.000    2.100    0.000    3.600 
#    0.000    6.500    0.000    3.000    0.000    0.000 
#    0.000    0.000    0.000    0.000    0.000    0.000 
#
# Total GULP energy -495716.147917 kJ/mol
# GULP energy per Si atom -12392.903698 kJ/mol
# Density = 1.921368 g / cm^3
# Si number density = 19.257513 Si / 1000 Ang^3
#
#
#
# Elastic Constant Matrix: (Units=GPa)
#
#
# Indices 1 2 3 4 5 6 
#
# 1 45.6555 29.6364 21.0424 0.0000 0.0000 0.0000
# 2 29.6364 183.3881 75.8873 0.0000 0.0000 0.0000
# 3 21.0424 75.8873 111.9417 0.0000 0.0000 0.0000
# 4 0.0000 0.0000 0.0000 10.1741 0.0000 0.0000
# 5 0.0000 0.0000 0.0000 0.0000 8.4990 0.0000
# 6 0.0000 0.0000 0.0000 0.0000 0.0000 0.5368
#
#
#
# Elastic Compliance Matrix: (Units=1/GPa)
#
#
# Indices 1 2 3 4 5 6 
#
# 1 0.025057 -0.002919 -0.002731 0.000000 0.000000 0.000000
# 2 -0.002919 0.007919 -0.004820 0.000000 0.000000 0.000000
# 3 -0.002731 -0.004820 0.012714 0.000000 0.000000 0.000000
# 4 0.000000 0.000000 0.000000 0.098289 0.000000 0.000000
# 5 0.000000 0.000000 0.000000 0.000000 0.117660 0.000000
# 6 0.000000 0.000000 0.000000 0.000000 0.000000 1.862924
#
#
# Mechanical properties :
#
#
# Convention : Reuss Voigt Hill
#
# Bulk Modulus (GPa) = 40.40430 66.01306 53.20868
# Shear Modulus (GPa) = 2.32153 18.13658 10.22906
#
# Velocity S-wave (km/s) = 1.09915 3.07219 2.30722
# Velocity P-wave (km/s) = 4.75788 6.85113 5.89811
#
# Compressibility (1/GPa) = 0.02474984
#
# Stress axis : x y z
#
# Youngs Moduli (GPa) = 39.90920 126.27659 78.65324
#
# Poissons Ratio (x) = 0.36862 0.21482
# Poissons Ratio (y) = 0.11650 0.37909
# Poissons Ratio (z) = 0.10900 0.60863
#
# Static dielectric constant tensor:
#      x y z
#    x 2.903830 0.000000 0.000000 
#    y 0.000000 3.805720 0.000000 
#    z 0.000000 0.000000 3.484480 
# 
# 
# High freq. dielectric constant tensor:
#      x y z
#    x 1.679110 0.000000 0.000000 
#    y 0.000000 1.754910 0.000000 
#    z 0.000000 0.000000 1.745520 
# 
# From -- ./inp_files/1921.got.cif
#   From: 2010.03.12/outbox.cif.g09.slc.cpg/sg47_1_cif.got.tgz:1921.got - 2010.04.14 03:12:58.
