data_PCOD8195924
_publ_section_title
;
Structure prediction by ZEFSAII (Michael W. Deem and Ramdas Pophale) SiO2 
 PCOD8195924
Probable space group: P M M M
;
_chemical_formula_sum "Si O2"
_cell_formula_units_Z 44
_cell_length_a 31.639788
_cell_length_b 7.779182
_cell_length_c 9.063904
_cell_angle_alpha 90.000000
_cell_angle_beta 90.000000
_cell_angle_gamma 90.000000
_cell_volume 2230.913822
_symmetry_space_group_name_H-M "P M M M"
_symmetry_group_IT_number 47
_symmetry_cell_setting 'orthorhombic'
loop_
_space_group_symop_operation_xyz
x,y,z
-x,-y,z
x,-y,-z
-x,y,-z
-x,-y,-z
x,y,-z
-x,y,z
x,-y,z
loop_
_atom_site_type_symbol
_atom_site_label
_atom_site_fract_x
_atom_site_fract_y
_atom_site_fract_z
Si Si1 0.000000 0.798882 0.339040
Si Si2 0.745367 0.805601 0.328868
Si Si3 0.826130 0.299423 0.827430
Si Si4 0.394466 0.500000 0.323623
Si Si5 0.918897 0.299344 0.159945
Si Si6 0.304107 0.500000 0.823509
Si Si7 0.547128 0.190970 0.674933
O O1 0.957219 0.738734 0.265579
O O2 0.000000 0.715341 0.500000
O O3 0.000000 0.000000 0.345526
O O4 0.743585 0.750670 0.500000
O O5 0.793562 0.805348 0.272506
O O6 0.718308 0.672704 0.233124
O O7 0.727615 0.000000 0.309177
O O8 0.819610 0.500000 0.793554
O O9 0.873308 0.233774 0.781602
O O10 0.818285 0.261725 0.000000
O O11 0.386964 0.500000 0.500000
O O12 0.351089 0.500000 0.237461
O O13 0.419956 0.332364 0.268151
O O14 0.913702 0.500000 0.138386
O O15 0.928873 0.215784 0.000000
O O16 0.303289 0.500000 0.000000
O O17 0.545528 0.198639 0.500000
O O18 0.500000 0.231198 0.736092
O O19 0.561513 0.000000 0.726921
#
# Coordination Sequence:
#
# PCOD8195924 Si02
#       7
#     4   8   8   4   8   4   8
#     4  11  24  37  48  70 108 147 184 229 276 322
#     4  11  24  41  63  90 118 150 191 243 302 358
#     4   9  18  35  60  88 115 144 179 226 284 347
#     4  10  19  32  54  82 112 150 195 245 298 347
#     4   9  19  36  58  82 107 139 181 222 266 328
#     4  12  26  43  61  83 118 161 205 250 296 355
#     4   8  14  26  48  81 117 150 189 240 294 346
#
# _framework density 19.722859
#
# number of rings (size 3 to 8) (size 9 to 14) (size 15 to 20)
#    0.000    2.273    0.909    3.818    0.000    6.909 
#    0.000    7.273    0.000    1.091    0.000    1.273 
#    0.000    0.000    0.000    0.000    0.000    0.000 
#
# Total GULP energy -545361.634869 kJ/mol
# GULP energy per Si atom -12394.582611 kJ/mol
# Density = 1.967797 g / cm^3
# Si number density = 19.722859 Si / 1000 Ang^3
#
#
#
# Elastic Constant Matrix: (Units=GPa)
#
#
# Indices 1 2 3 4 5 6 
#
# 1 161.7453 67.0693 66.9884 0.0000 0.0000 0.0000
# 2 67.0693 103.5380 44.7941 0.0000 0.0000 0.0000
# 3 66.9884 44.7941 99.9608 0.0000 0.0000 0.0000
# 4 0.0000 0.0000 0.0000 22.9154 0.0000 0.0000
# 5 0.0000 0.0000 0.0000 0.0000 33.5948 0.0000
# 6 0.0000 0.0000 0.0000 0.0000 0.0000 -18.0099
#
#
#
# Elastic Compliance Matrix: (Units=1/GPa)
#
#
# Indices 1 2 3 4 5 6 
#
# 1 0.009960 -0.004421 -0.004693 0.000000 0.000000 0.000000
# 2 -0.004421 0.013944 -0.003286 0.000000 0.000000 0.000000
# 3 -0.004693 -0.003286 0.014621 0.000000 0.000000 0.000000
# 4 0.000000 0.000000 0.000000 0.043639 0.000000 0.000000
# 5 0.000000 0.000000 0.000000 0.000000 0.029767 0.000000
# 6 0.000000 0.000000 0.000000 0.000000 0.000000 -0.055525
#
#
# Mechanical properties :
#
#
# Convention : Reuss Voigt Hill
#
# Bulk Modulus (GPa) = 72.86082 80.32751 76.59417
# Shear Modulus (GPa) = 58.28903 20.12622 39.20762
#
# Velocity S-wave (km/s) = 5.44226 3.19792 4.46346
# Velocity P-wave (km/s) = 8.74720 7.37917 8.09214
#
# Compressibility (1/GPa) = 0.01372480
#
# Stress axis : x y z
#
# Youngs Moduli (GPa) = 100.40620 71.71730 68.39303
#
# Poissons Ratio (x) = 0.31707 0.32098
# Poissons Ratio (y) = 0.44391 0.22471
# Poissons Ratio (z) = 0.47122 0.23563
#
# Static dielectric constant tensor:
#      x y z
#    x 3.678060 0.000000 0.000000 
#    y 0.000000 3.735770 0.000000 
#    z 0.000000 0.000000 7.274990 
# 
# 
# High freq. dielectric constant tensor:
#      x y z
#    x 1.774690 0.000000 0.000000 
#    y 0.000000 1.772850 0.000000 
#    z 0.000000 0.000000 1.741460 
# 
# From -- ./inp_files/13766.got.cif
#   From: 2010.03.12/outbox.cif.g09.slc.cpg/sg47_7_cif.got.tgz:13766.got - 2010.04.14 03:12:58.
