data_PCOD8195027
_publ_section_title
;
Structure prediction by ZEFSAII (Michael W. Deem and Ramdas Pophale) SiO2 
 PCOD8195027
Probable space group: P M M M
;
_chemical_formula_sum "Si O2"
_cell_formula_units_Z 52
_cell_length_a 12.617510
_cell_length_b 27.866756
_cell_length_c 9.074159
_cell_angle_alpha 90.000000
_cell_angle_beta 90.000000
_cell_angle_gamma 90.000000
_cell_volume 3190.556630
_symmetry_space_group_name_H-M "P M M M"
_symmetry_group_IT_number 47
_symmetry_cell_setting 'orthorhombic'
loop_
_space_group_symop_operation_xyz
x,y,z
-x,-y,z
x,-y,-z
-x,y,-z
-x,-y,-z
x,y,-z
-x,y,z
x,-y,z
loop_
_atom_site_type_symbol
_atom_site_label
_atom_site_fract_x
_atom_site_fract_y
_atom_site_fract_z
Si Si1 0.124732 0.853928 0.329098
Si Si2 0.118139 0.602906 0.176393
Si Si3 0.125702 0.947282 0.165193
Si Si4 0.500000 0.324707 0.334630
Si Si5 0.125706 0.500000 0.160991
Si Si6 0.292496 0.323725 0.172486
Si Si7 0.287789 0.212676 0.826489
Si Si8 0.500000 0.789335 0.332855
O O1 0.152229 0.848282 0.500000
O O2 0.165671 0.906325 0.276662
O O3 0.185223 0.813723 0.236830
O O4 0.000000 0.847454 0.298360
O O5 0.156938 0.550550 0.240367
O O6 0.194500 0.645013 0.232787
O O7 0.000000 0.615064 0.233842
O O8 0.117867 0.600020 0.000000
O O9 0.000000 0.948359 0.165218
O O10 0.168016 0.000000 0.215306
O O11 0.166691 0.935671 0.000000
O O12 0.500000 0.344635 0.500000
O O13 0.396429 0.344025 0.252279
O O14 0.500000 0.267611 0.330344
O O15 0.000000 0.500000 0.142581
O O16 0.179786 0.500000 0.000000
O O17 0.270705 0.268473 0.211591
O O18 0.310318 0.330582 0.000000
O O19 0.394763 0.192240 0.750902
O O20 0.297053 0.203788 0.000000
O O21 0.500000 0.809187 0.500000
#
# Coordination Sequence:
#
# PCOD8195027 Si02
#       8
#     8   8   8   4   4   8   8   4
#     4  10  20  31  43  63  93 126 155 183 219 263
#     4   8  13  22  38  62  89 113 138 172 217 263
#     4   8  14  26  44  64  86 114 149 187 224 262
#     4   9  17  29  45  62  82 110 143 178 216 257
#     4   7  10  18  34  57  85 112 136 169 214 259
#     4   9  17  28  44  65  87 111 142 180 216 256
#     4  10  19  30  45  65  89 117 149 184 222 264
#     4   9  17  31  49  65  83 109 145 188 226 261
#
# _framework density 16.298096000000001
#
# number of rings (size 3 to 8) (size 9 to 14) (size 15 to 20)
#    0.000    3.154    0.000    2.769    0.000    4.308 
#    0.000    3.077    0.000    0.923    0.000    4.308 
#    0.000    6.154    0.000    0.000    0.000    0.000 
#
# Total GULP energy -644390.661734 kJ/mol
# GULP energy per Si atom -12392.128110 kJ/mol
# Density = 1.626100 g / cm^3
# Si number density = 16.298096 Si / 1000 Ang^3
#
#
#
# Elastic Constant Matrix: (Units=GPa)
#
#
# Indices 1 2 3 4 5 6 
#
# 1 89.4351 56.3562 41.4309 0.0000 0.0000 0.0000
# 2 56.3562 93.0698 41.9331 0.0000 0.0000 0.0000
# 3 41.4309 41.9331 68.7868 0.0000 0.0000 0.0000
# 4 0.0000 0.0000 0.0000 10.5257 0.0000 0.0000
# 5 0.0000 0.0000 0.0000 0.0000 20.7731 0.0000
# 6 0.0000 0.0000 0.0000 0.0000 0.0000 3.3331
#
#
#
# Elastic Compliance Matrix: (Units=1/GPa)
#
#
# Indices 1 2 3 4 5 6 
#
# 1 0.019939 -0.009185 -0.006410 0.000000 0.000000 0.000000
# 2 -0.009185 0.019045 -0.006077 0.000000 0.000000 0.000000
# 3 -0.006410 -0.006077 0.022103 0.000000 0.000000 0.000000
# 4 0.000000 0.000000 0.000000 0.095006 0.000000 0.000000
# 5 0.000000 0.000000 0.000000 0.000000 0.048139 0.000000
# 6 0.000000 0.000000 0.000000 0.000000 0.000000 0.300025
#
#
# Mechanical properties :
#
#
# Convention : Reuss Voigt Hill
#
# Bulk Modulus (GPa) = 56.36504 58.97023 57.66764
# Shear Modulus (GPa) = 9.03317 14.36448 11.69882
#
# Velocity S-wave (km/s) = 2.35680 2.97199 2.68209
# Velocity P-wave (km/s) = 6.48575 6.93093 6.71203
#
# Compressibility (1/GPa) = 0.01774149
#
# Stress axis : x y z
#
# Youngs Moduli (GPa) = 50.15382 52.50757 45.24244
#
# Poissons Ratio (x) = 0.48231 0.28999
# Poissons Ratio (y) = 0.46069 0.27496
# Poissons Ratio (z) = 0.32147 0.31911
#
# Static dielectric constant tensor:
#      x y z
#    x 2.973540 0.000000 0.000000 
#    y 0.000000 3.281310 0.000000 
#    z 0.000000 0.000000 2.963180 
# 
# 
# High freq. dielectric constant tensor:
#      x y z
#    x 1.602030 0.000000 0.000000 
#    y 0.000000 1.618040 0.000000 
#    z 0.000000 0.000000 1.610050 
# 
# From -- ./inp_files/4600.got.cif
#   From: 2010.03.12/outbox.cif.g09.slc.cpg/sg47_3_cif.got.tgz:4600.got - 2010.04.14 03:12:58.
