data_PCOD8195242
_publ_section_title
;
Structure prediction by ZEFSAII (Michael W. Deem and Ramdas Pophale) SiO2 
 PCOD8195242
Probable space group: P M M M
;
_chemical_formula_sum "Si O2"
_cell_formula_units_Z 64
_cell_length_a 25.606483
_cell_length_b 14.468188
_cell_length_c 9.706068
_cell_angle_alpha 90.000000
_cell_angle_beta 90.000000
_cell_angle_gamma 90.000000
_cell_volume 3595.898347
_symmetry_space_group_name_H-M "P M M M"
_symmetry_group_IT_number 47
_symmetry_cell_setting 'orthorhombic'
loop_
_space_group_symop_operation_xyz
x,y,z
-x,-y,z
x,-y,-z
-x,y,-z
-x,-y,-z
x,y,-z
-x,y,z
x,-y,z
loop_
_atom_site_type_symbol
_atom_site_label
_atom_site_fract_x
_atom_site_fract_y
_atom_site_fract_z
Si Si1 0.741486 0.397197 0.163466
Si Si2 0.896976 0.101070 0.337102
Si Si3 0.143313 0.609797 0.155949
Si Si4 0.439325 0.605406 0.341508
Si Si5 0.941224 0.289669 0.338690
Si Si6 0.782406 0.890933 0.651641
Si Si7 0.689888 0.103943 0.842480
Si Si8 0.359612 0.288086 0.840880
O O1 0.731159 0.500000 0.223524
O O2 0.798815 0.360199 0.210876
O O3 0.694865 0.331206 0.214575
O O4 0.742865 0.402095 0.000000
O O5 0.894091 0.089747 0.500000
O O6 0.937158 0.181375 0.294553
O O7 0.839424 0.133563 0.286519
O O8 0.912965 0.000000 0.274455
O O9 0.139817 0.500000 0.159402
O O10 0.098985 0.649179 0.254521
O O11 0.133808 0.645634 0.000000
O O12 0.425162 0.624562 0.500000
O O13 0.500000 0.624192 0.314681
O O14 0.425248 0.500000 0.302498
O O15 0.407674 0.675159 0.246522
O O16 0.928373 0.301135 0.500000
O O17 0.000000 0.322562 0.305636
O O18 0.773713 0.846018 0.500000
O O19 0.738141 0.856211 0.755276
O O20 0.778438 0.000000 0.637837
O O21 0.642576 0.176569 0.822215
O O22 0.672069 0.000000 0.798578
O O23 0.708803 0.104421 0.000000
O O24 0.368746 0.315276 0.000000
#
# Coordination Sequence:
#
# PCOD8195242 Si02
#       8
#     8   8   8   8   8   8   8   8
#     4   8  15  29  48  71  98 124 153 195 245 293
#     4   8  15  29  48  69  94 124 157 194 239 295
#     4   9  19  36  55  71  92 127 164 197 242 302
#     4   9  19  36  55  76 106 139 167 203 253 300
#     4  10  21  34  49  72  97 121 156 205 254 294
#     4   8  14  26  44  64  87 120 162 201 236 282
#     4   9  18  30  43  67 105 139 166 201 245 289
#     4  10  19  30  50  78 104 135 172 207 243 287
#
# _framework density 17.798055999999999
#
# number of rings (size 3 to 8) (size 9 to 14) (size 15 to 20)
#    0.000    3.125    0.000    2.250    1.750    2.500 
#    0.000    3.750    0.000    1.500    0.000    3.500 
#    0.000    0.000    0.000    0.000    0.000    0.000 
#
# Total GULP energy -793104.961907 kJ/mol
# GULP energy per Si atom -12392.265030 kJ/mol
# Density = 1.775755 g / cm^3
# Si number density = 17.798056 Si / 1000 Ang^3
#
#
#
# Elastic Constant Matrix: (Units=GPa)
#
#
# Indices 1 2 3 4 5 6 
#
# 1 95.9603 47.2951 46.6600 0.0000 0.0000 0.0000
# 2 47.2951 67.7448 30.1274 0.0000 0.0000 0.0000
# 3 46.6600 30.1274 54.9193 0.0000 0.0000 0.0000
# 4 0.0000 0.0000 0.0000 19.6428 0.0000 0.0000
# 5 0.0000 0.0000 0.0000 0.0000 27.5894 0.0000
# 6 0.0000 0.0000 0.0000 0.0000 0.0000 26.7624
#
#
#
# Elastic Compliance Matrix: (Units=1/GPa)
#
#
# Indices 1 2 3 4 5 6 
#
# 1 0.021220 -0.008990 -0.013097 0.000000 0.000000 0.000000
# 2 -0.008990 0.023333 -0.005162 0.000000 0.000000 0.000000
# 3 -0.013097 -0.005162 0.032168 0.000000 0.000000 0.000000
# 4 0.000000 0.000000 0.000000 0.050909 0.000000 0.000000
# 5 0.000000 0.000000 0.000000 0.000000 0.036246 0.000000
# 6 0.000000 0.000000 0.000000 0.000000 0.000000 0.037366
#
#
# Mechanical properties :
#
#
# Convention : Reuss Voigt Hill
#
# Bulk Modulus (GPa) = 44.99893 51.86548 48.43220
# Shear Modulus (GPa) = 19.00069 21.10170 20.05120
#
# Velocity S-wave (km/s) = 3.27092 3.44702 3.36012
# Velocity P-wave (km/s) = 6.29310 6.71170 6.50577
#
# Compressibility (1/GPa) = 0.02222275
#
# Stress axis : x y z
#
# Youngs Moduli (GPa) = 47.12474 42.85735 31.08695
#
# Poissons Ratio (x) = 0.38529 0.40715
# Poissons Ratio (y) = 0.42365 0.16047
# Poissons Ratio (z) = 0.61720 0.22123
#
# Static dielectric constant tensor:
#      x y z
#    x 3.250580 0.000000 0.000000 
#    y 0.000000 3.373630 0.000000 
#    z 0.000000 0.000000 3.199200 
# 
# 
# High freq. dielectric constant tensor:
#      x y z
#    x 1.673880 0.000000 0.000000 
#    y 0.000000 1.687770 0.000000 
#    z 0.000000 0.000000 1.659860 
# 
# From -- ./inp_files/12763.got.cif
#   From: 2010.03.12/outbox.cif.g09.slc.cpg/sg47_7_cif.got.tgz:12763.got - 2010.04.14 03:12:58.
