data_PCOD8195486
_publ_section_title
;
Structure prediction by ZEFSAII (Michael W. Deem and Ramdas Pophale) SiO2 
 PCOD8195486
Probable space group: P M M M
;
_chemical_formula_sum "Si O2"
_cell_formula_units_Z 52
_cell_length_a 12.663788
_cell_length_b 26.167236
_cell_length_c 8.880262
_cell_angle_alpha 90.000000
_cell_angle_beta 90.000000
_cell_angle_gamma 90.000000
_cell_volume 2942.708624
_symmetry_space_group_name_H-M "P M M M"
_symmetry_group_IT_number 47
_symmetry_cell_setting 'orthorhombic'
loop_
_space_group_symop_operation_xyz
x,y,z
-x,-y,z
x,-y,-z
-x,y,-z
-x,-y,-z
x,y,-z
-x,y,z
x,-y,z
loop_
_atom_site_type_symbol
_atom_site_label
_atom_site_fract_x
_atom_site_fract_y
_atom_site_fract_z
Si Si1 0.000000 0.169562 0.321186
Si Si2 0.620378 0.271279 0.173742
Si Si3 0.882435 0.000000 0.822076
Si Si4 0.192615 0.890818 0.821497
Si Si5 0.621836 0.165663 0.324469
Si Si6 0.800619 0.653516 0.175534
Si Si7 0.119064 0.556819 0.322368
Si Si8 0.000000 0.279250 0.822670
O O1 0.104313 0.143490 0.256256
O O2 0.000000 0.228167 0.273591
O O3 0.000000 0.164856 0.500000
O O4 0.500000 0.288090 0.200587
O O5 0.651042 0.222839 0.274356
O O6 0.692648 0.318598 0.223655
O O7 0.641509 0.256390 0.000000
O O8 0.820825 0.949491 0.768740
O O9 0.000000 0.000000 0.751082
O O10 0.892579 0.000000 0.000000
O O11 0.308489 0.874264 0.768529
O O12 0.181352 0.884549 0.000000
O O13 0.646740 0.160151 0.500000
O O14 0.500000 0.153588 0.287271
O O15 0.802182 0.598575 0.254656
O O16 0.897982 0.688622 0.226202
O O17 0.805559 0.642945 0.000000
O O18 0.121367 0.561421 0.500000
O O19 0.155933 0.500000 0.272525
O O20 0.000000 0.566753 0.262998
O O21 0.000000 0.266046 0.000000
#
# Coordination Sequence:
#
# PCOD8195486 Si02
#       8
#     4   8   4   8   8   8   8   4
#     4  12  24  35  51  79 112 142 176 214 264 323
#     4   9  18  33  53  76 103 139 179 213 253 309
#     4   9  18  36  59  82 105 135 180 225 263 308
#     4  11  21  37  60  81 105 140 180 222 265 315
#     4  10  21  37  56  81 112 142 177 221 267 318
#     4  10  19  31  49  74 102 130 166 214 259 301
#     4   9  18  32  49  70  98 133 170 207 254 313
#     4  10  20  32  46  72 106 137 167 207 260 313
#
# _framework density 17.670794000000001
#
# number of rings (size 3 to 8) (size 9 to 14) (size 15 to 20)
#    0.000    2.077    1.538    3.000    0.000    3.692 
#    0.000    3.077    0.000    2.769    0.000    3.231 
#    0.000    0.000    0.000    0.000    0.000    0.000 
#
# Total GULP energy -644897.123540 kJ/mol
# GULP energy per Si atom -12401.867760 kJ/mol
# Density = 1.763057 g / cm^3
# Si number density = 17.670794 Si / 1000 Ang^3
#
#
#
# Elastic Constant Matrix: (Units=GPa)
#
#
# Indices 1 2 3 4 5 6 
#
# 1 103.6908 75.5623 37.5646 0.0000 0.0000 0.0000
# 2 75.5623 155.4252 51.3341 0.0000 0.0000 0.0000
# 3 37.5646 51.3341 66.2297 0.0000 0.0000 0.0000
# 4 0.0000 0.0000 0.0000 -0.6262 0.0000 0.0000
# 5 0.0000 0.0000 0.0000 0.0000 23.0059 0.0000
# 6 0.0000 0.0000 0.0000 0.0000 0.0000 70.0977
#
#
#
# Elastic Compliance Matrix: (Units=1/GPa)
#
#
# Indices 1 2 3 4 5 6 
#
# 1 0.015691 -0.006303 -0.004015 0.000000 0.000000 0.000000
# 2 -0.006303 0.011179 -0.005090 0.000000 0.000000 0.000000
# 3 -0.004015 -0.005090 0.021322 0.000000 0.000000 0.000000
# 4 0.000000 0.000000 0.000000 -1.597040 0.000000 0.000000
# 5 0.000000 0.000000 0.000000 0.000000 0.043467 0.000000
# 6 0.000000 0.000000 0.000000 0.000000 0.000000 0.014266
#
#
# Mechanical properties :
#
#
# Convention : Reuss Voigt Hill
#
# Bulk Modulus (GPa) = 57.54779 72.69639 65.12209
# Shear Modulus (GPa) = -3.43759 29.22113 12.89177
#
# Velocity S-wave (km/s) = -1.39627 4.07091 2.70395
# Velocity P-wave (km/s) = 5.48068 7.95770 6.83238
#
# Compressibility (1/GPa) = 0.01737686
#
# Stress axis : x y z
#
# Youngs Moduli (GPa) = 63.72915 89.45141 46.90093
#
# Poissons Ratio (x) = 0.56377 0.18830
# Poissons Ratio (y) = 0.40166 0.23874
# Poissons Ratio (z) = 0.25587 0.45533
#
# Static dielectric constant tensor:
#      x y z
#    x 3.328410 0.000000 0.000000 
#    y 0.000000 3.401460 0.000000 
#    z 0.000000 0.000000 3.184210 
# 
# 
# High freq. dielectric constant tensor:
#      x y z
#    x 1.676670 0.000000 0.000000 
#    y 0.000000 1.684970 0.000000 
#    z 0.000000 0.000000 1.677100 
# 
# From -- ./inp_files/4628.got.cif
#   From: 2010.03.12/outbox.cif.g09.slc.cpg/sg47_3_cif.got.tgz:4628.got - 2010.04.14 03:12:58.
