data_PCOD8195638
_publ_section_title
;
Structure prediction by ZEFSAII (Michael W. Deem and Ramdas Pophale) SiO2 
 PCOD8195638
Probable space group: P M M M
;
_chemical_formula_sum "Si O2"
_cell_formula_units_Z 64
_cell_length_a 23.503855
_cell_length_b 19.084680
_cell_length_c 9.167384
_cell_angle_alpha 90.000000
_cell_angle_beta 90.000000
_cell_angle_gamma 90.000000
_cell_volume 4112.154324
_symmetry_space_group_name_H-M "P M M M"
_symmetry_group_IT_number 47
_symmetry_cell_setting 'orthorhombic'
loop_
_space_group_symop_operation_xyz
x,y,z
-x,-y,z
x,-y,-z
-x,y,-z
-x,-y,-z
x,y,-z
-x,y,z
x,-y,z
loop_
_atom_site_type_symbol
_atom_site_label
_atom_site_fract_x
_atom_site_fract_y
_atom_site_fract_z
Si Si1 0.765381 0.575571 0.826659
Si Si2 0.843803 0.199677 0.830553
Si Si3 0.935092 0.290188 0.332952
Si Si4 0.329518 0.160267 0.671027
Si Si5 0.215588 0.919320 0.329468
Si Si6 0.105580 0.420728 0.169419
Si Si7 0.562783 0.921530 0.326757
Si Si8 0.726978 0.720903 0.831679
O O1 0.741071 0.500000 0.771608
O O2 0.829859 0.584773 0.772254
O O3 0.726621 0.640471 0.772680
O O4 0.767316 0.576483 0.000000
O O5 0.897894 0.234145 0.754489
O O6 0.831466 0.124022 0.759468
O O7 0.790058 0.249859 0.805517
O O8 0.857328 0.188924 0.000000
O O9 0.914158 0.293260 0.500000
O O10 0.931695 0.367621 0.263784
O O11 0.000000 0.264635 0.323474
O O12 0.333971 0.172164 0.500000
O O13 0.278764 0.107133 0.711320
O O14 0.388159 0.128905 0.736312
O O15 0.319652 0.235923 0.742507
O O16 0.203733 0.908774 0.500000
O O17 0.210801 0.000000 0.282891
O O18 0.082708 0.500000 0.190994
O O19 0.101629 0.398719 0.000000
O O20 0.567897 0.924052 0.500000
O O21 0.500000 0.893866 0.280365
O O22 0.571955 0.000000 0.265305
O O23 0.709748 0.725374 0.000000
#
# Coordination Sequence:
#
# PCOD8195638 Si02
#       8
#     8   8   8   8   8   8   8   8
#     4   8  13  24  43  63  83 109 141 174 208 251
#     4  10  19  32  49  67  86 110 143 180 216 258
#     4  11  23  35  47  64  88 116 144 177 218 264
#     4   9  16  25  40  64  91 118 148 181 213 249
#     4   9  17  29  46  68  93 118 140 169 215 267
#     4   9  17  31  50  68  86 112 147 182 213 251
#     4   8  13  22  38  60  86 118 156 191 214 237
#     4   9  16  27  43  63  86 112 141 175 217 259
#
# _framework density 15.563618
#
# number of rings (size 3 to 8) (size 9 to 14) (size 15 to 20)
#    0.000    2.875    1.250    2.250    0.000    3.750 
#    0.000    1.250    0.000    2.250    0.000    3.500 
#    0.000    0.500    0.000    6.250    0.000    0.000 
#
# Total GULP energy -793317.806342 kJ/mol
# GULP energy per Si atom -12395.590724 kJ/mol
# Density = 1.552819 g / cm^3
# Si number density = 15.563618 Si / 1000 Ang^3
#
#
#
# Elastic Constant Matrix: (Units=GPa)
#
#
# Indices 1 2 3 4 5 6 
#
# 1 82.9242 55.8720 35.5026 0.0000 0.0000 0.0000
# 2 55.8720 126.5393 42.6173 0.0000 0.0000 0.0000
# 3 35.5026 42.6173 53.2698 0.0000 0.0000 0.0000
# 4 0.0000 0.0000 0.0000 25.1096 0.0000 0.0000
# 5 0.0000 0.0000 0.0000 0.0000 12.9886 0.0000
# 6 0.0000 0.0000 0.0000 0.0000 0.0000 25.2733
#
#
#
# Elastic Compliance Matrix: (Units=1/GPa)
#
#
# Indices 1 2 3 4 5 6 
#
# 1 0.019569 -0.005815 -0.008390 0.000000 0.000000 0.000000
# 2 -0.005815 0.012545 -0.006161 0.000000 0.000000 0.000000
# 3 -0.008390 -0.006161 0.029293 0.000000 0.000000 0.000000
# 4 0.000000 0.000000 0.000000 0.039825 0.000000 0.000000
# 5 0.000000 0.000000 0.000000 0.000000 0.076991 0.000000
# 6 0.000000 0.000000 0.000000 0.000000 0.000000 0.039568
#
#
# Mechanical properties :
#
#
# Convention : Reuss Voigt Hill
#
# Bulk Modulus (GPa) = 48.36686 58.96857 53.66771
# Shear Modulus (GPa) = 18.83842 21.25706 20.04774
#
# Velocity S-wave (km/s) = 3.48287 3.69971 3.59293
# Velocity P-wave (km/s) = 6.87882 7.49809 7.19512
#
# Compressibility (1/GPa) = 0.02067531
#
# Stress axis : x y z
#
# Youngs Moduli (GPa) = 51.10071 79.71221 34.13760
#
# Poissons Ratio (x) = 0.46351 0.28642
# Poissons Ratio (y) = 0.29714 0.21032
# Poissons Ratio (z) = 0.42875 0.49111
#
# Static dielectric constant tensor:
#      x y z
#    x 2.835730 0.000000 0.000000 
#    y 0.000000 3.208990 0.000000 
#    z 0.000000 0.000000 2.791490 
# 
# 
# High freq. dielectric constant tensor:
#      x y z
#    x 1.565510 0.000000 0.000000 
#    y 0.000000 1.598240 0.000000 
#    z 0.000000 0.000000 1.577410 
# 
# From -- ./inp_files/11782.got.cif
#   From: 2010.03.12/outbox.cif.g09.slc.cpg/sg47_6_cif.got.tgz:11782.got - 2010.04.14 03:12:58.
