data_PCOD8195574
_publ_section_title
;
Structure prediction by ZEFSAII (Michael W. Deem and Ramdas Pophale) SiO2 
 PCOD8195574
Probable space group: P M M M
;
_chemical_formula_sum "Si O2"
_cell_formula_units_Z 56
_cell_length_a 14.739139
_cell_length_b 22.636260
_cell_length_c 9.203354
_cell_angle_alpha 90.000000
_cell_angle_beta 90.000000
_cell_angle_gamma 90.000000
_cell_volume 3070.597665
_symmetry_space_group_name_H-M "P M M M"
_symmetry_group_IT_number 47
_symmetry_cell_setting 'orthorhombic'
loop_
_space_group_symop_operation_xyz
x,y,z
-x,-y,z
x,-y,-z
-x,y,-z
-x,-y,-z
x,y,-z
-x,y,z
x,-y,z
loop_
_atom_site_type_symbol
_atom_site_label
_atom_site_fract_x
_atom_site_fract_y
_atom_site_fract_z
Si Si1 0.285800 0.933520 0.170477
Si Si2 0.150835 0.225970 0.662290
Si Si3 0.787679 0.336013 0.171892
Si Si4 0.401091 0.283669 0.166246
Si Si5 0.896712 0.568908 0.332506
Si Si6 0.097807 0.880957 0.834835
Si Si7 0.649976 0.825960 0.661905
O O1 0.180075 0.923218 0.214495
O O2 0.351923 0.888694 0.254871
O O3 0.311370 0.000000 0.216758
O O4 0.300436 0.923803 0.000000
O O5 0.114911 0.240088 0.500000
O O6 0.150368 0.285497 0.756429
O O7 0.087826 0.177867 0.738614
O O8 0.249410 0.198217 0.656160
O O9 0.681257 0.326547 0.216621
O O10 0.822970 0.397987 0.233508
O O11 0.800699 0.334869 0.000000
O O12 0.500000 0.315487 0.184152
O O13 0.408691 0.222843 0.255186
O O14 0.382951 0.265700 0.000000
O O15 0.879678 0.585544 0.500000
O O16 0.880487 0.500000 0.306452
O O17 0.000000 0.585765 0.288518
O O18 0.000000 0.914193 0.821166
O O19 0.115800 0.860640 0.000000
O O20 0.610626 0.835297 0.500000
#
# Coordination Sequence:
#
# PCOD8195574 Si02
#       7
#     8   8   8   8   8   8   8
#     4   9  17  29  45  63  84 116 157 196 239 295
#     4   9  17  29  44  62  87 120 155 190 234 289
#     4  10  19  31  51  78 104 130 164 206 248 289
#     4   9  18  33  53  77 105 134 161 193 240 299
#     4   9  19  36  55  74 100 137 177 212 247 287
#     4   9  17  28  41  59  85 115 150 197 247 291
#     4   9  17  29  46  68  92 118 151 192 236 281
#
# _framework density 18.237490999999999
#
# number of rings (size 3 to 8) (size 9 to 14) (size 15 to 20)
#    0.000    2.857    0.000    1.714    0.000    6.286 
#    0.000    2.143    0.000    0.857    0.000   10.000 
#    0.000    0.000    0.000    0.000    0.000    0.000 
#
# Total GULP energy -694042.658999 kJ/mol
# GULP energy per Si atom -12393.618911 kJ/mol
# Density = 1.819598 g / cm^3
# Si number density = 18.237491 Si / 1000 Ang^3
#
#
#
# Elastic Constant Matrix: (Units=GPa)
#
#
# Indices 1 2 3 4 5 6 
#
# 1 73.5415 36.1777 31.5121 0.0000 0.0000 0.0000
# 2 36.1777 92.3559 49.2539 0.0000 0.0000 0.0000
# 3 31.5121 49.2539 91.8503 0.0000 0.0000 0.0000
# 4 0.0000 0.0000 0.0000 30.3026 0.0000 0.0000
# 5 0.0000 0.0000 0.0000 0.0000 14.7407 0.0000
# 6 0.0000 0.0000 0.0000 0.0000 0.0000 18.2745
#
#
#
# Elastic Compliance Matrix: (Units=1/GPa)
#
#
# Indices 1 2 3 4 5 6 
#
# 1 0.017515 -0.005121 -0.003263 0.000000 0.000000 0.000000
# 2 -0.005121 0.016662 -0.007178 0.000000 0.000000 0.000000
# 3 -0.003263 -0.007178 0.015856 0.000000 0.000000 0.000000
# 4 0.000000 0.000000 0.000000 0.033000 0.000000 0.000000
# 5 0.000000 0.000000 0.000000 0.000000 0.067839 0.000000
# 6 0.000000 0.000000 0.000000 0.000000 0.000000 0.054721
#
#
# Mechanical properties :
#
#
# Convention : Reuss Voigt Hill
#
# Bulk Modulus (GPa) = 52.88455 54.62611 53.75533
# Shear Modulus (GPa) = 20.57447 22.05049 21.31248
#
# Velocity S-wave (km/s) = 3.36243 3.48095 3.42220
# Velocity P-wave (km/s) = 6.64343 6.79512 6.71970
#
# Compressibility (1/GPa) = 0.01890912
#
# Stress axis : x y z
#
# Youngs Moduli (GPa) = 57.09361 60.01848 63.06833
#
# Poissons Ratio (x) = 0.30734 0.20580
# Poissons Ratio (y) = 0.29236 0.45269
# Poissons Ratio (z) = 0.18630 0.43080
#
# Static dielectric constant tensor:
#      x y z
#    x 3.253670 0.000000 0.000000 
#    y 0.000000 3.171870 0.000000 
#    z 0.000000 0.000000 3.498720 
# 
# 
# High freq. dielectric constant tensor:
#      x y z
#    x 1.695400 0.000000 0.000000 
#    y 0.000000 1.680500 0.000000 
#    z 0.000000 0.000000 1.708770 
# 
# From -- ./inp_files/7299.got.cif
#   From: 2010.03.12/outbox.cif.g09.slc.cpg/sg47_4_cif.got.tgz:7299.got - 2010.04.14 03:12:58.
