data_PCOD8195171
_publ_section_title
;
Structure prediction by ZEFSAII (Michael W. Deem and Ramdas Pophale) SiO2 
 PCOD8195171
Probable space group: P M M M
;
_chemical_formula_sum "Si O2"
_cell_formula_units_Z 64
_cell_length_a 9.491453
_cell_length_b 22.539653
_cell_length_c 17.694531
_cell_angle_alpha 90.000000
_cell_angle_beta 90.000000
_cell_angle_gamma 90.000000
_cell_volume 3785.462805
_symmetry_space_group_name_H-M "P M M M"
_symmetry_group_IT_number 47
_symmetry_cell_setting 'orthorhombic'
loop_
_space_group_symop_operation_xyz
x,y,z
-x,-y,z
x,-y,-z
-x,y,-z
-x,-y,-z
x,y,-z
-x,y,z
x,-y,z
loop_
_atom_site_type_symbol
_atom_site_label
_atom_site_fract_x
_atom_site_fract_y
_atom_site_fract_z
Si Si1 0.661299 0.857329 0.417633
Si Si2 0.160312 0.837452 0.194702
Si Si3 0.332390 0.757927 0.087622
Si Si4 0.157129 0.643013 0.414320
Si Si5 0.667969 0.432352 0.306294
Si Si6 0.345489 0.666177 0.202092
Si Si7 0.334062 0.930959 0.278916
Si Si8 0.753914 0.248678 0.678737
O O1 0.738695 0.860223 0.500000
O O2 0.500000 0.871036 0.431751
O O3 0.719728 0.907764 0.360891
O O4 0.673959 0.792332 0.381149
O O5 0.244658 0.811911 0.122736
O O6 0.243480 0.897477 0.215562
O O7 0.153035 0.791909 0.265233
O O8 0.000000 0.852453 0.171108
O O9 0.500000 0.767085 0.102326
O O10 0.276142 0.697026 0.128337
O O11 0.296634 0.752895 0.000000
O O12 0.204382 0.656434 0.500000
O O13 0.262884 0.593445 0.382033
O O14 0.153413 0.704373 0.367607
O O15 0.000000 0.616378 0.411483
O O16 0.500000 0.425445 0.314127
O O17 0.713717 0.500000 0.293857
O O18 0.728076 0.393673 0.234631
O O19 0.500000 0.646692 0.177397
O O20 0.355622 0.714929 0.269378
O O21 0.500000 0.916653 0.267527
O O22 0.301697 0.000000 0.272294
#
# Coordination Sequence:
#
# PCOD8195171 Si02
#       8
#     8   8   8   8   8   8   8   8
#     4   9  16  25  41  67  94 119 152 196 241 279
#     4  10  19  30  48  72  95 120 151 188 226 266
#     4   9  17  30  50  75 101 125 145 170 212 268
#     4  10  20  31  43  61  86 116 150 191 237 279
#     4   9  18  32  48  64  84 115 154 192 227 263
#     4   8  14  26  45  67  90 116 148 182 214 256
#     4   9  18  32  48  65  89 124 162 196 229 267
#     4   9  16  28  43  62  89 120 151 185 229 279
#
# _framework density 16.906783000000001
#
# number of rings (size 3 to 8) (size 9 to 14) (size 15 to 20)
#    0.000    2.875    0.000    1.500    0.000    5.000 
#    0.000    2.500    0.000    4.125    0.000    8.750 
#    0.000    0.000    0.000    9.125    0.000    5.125 
#
# Total GULP energy -792894.190814 kJ/mol
# GULP energy per Si atom -12388.971731 kJ/mol
# Density = 1.686830 g / cm^3
# Si number density = 16.906783 Si / 1000 Ang^3
#
#
#
# Elastic Constant Matrix: (Units=GPa)
#
#
# Indices 1 2 3 4 5 6 
#
# 1 53.6080 33.2922 33.6676 0.0000 0.0000 0.0000
# 2 33.2922 125.8436 59.4367 0.0000 0.0000 0.0000
# 3 33.6676 59.4367 125.5686 0.0000 0.0000 0.0000
# 4 0.0000 0.0000 0.0000 13.4246 0.0000 0.0000
# 5 0.0000 0.0000 0.0000 0.0000 14.9865 0.0000
# 6 0.0000 0.0000 0.0000 0.0000 0.0000 15.1221
#
#
#
# Elastic Compliance Matrix: (Units=1/GPa)
#
#
# Indices 1 2 3 4 5 6 
#
# 1 0.024097 -0.004280 -0.004435 0.000000 0.000000 0.000000
# 2 -0.004280 0.010995 -0.004057 0.000000 0.000000 0.000000
# 3 -0.004435 -0.004057 0.011073 0.000000 0.000000 0.000000
# 4 0.000000 0.000000 0.000000 0.074490 0.000000 0.000000
# 5 0.000000 0.000000 0.000000 0.000000 0.066727 0.000000
# 6 0.000000 0.000000 0.000000 0.000000 0.000000 0.066129
#
#
# Mechanical properties :
#
#
# Convention : Reuss Voigt Hill
#
# Bulk Modulus (GPa) = 48.49339 61.97923 55.23631
# Shear Modulus (GPa) = 17.48690 20.61488 19.05089
#
# Velocity S-wave (km/s) = 3.21956 3.49567 3.36045
# Velocity P-wave (km/s) = 6.52425 7.28230 6.91367
#
# Compressibility (1/GPa) = 0.02062137
#
# Stress axis : x y z
#
# Youngs Moduli (GPa) = 41.49810 90.95296 90.30959
#
# Poissons Ratio (x) = 0.38931 0.40052
# Poissons Ratio (y) = 0.17763 0.36635
# Poissons Ratio (z) = 0.18404 0.36896
#
# Static dielectric constant tensor:
#      x y z
#    x 2.887640 0.000000 0.000000 
#    y 0.000000 3.168680 0.000000 
#    z 0.000000 0.000000 3.237730 
# 
# 
# High freq. dielectric constant tensor:
#      x y z
#    x 1.626920 0.000000 0.000000 
#    y 0.000000 1.643760 0.000000 
#    z 0.000000 0.000000 1.640900 
# 
# From -- ./inp_files/27148.got.cif
#   From: 2010.03.12/outbox.cif.g09.slc.cpg/sg47_14_cif.got.tgz:27148.got - 2010.04.14 03:12:58.
