data_PCOD8195175
_publ_section_title
;
Structure prediction by ZEFSAII (Michael W. Deem and Ramdas Pophale) SiO2 
 PCOD8195175
Probable space group: P M M M
;
_chemical_formula_sum "Si O2"
_cell_formula_units_Z 60
_cell_length_a 19.446330
_cell_length_b 18.068916
_cell_length_c 9.413498
_cell_angle_alpha 90.000000
_cell_angle_beta 90.000000
_cell_angle_gamma 90.000000
_cell_volume 3307.659418
_symmetry_space_group_name_H-M "P M M M"
_symmetry_group_IT_number 47
_symmetry_cell_setting 'orthorhombic'
loop_
_space_group_symop_operation_xyz
x,y,z
-x,-y,z
x,-y,-z
-x,y,-z
-x,-y,-z
x,y,-z
-x,y,z
x,-y,z
loop_
_atom_site_type_symbol
_atom_site_label
_atom_site_fract_x
_atom_site_fract_y
_atom_site_fract_z
Si Si1 0.923368 0.582909 0.831401
Si Si2 0.657168 0.085240 0.665417
Si Si3 0.799817 0.682666 0.836418
Si Si4 0.204549 0.169713 0.333977
Si Si5 0.350938 0.354918 0.163271
Si Si6 0.578359 0.500000 0.169296
Si Si7 0.419629 0.793436 0.164695
Si Si8 0.075327 0.082317 0.331671
O O1 0.910778 0.500000 0.771756
O O2 0.864856 0.637911 0.771093
O O3 0.000000 0.610230 0.785934
O O4 0.917441 0.580565 0.000000
O O5 0.639775 0.093593 0.500000
O O6 0.734051 0.113149 0.698041
O O7 0.602129 0.132989 0.751879
O O8 0.651821 0.000000 0.713983
O O9 0.784004 0.755226 0.748422
O O10 0.730953 0.633926 0.821321
O O11 0.813603 0.703914 0.000000
O O12 0.198667 0.187704 0.500000
O O13 0.134499 0.134804 0.270782
O O14 0.386063 0.426615 0.235024
O O15 0.378821 0.277673 0.229577
O O16 0.374002 0.351960 0.000000
O O17 0.500000 0.500000 0.218132
O O18 0.586775 0.500000 0.000000
O O19 0.500000 0.779240 0.186922
O O20 0.400954 0.805942 0.000000
O O21 0.082675 0.077755 0.500000
O O22 0.000000 0.113871 0.288998
O O23 0.084327 0.000000 0.268332
#
# Coordination Sequence:
#
# PCOD8195175 Si02
#       8
#     8   8   8   8   8   4   8   8
#     4   8  15  28  46  70 100 132 166 204 244 286
#     4  10  21  36  53  73  98 130 170 212 251 296
#     4  10  19  30  48  72  98 127 162 200 240 287
#     4  10  19  32  50  72  98 128 162 200 245 293
#     4   9  17  29  46  72 103 130 159 198 243 291
#     4   9  16  26  44  72 102 128 156 197 247 291
#     4  10  20  35  54  75 102 133 162 199 252 307
#     4   8  14  26  46  71  95 120 155 199 242 282
#
# _framework density 18.139716
#
# number of rings (size 3 to 8) (size 9 to 14) (size 15 to 20)
#    0.000    2.733    1.333    1.600    0.933    4.533 
#    0.000    1.333    0.000    1.600    0.000    3.267 
#    0.000    3.200    0.000    0.000    0.000    0.000 
#
# Total GULP energy -743771.896136 kJ/mol
# GULP energy per Si atom -12396.198269 kJ/mol
# Density = 1.809843 g / cm^3
# Si number density = 18.139716 Si / 1000 Ang^3
#
#
#
# Elastic Constant Matrix: (Units=GPa)
#
#
# Indices 1 2 3 4 5 6 
#
# 1 114.6079 58.0691 24.2127 0.0000 0.0000 0.0000
# 2 58.0691 132.4285 29.0142 0.0000 0.0000 0.0000
# 3 24.2127 29.0142 23.2559 0.0000 0.0000 0.0000
# 4 0.0000 0.0000 0.0000 -3.4469 0.0000 0.0000
# 5 0.0000 0.0000 0.0000 0.0000 16.1009 0.0000
# 6 0.0000 0.0000 0.0000 0.0000 0.0000 38.9734
#
#
#
# Elastic Compliance Matrix: (Units=1/GPa)
#
#
# Indices 1 2 3 4 5 6 
#
# 1 0.012295 -0.003560 -0.008360 0.000000 0.000000 0.000000
# 2 -0.003560 0.011422 -0.010544 0.000000 0.000000 0.000000
# 3 -0.008360 -0.010544 0.064859 0.000000 0.000000 0.000000
# 4 0.000000 0.000000 0.000000 -0.290114 0.000000 0.000000
# 5 0.000000 0.000000 0.000000 0.000000 0.062108 0.000000
# 6 0.000000 0.000000 0.000000 0.000000 0.000000 0.025659
#
#
# Mechanical properties :
#
#
# Convention : Reuss Voigt Hill
#
# Bulk Modulus (GPa) = 22.91038 54.76493 38.83765
# Shear Modulus (GPa) = -92.09168 20.92524 -35.58322
#
# Velocity S-wave (km/s) = -7.13290 3.40009 -4.43382
# Velocity P-wave (km/s) = 7.42834 6.75798 2.18058
#
# Compressibility (1/GPa) = 0.04364833
#
# Stress axis : x y z
#
# Youngs Moduli (GPa) = 81.33243 87.54736 15.41812
#
# Poissons Ratio (x) = 0.31165 0.12889
# Poissons Ratio (y) = 0.28953 0.16257
# Poissons Ratio (z) = 0.67993 0.92313
#
# Static dielectric constant tensor:
#      x y z
#    x 3.568080 0.000000 0.000000 
#    y 0.000000 3.488070 0.000000 
#    z 0.000000 0.000000 2.817360 
# 
# 
# High freq. dielectric constant tensor:
#      x y z
#    x 1.720530 0.000000 0.000000 
#    y 0.000000 1.706640 0.000000 
#    z 0.000000 0.000000 1.639470 
# 
# From -- ./inp_files/18770.got.cif
#   From: 2010.03.12/outbox.cif.g09.slc.cpg/sg47_10_cif.got.tgz:18770.got - 2010.04.14 03:12:58.
