data_PCOD8195246
_publ_section_title
;
Structure prediction by ZEFSAII (Michael W. Deem and Ramdas Pophale) SiO2 
 PCOD8195246
Probable space group: P M M M
;
_chemical_formula_sum "Si O2"
_cell_formula_units_Z 64
_cell_length_a 9.386320
_cell_length_b 26.006504
_cell_length_c 14.296767
_cell_angle_alpha 90.000000
_cell_angle_beta 90.000000
_cell_angle_gamma 90.000000
_cell_volume 3489.917579
_symmetry_space_group_name_H-M "P M M M"
_symmetry_group_IT_number 47
_symmetry_cell_setting 'orthorhombic'
loop_
_space_group_symop_operation_xyz
x,y,z
-x,-y,z
x,-y,-z
-x,y,-z
-x,-y,-z
x,y,-z
-x,y,z
x,-y,z
loop_
_atom_site_type_symbol
_atom_site_label
_atom_site_fract_x
_atom_site_fract_y
_atom_site_fract_z
Si Si1 0.667937 0.350274 0.729917
Si Si2 0.833470 0.692635 0.891207
Si Si3 0.343891 0.789575 0.110267
Si Si4 0.836066 0.943119 0.269693
Si Si5 0.332946 0.096259 0.893928
Si Si6 0.331008 0.557151 0.604320
Si Si7 0.833593 0.152255 0.608195
Si Si8 0.334103 0.251481 0.607124
O O1 0.500000 0.353793 0.749724
O O2 0.751227 0.349254 0.828649
O O3 0.727305 0.400507 0.676274
O O4 0.707730 0.300838 0.667979
O O5 0.774013 0.748353 0.860007
O O6 0.000000 0.691270 0.869613
O O7 0.801428 0.681088 0.000000
O O8 0.500000 0.774227 0.152799
O O9 0.297294 0.846145 0.143487
O O10 0.360863 0.792164 0.000000
O O11 0.749893 0.942475 0.172817
O O12 0.780257 0.899644 0.340949
O O13 0.000000 0.932936 0.245507
O O14 0.815210 0.000000 0.314489
O O15 0.500000 0.085297 0.887733
O O16 0.279182 0.088156 0.000000
O O17 0.270765 0.567990 0.500000
O O18 0.500000 0.561298 0.600283
O O19 0.284335 0.500000 0.637543
O O20 0.796361 0.144294 0.500000
O O21 0.749453 0.201954 0.647397
O O22 0.000000 0.162164 0.624255
O O23 0.289843 0.263015 0.500000
O O24 0.500000 0.239047 0.614620
#
# Coordination Sequence:
#
# PCOD8195246 Si02
#       8
#     8   8   8   8   8   8   8   8
#     4  10  19  30  50  79 107 138 173 210 253 299
#     4  10  21  34  47  68 101 139 177 215 254 297
#     4   8  15  30  50  70  93 123 161 203 247 297
#     4  10  22  37  52  73  98 126 165 210 252 297
#     4   9  19  35  54  75  99 128 161 199 247 304
#     4   8  14  27  50  80 111 140 173 215 258 301
#     4   9  19  36  55  73  96 128 164 203 248 298
#     4   9  18  32  50  75 106 134 159 193 243 304
#
# _framework density 18.338540999999999
#
# number of rings (size 3 to 8) (size 9 to 14) (size 15 to 20)
#    0.000    2.875    0.000    1.875    1.750    4.750 
#    0.000    3.750    0.000    1.875    0.000    6.125 
#    0.000    0.000    0.000    0.000    0.000    0.000 
#
# Total GULP energy -793424.844279 kJ/mol
# GULP energy per Si atom -12397.263192 kJ/mol
# Density = 1.829680 g / cm^3
# Si number density = 18.338541 Si / 1000 Ang^3
#
#
#
# Elastic Constant Matrix: (Units=GPa)
#
#
# Indices 1 2 3 4 5 6 
#
# 1 50.9293 44.8684 36.1977 0.0000 0.0000 0.0000
# 2 44.8684 130.5460 59.8027 0.0000 0.0000 0.0000
# 3 36.1977 59.8027 74.3337 0.0000 0.0000 0.0000
# 4 0.0000 0.0000 0.0000 31.0068 0.0000 0.0000
# 5 0.0000 0.0000 0.0000 0.0000 24.0095 0.0000
# 6 0.0000 0.0000 0.0000 0.0000 0.0000 -3.7456
#
#
#
# Elastic Compliance Matrix: (Units=1/GPa)
#
#
# Indices 1 2 3 4 5 6 
#
# 1 0.033009 -0.006306 -0.011001 0.000000 0.000000 0.000000
# 2 -0.006306 0.013335 -0.007658 0.000000 0.000000 0.000000
# 3 -0.011001 -0.007658 0.024971 0.000000 0.000000 0.000000
# 4 0.000000 0.000000 0.000000 0.032251 0.000000 0.000000
# 5 0.000000 0.000000 0.000000 0.000000 0.041650 0.000000
# 6 0.000000 0.000000 0.000000 0.000000 0.000000 -0.266983
#
#
# Mechanical properties :
#
#
# Convention : Reuss Voigt Hill
#
# Bulk Modulus (GPa) = 46.75955 59.72738 53.24346
# Shear Modulus (GPa) = -77.27101 17.91683 -29.67709
#
# Velocity S-wave (km/s) = -6.49826 3.12910 -4.02716
# Velocity P-wave (km/s) = 5.54525 6.75981 2.73361
#
# Compressibility (1/GPa) = 0.02138601
#
# Stress axis : x y z
#
# Youngs Moduli (GPa) = 30.29443 74.98802 40.04631
#
# Poissons Ratio (x) = 0.47284 0.44056
# Poissons Ratio (y) = 0.19102 0.30668
# Poissons Ratio (z) = 0.33328 0.57426
#
# Static dielectric constant tensor:
#      x y z
#    x 3.135980 0.000000 0.000000 
#    y 0.000000 3.495690 0.000000 
#    z 0.000000 0.000000 3.399470 
# 
# 
# High freq. dielectric constant tensor:
#      x y z
#    x 1.687500 0.000000 0.000000 
#    y 0.000000 1.701400 0.000000 
#    z 0.000000 0.000000 1.709430 
# 
# From -- ./inp_files/21943.got.cif
#   From: 2010.03.12/outbox.cif.g09.slc.cpg/sg47_11_cif.got.tgz:21943.got - 2010.04.14 03:12:58.
