data_PCOD8195270
_publ_section_title
;
Structure prediction by ZEFSAII (Michael W. Deem and Ramdas Pophale) SiO2 
 PCOD8195270
Probable space group: P M M M
;
_chemical_formula_sum "Si O2"
_cell_formula_units_Z 40
_cell_length_a 16.907799
_cell_length_b 18.622555
_cell_length_c 8.811202
_cell_angle_alpha 90.000000
_cell_angle_beta 90.000000
_cell_angle_gamma 90.000000
_cell_volume 2774.351601
_symmetry_space_group_name_H-M "P M M M"
_symmetry_group_IT_number 47
_symmetry_cell_setting 'orthorhombic'
loop_
_space_group_symop_operation_xyz
x,y,z
-x,-y,z
x,-y,-z
-x,y,-z
-x,-y,-z
x,y,-z
-x,y,z
x,-y,z
loop_
_atom_site_type_symbol
_atom_site_label
_atom_site_fract_x
_atom_site_fract_y
_atom_site_fract_z
Si Si1 0.839373 0.415982 0.677306
Si Si2 0.406029 0.923994 0.829938
Si Si3 0.593381 0.500000 0.674998
Si Si4 0.318107 0.632100 0.819921
Si Si5 0.588895 0.229600 0.818681
Si Si6 0.000000 0.585296 0.170896
O O1 0.836755 0.400197 0.500000
O O2 0.827384 0.500000 0.712631
O O3 0.770916 0.372189 0.760338
O O4 0.922426 0.387019 0.741869
O O5 0.500000 0.920409 0.836225
O O6 0.379009 0.848071 0.753812
O O7 0.379958 0.000000 0.747648
O O8 0.371894 0.927178 0.000000
O O9 0.500000 0.500000 0.695000
O O10 0.619821 0.500000 0.500000
O O11 0.627625 0.429966 0.753415
O O12 0.353265 0.707766 0.762065
O O13 0.318777 0.625564 0.000000
O O14 0.500000 0.245781 0.759119
O O15 0.587675 0.225614 0.000000
O O16 0.000000 0.500000 0.170856
O O17 0.000000 0.615711 0.000000
#
# Coordination Sequence:
#
# PCOD8195270 Si02
#       6
#     8   8   4   8   8   4
#     4  10  19  31  45  60  81 105 131 163 202 244
#     4   7   9  15  29  48  71  99 127 156 196 245
#     4  11  23  35  43  52  71 102 141 181 215 245
#     4  11  20  29  43  59  78 104 137 174 208 239
#     4   8  14  23  34  52  77 103 134 171 207 240
#     4   9  17  29  47  67  83  97 124 161 199 244
#
# _framework density 14.417783999999999
#
# number of rings (size 3 to 8) (size 9 to 14) (size 15 to 20)
#    0.000    2.800    1.000    4.200    0.000    3.600 
#    0.000    0.000    0.000    0.000    0.000    0.000 
#    0.000    3.200    0.000   23.500    0.000   39.600 
#
# Total GULP energy -495541.269399 kJ/mol
# GULP energy per Si atom -12388.531735 kJ/mol
# Density = 1.438497 g / cm^3
# Si number density = 14.417784 Si / 1000 Ang^3
#
#
#
# Elastic Constant Matrix: (Units=GPa)
#
#
# Indices 1 2 3 4 5 6 
#
# 1 91.1651 56.3322 33.6824 0.0000 0.0000 0.0000
# 2 56.3322 133.3657 33.2921 0.0000 0.0000 0.0000
# 3 33.6824 33.2921 53.0060 0.0000 0.0000 0.0000
# 4 0.0000 0.0000 0.0000 -0.4321 0.0000 0.0000
# 5 0.0000 0.0000 0.0000 0.0000 20.5148 0.0000
# 6 0.0000 0.0000 0.0000 0.0000 0.0000 3.8568
#
#
#
# Elastic Compliance Matrix: (Units=1/GPa)
#
#
# Indices 1 2 3 4 5 6 
#
# 1 0.017019 -0.005324 -0.007471 0.000000 0.000000 0.000000
# 2 -0.005324 0.010558 -0.003248 0.000000 0.000000 0.000000
# 3 -0.007471 -0.003248 0.025653 0.000000 0.000000 0.000000
# 4 0.000000 0.000000 0.000000 -2.314343 0.000000 0.000000
# 5 0.000000 0.000000 0.000000 0.000000 0.048745 0.000000
# 6 0.000000 0.000000 0.000000 0.000000 0.000000 0.259281
#
#
# Mechanical properties :
#
#
# Convention : Reuss Voigt Hill
#
# Bulk Modulus (GPa) = 47.29391 58.23892 52.76642
# Shear Modulus (GPa) = -2.61239 15.06990 6.22875
#
# Velocity S-wave (km/s) = -1.34754 3.23651 2.08076
# Velocity P-wave (km/s) = 5.51838 7.37890 6.51539
#
# Compressibility (1/GPa) = 0.02114437
#
# Stress axis : x y z
#
# Youngs Moduli (GPa) = 58.75815 94.71776 38.98135
#
# Poissons Ratio (x) = 0.50424 0.29123
# Poissons Ratio (y) = 0.31281 0.12662
# Poissons Ratio (z) = 0.43898 0.30766
#
# Static dielectric constant tensor:
#      x y z
#    x 2.728210 0.000000 0.000000 
#    y 0.000000 3.635880 0.000000 
#    z 0.000000 0.000000 2.647550 
# 
# 
# High freq. dielectric constant tensor:
#      x y z
#    x 1.524430 0.000000 0.000000 
#    y 0.000000 1.539710 0.000000 
#    z 0.000000 0.000000 1.531530 
# 
# From -- ./inp_files/9327.got.cif
#   From: 2010.03.12/outbox.cif.g09.slc.cpg/sg47_5_cif.got.tgz:9327.got - 2010.04.14 03:12:58.
