data_PCOD8195037
_publ_section_title
;
Structure prediction by ZEFSAII (Michael W. Deem and Ramdas Pophale) SiO2 
 PCOD8195037
Probable space group: P M M M
;
_chemical_formula_sum "Si O2"
_cell_formula_units_Z 44
_cell_length_a 9.172409
_cell_length_b 13.772552
_cell_length_c 21.463123
_cell_angle_alpha 90.000000
_cell_angle_beta 90.000000
_cell_angle_gamma 90.000000
_cell_volume 2711.382240
_symmetry_space_group_name_H-M "P M M M"
_symmetry_group_IT_number 47
_symmetry_cell_setting 'orthorhombic'
loop_
_space_group_symop_operation_xyz
x,y,z
-x,-y,z
x,-y,-z
-x,y,-z
-x,-y,-z
x,y,-z
-x,y,z
x,-y,z
loop_
_atom_site_type_symbol
_atom_site_label
_atom_site_fract_x
_atom_site_fract_y
_atom_site_fract_z
Si Si1 0.668837 0.226283 0.069330
Si Si2 0.658148 0.385695 0.500000
Si Si3 0.670945 0.888598 0.810372
Si Si4 0.170461 0.609327 0.133159
Si Si5 0.674098 0.388462 0.635054
Si Si6 0.828562 0.723397 0.743274
O O1 0.500000 0.251208 0.075866
O O2 0.714562 0.145008 0.119674
O O3 0.753159 0.326530 0.080579
O O4 0.706244 0.187249 0.000000
O O5 0.633819 0.500000 0.500000
O O6 0.500000 0.334675 0.500000
O O7 0.735251 0.358655 0.565718
O O8 0.500000 0.872975 0.798283
O O9 0.760915 0.828151 0.759440
O O10 0.716746 0.000000 0.803293
O O11 0.230178 0.500000 0.128454
O O12 0.208768 0.648866 0.201557
O O13 0.000000 0.613817 0.120412
O O14 0.500000 0.374930 0.638761
O O15 0.715641 0.500000 0.650533
O O16 0.754244 0.316429 0.681436
O O17 0.000000 0.734916 0.732420
#
# Coordination Sequence:
#
# PCOD8195037 Si02
#       6
#     8   4   8   8   8   8
#     4   9  18  31  46  66  89 110 137 177 224 270
#     4   7  12  24  41  63  92 125 158 187 213 246
#     4   9  18  33  51  68  86 110 143 183 226 274
#     4   9  18  31  44  59  84 119 153 181 211 252
#     4   9  16  27  45  68  95 127 159 187 215 251
#     4  10  19  30  45  66  92 119 149 186 226 267
#
# _framework density 16.227886000000002
#
# number of rings (size 3 to 8) (size 9 to 14) (size 15 to 20)
#    0.000    3.000    0.000    2.182    0.000    3.636 
#    0.000    4.091    0.000    1.636    0.000    5.727 
#    0.000    5.091    0.000    0.000    0.000    0.000 
#
# Total GULP energy -545362.186220 kJ/mol
# GULP energy per Si atom -12394.595141 kJ/mol
# Density = 1.619095 g / cm^3
# Si number density = 16.227886 Si / 1000 Ang^3
#
#
#
# Elastic Constant Matrix: (Units=GPa)
#
#
# Indices 1 2 3 4 5 6 
#
# 1 42.7830 40.5649 42.4642 0.0000 0.0000 0.0000
# 2 40.5649 113.9581 59.1067 0.0000 0.0000 0.0000
# 3 42.4642 59.1067 126.4494 0.0000 0.0000 0.0000
# 4 0.0000 0.0000 0.0000 18.8719 0.0000 0.0000
# 5 0.0000 0.0000 0.0000 0.0000 14.6783 0.0000
# 6 0.0000 0.0000 0.0000 0.0000 0.0000 20.5920
#
#
#
# Elastic Compliance Matrix: (Units=1/GPa)
#
#
# Indices 1 2 3 4 5 6 
#
# 1 0.042460 -0.010189 -0.009496 0.000000 0.000000 0.000000
# 2 -0.010189 0.014028 -0.003136 0.000000 0.000000 0.000000
# 3 -0.009496 -0.003136 0.012563 0.000000 0.000000 0.000000
# 4 0.000000 0.000000 0.000000 0.052989 0.000000 0.000000
# 5 0.000000 0.000000 0.000000 0.000000 0.068128 0.000000
# 6 0.000000 0.000000 0.000000 0.000000 0.000000 0.048562
#
#
# Mechanical properties :
#
#
# Convention : Reuss Voigt Hill
#
# Bulk Modulus (GPa) = 42.71723 63.05135 52.88429
# Shear Modulus (GPa) = 17.11301 20.23208 18.67255
#
# Velocity S-wave (km/s) = 3.25090 3.53476 3.39580
# Velocity P-wave (km/s) = 6.36173 7.45637 6.93069
#
# Compressibility (1/GPa) = 0.02340976
#
# Stress axis : x y z
#
# Youngs Moduli (GPa) = 23.55170 71.28407 79.59810
#
# Poissons Ratio (x) = 0.72629 0.75589
# Poissons Ratio (y) = 0.23996 0.24960
# Poissons Ratio (z) = 0.22365 0.22353
#
# Static dielectric constant tensor:
#      x y z
#    x 2.935950 0.000000 0.000000 
#    y 0.000000 2.960890 0.000000 
#    z 0.000000 0.000000 3.247430 
# 
# 
# High freq. dielectric constant tensor:
#      x y z
#    x 1.612750 0.000000 0.000000 
#    y 0.000000 1.601350 0.000000 
#    z 0.000000 0.000000 1.624860 
# 
# From -- ./inp_files/6810.got.cif
#   From: 2010.03.12/outbox.cif.g09.slc.cpg/sg47_4_cif.got.tgz:6810.got - 2010.04.14 03:12:58.
