data_PCOD8195302
_publ_section_title
;
Structure prediction by ZEFSAII (Michael W. Deem and Ramdas Pophale) SiO2 
 PCOD8195302
Probable space group: P M M M
;
_chemical_formula_sum "Si O2"
_cell_formula_units_Z 32
_cell_length_a 22.445660
_cell_length_b 9.813684
_cell_length_c 7.965038
_cell_angle_alpha 90.000000
_cell_angle_beta 90.000000
_cell_angle_gamma 90.000000
_cell_volume 1754.495674
_symmetry_space_group_name_H-M "P M M M"
_symmetry_group_IT_number 47
_symmetry_cell_setting 'orthorhombic'
loop_
_space_group_symop_operation_xyz
x,y,z
-x,-y,z
x,-y,-z
-x,y,-z
-x,-y,-z
x,y,-z
-x,y,z
x,-y,z
loop_
_atom_site_type_symbol
_atom_site_label
_atom_site_fract_x
_atom_site_fract_y
_atom_site_fract_z
Si Si1 0.000000 0.161128 0.183114
Si Si2 0.232854 0.347358 0.306827
Si Si3 0.358189 0.338103 0.814619
Si Si4 0.128398 0.154906 0.200100
Si Si5 0.567420 0.337255 0.500000
O O1 0.937244 0.200341 0.272749
O O2 0.000000 0.000000 0.158866
O O3 0.000000 0.230965 0.000000
O O4 0.251459 0.350791 0.500000
O O5 0.216848 0.500000 0.244051
O O6 0.290051 0.288009 0.208238
O O7 0.176491 0.252195 0.281562
O O8 0.358739 0.500000 0.800542
O O9 0.400655 0.278739 0.668140
O O10 0.380535 0.290866 0.000000
O O11 0.142808 0.000000 0.254004
O O12 0.128782 0.168376 0.000000
O O13 0.569037 0.500000 0.500000
O O14 0.500000 0.282828 0.500000
#
# Coordination Sequence:
#
# PCOD8195302 Si02
#       5
#     4   8   8   8   4
#     4   7  12  26  46  65  88 118 150 191 244 294
#     4  10  19  31  46  65  93 128 163 199 240 287
#     4   9  16  27  43  62  88 124 161 196 238 285
#     4   9  17  30  49  71  92 117 155 201 246 293
#     4   9  16  26  40  62  93 124 157 196 234 281
#
# _framework density 18.238858
#
# number of rings (size 3 to 8) (size 9 to 14) (size 15 to 20)
#    0.000    3.000    1.250    2.250    0.000    2.500 
#    0.000    3.750    0.000    6.000    0.000    0.000 
#    0.000    2.000    0.000    5.250    0.000    5.000 
#
# Total GULP energy -396449.838020 kJ/mol
# GULP energy per Si atom -12389.057438 kJ/mol
# Density = 1.819735 g / cm^3
# Si number density = 18.238858 Si / 1000 Ang^3
#
#
#
# Elastic Constant Matrix: (Units=GPa)
#
#
# Indices 1 2 3 4 5 6 
#
# 1 151.0796 35.6927 59.7301 0.0000 0.0000 0.0000
# 2 35.6927 37.1587 15.6212 0.0000 0.0000 0.0000
# 3 59.7301 15.6212 98.8960 0.0000 0.0000 0.0000
# 4 0.0000 0.0000 0.0000 14.2063 0.0000 0.0000
# 5 0.0000 0.0000 0.0000 0.0000 26.1020 0.0000
# 6 0.0000 0.0000 0.0000 0.0000 0.0000 -30.4749
#
#
#
# Elastic Compliance Matrix: (Units=1/GPa)
#
#
# Indices 1 2 3 4 5 6 
#
# 1 0.010512 -0.007957 -0.005092 0.000000 0.000000 0.000000
# 2 -0.007957 0.034848 -0.000699 0.000000 0.000000 0.000000
# 3 -0.005092 -0.000699 0.013298 0.000000 0.000000 0.000000
# 4 0.000000 0.000000 0.000000 0.070391 0.000000 0.000000
# 5 0.000000 0.000000 0.000000 0.000000 0.038311 0.000000
# 6 0.000000 0.000000 0.000000 0.000000 0.000000 -0.032814
#
#
# Mechanical properties :
#
#
# Convention : Reuss Voigt Hill
#
# Bulk Modulus (GPa) = 32.09002 56.58025 44.33513
# Shear Modulus (GPa) = 28.99744 13.70602 21.35173
#
# Velocity S-wave (km/s) = 3.99164 2.74428 3.42522
# Velocity P-wave (km/s) = 6.23513 6.41331 6.32485
#
# Compressibility (1/GPa) = 0.03116234
#
# Stress axis : x y z
#
# Youngs Moduli (GPa) = 95.12954 28.69598 75.20197
#
# Poissons Ratio (x) = 0.22832 0.38294
# Poissons Ratio (y) = 0.75691 0.05256
# Poissons Ratio (z) = 0.48441 0.02006
#
# Static dielectric constant tensor:
#      x y z
#    x 3.659630 0.000000 0.000000 
#    y 0.000000 2.816640 0.000000 
#    z 0.000000 0.000000 3.382530 
# 
# 
# High freq. dielectric constant tensor:
#      x y z
#    x 1.717840 0.000000 0.000000 
#    y 0.000000 1.634050 0.000000 
#    z 0.000000 0.000000 1.705520 
# 
# From -- ./inp_files/1094.got.cif
#   From: 2010.03.12/outbox.cif.g09.slc.cpg/sg47_1_cif.got.tgz:1094.got - 2010.04.14 03:12:58.
