data_PCOD8195132
_publ_section_title
;
Structure prediction by ZEFSAII (Michael W. Deem and Ramdas Pophale) SiO2 
 PCOD8195132
Probable space group: P M M M
;
_chemical_formula_sum "Si O2"
_cell_formula_units_Z 52
_cell_length_a 7.935714
_cell_length_b 18.647791
_cell_length_c 18.708775
_cell_angle_alpha 90.000000
_cell_angle_beta 90.000000
_cell_angle_gamma 90.000000
_cell_volume 2768.590681
_symmetry_space_group_name_H-M "P M M M"
_symmetry_group_IT_number 47
_symmetry_cell_setting 'orthorhombic'
loop_
_space_group_symop_operation_xyz
x,y,z
-x,-y,z
x,-y,-z
-x,y,-z
-x,-y,-z
x,y,-z
-x,y,z
x,-y,z
loop_
_atom_site_type_symbol
_atom_site_label
_atom_site_fract_x
_atom_site_fract_y
_atom_site_fract_z
Si Si1 0.697638 0.919205 0.919370
Si Si2 0.801227 0.079581 0.650680
Si Si3 0.309391 0.297266 0.714206
Si Si4 0.191632 0.163805 0.212948
Si Si5 0.000000 0.415561 0.079543
Si Si6 0.697531 0.416635 0.817993
Si Si7 0.697289 0.219458 0.578148
O O1 0.500000 0.915431 0.905815
O O2 0.789467 0.864305 0.867207
O O3 0.762716 0.000000 0.905367
O O4 0.742297 0.896016 0.000000
O O5 0.749242 0.102878 0.731089
O O6 0.726521 0.135595 0.594198
O O7 0.000000 0.078217 0.641751
O O8 0.726569 0.000000 0.636636
O O9 0.500000 0.310315 0.692957
O O10 0.298102 0.235964 0.775005
O O11 0.242960 0.371898 0.747725
O O12 0.218139 0.269696 0.640594
O O13 0.000000 0.185416 0.227377
O O14 0.173890 0.392527 0.119213
O O15 0.000000 0.500000 0.072529
O O16 0.000000 0.380895 0.000000
O O17 0.500000 0.400383 0.838660
O O18 0.720727 0.500000 0.799323
O O19 0.775623 0.237862 0.500000
O O20 0.500000 0.233359 0.576145
#
# Coordination Sequence:
#
# PCOD8195132 Si02
#       7
#     8   8   8   8   4   8   8
#     4   9  18  32  48  65  88 121 159 199 245 294
#     4   9  18  31  45  64  92 124 158 199 247 297
#     4   9  18  33  52  72  97 129 163 201 247 298
#     4  10  19  30  47  69  92 120 159 204 247 294
#     4   9  18  32  52  80 111 139 168 207 253 299
#     4   9  18  33  55  81 107 139 178 215 254 304
#     4   9  18  32  49  70  96 126 161 202 248 297
#
# _framework density 18.782119999999999
#
# number of rings (size 3 to 8) (size 9 to 14) (size 15 to 20)
#    0.000    2.846    0.000    1.385    1.077    3.077 
#    0.000    4.615    0.000    1.385    0.000    3.231 
#    0.000    1.846    0.000    0.154    0.000    0.000 
#
# Total GULP energy -644313.188761 kJ/mol
# GULP energy per Si atom -12390.638245 kJ/mol
# Density = 1.873937 g / cm^3
# Si number density = 18.782120 Si / 1000 Ang^3
#
#
#
# Elastic Constant Matrix: (Units=GPa)
#
#
# Indices 1 2 3 4 5 6 
#
# 1 44.0283 22.6651 29.8063 0.0000 0.0000 0.0000
# 2 22.6651 86.5959 67.9479 0.0000 0.0000 0.0000
# 3 29.8063 67.9479 149.1047 0.0000 0.0000 0.0000
# 4 0.0000 0.0000 0.0000 1.4994 0.0000 0.0000
# 5 0.0000 0.0000 0.0000 0.0000 18.0384 0.0000
# 6 0.0000 0.0000 0.0000 0.0000 0.0000 16.7685
#
#
#
# Elastic Compliance Matrix: (Units=1/GPa)
#
#
# Indices 1 2 3 4 5 6 
#
# 1 0.027332 -0.004462 -0.003430 0.000000 0.000000 0.000000
# 2 -0.004462 0.018704 -0.007631 0.000000 0.000000 0.000000
# 3 -0.003430 -0.007631 0.010870 0.000000 0.000000 0.000000
# 4 0.000000 0.000000 0.000000 0.666942 0.000000 0.000000
# 5 0.000000 0.000000 0.000000 0.000000 0.055437 0.000000
# 6 0.000000 0.000000 0.000000 0.000000 0.000000 0.059636
#
#
# Mechanical properties :
#
#
# Convention : Reuss Voigt Hill
#
# Bulk Modulus (GPa) = 38.67250 57.84082 48.25666
# Shear Modulus (GPa) = 5.69095 17.88190 11.78642
#
# Velocity S-wave (km/s) = 1.74257 3.08891 2.50778
# Velocity P-wave (km/s) = 4.96825 6.60185 5.84243
#
# Compressibility (1/GPa) = 0.02585817
#
# Stress axis : x y z
#
# Youngs Moduli (GPa) = 36.58720 53.46490 91.99529
#
# Poissons Ratio (x) = 0.23857 0.31557
# Poissons Ratio (y) = 0.16326 0.70206
# Poissons Ratio (z) = 0.12550 0.40802
#
# Static dielectric constant tensor:
#      x y z
#    x 3.348650 0.000000 0.000000 
#    y 0.000000 3.385240 0.000000 
#    z 0.000000 0.000000 3.841530 
# 
# 
# High freq. dielectric constant tensor:
#      x y z
#    x 1.720880 0.000000 0.000000 
#    y 0.000000 1.706240 0.000000 
#    z 0.000000 0.000000 1.724020 
# 
# From -- ./inp_files/26747.got.cif
#   From: 2010.03.12/outbox.cif.g09.slc.cpg/sg47_14_cif.got.tgz:26747.got - 2010.04.14 03:12:58.
