data_PCOD8195964
_publ_section_title
;
Structure prediction by ZEFSAII (Michael W. Deem and Ramdas Pophale) SiO2 
 PCOD8195964
Probable space group: P M M M
;
_chemical_formula_sum "Si O2"
_cell_formula_units_Z 52
_cell_length_a 8.833773
_cell_length_b 27.699166
_cell_length_c 12.527722
_cell_angle_alpha 90.000000
_cell_angle_beta 90.000000
_cell_angle_gamma 90.000000
_cell_volume 3065.385054
_symmetry_space_group_name_H-M "P M M M"
_symmetry_group_IT_number 47
_symmetry_cell_setting 'orthorhombic'
loop_
_space_group_symop_operation_xyz
x,y,z
-x,-y,z
x,-y,-z
-x,y,-z
-x,-y,-z
x,y,-z
-x,y,z
x,-y,z
loop_
_atom_site_type_symbol
_atom_site_label
_atom_site_fract_x
_atom_site_fract_y
_atom_site_fract_z
Si Si1 0.672785 0.944118 0.623363
Si Si2 0.829241 0.500000 0.372617
Si Si3 0.681031 0.228407 0.771738
Si Si4 0.177535 0.125594 0.216580
Si Si5 0.329759 0.403891 0.373029
Si Si6 0.334923 0.235236 0.000000
Si Si7 0.667739 0.120884 0.000000
Si Si8 0.825840 0.693595 0.374124
O O1 0.701796 0.932032 0.500000
O O2 0.500000 0.931255 0.654298
O O3 0.788967 0.912965 0.691855
O O4 0.705536 0.000000 0.646339
O O5 0.826929 0.500000 0.500000
O O6 0.745844 0.547448 0.327396
O O7 0.000000 0.500000 0.329480
O O8 0.500000 0.224233 0.776277
O O9 0.747541 0.175927 0.748003
O O10 0.730120 0.264070 0.678787
O O11 0.745025 0.248786 0.887093
O O12 0.000000 0.133670 0.204274
O O13 0.242653 0.104602 0.105616
O O14 0.329882 0.405814 0.500000
O O15 0.500000 0.400035 0.328471
O O16 0.235016 0.357904 0.332826
O O17 0.349054 0.177899 0.000000
O O18 0.500000 0.259741 0.000000
O O19 0.500000 0.097155 0.000000
O O20 0.802840 0.698534 0.500000
O O21 0.000000 0.698186 0.340940
#
# Coordination Sequence:
#
# PCOD8195964 Si02
#       8
#     8   4   8   8   8   4   4   8
#     4   9  19  37  58  76  96 127 166 202 236 280
#     4   9  15  23  37  57  81 112 151 194 237 277
#     4  10  19  33  52  71  94 126 162 196 233 283
#     4  11  21  33  52  78 104 127 155 195 243 289
#     4   9  16  26  40  58  82 116 157 195 232 280
#     4   7  14  29  49  70  88 112 150 195 234 267
#     4   9  17  33  54  74  99 129 160 193 232 281
#     4  10  20  32  44  63  95 129 159 196 242 285
#
# _framework density 16.963612000000001
#
# number of rings (size 3 to 8) (size 9 to 14) (size 15 to 20)
#    0.000    2.538    0.000    4.615    0.000    4.923 
#    0.000    2.308    0.000    2.308    0.000    0.000 
#    0.000    0.615    0.000    6.615    0.000    5.077 
#
# Total GULP energy -644605.372692 kJ/mol
# GULP energy per Si atom -12396.257167 kJ/mol
# Density = 1.692500 g / cm^3
# Si number density = 16.963612 Si / 1000 Ang^3
#
#
#
# Elastic Constant Matrix: (Units=GPa)
#
#
# Indices 1 2 3 4 5 6 
#
# 1 114.6131 44.3851 38.6707 0.0000 0.0000 0.0000
# 2 44.3851 88.3879 44.8035 0.0000 0.0000 0.0000
# 3 38.6707 44.8035 59.2631 0.0000 0.0000 0.0000
# 4 0.0000 0.0000 0.0000 -0.5118 0.0000 0.0000
# 5 0.0000 0.0000 0.0000 0.0000 21.2304 0.0000
# 6 0.0000 0.0000 0.0000 0.0000 0.0000 28.5303
#
#
#
# Elastic Compliance Matrix: (Units=1/GPa)
#
#
# Indices 1 2 3 4 5 6 
#
# 1 0.011741 -0.003263 -0.005195 0.000000 0.000000 0.000000
# 2 -0.003263 0.019250 -0.012424 0.000000 0.000000 0.000000
# 3 -0.005195 -0.012424 0.029656 0.000000 0.000000 0.000000
# 4 0.000000 0.000000 0.000000 -1.953917 0.000000 0.000000
# 5 0.000000 0.000000 0.000000 0.000000 0.047102 0.000000
# 6 0.000000 0.000000 0.000000 0.000000 0.000000 0.035050
#
#
# Mechanical properties :
#
#
# Convention : Reuss Voigt Hill
#
# Bulk Modulus (GPa) = 52.95415 57.55362 55.25388
# Shear Modulus (GPa) = -2.83598 18.81009 7.98706
#
# Velocity S-wave (km/s) = -1.29438 3.33355 2.17223
# Velocity P-wave (km/s) = 5.38982 6.98700 6.23972
#
# Compressibility (1/GPa) = 0.01888426
#
# Stress axis : x y z
#
# Youngs Moduli (GPa) = 85.16946 51.94808 33.71952
#
# Poissons Ratio (x) = 0.16950 0.17517
# Poissons Ratio (y) = 0.27789 0.41894
# Poissons Ratio (z) = 0.44244 0.64541
#
# Static dielectric constant tensor:
#      x y z
#    x 3.238550 0.000000 0.000000 
#    y 0.000000 3.059830 0.000000 
#    z 0.000000 0.000000 3.130300 
# 
# 
# High freq. dielectric constant tensor:
#      x y z
#    x 1.661520 0.000000 0.000000 
#    y 0.000000 1.641370 0.000000 
#    z 0.000000 0.000000 1.625290 
# 
# From -- ./inp_files/4848.got.cif
#   From: 2010.03.12/outbox.cif.g09.slc.cpg/sg47_3_cif.got.tgz:4848.got - 2010.04.14 03:12:58.
