data_PCOD8195968
_publ_section_title
;
Structure prediction by ZEFSAII (Michael W. Deem and Ramdas Pophale) SiO2 
 PCOD8195968
Probable space group: P M M M
;
_chemical_formula_sum "Si O2"
_cell_formula_units_Z 52
_cell_length_a 18.671838
_cell_length_b 10.232634
_cell_length_c 14.919787
_cell_angle_alpha 90.000000
_cell_angle_beta 90.000000
_cell_angle_gamma 90.000000
_cell_volume 2850.605602
_symmetry_space_group_name_H-M "P M M M"
_symmetry_group_IT_number 47
_symmetry_cell_setting 'orthorhombic'
loop_
_space_group_symop_operation_xyz
x,y,z
-x,-y,z
x,-y,-z
-x,y,-z
-x,-y,-z
x,y,-z
-x,y,z
x,-y,z
loop_
_atom_site_type_symbol
_atom_site_label
_atom_site_fract_x
_atom_site_fract_y
_atom_site_fract_z
Si Si1 0.420096 0.655461 0.251256
Si Si2 0.313772 0.350640 0.101269
Si Si3 0.683967 0.345510 0.401881
Si Si4 0.846101 0.651116 0.605485
Si Si5 0.079254 0.500000 0.894113
Si Si6 0.081837 0.144748 0.735118
Si Si7 0.839550 0.242836 0.896148
O O1 0.500000 0.715653 0.252082
O O2 0.424363 0.500000 0.256824
O O3 0.379510 0.699330 0.161206
O O4 0.374725 0.713427 0.334274
O O5 0.292015 0.500000 0.125354
O O6 0.245438 0.258340 0.116057
O O7 0.341173 0.341702 0.000000
O O8 0.669478 0.284477 0.500000
O O9 0.675828 0.500000 0.407301
O O10 0.764197 0.312707 0.369572
O O11 0.860054 0.673253 0.500000
O O12 0.862768 0.500000 0.630438
O O13 0.895366 0.747190 0.662695
O O14 0.122454 0.625440 0.862360
O O15 0.000000 0.500000 0.851098
O O16 0.074332 0.500000 0.000000
O O17 0.129771 0.138428 0.826138
O O18 0.000000 0.173640 0.762687
O O19 0.089034 0.000000 0.691816
O O20 0.857788 0.207127 0.000000
#
# Coordination Sequence:
#
# PCOD8195968 Si02
#       7
#     8   8   8   8   4   8   8
#     4   9  16  23  34  58  95 137 170 194 233 297
#     4   9  16  27  43  64  91 125 168 214 257 295
#     4   8  14  26  45  68  93 121 157 203 250 293
#     4   9  19  37  60  81  99 128 174 221 260 301
#     4   9  16  26  44  72  96 116 156 213 262 298
#     4  11  25  39  51  74 107 141 171 204 259 320
#     4  10  19  33  52  72  97 132 173 216 259 305
#
# _framework density 18.241737000000001
#
# number of rings (size 3 to 8) (size 9 to 14) (size 15 to 20)
#    0.000    2.692    0.769    2.308    1.077    4.000 
#    0.000    5.385    0.000    0.000    0.000    0.000 
#    0.000    9.846    0.000   27.077    0.000   11.077 
#
# Total GULP energy -644518.601385 kJ/mol
# GULP energy per Si atom -12394.588488 kJ/mol
# Density = 1.820022 g / cm^3
# Si number density = 18.241737 Si / 1000 Ang^3
#
#
#
# Elastic Constant Matrix: (Units=GPa)
#
#
# Indices 1 2 3 4 5 6 
#
# 1 117.3330 33.4637 61.5526 0.0000 0.0000 0.0000
# 2 33.4637 52.7280 35.2679 0.0000 0.0000 0.0000
# 3 61.5526 35.2679 101.6004 0.0000 0.0000 0.0000
# 4 0.0000 0.0000 0.0000 13.8649 0.0000 0.0000
# 5 0.0000 0.0000 0.0000 0.0000 27.4328 0.0000
# 6 0.0000 0.0000 0.0000 0.0000 0.0000 7.7080
#
#
#
# Elastic Compliance Matrix: (Units=1/GPa)
#
#
# Indices 1 2 3 4 5 6 
#
# 1 0.013084 -0.003910 -0.006570 0.000000 0.000000 0.000000
# 2 -0.003910 0.025868 -0.006611 0.000000 0.000000 0.000000
# 3 -0.006570 -0.006611 0.016117 0.000000 0.000000 0.000000
# 4 0.000000 0.000000 0.000000 0.072125 0.000000 0.000000
# 5 0.000000 0.000000 0.000000 0.000000 0.036453 0.000000
# 6 0.000000 0.000000 0.000000 0.000000 0.000000 0.129735
#
#
# Mechanical properties :
#
#
# Convention : Reuss Voigt Hill
#
# Bulk Modulus (GPa) = 47.87109 59.13663 53.50386
# Shear Modulus (GPa) = 14.94651 19.22628 17.08640
#
# Velocity S-wave (km/s) = 2.86555 3.25002 3.06382
# Velocity P-wave (km/s) = 6.10312 6.82438 6.47380
#
# Compressibility (1/GPa) = 0.02088943
#
# Stress axis : x y z
#
# Youngs Moduli (GPa) = 76.42784 38.65735 62.04465
#
# Poissons Ratio (x) = 0.15114 0.40761
# Poissons Ratio (y) = 0.29880 0.41017
# Poissons Ratio (z) = 0.50211 0.25556
#
# Static dielectric constant tensor:
#      x y z
#    x 3.483980 0.000000 0.000000 
#    y 0.000000 2.881480 0.000000 
#    z 0.000000 0.000000 3.494050 
# 
# 
# High freq. dielectric constant tensor:
#      x y z
#    x 1.708100 0.000000 0.000000 
#    y 0.000000 1.644310 0.000000 
#    z 0.000000 0.000000 1.715000 
# 
# From -- ./inp_files/24612.got.cif
#   From: 2010.03.12/outbox.cif.g09.slc.cpg/sg47_13_cif.got.tgz:24612.got - 2010.04.14 03:12:58.
