data_PCOD8195297
_publ_section_title
;
Structure prediction by ZEFSAII (Michael W. Deem and Ramdas Pophale) SiO2 
 PCOD8195297
Probable space group: P M M M
;
_chemical_formula_sum "Si O2"
_cell_formula_units_Z 64
_cell_length_a 14.138638
_cell_length_b 31.295453
_cell_length_c 9.042171
_cell_angle_alpha 90.000000
_cell_angle_beta 90.000000
_cell_angle_gamma 90.000000
_cell_volume 4000.935346
_symmetry_space_group_name_H-M "P M M M"
_symmetry_group_IT_number 47
_symmetry_cell_setting 'orthorhombic'
loop_
_space_group_symop_operation_xyz
x,y,z
-x,-y,z
x,-y,-z
-x,y,-z
-x,-y,-z
x,y,-z
-x,y,z
x,-y,z
loop_
_atom_site_type_symbol
_atom_site_label
_atom_site_fract_x
_atom_site_fract_y
_atom_site_fract_z
Si Si1 0.220066 0.627861 0.824155
Si Si2 0.112330 0.046596 0.167272
Si Si3 0.107117 0.129631 0.674516
Si Si4 0.889893 0.703304 0.328779
Si Si5 0.607302 0.752112 0.171539
Si Si6 0.392685 0.662556 0.327816
Si Si7 0.776834 0.788784 0.326849
Si Si8 0.894292 0.452895 0.824463
O O1 0.156097 0.667146 0.772182
O O2 0.324359 0.629200 0.753316
O O3 0.174837 0.583768 0.764179
O O4 0.228223 0.629010 0.000000
O O5 0.152554 0.085481 0.265197
O O6 0.000000 0.046615 0.176663
O O7 0.149222 0.000000 0.224024
O O8 0.146498 0.053808 0.000000
O O9 0.107635 0.127316 0.500000
O O10 0.169083 0.169283 0.730729
O O11 0.000000 0.136007 0.733260
O O12 0.873923 0.691428 0.500000
O O13 0.842164 0.748304 0.289836
O O14 0.000000 0.706996 0.289928
O O15 0.500000 0.768349 0.194833
O O16 0.625850 0.708878 0.260553
O O17 0.678512 0.787208 0.236875
O O18 0.628595 0.743371 0.000000
O O19 0.367372 0.665098 0.500000
O O20 0.500000 0.647333 0.301130
O O21 0.753847 0.791562 0.500000
O O22 0.859046 0.500000 0.772604
O O23 0.000000 0.444502 0.762833
O O24 0.897096 0.450994 0.000000
#
# Coordination Sequence:
#
# PCOD8195297 Si02
#       8
#     8   8   8   8   8   8   8   8
#     4  11  20  30  49  75  97 117 151 196 234 270
#     4   8  14  25  40  58  82 114 153 195 236 274
#     4   9  17  28  42  62  89 122 159 193 224 263
#     4  10  20  32  45  63  92 130 162 186 219 266
#     4  10  20  33  49  69  91 115 149 195 238 271
#     4  10  20  34  51  69  91 121 154 186 228 282
#     4  10  19  31  46  64  91 127 159 186 223 273
#     4   8  15  29  48  70  97 126 152 182 225 273
#
# _framework density 15.996259999999999
#
# number of rings (size 3 to 8) (size 9 to 14) (size 15 to 20)
#    0.000    2.500    1.250    2.625    0.000    4.500 
#    0.000    1.250    0.000    4.125    0.000    7.000 
#    0.000    0.500    0.000    5.500    0.000    4.250 
#
# Total GULP energy -793444.132961 kJ/mol
# GULP energy per Si atom -12397.564578 kJ/mol
# Density = 1.595985 g / cm^3
# Si number density = 15.996260 Si / 1000 Ang^3
#
#
#
# Elastic Constant Matrix: (Units=GPa)
#
#
# Indices 1 2 3 4 5 6 
#
# 1 100.6776 62.8543 40.5785 0.0000 0.0000 0.0000
# 2 62.8543 134.6876 44.4200 0.0000 0.0000 0.0000
# 3 40.5785 44.4200 56.9891 0.0000 0.0000 0.0000
# 4 0.0000 0.0000 0.0000 15.2856 0.0000 0.0000
# 5 0.0000 0.0000 0.0000 0.0000 24.5017 0.0000
# 6 0.0000 0.0000 0.0000 0.0000 0.0000 12.2379
#
#
#
# Elastic Compliance Matrix: (Units=1/GPa)
#
#
# Indices 1 2 3 4 5 6 
#
# 1 0.016119 -0.005030 -0.007557 0.000000 0.000000 0.000000
# 2 -0.005030 0.011563 -0.005431 0.000000 0.000000 0.000000
# 3 -0.007557 -0.005431 0.027161 0.000000 0.000000 0.000000
# 4 0.000000 0.000000 0.000000 0.065421 0.000000 0.000000
# 5 0.000000 0.000000 0.000000 0.000000 0.040813 0.000000
# 6 0.000000 0.000000 0.000000 0.000000 0.000000 0.081713
#
#
# Mechanical properties :
#
#
# Convention : Reuss Voigt Hill
#
# Bulk Modulus (GPa) = 53.17067 65.33999 59.25533
# Shear Modulus (GPa) = 17.53799 20.03850 18.78825
#
# Velocity S-wave (km/s) = 3.31476 3.54319 3.43087
# Velocity P-wave (km/s) = 6.92544 7.59438 7.26761
#
# Compressibility (1/GPa) = 0.01880736
#
# Stress axis : x y z
#
# Youngs Moduli (GPa) = 62.04005 86.48179 36.81715
#
# Poissons Ratio (x) = 0.43499 0.27821
# Poissons Ratio (y) = 0.31205 0.19997
# Poissons Ratio (z) = 0.46881 0.46971
#
# Static dielectric constant tensor:
#      x y z
#    x 3.068460 0.000000 0.000000 
#    y 0.000000 3.245860 0.000000 
#    z 0.000000 0.000000 2.958520 
# 
# 
# High freq. dielectric constant tensor:
#      x y z
#    x 1.597500 0.000000 0.000000 
#    y 0.000000 1.605210 0.000000 
#    z 0.000000 0.000000 1.608710 
# 
# From -- ./inp_files/8257.got.cif
#   From: 2010.03.12/outbox.cif.g09.slc.cpg/sg47_5_cif.got.tgz:8257.got - 2010.04.14 03:12:58.
