data_PCOD8195331
_publ_section_title
;
Structure prediction by ZEFSAII (Michael W. Deem and Ramdas Pophale) SiO2 
 PCOD8195331
Probable space group: P M M M
;
_chemical_formula_sum "Si O2"
_cell_formula_units_Z 40
_cell_length_a 24.500870
_cell_length_b 9.004956
_cell_length_c 10.280205
_cell_angle_alpha 90.000000
_cell_angle_beta 90.000000
_cell_angle_gamma 90.000000
_cell_volume 2268.113984
_symmetry_space_group_name_H-M "P M M M"
_symmetry_group_IT_number 47
_symmetry_cell_setting 'orthorhombic'
loop_
_space_group_symop_operation_xyz
x,y,z
-x,-y,z
x,-y,-z
-x,y,-z
-x,-y,-z
x,y,-z
-x,y,z
x,-y,z
loop_
_atom_site_type_symbol
_atom_site_label
_atom_site_fract_x
_atom_site_fract_y
_atom_site_fract_z
Si Si1 0.379631 0.176682 0.761138
Si Si2 0.835559 0.834371 0.845375
Si Si3 0.940024 0.666942 0.154690
Si Si4 0.561286 0.824169 0.500000
Si Si5 0.435557 0.668210 0.000000
Si Si6 0.273321 0.672793 0.152655
O O1 0.406157 0.230655 0.626415
O O2 0.415840 0.245757 0.873977
O O3 0.318296 0.237843 0.766489
O O4 0.378866 0.000000 0.775660
O O5 0.892096 0.769614 0.786998
O O6 0.785419 0.731799 0.800849
O O7 0.827259 0.000000 0.790125
O O8 0.838781 0.836939 0.000000
O O9 0.931457 0.500000 0.206838
O O10 0.000000 0.726337 0.198245
O O11 0.936508 0.666305 0.000000
O O12 0.500000 0.756571 0.500000
O O13 0.557421 0.000000 0.500000
O O14 0.411677 0.500000 0.000000
O O15 0.500000 0.665249 0.000000
O O16 0.276901 0.500000 0.185984
O O17 0.283111 0.702875 0.000000
#
# Coordination Sequence:
#
# PCOD8195331 Si02
#       6
#     8   8   8   4   4   8
#     4  11  21  35  57  79 101 130 166 206 247 296
#     4   9  16  24  36  56  82 113 155 201 244 289
#     4   8  13  21  32  47  72 110 154 195 239 291
#     4   9  20  38  57  79 105 131 162 201 248 301
#     4  11  23  37  53  77 107 133 162 201 244 291
#     4  10  19  31  47  67  96 127 159 201 249 298
#
# _framework density 17.635797
#
# number of rings (size 3 to 8) (size 9 to 14) (size 15 to 20)
#    0.000    2.400    1.000    3.300    0.000    5.200 
#    0.000    4.000    0.000    3.600    0.000    0.000 
#    0.000    0.000    0.000    0.900    0.000   17.800 
#
# Total GULP energy -495926.953549 kJ/mol
# GULP energy per Si atom -12398.173839 kJ/mol
# Density = 1.759566 g / cm^3
# Si number density = 17.635797 Si / 1000 Ang^3
#
#
#
# Elastic Constant Matrix: (Units=GPa)
#
#
# Indices 1 2 3 4 5 6 
#
# 1 158.2305 66.4522 46.3212 0.0000 0.0000 0.0000
# 2 66.4522 111.0640 36.2795 0.0000 0.0000 0.0000
# 3 46.3212 36.2795 74.4467 0.0000 0.0000 0.0000
# 4 0.0000 0.0000 0.0000 -68.3962 0.0000 0.0000
# 5 0.0000 0.0000 0.0000 0.0000 -6.1239 0.0000
# 6 0.0000 0.0000 0.0000 0.0000 0.0000 36.6359
#
#
#
# Elastic Compliance Matrix: (Units=1/GPa)
#
#
# Indices 1 2 3 4 5 6 
#
# 1 0.009192 -0.004319 -0.003614 0.000000 0.000000 0.000000
# 2 -0.004319 0.012738 -0.003520 0.000000 0.000000 0.000000
# 3 -0.003614 -0.003520 0.017397 0.000000 0.000000 0.000000
# 4 0.000000 0.000000 0.000000 -0.014621 0.000000 0.000000
# 5 0.000000 0.000000 0.000000 0.000000 -0.163294 0.000000
# 6 0.000000 0.000000 0.000000 0.000000 0.000000 0.027296
#
#
# Mechanical properties :
#
#
# Convention : Reuss Voigt Hill
#
# Bulk Modulus (GPa) = 60.90397 71.31635 66.11016
# Shear Modulus (GPa) = -60.30483 5.40236 -27.45123
#
# Velocity S-wave (km/s) = -5.85396 1.75213 -3.94961
# Velocity P-wave (km/s) = 3.32903 6.67978 4.09494
#
# Compressibility (1/GPa) = 0.01641929
#
# Stress axis : x y z
#
# Youngs Moduli (GPa) = 108.79153 78.50618 57.48178
#
# Poissons Ratio (x) = 0.33907 0.20777
# Poissons Ratio (y) = 0.46987 0.20234
# Poissons Ratio (z) = 0.39323 0.27635
#
# Static dielectric constant tensor:
#      x y z
#    x 3.615500 0.000000 0.000000 
#    y 0.000000 3.395470 0.000000 
#    z 0.000000 0.000000 2.961980 
# 
# 
# High freq. dielectric constant tensor:
#      x y z
#    x 1.705490 0.000000 0.000000 
#    y 0.000000 1.686490 0.000000 
#    z 0.000000 0.000000 1.611920 
# 
# From -- ./inp_files/12983.got.cif
#   From: 2010.03.12/outbox.cif.g09.slc.cpg/sg47_7_cif.got.tgz:12983.got - 2010.04.14 03:12:58.
