data_PCOD8195890
_publ_section_title
;
Structure prediction by ZEFSAII (Michael W. Deem and Ramdas Pophale) SiO2 
 PCOD8195890
Probable space group: P M M M
;
_chemical_formula_sum "Si O2"
_cell_formula_units_Z 48
_cell_length_a 34.103313
_cell_length_b 7.824064
_cell_length_c 9.261879
_cell_angle_alpha 90.000000
_cell_angle_beta 90.000000
_cell_angle_gamma 90.000000
_cell_volume 2471.314790
_symmetry_space_group_name_H-M "P M M M"
_symmetry_group_IT_number 47
_symmetry_cell_setting 'orthorhombic'
loop_
_space_group_symop_operation_xyz
x,y,z
-x,-y,z
x,-y,-z
-x,y,-z
-x,-y,-z
x,y,-z
-x,y,z
x,-y,z
loop_
_atom_site_type_symbol
_atom_site_label
_atom_site_fract_x
_atom_site_fract_y
_atom_site_fract_z
Si Si1 0.424357 0.200238 0.839519
Si Si2 0.348348 0.802761 0.332410
Si Si3 0.000000 0.200399 0.334546
Si Si4 0.155606 0.809761 0.834264
Si Si5 0.208992 0.500000 0.829073
Si Si6 0.916930 0.304236 0.334093
Si Si7 0.500000 0.699556 0.339317
Si Si8 0.709891 0.500000 0.667389
O O1 0.385509 0.264055 0.758138
O O2 0.462022 0.245533 0.747427
O O3 0.422007 0.000000 0.855830
O O4 0.426736 0.283575 0.000000
O O5 0.359755 0.787122 0.500000
O O6 0.313332 0.673744 0.293155
O O7 0.336648 0.000000 0.294940
O O8 0.960179 0.275526 0.264304
O O9 0.000000 0.260075 0.500000
O O10 0.000000 0.000000 0.314754
O O11 0.186137 0.669451 0.774634
O O12 0.114768 0.806969 0.749697
O O13 0.173838 0.000000 0.816143
O O14 0.146032 0.768243 0.000000
O O15 0.251349 0.500000 0.760423
O O16 0.214160 0.500000 0.000000
O O17 0.917052 0.242392 0.500000
O O18 0.904635 0.500000 0.319187
O O19 0.500000 0.500000 0.356949
O O20 0.500000 0.783627 0.500000
O O21 0.721250 0.500000 0.500000
#
# Coordination Sequence:
#
# PCOD8195890 Si02
#       8
#     8   8   4   8   4   8   4   4
#     4  10  21  37  57  82 112 146 187 235 281 327
#     4   9  19  37  59  83 114 150 184 224 276 331
#     4   9  17  29  46  73 110 147 184 227 275 324
#     4  10  21  38  59  81 109 147 187 228 276 331
#     4  10  22  40  58  81 112 143 177 222 280 338
#     4  10  19  32  53  80 110 145 186 230 276 327
#     4  11  24  37  52  78 112 151 194 235 278 330
#     4  10  22  38  60  87 114 143 182 228 274 332
#
# _framework density 19.42286
#
# number of rings (size 3 to 8) (size 9 to 14) (size 15 to 20)
#    0.000    2.167    0.833    1.750    1.167    6.667 
#    0.000    0.417    0.000    2.500    0.000    0.000 
#    0.000    0.000    0.000    0.000    0.000    0.000 
#
# Total GULP energy -595138.277359 kJ/mol
# GULP energy per Si atom -12398.714112 kJ/mol
# Density = 1.937865 g / cm^3
# Si number density = 19.422860 Si / 1000 Ang^3
#
#
#
# Elastic Constant Matrix: (Units=GPa)
#
#
# Indices 1 2 3 4 5 6 
#
# 1 157.8802 60.1493 66.0085 0.0000 0.0000 0.0000
# 2 60.1493 89.9350 30.8667 0.0000 0.0000 0.0000
# 3 66.0085 30.8667 82.5707 0.0000 0.0000 0.0000
# 4 0.0000 0.0000 0.0000 18.4494 0.0000 0.0000
# 5 0.0000 0.0000 0.0000 0.0000 76.4259 0.0000
# 6 0.0000 0.0000 0.0000 0.0000 0.0000 30.6620
#
#
#
# Elastic Compliance Matrix: (Units=1/GPa)
#
#
# Indices 1 2 3 4 5 6 
#
# 1 0.011228 -0.005081 -0.007077 0.000000 0.000000 0.000000
# 2 -0.005081 0.015055 -0.001566 0.000000 0.000000 0.000000
# 3 -0.007077 -0.001566 0.018354 0.000000 0.000000 0.000000
# 4 0.000000 0.000000 0.000000 0.054202 0.000000 0.000000
# 5 0.000000 0.000000 0.000000 0.000000 0.013085 0.000000
# 6 0.000000 0.000000 0.000000 0.000000 0.000000 0.032614
#
#
# Mechanical properties :
#
#
# Convention : Reuss Voigt Hill
#
# Bulk Modulus (GPa) = 58.17593 71.60387 64.88990
# Shear Modulus (GPa) = 28.13500 36.66488 32.39994
#
# Velocity S-wave (km/s) = 3.81011 4.34950 4.08871
# Velocity P-wave (km/s) = 7.02661 7.88480 7.46804
#
# Compressibility (1/GPa) = 0.01718924
#
# Stress axis : x y z
#
# Youngs Moduli (GPa) = 89.06006 66.42433 54.48504
#
# Poissons Ratio (x) = 0.33749 0.38558
# Poissons Ratio (y) = 0.45249 0.08533
# Poissons Ratio (z) = 0.63027 0.10403
#
# Static dielectric constant tensor:
#      x y z
#    x 3.498720 0.000000 0.000000 
#    y 0.000000 3.710770 0.000000 
#    z 0.000000 0.000000 2.168270 
# 
# 
# High freq. dielectric constant tensor:
#      x y z
#    x 1.753240 0.000000 0.000000 
#    y 0.000000 1.766440 0.000000 
#    z 0.000000 0.000000 1.742060 
# 
# From -- ./inp_files/14015.got.cif
#   From: 2010.03.12/outbox.cif.g09.slc.cpg/sg47_8_cif.got.tgz:14015.got - 2010.04.14 03:12:58.
