data_PCOD8195935
_publ_section_title
;
Structure prediction by ZEFSAII (Michael W. Deem and Ramdas Pophale) SiO2 
 PCOD8195935
Probable space group: P M M M
;
_chemical_formula_sum "Si O2"
_cell_formula_units_Z 44
_cell_length_a 33.511312
_cell_length_b 7.618468
_cell_length_c 9.075624
_cell_angle_alpha 90.000000
_cell_angle_beta 90.000000
_cell_angle_gamma 90.000000
_cell_volume 2317.050898
_symmetry_space_group_name_H-M "P M M M"
_symmetry_group_IT_number 47
_symmetry_cell_setting 'orthorhombic'
loop_
_space_group_symop_operation_xyz
x,y,z
-x,-y,z
x,-y,-z
-x,y,-z
-x,-y,-z
x,y,-z
-x,y,z
x,-y,z
loop_
_atom_site_type_symbol
_atom_site_label
_atom_site_fract_x
_atom_site_fract_y
_atom_site_fract_z
Si Si1 0.095156 0.702834 0.673469
Si Si2 0.544213 0.297185 0.671898
Si Si3 0.823711 0.201166 0.170641
Si Si4 0.675595 0.500000 0.823966
Si Si5 0.047149 0.000000 0.830638
Si Si6 0.620434 0.806651 0.832509
Si Si7 0.764353 0.500000 0.173836
O O1 0.093397 0.738206 0.500000
O O2 0.085706 0.500000 0.710607
O O3 0.138541 0.754855 0.730245
O O4 0.062687 0.824056 0.752735
O O5 0.548468 0.262248 0.500000
O O6 0.500000 0.237378 0.724414
O O7 0.550705 0.500000 0.710053
O O8 0.577980 0.187305 0.752543
O O9 0.787656 0.325051 0.224872
O O10 0.810517 0.000000 0.193634
O O11 0.834515 0.238557 0.000000
O O12 0.652021 0.670375 0.763401
O O13 0.720117 0.500000 0.755371
O O14 0.678235 0.500000 0.000000
O O15 0.000000 0.000000 0.818823
O O16 0.061796 0.000000 0.000000
O O17 0.639656 0.000000 0.820626
O O18 0.611944 0.752282 0.000000
O O19 0.760081 0.500000 0.000000
#
# Coordination Sequence:
#
# PCOD8195935 Si02
#       7
#     8   8   8   4   4   8   4
#     4  11  23  38  60  89 121 159 197 237 290 348
#     4   9  18  33  53  76 101 132 172 218 267 320
#     4  10  19  32  55  86 114 144 185 233 282 332
#     4   9  18  34  52  74 109 145 177 222 274 320
#     4  11  25  43  63  89 121 159 203 249 291 335
#     4  10  20  33  52  77 104 139 179 218 265 323
#     4   9  18  32  53  82 113 144 182 230 278 329
#
# _framework density 18.989654999999999
#
# number of rings (size 3 to 8) (size 9 to 14) (size 15 to 20)
#    0.000    2.091    2.727    1.364    0.000    4.000 
#    0.000    8.182    0.000    2.182    0.000    2.545 
#    0.000    0.000    0.000    0.000    0.000    0.000 
#
# Total GULP energy -545566.965370 kJ/mol
# GULP energy per Si atom -12399.249213 kJ/mol
# Density = 1.894643 g / cm^3
# Si number density = 18.989655 Si / 1000 Ang^3
#
#
#
# Elastic Constant Matrix: (Units=GPa)
#
#
# Indices 1 2 3 4 5 6 
#
# 1 131.7181 68.9865 36.8412 0.0000 0.0000 0.0000
# 2 68.9865 148.5439 47.1040 0.0000 0.0000 0.0000
# 3 36.8412 47.1040 55.0532 0.0000 0.0000 0.0000
# 4 0.0000 0.0000 0.0000 22.4850 0.0000 0.0000
# 5 0.0000 0.0000 0.0000 0.0000 -6.8544 0.0000
# 6 0.0000 0.0000 0.0000 0.0000 0.0000 18.8393
#
#
#
# Elastic Compliance Matrix: (Units=1/GPa)
#
#
# Indices 1 2 3 4 5 6 
#
# 1 0.010627 -0.003678 -0.003964 0.000000 0.000000 0.000000
# 2 -0.003678 0.010512 -0.006532 0.000000 0.000000 0.000000
# 3 -0.003964 -0.006532 0.026406 0.000000 0.000000 0.000000
# 4 0.000000 0.000000 0.000000 0.044474 0.000000 0.000000
# 5 0.000000 0.000000 0.000000 0.000000 -0.145892 0.000000
# 6 0.000000 0.000000 0.000000 0.000000 0.000000 0.053080
#
#
# Mechanical properties :
#
#
# Convention : Reuss Voigt Hill
#
# Bulk Modulus (GPa) = 52.09690 71.24207 61.66948
# Shear Modulus (GPa) = 147.24424 19.05289 83.14856
#
# Velocity S-wave (km/s) = 8.81519 3.17097 6.62430
# Velocity P-wave (km/s) = 11.45006 7.14174 9.54223
#
# Compressibility (1/GPa) = 0.01919500
#
# Stress axis : x y z
#
# Youngs Moduli (GPa) = 94.09678 95.13129 37.86952
#
# Poissons Ratio (x) = 0.34993 0.15013
# Poissons Ratio (y) = 0.34612 0.24738
# Poissons Ratio (z) = 0.37305 0.62144
#
# Static dielectric constant tensor:
#      x y z
#    x 3.549120 0.000000 0.000000 
#    y 0.000000 4.344920 0.000000 
#    z 0.000000 0.000000 3.284820 
# 
# 
# High freq. dielectric constant tensor:
#      x y z
#    x 1.734380 0.000000 0.000000 
#    y 0.000000 1.753600 0.000000 
#    z 0.000000 0.000000 1.712090 
# 
# From -- ./inp_files/13736.got.cif
#   From: 2010.03.12/outbox.cif.g09.slc.cpg/sg47_7_cif.got.tgz:13736.got - 2010.04.14 03:12:58.
