data_PCOD8195039
_publ_section_title
;
Structure prediction by ZEFSAII (Michael W. Deem and Ramdas Pophale) SiO2 
 PCOD8195039
Probable space group: P M M M
;
_chemical_formula_sum "Si O2"
_cell_formula_units_Z 64
_cell_length_a 9.002486
_cell_length_b 18.816639
_cell_length_c 23.636886
_cell_angle_alpha 90.000000
_cell_angle_beta 90.000000
_cell_angle_gamma 90.000000
_cell_volume 4004.006449
_symmetry_space_group_name_H-M "P M M M"
_symmetry_group_IT_number 47
_symmetry_cell_setting 'orthorhombic'
loop_
_space_group_symop_operation_xyz
x,y,z
-x,-y,z
x,-y,-z
-x,y,-z
-x,-y,-z
x,y,-z
-x,y,z
x,-y,z
loop_
_atom_site_type_symbol
_atom_site_label
_atom_site_fract_x
_atom_site_fract_y
_atom_site_fract_z
Si Si1 0.172874 0.210468 0.272347
Si Si2 0.671848 0.920017 0.232332
Si Si3 0.173036 0.703159 0.159311
Si Si4 0.171960 0.080207 0.887373
Si Si5 0.670831 0.209716 0.064360
Si Si6 0.673580 0.666406 0.668315
Si Si7 0.327447 0.418739 0.780181
Si Si8 0.676269 0.420606 0.562712
O O1 0.255249 0.134556 0.276729
O O2 0.206646 0.243684 0.210934
O O3 0.237716 0.261101 0.320932
O O4 0.000000 0.199456 0.283372
O O5 0.500000 0.901167 0.223180
O O6 0.755134 0.911130 0.173426
O O7 0.691616 0.000000 0.255973
O O8 0.252907 0.731779 0.103623
O O9 0.235390 0.625317 0.173616
O O10 0.000000 0.696762 0.146712
O O11 0.250418 0.133126 0.930834
O O12 0.000000 0.101415 0.881308
O O13 0.190780 0.000000 0.910446
O O14 0.500000 0.201396 0.082330
O O15 0.686360 0.235993 0.000000
O O16 0.500000 0.684799 0.664579
O O17 0.705850 0.609387 0.717331
O O18 0.737259 0.633375 0.610022
O O19 0.500000 0.410715 0.794995
O O20 0.274782 0.500000 0.783305
O O21 0.723907 0.394121 0.500000
O O22 0.500000 0.423851 0.567751
O O23 0.739600 0.500000 0.573359
#
# Coordination Sequence:
#
# PCOD8195039 Si02
#       8
#     8   8   8   8   8   8   8   8
#     4  10  19  30  45  66  92 122 154 189 231 275
#     4  10  19  30  47  69  92 120 152 186 226 273
#     4  10  20  33  49  68  90 117 147 183 229 279
#     4  10  20  33  49  69  93 121 151 183 221 267
#     4  11  23  36  51  69  89 116 151 190 228 270
#     4   9  16  26  43  67  95 126 160 197 232 269
#     4   9  17  29  47  70  94 120 149 185 229 276
#     4   8  13  22  39  65  96 129 166 205 238 268
#
# _framework density 15.983991
#
# number of rings (size 3 to 8) (size 9 to 14) (size 15 to 20)
#    0.000    2.375    1.250    2.625    0.000    5.500 
#    0.000    1.250    0.000    1.875    0.000    3.500 
#    0.000    0.500    0.000    5.750    0.000    1.625 
#
# Total GULP energy -793628.517399 kJ/mol
# GULP energy per Si atom -12400.445584 kJ/mol
# Density = 1.594761 g / cm^3
# Si number density = 15.983991 Si / 1000 Ang^3
#
#
#
# Elastic Constant Matrix: (Units=GPa)
#
#
# Indices 1 2 3 4 5 6 
#
# 1 89.5070 54.5767 44.1832 0.0000 0.0000 0.0000
# 2 54.5767 109.7429 54.4744 0.0000 0.0000 0.0000
# 3 44.1832 54.4744 89.5372 0.0000 0.0000 0.0000
# 4 0.0000 0.0000 0.0000 26.6175 0.0000 0.0000
# 5 0.0000 0.0000 0.0000 0.0000 10.4789 0.0000
# 6 0.0000 0.0000 0.0000 0.0000 0.0000 23.0534
#
#
#
# Elastic Compliance Matrix: (Units=1/GPa)
#
#
# Indices 1 2 3 4 5 6 
#
# 1 0.017334 -0.006267 -0.004741 0.000000 0.000000 0.000000
# 2 -0.006267 0.015321 -0.006228 0.000000 0.000000 0.000000
# 3 -0.004741 -0.006228 0.017297 0.000000 0.000000 0.000000
# 4 0.000000 0.000000 0.000000 0.037569 0.000000 0.000000
# 5 0.000000 0.000000 0.000000 0.000000 0.095430 0.000000
# 6 0.000000 0.000000 0.000000 0.000000 0.000000 0.043378
#
#
# Mechanical properties :
#
#
# Convention : Reuss Voigt Hill
#
# Bulk Modulus (GPa) = 64.60294 66.13955 65.37125
# Shear Modulus (GPa) = 18.79976 21.06682 19.93329
#
# Velocity S-wave (km/s) = 3.43324 3.63436 3.53523
# Velocity P-wave (km/s) = 7.49808 7.68634 7.59280
#
# Compressibility (1/GPa) = 0.01547917
#
# Stress axis : x y z
#
# Youngs Moduli (GPa) = 57.69065 65.27124 57.81261
#
# Poissons Ratio (x) = 0.40907 0.27407
# Poissons Ratio (y) = 0.36156 0.36008
# Poissons Ratio (z) = 0.27349 0.40654
#
# Static dielectric constant tensor:
#      x y z
#    x 3.035610 0.000000 0.000000 
#    y 0.000000 3.144580 0.000000 
#    z 0.000000 0.000000 2.856380 
# 
# 
# High freq. dielectric constant tensor:
#      x y z
#    x 1.615410 0.000000 0.000000 
#    y 0.000000 1.612250 0.000000 
#    z 0.000000 0.000000 1.580320 
# 
# From -- ./inp_files/10201.got.cif
#   From: 2010.03.12/outbox.cif.g09.slc.cpg/sg47_6_cif.got.tgz:10201.got - 2010.04.14 03:12:58.
