data_PCOD8195166
_publ_section_title
;
Structure prediction by ZEFSAII (Michael W. Deem and Ramdas Pophale) SiO2 
 PCOD8195166
Probable space group: P M M M
;
_chemical_formula_sum "Si O2"
_cell_formula_units_Z 52
_cell_length_a 19.944194
_cell_length_b 15.002220
_cell_length_c 9.648452
_cell_angle_alpha 90.000000
_cell_angle_beta 90.000000
_cell_angle_gamma 90.000000
_cell_volume 2886.886173
_symmetry_space_group_name_H-M "P M M M"
_symmetry_group_IT_number 47
_symmetry_cell_setting 'orthorhombic'
loop_
_space_group_symop_operation_xyz
x,y,z
-x,-y,z
x,-y,-z
-x,y,-z
-x,-y,-z
x,y,-z
-x,y,z
x,-y,z
loop_
_atom_site_type_symbol
_atom_site_label
_atom_site_fract_x
_atom_site_fract_y
_atom_site_fract_z
Si Si1 0.924622 0.099127 0.664562
Si Si2 0.692823 0.725979 0.341562
Si Si3 0.619415 0.100324 0.343927
Si Si4 0.921508 0.398580 0.154238
Si Si5 0.500000 0.105733 0.845787
Si Si6 0.575008 0.398396 0.335446
Si Si7 0.158648 0.733484 0.665775
O O1 0.924754 0.099690 0.500000
O O2 0.871092 0.171785 0.719639
O O3 0.000000 0.122766 0.717397
O O4 0.904145 0.000000 0.717864
O O5 0.696242 0.695069 0.500000
O O6 0.680647 0.832029 0.330015
O O7 0.633235 0.666341 0.271698
O O8 0.766357 0.715179 0.274657
O O9 0.589493 0.102667 0.500000
O O10 0.564555 0.137717 0.237936
O O11 0.643547 0.000000 0.307121
O O12 0.897608 0.500000 0.168496
O O13 0.886472 0.344363 0.274990
O O14 0.000000 0.390804 0.178849
O O15 0.902914 0.363066 0.000000
O O16 0.500000 0.000000 0.852025
O O17 0.500000 0.147221 0.000000
O O18 0.573786 0.388991 0.500000
O O19 0.500000 0.372098 0.279969
O O20 0.591648 0.500000 0.291821
O O21 0.157485 0.729999 0.500000
#
# Coordination Sequence:
#
# PCOD8195166 Si02
#       7
#     8   8   8   8   4   8   8
#     4   8  14  25  42  65  94 128 161 191 229 281
#     4   9  18  28  41  67  98 125 152 189 239 287
#     4   9  17  29  45  66  93 125 158 190 231 287
#     4   9  19  36  55  73  96 130 167 198 238 298
#     4   9  17  29  45  65  88 115 152 200 247 283
#     4   8  14  25  40  57  81 117 155 187 225 275
#     4  10  19  30  47  75 104 127 158 203 251 290
#
# _framework density 18.012487
#
# number of rings (size 3 to 8) (size 9 to 14) (size 15 to 20)
#    0.000    3.154    0.000    2.077    1.077    3.385 
#    0.000    6.154    0.000    0.462    0.000    2.154 
#    0.000    0.615    0.000    0.000    0.000    0.000 
#
# Total GULP energy -644267.691165 kJ/mol
# GULP energy per Si atom -12389.763292 kJ/mol
# Density = 1.797149 g / cm^3
# Si number density = 18.012487 Si / 1000 Ang^3
#
#
#
# Elastic Constant Matrix: (Units=GPa)
#
#
# Indices 1 2 3 4 5 6 
#
# 1 108.6363 71.6760 18.8785 0.0000 0.0000 0.0000
# 2 71.6760 105.3009 16.5549 0.0000 0.0000 0.0000
# 3 18.8785 16.5549 34.2955 0.0000 0.0000 0.0000
# 4 0.0000 0.0000 0.0000 10.1672 0.0000 0.0000
# 5 0.0000 0.0000 0.0000 0.0000 59.6427 0.0000
# 6 0.0000 0.0000 0.0000 0.0000 0.0000 14.8707
#
#
#
# Elastic Compliance Matrix: (Units=1/GPa)
#
#
# Indices 1 2 3 4 5 6 
#
# 1 0.017235 -0.011081 -0.004138 0.000000 0.000000 0.000000
# 2 -0.011081 0.017401 -0.002300 0.000000 0.000000 0.000000
# 3 -0.004138 -0.002300 0.032547 0.000000 0.000000 0.000000
# 4 0.000000 0.000000 0.000000 0.098355 0.000000 0.000000
# 5 0.000000 0.000000 0.000000 0.000000 0.016767 0.000000
# 6 0.000000 0.000000 0.000000 0.000000 0.000000 0.067246
#
#
# Mechanical properties :
#
#
# Convention : Reuss Voigt Hill
#
# Bulk Modulus (GPa) = 31.11009 51.38351 41.24680
# Shear Modulus (GPa) = 16.93172 26.34435 21.63804
#
# Velocity S-wave (km/s) = 3.06927 3.82849 3.46971
# Velocity P-wave (km/s) = 5.46529 6.93770 6.24504
#
# Compressibility (1/GPa) = 0.03214391
#
# Stress axis : x y z
#
# Youngs Moduli (GPa) = 58.02081 57.46883 30.72520
#
# Poissons Ratio (x) = 0.63681 0.12715
# Poissons Ratio (y) = 0.64293 0.07066
# Poissons Ratio (z) = 0.24012 0.13217
#
# Static dielectric constant tensor:
#      x y z
#    x 3.516540 0.000000 0.000000 
#    y 0.000000 3.468130 0.000000 
#    z 0.000000 0.000000 2.914960 
# 
# 
# High freq. dielectric constant tensor:
#      x y z
#    x 1.695030 0.000000 0.000000 
#    y 0.000000 1.702310 0.000000 
#    z 0.000000 0.000000 1.635710 
# 
# From -- ./inp_files/10971.got.cif
#   From: 2010.03.12/outbox.cif.g09.slc.cpg/sg47_6_cif.got.tgz:10971.got - 2010.04.14 03:12:58.
