data_PCOD8195661
_publ_section_title
;
Structure prediction by ZEFSAII (Michael W. Deem and Ramdas Pophale) SiO2 
 PCOD8195661
Probable space group: P M M M
;
_chemical_formula_sum "Si O2"
_cell_formula_units_Z 64
_cell_length_a 30.836489
_cell_length_b 9.386567
_cell_length_c 14.286105
_cell_angle_alpha 90.000000
_cell_angle_beta 90.000000
_cell_angle_gamma 90.000000
_cell_volume 4135.095521
_symmetry_space_group_name_H-M "P M M M"
_symmetry_group_IT_number 47
_symmetry_cell_setting 'orthorhombic'
loop_
_space_group_symop_operation_xyz
x,y,z
-x,-y,z
x,-y,-z
-x,y,-z
-x,-y,-z
x,y,-z
-x,y,z
x,-y,z
loop_
_atom_site_type_symbol
_atom_site_label
_atom_site_fract_x
_atom_site_fract_y
_atom_site_fract_z
Si Si1 0.877019 0.664201 0.108001
Si Si2 0.711264 0.834546 0.110028
Si Si3 0.372125 0.339470 0.111455
Si Si4 0.787162 0.664065 0.795774
Si Si5 0.548063 0.159939 0.888674
Si Si6 0.822987 0.662430 0.603447
Si Si7 0.908686 0.834594 0.603400
Si Si8 0.048729 0.166922 0.791741
O O1 0.888468 0.500000 0.124775
O O2 0.834231 0.707365 0.165182
O O3 0.918114 0.753776 0.141015
O O4 0.867757 0.697791 0.000000
O O5 0.668721 0.752231 0.146331
O O6 0.752489 0.769731 0.161162
O O7 0.706364 0.000000 0.136067
O O8 0.717697 0.812734 0.000000
O O9 0.368571 0.500000 0.150954
O O10 0.415950 0.267573 0.152198
O O11 0.373616 0.340983 0.000000
O O12 0.776132 0.500000 0.822306
O O13 0.786791 0.687637 0.683280
O O14 0.500000 0.208989 0.855656
O O15 0.557744 0.000000 0.852334
O O16 0.550215 0.160078 0.000000
O O17 0.803792 0.698726 0.500000
O O18 0.839057 0.500000 0.607734
O O19 0.864336 0.756247 0.627012
O O20 0.926458 0.791304 0.500000
O O21 0.943627 0.794133 0.682396
O O22 0.897489 0.000000 0.606556
O O23 0.000000 0.214809 0.817335
O O24 0.055087 0.000000 0.808541
#
# Coordination Sequence:
#
# PCOD8195661 Si02
#       8
#     8   8   8   8   8   8   8   8
#     4  10  21  36  52  69  88 112 143 178 214 250
#     4  10  20  31  43  61  85 114 148 184 221 260
#     4   9  16  25  37  53  76 107 143 185 229 268
#     4  10  19  32  50  69  89 111 137 172 211 253
#     4   8  13  21  33  49  71 102 141 185 230 271
#     4   9  17  30  50  73  93 112 134 163 203 250
#     4   9  17  30  49  71  93 115 137 164 201 245
#     4  10  21  35  50  69  92 116 142 172 206 247
#
# _framework density 15.477273
#
# number of rings (size 3 to 8) (size 9 to 14) (size 15 to 20)
#    0.000    2.625    1.250    1.500    0.000    5.000 
#    0.000    3.750    0.000    0.000    0.000    2.625 
#    0.000    0.000    0.000    0.000    0.000    0.625 
#
# Total GULP energy -793381.871102 kJ/mol
# GULP energy per Si atom -12396.591736 kJ/mol
# Density = 1.544205 g / cm^3
# Si number density = 15.477273 Si / 1000 Ang^3
#
#
#
# Elastic Constant Matrix: (Units=GPa)
#
#
# Indices 1 2 3 4 5 6 
#
# 1 107.3332 60.2873 35.0342 0.0000 0.0000 0.0000
# 2 60.2873 79.6370 31.7722 0.0000 0.0000 0.0000
# 3 35.0342 31.7722 57.0524 0.0000 0.0000 0.0000
# 4 0.0000 0.0000 0.0000 17.4787 0.0000 0.0000
# 5 0.0000 0.0000 0.0000 0.0000 2.8254 0.0000
# 6 0.0000 0.0000 0.0000 0.0000 0.0000 12.6939
#
#
#
# Elastic Compliance Matrix: (Units=1/GPa)
#
#
# Indices 1 2 3 4 5 6 
#
# 1 0.016956 -0.011162 -0.004196 0.000000 0.000000 0.000000
# 2 -0.011162 0.023492 -0.006228 0.000000 0.000000 0.000000
# 3 -0.004196 -0.006228 0.023573 0.000000 0.000000 0.000000
# 4 0.000000 0.000000 0.000000 0.057212 0.000000 0.000000
# 5 0.000000 0.000000 0.000000 0.000000 0.353933 0.000000
# 6 0.000000 0.000000 0.000000 0.000000 0.000000 0.078778
#
#
# Mechanical properties :
#
#
# Convention : Reuss Voigt Hill
#
# Bulk Modulus (GPa) = 47.96619 55.35668 51.66144
# Shear Modulus (GPa) = 8.27724 14.39486 11.33605
#
# Velocity S-wave (km/s) = 2.31508 3.05300 2.70928
# Velocity P-wave (km/s) = 6.18100 6.94779 6.57559
#
# Compressibility (1/GPa) = 0.02084802
#
# Stress axis : x y z
#
# Youngs Moduli (GPa) = 58.97651 42.56821 42.42170
#
# Poissons Ratio (x) = 0.47515 0.17800
# Poissons Ratio (y) = 0.65830 0.26421
# Poissons Ratio (z) = 0.24747 0.26512
#
# Static dielectric constant tensor:
#      x y z
#    x 2.964930 0.000000 0.000000 
#    y 0.000000 3.067360 0.000000 
#    z 0.000000 0.000000 2.875220 
# 
# 
# High freq. dielectric constant tensor:
#      x y z
#    x 1.581750 0.000000 0.000000 
#    y 0.000000 1.600510 0.000000 
#    z 0.000000 0.000000 1.559200 
# 
# From -- ./inp_files/14315.got.cif
#   From: 2010.03.12/outbox.cif.g09.slc.cpg/sg47_8_cif.got.tgz:14315.got - 2010.04.14 03:12:58.
