data_PCOD8195422
_publ_section_title
;
Structure prediction by ZEFSAII (Michael W. Deem and Ramdas Pophale) SiO2 
 PCOD8195422
Probable space group: P M M M
;
_chemical_formula_sum "Si O2"
_cell_formula_units_Z 48
_cell_length_a 9.722047
_cell_length_b 19.827149
_cell_length_c 13.429728
_cell_angle_alpha 90.000000
_cell_angle_beta 90.000000
_cell_angle_gamma 90.000000
_cell_volume 2588.720741
_symmetry_space_group_name_H-M "P M M M"
_symmetry_group_IT_number 47
_symmetry_cell_setting 'orthorhombic'
loop_
_space_group_symop_operation_xyz
x,y,z
-x,-y,z
x,-y,-z
-x,y,-z
-x,-y,-z
x,y,-z
-x,y,z
x,-y,z
loop_
_atom_site_type_symbol
_atom_site_label
_atom_site_fract_x
_atom_site_fract_y
_atom_site_fract_z
Si Si1 0.654774 0.574992 0.881764
Si Si2 0.651628 0.312726 0.383981
Si Si3 0.159945 0.791884 0.290808
Si Si4 0.151693 0.424985 0.618476
Si Si5 0.841235 0.697525 0.113053
Si Si6 0.162408 0.073872 0.611471
O O1 0.500000 0.590178 0.844126
O O2 0.701794 0.500000 0.844929
O O3 0.756193 0.634012 0.843001
O O4 0.658681 0.575651 0.000000
O O5 0.633839 0.324539 0.500000
O O6 0.500000 0.305756 0.334685
O O7 0.744616 0.247493 0.367966
O O8 0.731101 0.376800 0.335760
O O9 0.188634 0.764489 0.179166
O O10 0.204288 0.870180 0.305670
O O11 0.000000 0.781414 0.319910
O O12 0.153028 0.422126 0.500000
O O13 0.184560 0.500000 0.656163
O O14 0.000000 0.401959 0.656006
O O15 0.000000 0.676558 0.118710
O O16 0.798046 0.715649 0.000000
O O17 0.216535 0.092877 0.500000
O O18 0.000000 0.069257 0.606958
O O19 0.221558 0.000000 0.642954
#
# Coordination Sequence:
#
# PCOD8195422 Si02
#       6
#     8   8   8   8   8   8
#     4   8  14  26  45  67  89 116 154 200 247 290
#     4  10  20  31  44  66  95 122 149 188 236 281
#     4  10  19  31  49  70  93 124 158 191 230 279
#     4   8  14  26  44  63  84 116 158 197 230 269
#     4   9  18  31  46  67  95 125 158 197 240 283
#     4   8  14  26  47  75 100 120 150 193 233 271
#
# _framework density 18.541976999999999
#
# number of rings (size 3 to 8) (size 9 to 14) (size 15 to 20)
#    0.000    3.167    0.000    2.500    0.000    3.000 
#    0.000    4.167    0.000    2.000    0.000    5.833 
#    0.000    0.000    0.000    5.667    0.000    6.167 
#
# Total GULP energy -594710.828575 kJ/mol
# GULP energy per Si atom -12389.808929 kJ/mol
# Density = 1.849977 g / cm^3
# Si number density = 18.541977 Si / 1000 Ang^3
#
#
#
# Elastic Constant Matrix: (Units=GPa)
#
#
# Indices 1 2 3 4 5 6 
#
# 1 91.2464 62.0764 26.8399 0.0000 0.0000 0.0000
# 2 62.0764 168.5897 48.0260 0.0000 0.0000 0.0000
# 3 26.8399 48.0260 58.4413 0.0000 0.0000 0.0000
# 4 0.0000 0.0000 0.0000 662.2246 0.0000 0.0000
# 5 0.0000 0.0000 0.0000 0.0000 13.3478 0.0000
# 6 0.0000 0.0000 0.0000 0.0000 0.0000 1.1780
#
#
#
# Elastic Compliance Matrix: (Units=1/GPa)
#
#
# Indices 1 2 3 4 5 6 
#
# 1 0.015034 -0.004660 -0.003075 0.000000 0.000000 0.000000
# 2 -0.004660 0.009189 -0.005411 0.000000 0.000000 0.000000
# 3 -0.003075 -0.005411 0.022970 0.000000 0.000000 0.000000
# 4 0.000000 0.000000 0.000000 0.001510 0.000000 0.000000
# 5 0.000000 0.000000 0.000000 0.000000 0.074919 0.000000
# 6 0.000000 0.000000 0.000000 0.000000 0.000000 0.848863
#
#
# Mechanical properties :
#
#
# Convention : Reuss Voigt Hill
#
# Bulk Modulus (GPa) = 47.84499 65.79579 56.82039
# Shear Modulus (GPa) = 4.97145 147.43911 76.20528
#
# Velocity S-wave (km/s) = 1.63921 8.92687 6.41779
# Velocity P-wave (km/s) = 5.42608 11.90856 9.25354
#
# Compressibility (1/GPa) = 0.02090083
#
# Stress axis : x y z
#
# Youngs Moduli (GPa) = 66.51627 108.82892 43.53433
#
# Poissons Ratio (x) = 0.50709 0.13388
# Poissons Ratio (y) = 0.30994 0.23557
# Poissons Ratio (z) = 0.20456 0.58889
#
# Static dielectric constant tensor:
#      x y z
#    x 3.507220 0.000000 0.000000 
#    y 0.000000 3.711480 0.000000 
#    z 0.000000 0.000000 3.218860 
# 
# 
# High freq. dielectric constant tensor:
#      x y z
#    x 1.702070 0.000000 0.000000 
#    y 0.000000 1.704080 0.000000 
#    z 0.000000 0.000000 1.706120 
# 
# From -- ./inp_files/21036.got.cif
#   From: 2010.03.12/outbox.cif.g09.slc.cpg/sg47_11_cif.got.tgz:21036.got - 2010.04.14 03:12:58.
