data_PCOD8195885
_publ_section_title
;
Structure prediction by ZEFSAII (Michael W. Deem and Ramdas Pophale) SiO2 
 PCOD8195885
Probable space group: P M M M
;
_chemical_formula_sum "Si O2"
_cell_formula_units_Z 56
_cell_length_a 20.343941
_cell_length_b 9.059869
_cell_length_c 15.262776
_cell_angle_alpha 90.000000
_cell_angle_beta 90.000000
_cell_angle_gamma 90.000000
_cell_volume 2813.134755
_symmetry_space_group_name_H-M "P M M M"
_symmetry_group_IT_number 47
_symmetry_cell_setting 'orthorhombic'
loop_
_space_group_symop_operation_xyz
x,y,z
-x,-y,z
x,-y,-z
-x,y,-z
-x,-y,-z
x,y,-z
-x,y,z
x,-y,z
loop_
_atom_site_type_symbol
_atom_site_label
_atom_site_fract_x
_atom_site_fract_y
_atom_site_fract_z
Si Si1 0.426998 0.170898 0.233783
Si Si2 0.757653 0.666666 0.364344
Si Si3 0.198328 0.331606 0.830979
Si Si4 0.927304 0.829790 0.231571
Si Si5 0.383507 0.325669 0.402458
Si Si6 0.897592 0.673519 0.595936
Si Si7 0.317942 0.829556 0.901656
O O1 0.500000 0.194115 0.193634
O O2 0.426862 0.251484 0.327609
O O3 0.372928 0.234877 0.165461
O O4 0.412646 0.000000 0.250687
O O5 0.752772 0.500000 0.397018
O O6 0.764420 0.679835 0.260625
O O7 0.690307 0.743467 0.395023
O O8 0.822656 0.734741 0.408572
O O9 0.186459 0.500000 0.859941
O O10 0.126813 0.253846 0.827150
O O11 0.247894 0.253580 0.897957
O O12 0.934907 0.762717 0.329249
O O13 0.000000 0.814333 0.188172
O O14 0.906237 0.000000 0.238888
O O15 0.411209 0.290553 0.500000
O O16 0.383568 0.500000 0.384607
O O17 0.930200 0.697870 0.500000
O O18 0.898560 0.500000 0.622092
O O19 0.304415 0.000000 0.880149
O O20 0.345678 0.809610 0.000000
#
# Coordination Sequence:
#
# PCOD8195885 Si02
#       7
#     8   8   8   8   8   8   8
#     4  10  22  39  57  80 115 155 191 232 280 330
#     4   8  14  27  48  73 101 135 177 228 281 326
#     4  10  19  34  59  85 110 142 182 231 282 333
#     4  10  21  35  51  74 108 150 190 229 279 338
#     4  10  19  32  53  79 109 148 194 239 282 332
#     4   9  17  29  46  70 102 141 188 240 289 337
#     4  10  21  38  62  90 117 146 183 228 281 344
#
# _framework density 19.906618999999999
#
# number of rings (size 3 to 8) (size 9 to 14) (size 15 to 20)
#    0.000    2.429    1.429    2.143    0.000    4.857 
#    0.000    4.286    0.000    2.143    0.000    5.000 
#    0.000    0.000    0.000    0.000    0.000    0.000 
#
# Total GULP energy -693985.097608 kJ/mol
# GULP energy per Si atom -12392.591029 kJ/mol
# Density = 1.986131 g / cm^3
# Si number density = 19.906619 Si / 1000 Ang^3
#
#
#
# Elastic Constant Matrix: (Units=GPa)
#
#
# Indices 1 2 3 4 5 6 
#
# 1 118.4937 43.6245 39.2742 0.0000 0.0000 0.0000
# 2 43.6245 79.2828 31.3541 0.0000 0.0000 0.0000
# 3 39.2742 31.3541 80.0025 0.0000 0.0000 0.0000
# 4 0.0000 0.0000 0.0000 23.2384 0.0000 0.0000
# 5 0.0000 0.0000 0.0000 0.0000 1.5238 0.0000
# 6 0.0000 0.0000 0.0000 0.0000 0.0000 23.5295
#
#
#
# Elastic Compliance Matrix: (Units=1/GPa)
#
#
# Indices 1 2 3 4 5 6 
#
# 1 0.011453 -0.004826 -0.003731 0.000000 0.000000 0.000000
# 2 -0.004826 0.016960 -0.004278 0.000000 0.000000 0.000000
# 3 -0.003731 -0.004278 0.016008 0.000000 0.000000 0.000000
# 4 0.000000 0.000000 0.000000 0.043032 0.000000 0.000000
# 5 0.000000 0.000000 0.000000 0.000000 0.656248 0.000000
# 6 0.000000 0.000000 0.000000 0.000000 0.000000 0.042500
#
#
# Mechanical properties :
#
#
# Convention : Reuss Voigt Hill
#
# Bulk Modulus (GPa) = 53.33025 56.25385 54.79205
# Shear Modulus (GPa) = 6.11157 20.56008 13.33582
#
# Velocity S-wave (km/s) = 1.75408 3.21725 2.59109
# Velocity P-wave (km/s) = 5.56334 6.49008 6.04450
#
# Compressibility (1/GPa) = 0.01875108
#
# Stress axis : x y z
#
# Youngs Moduli (GPa) = 87.31610 58.96083 62.47037
#
# Poissons Ratio (x) = 0.28456 0.23306
# Poissons Ratio (y) = 0.42141 0.26723
# Poissons Ratio (z) = 0.32575 0.25222
#
# Static dielectric constant tensor:
#      x y z
#    x 3.731810 0.000000 0.000000 
#    y 0.000000 3.401310 0.000000 
#    z 0.000000 0.000000 3.407540 
# 
# 
# High freq. dielectric constant tensor:
#      x y z
#    x 1.783980 0.000000 0.000000 
#    y 0.000000 1.749530 0.000000 
#    z 0.000000 0.000000 1.754840 
# 
# From -- ./inp_files/7235.got.cif
#   From: 2010.03.12/outbox.cif.g09.slc.cpg/sg47_4_cif.got.tgz:7235.got - 2010.04.14 03:12:58.
