data_PCOD8195931
_publ_section_title
;
Structure prediction by ZEFSAII (Michael W. Deem and Ramdas Pophale) SiO2 
 PCOD8195931
Probable space group: P M M M
;
_chemical_formula_sum "Si O2"
_cell_formula_units_Z 56
_cell_length_a 22.100457
_cell_length_b 9.332472
_cell_length_c 13.770634
_cell_angle_alpha 90.000000
_cell_angle_beta 90.000000
_cell_angle_gamma 90.000000
_cell_volume 2840.219374
_symmetry_space_group_name_H-M "P M M M"
_symmetry_group_IT_number 47
_symmetry_cell_setting 'orthorhombic'
loop_
_space_group_symop_operation_xyz
x,y,z
-x,-y,z
x,-y,-z
-x,y,-z
-x,-y,-z
x,y,-z
-x,y,z
x,-y,z
loop_
_atom_site_type_symbol
_atom_site_label
_atom_site_fract_x
_atom_site_fract_y
_atom_site_fract_z
Si Si1 0.932340 0.833953 0.220736
Si Si2 0.171845 0.664075 0.114532
Si Si3 0.567925 0.000000 0.614903
Si Si4 0.292607 0.168847 0.111474
Si Si5 0.572369 0.500000 0.384828
Si Si6 0.885799 0.668558 0.612412
Si Si7 0.643042 0.245709 0.705034
Si Si8 0.766005 0.836273 0.385609
O O1 0.886624 0.747618 0.152710
O O2 0.935359 0.754241 0.325403
O O3 0.000000 0.825997 0.176342
O O4 0.912225 0.000000 0.231790
O O5 0.173685 0.500000 0.154125
O O6 0.232331 0.748290 0.146205
O O7 0.166687 0.663623 0.000000
O O8 0.602172 0.869542 0.656841
O O9 0.500000 0.000000 0.653478
O O10 0.570329 0.000000 0.500000
O O11 0.348220 0.223306 0.178767
O O12 0.281562 0.000000 0.126251
O O13 0.309116 0.204790 0.000000
O O14 0.500000 0.500000 0.372932
O O15 0.589011 0.500000 0.500000
O O16 0.603551 0.621197 0.323070
O O17 0.900001 0.695687 0.500000
O O18 0.885198 0.500000 0.636573
O O19 0.822598 0.739369 0.645745
O O20 0.709027 0.245038 0.657999
O O21 0.759139 0.839898 0.500000
O O22 0.771750 0.000000 0.345775
#
# Coordination Sequence:
#
# PCOD8195931 Si02
#       8
#     8   8   4   8   4   8   8   8
#     4  11  24  40  59  83 115 159 206 247 294 358
#     4  10  22  40  65  95 124 154 192 244 306 362
#     4  11  22  38  61  87 119 159 207 254 296 356
#     4  10  21  39  64  96 128 159 200 251 306 364
#     4  11  26  44  61  87 125 165 205 250 302 364
#     4  10  22  38  57  83 116 155 199 251 307 359
#     4  12  22  37  61  89 119 162 204 250 306 358
#     4  10  19  32  54  85 117 148 190 245 305 370
#
# _framework density 19.716785999999999
#
# number of rings (size 3 to 8) (size 9 to 14) (size 15 to 20)
#    0.000    1.429    1.429    3.857    2.000    4.571 
#    0.000    2.857    0.000    2.571    0.000    0.000 
#    0.000    0.000    0.000    0.000    0.000    0.000 
#
# Total GULP energy -694060.513465 kJ/mol
# GULP energy per Si atom -12393.937740 kJ/mol
# Density = 1.967191 g / cm^3
# Si number density = 19.716786 Si / 1000 Ang^3
#
#
#
# Elastic Constant Matrix: (Units=GPa)
#
#
# Indices 1 2 3 4 5 6 
#
# 1 176.4408 116.3941 112.5413 0.0000 0.0000 0.0000
# 2 116.3941 204.1074 83.0349 0.0000 0.0000 0.0000
# 3 112.5413 83.0349 102.6986 0.0000 0.0000 0.0000
# 4 0.0000 0.0000 0.0000 31.5993 0.0000 0.0000
# 5 0.0000 0.0000 0.0000 0.0000 30.9966 0.0000
# 6 0.0000 0.0000 0.0000 0.0000 0.0000 37.2407
#
#
#
# Elastic Compliance Matrix: (Units=1/GPa)
#
#
# Indices 1 2 3 4 5 6 
#
# 1 0.020660 -0.003831 -0.019542 0.000000 0.000000 0.000000
# 2 -0.003831 0.008011 -0.002279 0.000000 0.000000 0.000000
# 3 -0.019542 -0.002279 0.032995 0.000000 0.000000 0.000000
# 4 0.000000 0.000000 0.000000 0.031646 0.000000 0.000000
# 5 0.000000 0.000000 0.000000 0.000000 0.032262 0.000000
# 6 0.000000 0.000000 0.000000 0.000000 0.000000 0.026852
#
#
# Mechanical properties :
#
#
# Convention : Reuss Voigt Hill
#
# Bulk Modulus (GPa) = 96.51277 123.02081 109.76679
# Shear Modulus (GPa) = 24.13300 31.38577 27.75939
#
# Velocity S-wave (km/s) = 3.50234 3.99410 3.75628
# Velocity P-wave (km/s) = 8.08771 9.15423 8.63744
#
# Compressibility (1/GPa) = 0.01036132
#
# Stress axis : x y z
#
# Youngs Moduli (GPa) = 48.40277 124.82340 30.30764
#
# Poissons Ratio (x) = 0.47824 0.59228
# Poissons Ratio (y) = 0.18545 0.06907
# Poissons Ratio (z) = 0.94590 0.28445
#
# Static dielectric constant tensor:
#      x y z
#    x 3.756100 0.000000 0.000000 
#    y 0.000000 3.782640 0.000000 
#    z 0.000000 0.000000 3.789540 
# 
# 
# High freq. dielectric constant tensor:
#      x y z
#    x 1.761240 0.000000 0.000000 
#    y 0.000000 1.785950 0.000000 
#    z 0.000000 0.000000 1.775100 
# 
# From -- ./inp_files/25172.got.cif
#   From: 2010.03.12/outbox.cif.g09.slc.cpg/sg47_13_cif.got.tgz:25172.got - 2010.04.14 03:12:58.
