data_PCOD8195342
_publ_section_title
;
Structure prediction by ZEFSAII (Michael W. Deem and Ramdas Pophale) SiO2 
 PCOD8195342
Probable space group: P M M M
;
_chemical_formula_sum "Si O2"
_cell_formula_units_Z 64
_cell_length_a 13.607156
_cell_length_b 18.340026
_cell_length_c 14.452274
_cell_angle_alpha 90.000000
_cell_angle_beta 90.000000
_cell_angle_gamma 90.000000
_cell_volume 3606.645835
_symmetry_space_group_name_H-M "P M M M"
_symmetry_group_IT_number 47
_symmetry_cell_setting 'orthorhombic'
loop_
_space_group_symop_operation_xyz
x,y,z
-x,-y,z
x,-y,-z
-x,y,-z
-x,-y,-z
x,y,-z
-x,y,z
x,-y,z
loop_
_atom_site_type_symbol
_atom_site_label
_atom_site_fract_x
_atom_site_fract_y
_atom_site_fract_z
Si Si1 0.224916 0.225119 0.603874
Si Si2 0.615237 0.804778 0.252251
Si Si3 0.752727 0.919839 0.176067
Si Si4 0.208769 0.414908 0.105416
Si Si5 0.886057 0.693723 0.756884
Si Si6 0.115474 0.081054 0.352551
Si Si7 0.389417 0.682368 0.103808
Si Si8 0.890664 0.183052 0.099364
O O1 0.242070 0.254384 0.500000
O O2 0.330678 0.212687 0.651433
O O3 0.168714 0.289398 0.660284
O O4 0.165716 0.148509 0.594219
O O5 0.500000 0.811255 0.271944
O O6 0.654170 0.881145 0.212057
O O7 0.641629 0.743664 0.176745
O O8 0.839169 0.920575 0.251350
O O9 0.807228 0.879043 0.092310
O O10 0.720406 0.000000 0.144704
O O11 0.206845 0.500000 0.126000
O O12 0.144122 0.378178 0.186206
O O13 0.320320 0.387479 0.115791
O O14 0.170101 0.398900 0.000000
O O15 0.858953 0.761833 0.821177
O O16 0.000000 0.687239 0.733983
O O17 0.000000 0.097699 0.346732
O O18 0.133119 0.000000 0.398580
O O19 0.500000 0.655404 0.122945
O O20 0.379775 0.715336 0.000000
O O21 0.000000 0.151381 0.118249
O O22 0.889569 0.223824 0.000000
#
# Coordination Sequence:
#
# PCOD8195342 Si02
#       8
#     8   8   8   8   8   8   8   8
#     4  11  22  36  55  80 105 135 180 229 276 324
#     4  10  20  36  56  78 104 138 177 220 270 320
#     4  10  19  31  47  70 104 143 178 217 262 314
#     4  10  20  34  55  85 119 150 178 210 255 317
#     4  11  21  36  54  77 110 144 178 219 264 313
#     4   9  17  31  51  74 102 134 170 218 275 327
#     4   9  17  32  57  85 110 138 175 218 264 316
#     4  10  19  31  51  77 104 139 180 219 264 318
#
# _framework density 17.745018999999999
#
# number of rings (size 3 to 8) (size 9 to 14) (size 15 to 20)
#    0.000    2.000    3.750    1.125    0.000    5.500 
#    0.000    3.125    0.000    0.375    0.000    7.000 
#    0.000    2.000    0.000    0.000    0.000    0.000 
#
# Total GULP energy -793109.345691 kJ/mol
# GULP energy per Si atom -12392.333526 kJ/mol
# Density = 1.770463 g / cm^3
# Si number density = 17.745019 Si / 1000 Ang^3
#
#
#
# Elastic Constant Matrix: (Units=GPa)
#
#
# Indices 1 2 3 4 5 6 
#
# 1 108.9571 47.0400 42.1266 0.0000 0.0000 0.0000
# 2 47.0400 103.5802 43.2839 0.0000 0.0000 0.0000
# 3 42.1266 43.2839 101.1766 0.0000 0.0000 0.0000
# 4 0.0000 0.0000 0.0000 7.2007 0.0000 0.0000
# 5 0.0000 0.0000 0.0000 0.0000 15.6723 0.0000
# 6 0.0000 0.0000 0.0000 0.0000 0.0000 21.9948
#
#
#
# Elastic Compliance Matrix: (Units=1/GPa)
#
#
# Indices 1 2 3 4 5 6 
#
# 1 0.012267 -0.004185 -0.003317 0.000000 0.000000 0.000000
# 2 -0.004185 0.013184 -0.003898 0.000000 0.000000 0.000000
# 3 -0.003317 -0.003898 0.012932 0.000000 0.000000 0.000000
# 4 0.000000 0.000000 0.000000 0.138876 0.000000 0.000000
# 5 0.000000 0.000000 0.000000 0.000000 0.063807 0.000000
# 6 0.000000 0.000000 0.000000 0.000000 0.000000 0.045465
#
#
# Mechanical properties :
#
#
# Convention : Reuss Voigt Hill
#
# Bulk Modulus (GPa) = 64.16996 64.29055 64.23026
# Shear Modulus (GPa) = 15.89698 21.05779 18.47738
#
# Velocity S-wave (km/s) = 2.99633 3.44857 3.23037
# Velocity P-wave (km/s) = 6.94344 7.22258 7.08439
#
# Compressibility (1/GPa) = 0.01558362
#
# Stress axis : x y z
#
# Youngs Moduli (GPa) = 81.51786 75.85200 77.32534
#
# Poissons Ratio (x) = 0.31743 0.25652
# Poissons Ratio (y) = 0.34114 0.30138
# Poissons Ratio (z) = 0.27043 0.29564
#
# Static dielectric constant tensor:
#      x y z
#    x 3.283440 0.000000 0.000000 
#    y 0.000000 3.274420 0.000000 
#    z 0.000000 0.000000 3.162300 
# 
# 
# High freq. dielectric constant tensor:
#      x y z
#    x 1.690610 0.000000 0.000000 
#    y 0.000000 1.664910 0.000000 
#    z 0.000000 0.000000 1.673160 
# 
# From -- ./inp_files/24068.got.cif
#   From: 2010.03.12/outbox.cif.g09.slc.cpg/sg47_13_cif.got.tgz:24068.got - 2010.04.14 03:12:58.
