data_PCOD8195460
_publ_section_title
;
Structure prediction by ZEFSAII (Michael W. Deem and Ramdas Pophale) SiO2 
 PCOD8195460
Probable space group: P M M M
;
_chemical_formula_sum "Si O2"
_cell_formula_units_Z 64
_cell_length_a 18.653801
_cell_length_b 20.471679
_cell_length_c 8.992642
_cell_angle_alpha 90.000000
_cell_angle_beta 90.000000
_cell_angle_gamma 90.000000
_cell_volume 3434.061802
_symmetry_space_group_name_H-M "P M M M"
_symmetry_group_IT_number 47
_symmetry_cell_setting 'orthorhombic'
loop_
_space_group_symop_operation_xyz
x,y,z
-x,-y,z
x,-y,-z
-x,y,-z
-x,-y,-z
x,y,-z
-x,y,z
x,-y,z
loop_
_atom_site_type_symbol
_atom_site_label
_atom_site_fract_x
_atom_site_fract_y
_atom_site_fract_z
Si Si1 0.330177 0.686971 0.823818
Si Si2 0.919624 0.809473 0.676895
Si Si3 0.823189 0.688734 0.323250
Si Si4 0.581048 0.187987 0.175748
Si Si5 0.417466 0.575181 0.327500
Si Si6 0.920292 0.572514 0.676641
Si Si7 0.334139 0.075124 0.672987
Si Si8 0.172756 0.928103 0.677054
O O1 0.252397 0.694622 0.754661
O O2 0.375789 0.748861 0.766739
O O3 0.366837 0.620205 0.771335
O O4 0.324181 0.685305 0.000000
O O5 0.922621 0.811953 0.500000
O O6 0.872978 0.748250 0.729494
O O7 0.882637 0.875037 0.741219
O O8 0.000000 0.804010 0.742092
O O9 0.812164 0.688368 0.500000
O O10 0.861875 0.623308 0.263417
O O11 0.500000 0.195559 0.233203
O O12 0.612487 0.121114 0.238453
O O13 0.584338 0.183765 0.000000
O O14 0.402964 0.590117 0.500000
O O15 0.500000 0.589522 0.287073
O O16 0.398722 0.500000 0.291805
O O17 0.922296 0.575860 0.500000
O O18 0.898081 0.500000 0.730296
O O19 0.000000 0.590012 0.736613
O O20 0.340537 0.091998 0.500000
O O21 0.253269 0.088440 0.730332
O O22 0.355529 0.000000 0.703046
O O23 0.172342 0.927763 0.500000
O O24 0.149804 0.000000 0.735040
#
# Coordination Sequence:
#
# PCOD8195460 Si02
#       8
#     8   8   8   8   8   8   8   8
#     4  11  23  37  53  75 105 140 177 215 255 303
#     4   9  16  25  41  67  95 124 163 209 252 296
#     4  10  19  31  49  72  98 129 166 210 257 301
#     4  10  22  38  53  71  98 132 170 212 255 299
#     4   9  19  37  60  84 108 134 167 208 254 306
#     4   8  14  26  46  72  99 126 159 201 248 297
#     4   9  18  33  53  77 104 133 166 205 251 305
#     4   8  14  25  41  63  94 128 157 191 241 298
#
# _framework density 18.636823
#
# number of rings (size 3 to 8) (size 9 to 14) (size 15 to 20)
#    0.000    2.750    0.000    3.375    0.000    6.000 
#    0.000    4.375    0.000    1.500    0.000    0.875 
#    0.000    0.000    0.000   10.750    0.000    8.750 
#
# Total GULP energy -793480.895926 kJ/mol
# GULP energy per Si atom -12398.138999 kJ/mol
# Density = 1.859441 g / cm^3
# Si number density = 18.636823 Si / 1000 Ang^3
#
#
#
# Elastic Constant Matrix: (Units=GPa)
#
#
# Indices 1 2 3 4 5 6 
#
# 1 170.0042 103.2464 33.9379 0.0000 0.0000 0.0000
# 2 103.2464 148.6536 28.7955 0.0000 0.0000 0.0000
# 3 33.9379 28.7955 23.0355 0.0000 0.0000 0.0000
# 4 0.0000 0.0000 0.0000 21.1189 0.0000 0.0000
# 5 0.0000 0.0000 0.0000 0.0000 12.1735 0.0000
# 6 0.0000 0.0000 0.0000 0.0000 0.0000 42.1024
#
#
#
# Elastic Compliance Matrix: (Units=1/GPa)
#
#
# Indices 1 2 3 4 5 6 
#
# 1 0.011472 -0.006194 -0.009159 0.000000 0.000000 0.000000
# 2 -0.006194 0.012220 -0.006151 0.000000 0.000000 0.000000
# 3 -0.009159 -0.006151 0.064595 0.000000 0.000000 0.000000
# 4 0.000000 0.000000 0.000000 0.047351 0.000000 0.000000
# 5 0.000000 0.000000 0.000000 0.000000 0.082146 0.000000
# 6 0.000000 0.000000 0.000000 0.000000 0.000000 0.023752
#
#
# Mechanical properties :
#
#
# Convention : Reuss Voigt Hill
#
# Bulk Modulus (GPa) = 22.08521 74.85034 48.46777
# Shear Modulus (GPa) = 16.68687 26.79320 21.74003
#
# Velocity S-wave (km/s) = 2.99552 3.79575 3.41913
# Velocity P-wave (km/s) = 4.88265 7.71103 6.45369
#
# Compressibility (1/GPa) = 0.04527917
#
# Stress axis : x y z
#
# Youngs Moduli (GPa) = 87.16683 81.83084 15.48112
#
# Poissons Ratio (x) = 0.50684 0.14180
# Poissons Ratio (y) = 0.53989 0.09522
# Poissons Ratio (z) = 0.79840 0.50334
#
# Static dielectric constant tensor:
#      x y z
#    x 3.579180 0.000000 0.000000 
#    y 0.000000 3.710760 0.000000 
#    z 0.000000 0.000000 2.916190 
# 
# 
# High freq. dielectric constant tensor:
#      x y z
#    x 1.730750 0.000000 0.000000 
#    y 0.000000 1.740270 0.000000 
#    z 0.000000 0.000000 1.671630 
# 
# From -- ./inp_files/9909.got.cif
#   From: 2010.03.12/outbox.cif.g09.slc.cpg/sg47_5_cif.got.tgz:9909.got - 2010.04.14 03:12:58.
