data_PCOD8195902
_publ_section_title
;
Structure prediction by ZEFSAII (Michael W. Deem and Ramdas Pophale) SiO2 
 PCOD8195902
Probable space group: P M M M
;
_chemical_formula_sum "Si O2"
_cell_formula_units_Z 48
_cell_length_a 29.171391
_cell_length_b 10.110896
_cell_length_c 8.842042
_cell_angle_alpha 90.000000
_cell_angle_beta 90.000000
_cell_angle_gamma 90.000000
_cell_volume 2607.950567
_symmetry_space_group_name_H-M "P M M M"
_symmetry_group_IT_number 47
_symmetry_cell_setting 'orthorhombic'
loop_
_space_group_symop_operation_xyz
x,y,z
-x,-y,z
x,-y,-z
-x,y,-z
-x,-y,-z
x,y,-z
-x,y,z
x,-y,z
loop_
_atom_site_type_symbol
_atom_site_label
_atom_site_fract_x
_atom_site_fract_y
_atom_site_fract_z
Si Si1 0.446477 0.650204 0.325702
Si Si2 0.050885 0.000000 0.679379
Si Si3 0.378626 0.848507 0.822731
Si Si4 0.104580 0.744713 0.320383
Si Si5 0.193362 0.846440 0.177807
Si Si6 0.286048 0.843114 0.330221
Si Si7 0.053016 0.500000 0.178985
O O1 0.434384 0.677982 0.500000
O O2 0.500000 0.670648 0.296053
O O3 0.432361 0.500000 0.282533
O O4 0.420647 0.755416 0.221981
O O5 0.077665 0.872880 0.738179
O O6 0.048376 0.000000 0.500000
O O7 0.000000 0.000000 0.749644
O O8 0.333023 0.791290 0.743309
O O9 0.389082 0.000000 0.772638
O O10 0.370341 0.841430 0.000000
O O11 0.104609 0.729523 0.500000
O O12 0.156448 0.755214 0.262081
O O13 0.078438 0.624762 0.246287
O O14 0.242855 0.794337 0.232144
O O15 0.186180 0.000000 0.223452
O O16 0.189160 0.825782 0.000000
O O17 0.281794 0.786779 0.500000
O O18 0.287046 0.000000 0.330229
O O19 0.000000 0.500000 0.230540
O O20 0.057462 0.500000 0.000000
#
# Coordination Sequence:
#
# PCOD8195902 Si02
#       7
#     8   4   8   8   8   8   4
#     4   9  19  36  56  77 104 142 187 231 275 325
#     4   9  18  32  53  83 113 137 173 227 272 309
#     4  10  20  33  51  79 113 145 180 224 275 327
#     4  11  21  36  59  84 111 144 185 227 270 323
#     4  10  19  32  53  82 116 147 178 220 274 328
#     4   9  17  30  51  78 108 143 184 225 268 320
#     4  11  25  43  59  79 111 149 185 223 274 333
#
# _framework density 18.405256999999999
#
# number of rings (size 3 to 8) (size 9 to 14) (size 15 to 20)
#    0.000    2.167    0.833    3.250    0.000    6.000 
#    0.000    2.500    1.833    2.000    0.000    0.000 
#    0.000    0.000    0.000    0.000    0.000    0.000 
#
# Total GULP energy -595265.201085 kJ/mol
# GULP energy per Si atom -12401.358356 kJ/mol
# Density = 1.836337 g / cm^3
# Si number density = 18.405257 Si / 1000 Ang^3
#
#
#
# Elastic Constant Matrix: (Units=GPa)
#
#
# Indices 1 2 3 4 5 6 
#
# 1 119.9180 55.6340 43.1677 0.0000 0.0000 0.0000
# 2 55.6340 96.9010 37.1563 0.0000 0.0000 0.0000
# 3 43.1677 37.1563 80.3136 0.0000 0.0000 0.0000
# 4 0.0000 0.0000 0.0000 28.1243 0.0000 0.0000
# 5 0.0000 0.0000 0.0000 0.0000 35.1716 0.0000
# 6 0.0000 0.0000 0.0000 0.0000 0.0000 30.7857
#
#
#
# Elastic Compliance Matrix: (Units=1/GPa)
#
#
# Indices 1 2 3 4 5 6 
#
# 1 0.012382 -0.005540 -0.004092 0.000000 0.000000 0.000000
# 2 -0.005540 0.015024 -0.003973 0.000000 0.000000 0.000000
# 3 -0.004092 -0.003973 0.016489 0.000000 0.000000 0.000000
# 4 0.000000 0.000000 0.000000 0.035556 0.000000 0.000000
# 5 0.000000 0.000000 0.000000 0.000000 0.028432 0.000000
# 6 0.000000 0.000000 0.000000 0.000000 0.000000 0.032483
#
#
# Mechanical properties :
#
#
# Convention : Reuss Voigt Hill
#
# Bulk Modulus (GPa) = 59.93588 63.22762 61.58175
# Shear Modulus (GPa) = 28.87864 29.56129 29.21997
#
# Velocity S-wave (km/s) = 3.96541 4.01201 3.98878
# Velocity P-wave (km/s) = 7.32129 7.47591 7.39900
#
# Compressibility (1/GPa) = 0.01668450
#
# Stress axis : x y z
#
# Youngs Moduli (GPa) = 80.76016 66.56068 60.64695
#
# Poissons Ratio (x) = 0.36874 0.24819
# Poissons Ratio (y) = 0.44740 0.24095
# Poissons Ratio (z) = 0.33050 0.26445
#
# Static dielectric constant tensor:
#      x y z
#    x 3.531690 0.000000 0.000000 
#    y 0.000000 3.126670 0.000000 
#    z 0.000000 0.000000 3.368750 
# 
# 
# High freq. dielectric constant tensor:
#      x y z
#    x 1.726960 0.000000 0.000000 
#    y 0.000000 1.686530 0.000000 
#    z 0.000000 0.000000 1.717460 
# 
# From -- ./inp_files/13855.got.cif
#   From: 2010.03.12/outbox.cif.g09.slc.cpg/sg47_7_cif.got.tgz:13855.got - 2010.04.14 03:12:58.
