data_PCOD8195420
_publ_section_title
;
Structure prediction by ZEFSAII (Michael W. Deem and Ramdas Pophale) SiO2 
 PCOD8195420
Probable space group: P M M M
;
_chemical_formula_sum "Si O2"
_cell_formula_units_Z 64
_cell_length_a 20.112554
_cell_length_b 8.983915
_cell_length_c 20.070475
_cell_angle_alpha 90.000000
_cell_angle_beta 90.000000
_cell_angle_gamma 90.000000
_cell_volume 3626.523602
_symmetry_space_group_name_H-M "P M M M"
_symmetry_group_IT_number 47
_symmetry_cell_setting 'orthorhombic'
loop_
_space_group_symop_operation_xyz
x,y,z
-x,-y,z
x,-y,-z
-x,y,-z
-x,-y,-z
x,y,-z
-x,y,z
x,-y,z
loop_
_atom_site_type_symbol
_atom_site_label
_atom_site_fract_x
_atom_site_fract_y
_atom_site_fract_z
Si Si1 0.427664 0.823533 0.789547
Si Si2 0.244433 0.168072 0.123750
Si Si3 0.671642 0.176613 0.322415
Si Si4 0.424874 0.328547 0.421833
Si Si5 0.385011 0.173464 0.071247
Si Si6 0.927636 0.326957 0.792900
Si Si7 0.102058 0.829326 0.073496
Si Si8 0.212339 0.324883 0.255405
O O1 0.500000 0.777674 0.761536
O O2 0.371196 0.763209 0.740437
O O3 0.420230 0.754537 0.863993
O O4 0.419883 0.000000 0.793850
O O5 0.306527 0.200671 0.076912
O O6 0.181143 0.189193 0.077139
O O7 0.245016 0.282353 0.185096
O O8 0.247970 0.000000 0.153749
O O9 0.632793 0.231634 0.387644
O O10 0.746143 0.244834 0.314888
O O11 0.677423 0.000000 0.325865
O O12 0.414876 0.307331 0.500000
O O13 0.500000 0.276083 0.401956
O O14 0.415538 0.500000 0.401301
O O15 0.402249 0.000000 0.069479
O O16 0.408424 0.243968 0.000000
O O17 0.915497 0.500000 0.803615
O O18 0.931710 0.259102 0.866703
O O19 0.865556 0.268147 0.747710
O O20 0.000000 0.295369 0.758493
O O21 0.080672 0.000000 0.081786
O O22 0.079442 0.771514 0.000000
O O23 0.216563 0.500000 0.268010
#
# Coordination Sequence:
#
# PCOD8195420 Si02
#       8
#     8   8   8   8   8   8   8   8
#     4   9  17  27  39  61  91 119 152 197 244 286
#     4   9  15  27  43  61  84 111 147 194 248 301
#     4  11  20  32  51  75 103 135 169 208 247 287
#     4   9  19  36  56  80 113 149 179 206 239 282
#     4   9  15  23  38  58  81 111 148 194 248 298
#     4   9  19  34  48  63  87 120 156 198 251 309
#     4   9  17  27  41  62  86 112 146 191 245 309
#     4  10  19  31  49  70  91 119 158 203 249 297
#
# _framework density 17.647756000000001
#
# number of rings (size 3 to 8) (size 9 to 14) (size 15 to 20)
#    0.000    2.625    1.250    1.875    0.000    4.000 
#    0.000    3.125    0.000    1.125    0.000    0.000 
#    0.000    1.500    0.000    5.750    0.000    1.625 
#
# Total GULP energy -792898.544955 kJ/mol
# GULP energy per Si atom -12389.039765 kJ/mol
# Density = 1.760759 g / cm^3
# Si number density = 17.647756 Si / 1000 Ang^3
#
#
#
# Elastic Constant Matrix: (Units=GPa)
#
#
# Indices 1 2 3 4 5 6 
#
# 1 115.0317 33.2702 38.5421 0.0000 0.0000 0.0000
# 2 33.2702 44.6086 23.9971 0.0000 0.0000 0.0000
# 3 38.5421 23.9971 61.5686 0.0000 0.0000 0.0000
# 4 0.0000 0.0000 0.0000 21.1399 0.0000 0.0000
# 5 0.0000 0.0000 0.0000 0.0000 10.6108 0.0000
# 6 0.0000 0.0000 0.0000 0.0000 0.0000 17.4218
#
#
#
# Elastic Compliance Matrix: (Units=1/GPa)
#
#
# Indices 1 2 3 4 5 6 
#
# 1 0.012276 -0.006354 -0.005208 0.000000 0.000000 0.000000
# 2 -0.006354 0.031653 -0.008360 0.000000 0.000000 0.000000
# 3 -0.005208 -0.008360 0.022761 0.000000 0.000000 0.000000
# 4 0.000000 0.000000 0.000000 0.047304 0.000000 0.000000
# 5 0.000000 0.000000 0.000000 0.000000 0.094244 0.000000
# 6 0.000000 0.000000 0.000000 0.000000 0.000000 0.057399
#
#
# Mechanical properties :
#
#
# Convention : Reuss Voigt Hill
#
# Bulk Modulus (GPa) = 37.24922 45.86972 41.55947
# Shear Modulus (GPa) = 15.90181 18.19446 17.04814
#
# Velocity S-wave (km/s) = 3.00503 3.21437 3.11146
# Velocity P-wave (km/s) = 5.76135 6.31066 6.04225
#
# Compressibility (1/GPa) = 0.02684620
#
# Stress axis : x y z
#
# Youngs Moduli (GPa) = 81.45927 31.59237 43.93535
#
# Poissons Ratio (x) = 0.20074 0.22883
# Poissons Ratio (y) = 0.51759 0.36728
# Poissons Ratio (z) = 0.42426 0.26410
#
# Static dielectric constant tensor:
#      x y z
#    x 3.566980 0.000000 0.000000 
#    y 0.000000 3.007790 0.000000 
#    z 0.000000 0.000000 3.081610 
# 
# 
# High freq. dielectric constant tensor:
#      x y z
#    x 1.691580 0.000000 0.000000 
#    y 0.000000 1.650700 0.000000 
#    z 0.000000 0.000000 1.645610 
# 
# From -- ./inp_files/31528.got.cif
#   From: 2010.03.12/outbox.cif.g09.slc.cpg/sg47_16_cif.got.tgz:31528.got - 2010.04.14 03:12:58.
