data_PCOD8195505
_publ_section_title
;
Structure prediction by ZEFSAII (Michael W. Deem and Ramdas Pophale) SiO2 
 PCOD8195505
Probable space group: P M M M
;
_chemical_formula_sum "Si O2"
_cell_formula_units_Z 64
_cell_length_a 23.782740
_cell_length_b 9.448361
_cell_length_c 15.165519
_cell_angle_alpha 90.000000
_cell_angle_beta 90.000000
_cell_angle_gamma 90.000000
_cell_volume 3407.812125
_symmetry_space_group_name_H-M "P M M M"
_symmetry_group_IT_number 47
_symmetry_cell_setting 'orthorhombic'
loop_
_space_group_symop_operation_xyz
x,y,z
-x,-y,z
x,-y,-z
-x,y,-z
-x,-y,-z
x,y,-z
-x,y,z
x,-y,z
loop_
_atom_site_type_symbol
_atom_site_label
_atom_site_fract_x
_atom_site_fract_y
_atom_site_fract_z
Si Si1 0.249151 0.658777 0.596283
Si Si2 0.936517 0.657697 0.398977
Si Si3 0.063043 0.658540 0.104091
Si Si4 0.155832 0.156753 0.342921
Si Si5 0.719496 0.664621 0.098726
Si Si6 0.828174 0.839438 0.854691
Si Si7 0.342055 0.332456 0.728387
Si Si8 0.436686 0.668469 0.400783
O O1 0.278244 0.659619 0.500000
O O2 0.231287 0.500000 0.622997
O O3 0.194082 0.754654 0.590418
O O4 0.291381 0.721979 0.667738
O O5 0.932069 0.707477 0.500000
O O6 0.911498 0.500000 0.388679
O O7 0.904241 0.766781 0.336505
O O8 0.000000 0.659393 0.365795
O O9 0.075820 0.500000 0.141547
O O10 0.110985 0.768109 0.133289
O O11 0.000000 0.706433 0.135397
O O12 0.063916 0.651624 0.000000
O O13 0.185201 0.154425 0.248355
O O14 0.147796 0.000000 0.380995
O O15 0.734018 0.500000 0.117202
O O16 0.777757 0.751064 0.101480
O O17 0.672455 0.717483 0.170865
O O18 0.694012 0.683820 0.000000
O O19 0.829568 0.000000 0.893464
O O20 0.347140 0.500000 0.726659
O O21 0.398087 0.270198 0.680081
O O22 0.418386 0.720061 0.500000
O O23 0.500000 0.720597 0.381372
O O24 0.433590 0.500000 0.400123
#
# Coordination Sequence:
#
# PCOD8195505 Si02
#       8
#     8   8   8   8   8   8   8   8
#     4  10  19  31  50  73  96 128 168 206 247 296
#     4   9  19  36  55  72  90 118 161 207 247 294
#     4   9  19  36  56  76  96 120 155 201 256 319
#     4  11  23  35  47  68  99 129 158 198 250 307
#     4  10  20  34  53  74  97 132 176 217 260 311
#     4  11  23  36  50  71 100 131 165 208 259 314
#     4   9  16  28  46  70 101 135 172 215 253 291
#     4   8  13  22  40  70 108 146 179 211 252 301
#
# _framework density 18.780377000000001
#
# number of rings (size 3 to 8) (size 9 to 14) (size 15 to 20)
#    0.000    2.375    1.250    3.000    0.000    8.000 
#    0.000    3.750    0.000    0.375    0.000    2.625 
#    0.000    2.000    0.000    8.000    0.000    7.500 
#
# Total GULP energy -792953.734482 kJ/mol
# GULP energy per Si atom -12389.902101 kJ/mol
# Density = 1.873763 g / cm^3
# Si number density = 18.780377 Si / 1000 Ang^3
#
#
#
# Elastic Constant Matrix: (Units=GPa)
#
#
# Indices 1 2 3 4 5 6 
#
# 1 110.6722 41.6183 52.0272 0.0000 0.0000 0.0000
# 2 41.6183 77.9285 27.0063 0.0000 0.0000 0.0000
# 3 52.0272 27.0063 105.2419 0.0000 0.0000 0.0000
# 4 0.0000 0.0000 0.0000 14.8327 0.0000 0.0000
# 5 0.0000 0.0000 0.0000 0.0000 29.5173 0.0000
# 6 0.0000 0.0000 0.0000 0.0000 0.0000 1.4714
#
#
#
# Elastic Compliance Matrix: (Units=1/GPa)
#
#
# Indices 1 2 3 4 5 6 
#
# 1 0.013569 -0.005402 -0.005322 0.000000 0.000000 0.000000
# 2 -0.005402 0.016236 -0.001496 0.000000 0.000000 0.000000
# 3 -0.005322 -0.001496 0.012516 0.000000 0.000000 0.000000
# 4 0.000000 0.000000 0.000000 0.067419 0.000000 0.000000
# 5 0.000000 0.000000 0.000000 0.000000 0.033878 0.000000
# 6 0.000000 0.000000 0.000000 0.000000 0.000000 0.679619
#
#
# Mechanical properties :
#
#
# Convention : Reuss Voigt Hill
#
# Bulk Modulus (GPa) = 55.92197 59.46070 57.69133
# Shear Modulus (GPa) = 5.85729 20.71033 13.28381
#
# Velocity S-wave (km/s) = 1.76794 3.32439 2.66244
# Velocity P-wave (km/s) = 5.83172 6.81654 6.34327
#
# Compressibility (1/GPa) = 0.01788206
#
# Stress axis : x y z
#
# Youngs Moduli (GPa) = 73.69753 61.59245 79.89461
#
# Poissons Ratio (x) = 0.33275 0.42517
# Poissons Ratio (y) = 0.39814 0.11949
# Poissons Ratio (z) = 0.39219 0.09212
#
# Static dielectric constant tensor:
#      x y z
#    x 3.479240 0.000000 0.000000 
#    y 0.000000 3.271270 0.000000 
#    z 0.000000 0.000000 3.602630 
# 
# 
# High freq. dielectric constant tensor:
#      x y z
#    x 1.709050 0.000000 0.000000 
#    y 0.000000 1.692960 0.000000 
#    z 0.000000 0.000000 1.733720 
# 
# From -- ./inp_files/12695.got.cif
#   From: 2010.03.12/outbox.cif.g09.slc.cpg/sg47_7_cif.got.tgz:12695.got - 2010.04.14 03:12:58.
