data_PCOD8195470
_publ_section_title
;
Structure prediction by ZEFSAII (Michael W. Deem and Ramdas Pophale) SiO2 
 PCOD8195470
Probable space group: P M M M
;
_chemical_formula_sum "Si O2"
_cell_formula_units_Z 48
_cell_length_a 14.106780
_cell_length_b 8.959079
_cell_length_c 20.735292
_cell_angle_alpha 90.000000
_cell_angle_beta 90.000000
_cell_angle_gamma 90.000000
_cell_volume 2620.604094
_symmetry_space_group_name_H-M "P M M M"
_symmetry_group_IT_number 47
_symmetry_cell_setting 'orthorhombic'
loop_
_space_group_symop_operation_xyz
x,y,z
-x,-y,z
x,-y,-z
-x,y,-z
-x,-y,-z
x,y,-z
-x,y,z
x,-y,z
loop_
_atom_site_type_symbol
_atom_site_label
_atom_site_fract_x
_atom_site_fract_y
_atom_site_fract_z
Si Si1 0.294474 0.676781 0.127933
Si Si2 0.392197 0.321525 0.000000
Si Si3 0.611852 0.329296 0.259548
Si Si4 0.296953 0.173076 0.379180
Si Si5 0.104152 0.676600 0.814512
Si Si6 0.105532 0.171433 0.318801
Si Si7 0.391953 0.676635 0.500000
O O1 0.299759 0.500000 0.122869
O O2 0.339205 0.745123 0.062927
O O3 0.354150 0.729562 0.189908
O O4 0.184901 0.730872 0.135401
O O5 0.389777 0.500000 0.000000
O O6 0.500000 0.263931 0.000000
O O7 0.500000 0.318337 0.262574
O O8 0.645670 0.500000 0.271413
O O9 0.654340 0.221205 0.313016
O O10 0.183550 0.202981 0.374071
O O11 0.337710 0.268296 0.437247
O O12 0.318739 0.000000 0.392113
O O13 0.103514 0.500000 0.811261
O O14 0.130942 0.731305 0.743395
O O15 0.000000 0.737016 0.835845
O O16 0.000000 0.210746 0.345331
O O17 0.110734 0.000000 0.296794
O O18 0.391338 0.500000 0.500000
O O19 0.500000 0.736678 0.500000
#
# Coordination Sequence:
#
# PCOD8195470 Si02
#       7
#     8   4   8   8   8   8   4
#     4   9  16  27  43  67  99 133 172 215 257 305
#     4   9  16  26  41  63  96 139 179 213 256 310
#     4  10  19  31  49  73 101 133 171 216 262 308
#     4  11  22  36  56  81 106 134 170 213 259 302
#     4   9  16  27  46  72 100 130 165 210 264 312
#     4   9  18  33  53  78 106 135 168 206 252 306
#     4  11  25  43  60  77 104 144 179 207 248 303
#
# _framework density 18.316386999999999
#
# number of rings (size 3 to 8) (size 9 to 14) (size 15 to 20)
#    0.000    2.333    1.667    1.750    0.000    5.667 
#    0.000    0.833    0.000    5.000    0.000    2.333 
#    0.000    6.667    0.000    0.000    0.000    0.000 
#
# Total GULP energy -595036.289055 kJ/mol
# GULP energy per Si atom -12396.589355 kJ/mol
# Density = 1.827470 g / cm^3
# Si number density = 18.316387 Si / 1000 Ang^3
#
#
#
# Elastic Constant Matrix: (Units=GPa)
#
#
# Indices 1 2 3 4 5 6 
#
# 1 143.5463 27.6159 71.2387 0.0000 0.0000 0.0000
# 2 27.6159 27.4169 19.4368 0.0000 0.0000 0.0000
# 3 71.2387 19.4368 118.0408 0.0000 0.0000 0.0000
# 4 0.0000 0.0000 0.0000 -9.3704 0.0000 0.0000
# 5 0.0000 0.0000 0.0000 0.0000 30.5388 0.0000
# 6 0.0000 0.0000 0.0000 0.0000 0.0000 20.1131
#
#
#
# Elastic Compliance Matrix: (Units=1/GPa)
#
#
# Indices 1 2 3 4 5 6 
#
# 1 0.011095 -0.007278 -0.005497 0.000000 0.000000 0.000000
# 2 -0.007278 0.046069 -0.003193 0.000000 0.000000 0.000000
# 3 -0.005497 -0.003193 0.012315 0.000000 0.000000 0.000000
# 4 0.000000 0.000000 0.000000 -0.106719 0.000000 0.000000
# 5 0.000000 0.000000 0.000000 0.000000 0.032745 0.000000
# 6 0.000000 0.000000 0.000000 0.000000 0.000000 0.049719
#
#
# Mechanical properties :
#
#
# Convention : Reuss Voigt Hill
#
# Bulk Modulus (GPa) = 26.63751 58.39853 42.51802
# Shear Modulus (GPa) = 55.75686 19.63713 37.69700
#
# Velocity S-wave (km/s) = 5.52332 3.27786 4.54155
# Velocity P-wave (km/s) = 7.43308 6.80281 7.12492
#
# Compressibility (1/GPa) = 0.03754105
#
# Stress axis : x y z
#
# Youngs Moduli (GPa) = 90.13234 21.70672 81.20047
#
# Poissons Ratio (x) = 0.15798 0.44639
# Poissons Ratio (y) = 0.65599 0.25930
# Poissons Ratio (z) = 0.49549 0.06932
#
# Static dielectric constant tensor:
#      x y z
#    x 3.930750 0.000000 0.000000 
#    y 0.000000 3.129090 0.000000 
#    z 0.000000 0.000000 3.550150 
# 
# 
# High freq. dielectric constant tensor:
#      x y z
#    x 1.733950 0.000000 0.000000 
#    y 0.000000 1.679610 0.000000 
#    z 0.000000 0.000000 1.691570 
# 
# From -- ./inp_files/9222.got.cif
#   From: 2010.03.12/outbox.cif.g09.slc.cpg/sg47_5_cif.got.tgz:9222.got - 2010.04.14 03:12:58.
