data_PCOD8195062
_publ_section_title
;
Structure prediction by ZEFSAII (Michael W. Deem and Ramdas Pophale) SiO2 
 PCOD8195062
Probable space group: P M M M
;
_chemical_formula_sum "Si O2"
_cell_formula_units_Z 60
_cell_length_a 9.229275
_cell_length_b 18.264574
_cell_length_c 22.320108
_cell_angle_alpha 90.000000
_cell_angle_beta 90.000000
_cell_angle_gamma 90.000000
_cell_volume 3762.473290
_symmetry_space_group_name_H-M "P M M M"
_symmetry_group_IT_number 47
_symmetry_cell_setting 'orthorhombic'
loop_
_space_group_symop_operation_xyz
x,y,z
-x,-y,z
x,-y,-z
-x,y,-z
-x,-y,-z
x,y,-z
-x,y,z
x,-y,z
loop_
_atom_site_type_symbol
_atom_site_label
_atom_site_fract_x
_atom_site_fract_y
_atom_site_fract_z
Si Si1 0.829926 0.000000 0.065936
Si Si2 0.671518 0.421280 0.640137
Si Si3 0.169890 0.879119 0.159324
Si Si4 0.170056 0.797535 0.330512
Si Si5 0.338349 0.082014 0.273860
Si Si6 0.832431 0.276474 0.794911
Si Si7 0.329002 0.583005 0.224520
Si Si8 0.671391 0.715948 0.431364
O O1 0.786929 0.076474 0.099102
O O2 0.000000 0.000000 0.058530
O O3 0.756039 0.000000 0.000000
O O4 0.500000 0.422302 0.642996
O O5 0.730548 0.500000 0.618358
O O6 0.726786 0.405796 0.707400
O O7 0.726351 0.362813 0.592108
O O8 0.267405 0.917343 0.208728
O O9 0.203039 0.791001 0.158961
O O10 0.000000 0.890103 0.175101
O O11 0.234474 0.877443 0.320241
O O12 0.210722 0.748129 0.272642
O O13 0.244571 0.773836 0.391780
O O14 0.000000 0.801486 0.340193
O O15 0.500000 0.117201 0.271286
O O16 0.349557 0.000000 0.297407
O O17 0.746041 0.350893 0.813028
O O18 0.000000 0.296854 0.798525
O O19 0.500000 0.593031 0.218489
O O20 0.286281 0.500000 0.202815
O O21 0.717736 0.725016 0.500000
O O22 0.500000 0.725656 0.422851
#
# Coordination Sequence:
#
# PCOD8195062 Si02
#       8
#     4   8   8   8   8   8   8   8
#     4   9  16  28  49  73 101 141 176 195 214 249
#     4   8  14  25  40  59  83 109 141 181 223 267
#     4   9  17  29  45  68  99 129 162 195 221 258
#     4  10  20  32  46  64  87 116 146 179 226 277
#     4  10  19  30  48  72  94 114 143 184 227 270
#     4   9  17  27  41  63  88 117 150 188 231 270
#     4   9  16  26  42  62  84 114 149 186 231 282
#     4  10  19  30  46  65  84 109 144 185 226 272
#
# _framework density 15.946956999999999
#
# number of rings (size 3 to 8) (size 9 to 14) (size 15 to 20)
#    0.000    2.733    2.000    2.400    0.000    3.733 
#    0.000    1.333    0.000    1.600    0.000    3.733 
#    0.000    0.533    0.000    6.667    0.000    1.067 
#
# Total GULP energy -743355.186755 kJ/mol
# GULP energy per Si atom -12389.253113 kJ/mol
# Density = 1.591066 g / cm^3
# Si number density = 15.946957 Si / 1000 Ang^3
#
#
#
# Elastic Constant Matrix: (Units=GPa)
#
#
# Indices 1 2 3 4 5 6 
#
# 1 21.1008 34.5621 14.4703 0.0000 0.0000 0.0000
# 2 34.5621 125.5768 51.2210 0.0000 0.0000 0.0000
# 3 14.4703 51.2210 74.0811 0.0000 0.0000 0.0000
# 4 0.0000 0.0000 0.0000 15.6009 0.0000 0.0000
# 5 0.0000 0.0000 0.0000 0.0000 11.3860 0.0000
# 6 0.0000 0.0000 0.0000 0.0000 0.0000 24.4310
#
#
#
# Elastic Compliance Matrix: (Units=1/GPa)
#
#
# Indices 1 2 3 4 5 6 
#
# 1 0.086313 -0.023509 -0.000605 0.000000 0.000000 0.000000
# 2 -0.023509 0.017494 -0.007504 0.000000 0.000000 0.000000
# 3 -0.000605 -0.007504 0.018805 0.000000 0.000000 0.000000
# 4 0.000000 0.000000 0.000000 0.064099 0.000000 0.000000
# 5 0.000000 0.000000 0.000000 0.000000 0.087827 0.000000
# 6 0.000000 0.000000 0.000000 0.000000 0.000000 0.040932
#
#
# Mechanical properties :
#
#
# Convention : Reuss Voigt Hill
#
# Bulk Modulus (GPa) = 16.84161 46.80728 31.82444
# Shear Modulus (GPa) = 12.54714 18.31726 15.43220
#
# Velocity S-wave (km/s) = 2.80805 3.39283 3.11420
# Velocity P-wave (km/s) = 4.59320 6.69059 5.73853
#
# Compressibility (1/GPa) = 0.05937675
#
# Stress axis : x y z
#
# Youngs Moduli (GPa) = 11.58578 57.16177 53.17677
#
# Poissons Ratio (x) = 1.34380 0.03218
# Poissons Ratio (y) = 0.27237 0.39903
# Poissons Ratio (z) = 0.00701 0.42893
#
# Static dielectric constant tensor:
#      x y z
#    x 2.902550 0.000000 0.000000 
#    y 0.000000 3.461670 0.000000 
#    z 0.000000 0.000000 2.837030 
# 
# 
# High freq. dielectric constant tensor:
#      x y z
#    x 1.600230 0.000000 0.000000 
#    y 0.000000 1.622890 0.000000 
#    z 0.000000 0.000000 1.561920 
# 
# From -- ./inp_files/32222.got.cif
#   From: 2010.03.12/outbox.cif.g09.slc.cpg/sg47_17_cif.got.tgz:32222.got - 2010.04.14 03:12:58.
