data_PCOD8195748
_publ_section_title
;
Structure prediction by ZEFSAII (Michael W. Deem and Ramdas Pophale) SiO2 
 PCOD8195748
Probable space group: P M M M
;
_chemical_formula_sum "Si O2"
_cell_formula_units_Z 44
_cell_length_a 8.036077
_cell_length_b 29.821657
_cell_length_c 9.341726
_cell_angle_alpha 90.000000
_cell_angle_beta 90.000000
_cell_angle_gamma 90.000000
_cell_volume 2238.736527
_symmetry_space_group_name_H-M "P M M M"
_symmetry_group_IT_number 47
_symmetry_cell_setting 'orthorhombic'
loop_
_space_group_symop_operation_xyz
x,y,z
-x,-y,z
x,-y,-z
-x,y,-z
-x,-y,-z
x,y,-z
-x,y,z
x,-y,z
loop_
_atom_site_type_symbol
_atom_site_label
_atom_site_fract_x
_atom_site_fract_y
_atom_site_fract_z
Si Si1 0.195737 0.550680 0.838441
Si Si2 0.697658 0.715083 0.163013
Si Si3 0.684114 0.105519 0.330075
Si Si4 0.807458 0.799493 0.338849
Si Si5 0.000000 0.949097 0.670898
Si Si6 0.307056 0.631946 0.658049
O O1 0.245962 0.500000 0.796805
O O2 0.284669 0.583721 0.729590
O O3 0.000000 0.557240 0.826513
O O4 0.255472 0.561176 0.000000
O O5 0.500000 0.717344 0.171924
O O6 0.774141 0.758946 0.233049
O O7 0.770785 0.671498 0.245082
O O8 0.759310 0.711958 0.000000
O O9 0.693372 0.103008 0.500000
O O10 0.500000 0.089596 0.276825
O O11 0.708917 0.157032 0.282114
O O12 0.832241 0.074462 0.267209
O O13 0.749937 0.786295 0.500000
O O14 0.000000 0.812562 0.338777
O O15 0.000000 0.946751 0.500000
O O16 0.000000 0.000000 0.725974
O O17 0.223539 0.632227 0.500000
O O18 0.500000 0.641710 0.641728
#
# Coordination Sequence:
#
# PCOD8195748 Si02
#       6
#     8   8   8   8   4   8
#     4   9  19  36  56  77 102 134 172 213 259 312
#     4  10  21  36  53  74 101 133 170 212 260 315
#     4   9  16  27  44  66  96 136 178 221 270 320
#     4  10  19  32  51  74 101 134 175 219 262 316
#     4   9  16  26  40  64 101 139 179 225 268 321
#     4  10  21  36  54  77 105 136 172 214 260 313
#
# _framework density 19.653941
#
# number of rings (size 3 to 8) (size 9 to 14) (size 15 to 20)
#    0.000    2.455    0.909    2.182    0.000    5.455 
#    0.000    4.545    0.000    0.000    0.000    0.000 
#    0.000    1.455    0.000    3.818    0.000    3.636 
#
# Total GULP energy -545503.001013 kJ/mol
# GULP energy per Si atom -12397.795478 kJ/mol
# Density = 1.960921 g / cm^3
# Si number density = 19.653941 Si / 1000 Ang^3
#
#
#
# Elastic Constant Matrix: (Units=GPa)
#
#
# Indices 1 2 3 4 5 6 
#
# 1 77.5040 51.5077 28.1508 0.0000 0.0000 0.0000
# 2 51.5077 143.1795 59.5471 0.0000 0.0000 0.0000
# 3 28.1508 59.5471 98.2674 0.0000 0.0000 0.0000
# 4 0.0000 0.0000 0.0000 5.4978 0.0000 0.0000
# 5 0.0000 0.0000 0.0000 0.0000 17.5930 0.0000
# 6 0.0000 0.0000 0.0000 0.0000 0.0000 31.8566
#
#
#
# Elastic Compliance Matrix: (Units=1/GPa)
#
#
# Indices 1 2 3 4 5 6 
#
# 1 0.017135 -0.005512 -0.001569 0.000000 0.000000 0.000000
# 2 -0.005512 0.011110 -0.005154 0.000000 0.000000 0.000000
# 3 -0.001569 -0.005154 0.013749 0.000000 0.000000 0.000000
# 4 0.000000 0.000000 0.000000 0.181889 0.000000 0.000000
# 5 0.000000 0.000000 0.000000 0.000000 0.056841 0.000000
# 6 0.000000 0.000000 0.000000 0.000000 0.000000 0.031391
#
#
# Mechanical properties :
#
#
# Convention : Reuss Voigt Hill
#
# Bulk Modulus (GPa) = 57.05802 66.37355 61.71579
# Shear Modulus (GPa) = 14.60169 22.97249 18.78709
#
# Velocity S-wave (km/s) = 2.72865 3.42255 3.09511
# Velocity P-wave (km/s) = 6.24674 7.03299 6.65149
#
# Compressibility (1/GPa) = 0.01752602
#
# Stress axis : x y z
#
# Youngs Moduli (GPa) = 58.35846 90.00544 72.73444
#
# Poissons Ratio (x) = 0.49610 0.11410
# Poissons Ratio (y) = 0.32167 0.37484
# Poissons Ratio (z) = 0.09155 0.46385
#
# Static dielectric constant tensor:
#      x y z
#    x 3.576860 0.000000 0.000000 
#    y 0.000000 3.641840 0.000000 
#    z 0.000000 0.000000 3.445940 
# 
# 
# High freq. dielectric constant tensor:
#      x y z
#    x 1.762970 0.000000 0.000000 
#    y 0.000000 1.770290 0.000000 
#    z 0.000000 0.000000 1.729260 
# 
# From -- ./inp_files/2317.got.cif
#   From: 2010.03.12/outbox.cif.g09.slc.cpg/sg47_2_cif.got.tgz:2317.got - 2010.04.14 03:12:58.
