data_PCOD8195903
_publ_section_title
;
Structure prediction by ZEFSAII (Michael W. Deem and Ramdas Pophale) SiO2 
 PCOD8195903
Probable space group: P M M M
;
_chemical_formula_sum "Si O2"
_cell_formula_units_Z 52
_cell_length_a 14.298256
_cell_length_b 7.992382
_cell_length_c 22.166075
_cell_angle_alpha 90.000000
_cell_angle_beta 90.000000
_cell_angle_gamma 90.000000
_cell_volume 2533.075299
_symmetry_space_group_name_H-M "P M M M"
_symmetry_group_IT_number 47
_symmetry_cell_setting 'orthorhombic'
loop_
_space_group_symop_operation_xyz
x,y,z
-x,-y,z
x,-y,-z
-x,y,-z
-x,-y,-z
x,y,-z
-x,y,z
x,-y,z
loop_
_atom_site_type_symbol
_atom_site_label
_atom_site_fract_x
_atom_site_fract_y
_atom_site_fract_z
Si Si1 0.229462 0.309892 0.065968
Si Si2 0.396958 0.810098 0.867679
Si Si3 0.896629 0.198106 0.694233
Si Si4 0.288650 0.808770 0.632584
Si Si5 0.392030 0.500000 0.428721
Si Si6 0.607844 0.310415 0.741557
Si Si7 0.109824 0.187302 0.827295
O O1 0.260770 0.500000 0.063571
O O2 0.324258 0.207165 0.078100
O O3 0.152876 0.291133 0.118013
O O4 0.190245 0.253030 0.000000
O O5 0.500000 0.744373 0.887352
O O6 0.357108 0.706714 0.810289
O O7 0.404246 0.000000 0.846635
O O8 0.819976 0.246341 0.643362
O O9 0.868202 0.267543 0.760991
O O10 0.000000 0.266455 0.675039
O O11 0.902268 0.000000 0.701298
O O12 0.339705 0.671047 0.591114
O O13 0.336134 0.813492 0.698154
O O14 0.294946 0.000000 0.605839
O O15 0.500000 0.500000 0.404484
O O16 0.391922 0.500000 0.500000
O O17 0.500000 0.257760 0.739113
O O18 0.623213 0.500000 0.718353
O O19 0.000000 0.185837 0.837220
O O20 0.151391 0.000000 0.831292
#
# Coordination Sequence:
#
# PCOD8195903 Si02
#       7
#     8   8   8   8   4   8   8
#     4  11  24  38  51  69  99 143 190 236 288 348
#     4  10  21  36  54  77 104 136 179 235 296 354
#     4   8  16  33  58  90 124 152 184 237 303 362
#     4  11  21  36  64  93 120 162 209 250 294 350
#     4  11  26  46  63  87 129 171 207 252 296 336
#     4  10  19  32  53  83 118 149 180 230 297 360
#     4   9  18  35  59  84 110 140 176 224 284 346
#
# _framework density 20.528407000000001
#
# number of rings (size 3 to 8) (size 9 to 14) (size 15 to 20)
#    0.000    2.077    0.769    3.692    0.000    6.462 
#    1.385    4.231    0.000    0.923    0.000    2.154 
#    0.000    0.000    0.000    0.000    0.000    0.000 
#
# Total GULP energy -644483.589268 kJ/mol
# GULP energy per Si atom -12393.915178 kJ/mol
# Density = 2.048168 g / cm^3
# Si number density = 20.528407 Si / 1000 Ang^3
#
#
#
# Elastic Constant Matrix: (Units=GPa)
#
#
# Indices 1 2 3 4 5 6 
#
# 1 90.3369 34.3086 48.6610 0.0000 0.0000 0.0000
# 2 34.3086 74.9164 28.3425 0.0000 0.0000 0.0000
# 3 48.6610 28.3425 73.6183 0.0000 0.0000 0.0000
# 4 0.0000 0.0000 0.0000 23.0326 0.0000 0.0000
# 5 0.0000 0.0000 0.0000 0.0000 25.9170 0.0000
# 6 0.0000 0.0000 0.0000 0.0000 0.0000 21.9840
#
#
#
# Elastic Compliance Matrix: (Units=1/GPa)
#
#
# Indices 1 2 3 4 5 6 
#
# 1 0.018388 -0.004474 -0.010432 0.000000 0.000000 0.000000
# 2 -0.004474 0.016713 -0.003477 0.000000 0.000000 0.000000
# 3 -0.010432 -0.003477 0.021817 0.000000 0.000000 0.000000
# 4 0.000000 0.000000 0.000000 0.043417 0.000000 0.000000
# 5 0.000000 0.000000 0.000000 0.000000 0.038585 0.000000
# 6 0.000000 0.000000 0.000000 0.000000 0.000000 0.045488
#
#
# Mechanical properties :
#
#
# Convention : Reuss Voigt Hill
#
# Bulk Modulus (GPa) = 49.62195 51.27734 50.44964
# Shear Modulus (GPa) = 21.94033 22.69067 22.31550
#
# Velocity S-wave (km/s) = 3.27277 3.32826 3.30063
# Velocity P-wave (km/s) = 6.20533 6.30894 6.25735
#
# Compressibility (1/GPa) = 0.02015237
#
# Stress axis : x y z
#
# Youngs Moduli (GPa) = 54.38257 59.83503 45.83493
#
# Poissons Ratio (x) = 0.26773 0.47814
# Poissons Ratio (y) = 0.24333 0.15935
# Poissons Ratio (z) = 0.56731 0.20803
#
# Static dielectric constant tensor:
#      x y z
#    x 3.936320 0.000000 0.000000 
#    y 0.000000 3.574750 0.000000 
#    z 0.000000 0.000000 3.494580 
# 
# 
# High freq. dielectric constant tensor:
#      x y z
#    x 1.810950 0.000000 0.000000 
#    y 0.000000 1.791810 0.000000 
#    z 0.000000 0.000000 1.771420 
# 
# From -- ./inp_files/30886.got.cif
#   From: 2010.03.12/outbox.cif.g09.slc.cpg/sg47_16_cif.got.tgz:30886.got - 2010.04.14 03:12:58.
