data_PCOD8195962
_publ_section_title
;
Structure prediction by ZEFSAII (Michael W. Deem and Ramdas Pophale) SiO2 
 PCOD8195962
Probable space group: P M M M
;
_chemical_formula_sum "Si O2"
_cell_formula_units_Z 36
_cell_length_a 11.642596
_cell_length_b 9.157052
_cell_length_c 20.643672
_cell_angle_alpha 90.000000
_cell_angle_beta 90.000000
_cell_angle_gamma 90.000000
_cell_volume 2200.860207
_symmetry_space_group_name_H-M "P M M M"
_symmetry_group_IT_number 47
_symmetry_cell_setting 'orthorhombic'
loop_
_space_group_symop_operation_xyz
x,y,z
-x,-y,z
x,-y,-z
-x,y,-z
-x,-y,-z
x,y,-z
-x,y,z
x,-y,z
loop_
_atom_site_type_symbol
_atom_site_label
_atom_site_fract_x
_atom_site_fract_y
_atom_site_fract_z
Si Si1 0.367588 0.169810 0.747944
Si Si2 0.637078 0.834889 0.000000
Si Si3 0.000000 0.827563 0.572518
Si Si4 0.364412 0.333480 0.500000
Si Si5 0.245749 0.172187 0.383436
Si Si6 0.636691 0.335298 0.874977
O O1 0.500000 0.207749 0.732562
O O2 0.291120 0.217278 0.687013
O O3 0.320313 0.259284 0.809230
O O4 0.353527 0.000000 0.764387
O O5 0.685318 0.752748 0.063400
O O6 0.500000 0.833960 0.000000
O O7 0.683964 0.000000 0.000000
O O8 0.113238 0.776598 0.611099
O O9 0.000000 0.759526 0.500000
O O10 0.000000 0.000000 0.566237
O O11 0.320954 0.500000 0.500000
O O12 0.500000 0.324387 0.500000
O O13 0.320194 0.253983 0.436348
O O14 0.259905 0.000000 0.395532
O O15 0.500000 0.333702 0.876962
O O16 0.684278 0.500000 0.877531
#
# Coordination Sequence:
#
# PCOD8195962 Si02
#       6
#     8   4   4   4   8   8
#     4   9  17  28  42  62  87 116 150 185 222 266
#     4   9  15  23  37  57  83 116 153 188 215 249
#     4   9  16  30  52  74  90 109 146 195 238 272
#     4  11  23  34  45  66  94 119 146 185 230 275
#     4  10  19  33  52  69  88 117 153 190 229 277
#     4   9  16  25  38  57  84 118 151 182 219 262
#
# _framework density 16.357240999999998
#
# number of rings (size 3 to 8) (size 9 to 14) (size 15 to 20)
#    0.000    2.556    1.111    2.000    0.000    6.667 
#    0.000    3.333    0.000    0.000    0.000    0.000 
#    0.000    0.889    0.000   10.444    0.000    5.111 
#
# Total GULP energy -446380.243334 kJ/mol
# GULP energy per Si atom -12399.451204 kJ/mol
# Density = 1.632001 g / cm^3
# Si number density = 16.357241 Si / 1000 Ang^3
#
#
#
# Elastic Constant Matrix: (Units=GPa)
#
#
# Indices 1 2 3 4 5 6 
#
# 1 59.3926 27.0455 52.0180 0.0000 0.0000 0.0000
# 2 27.0455 93.2287 78.0556 0.0000 0.0000 0.0000
# 3 52.0180 78.0556 172.4123 0.0000 0.0000 0.0000
# 4 0.0000 0.0000 0.0000 15.3071 0.0000 0.0000
# 5 0.0000 0.0000 0.0000 0.0000 -2.3318 0.0000
# 6 0.0000 0.0000 0.0000 0.0000 0.0000 9.0934
#
#
#
# Elastic Compliance Matrix: (Units=1/GPa)
#
#
# Indices 1 2 3 4 5 6 
#
# 1 0.022995 -0.001388 -0.006309 0.000000 0.000000 0.000000
# 2 -0.001388 0.017358 -0.007439 0.000000 0.000000 0.000000
# 3 -0.006309 -0.007439 0.011072 0.000000 0.000000 0.000000
# 4 0.000000 0.000000 0.000000 0.065329 0.000000 0.000000
# 5 0.000000 0.000000 0.000000 0.000000 -0.428854 0.000000
# 6 0.000000 0.000000 0.000000 0.000000 0.000000 0.109970
#
#
# Mechanical properties :
#
#
# Convention : Reuss Voigt Hill
#
# Bulk Modulus (GPa) = 47.28050 71.03018 59.15534
# Shear Modulus (GPa) = -30.33866 15.60803 -7.36532
#
# Velocity S-wave (km/s) = -4.31136 3.09236 -2.12428
# Velocity P-wave (km/s) = 2.04547 7.50125 5.49785
#
# Compressibility (1/GPa) = 0.02115037
#
# Stress axis : x y z
#
# Youngs Moduli (GPa) = 43.48727 57.61125 90.32123
#
# Poissons Ratio (x) = 0.07999 0.56986
# Poissons Ratio (y) = 0.06038 0.67193
# Poissons Ratio (z) = 0.27437 0.42859
#
# Static dielectric constant tensor:
#      x y z
#    x 2.840700 0.000000 0.000000 
#    y 0.000000 3.124840 0.000000 
#    z 0.000000 0.000000 3.262640 
# 
# 
# High freq. dielectric constant tensor:
#      x y z
#    x 1.578170 0.000000 0.000000 
#    y 0.000000 1.626910 0.000000 
#    z 0.000000 0.000000 1.640410 
# 
# From -- ./inp_files/15052.got.cif
#   From: 2010.03.12/outbox.cif.g09.slc.cpg/sg47_8_cif.got.tgz:15052.got - 2010.04.14 03:12:58.
