data_PCOD8195727
_publ_section_title
;
Structure prediction by ZEFSAII (Michael W. Deem and Ramdas Pophale) SiO2 
 PCOD8195727
Probable space group: P M M M
;
_chemical_formula_sum "Si O2"
_cell_formula_units_Z 56
_cell_length_a 23.542087
_cell_length_b 13.944143
_cell_length_c 9.121103
_cell_angle_alpha 90.000000
_cell_angle_beta 90.000000
_cell_angle_gamma 90.000000
_cell_volume 2994.223043
_symmetry_space_group_name_H-M "P M M M"
_symmetry_group_IT_number 47
_symmetry_cell_setting 'orthorhombic'
loop_
_space_group_symop_operation_xyz
x,y,z
-x,-y,z
x,-y,-z
-x,y,-z
-x,-y,-z
x,y,-z
-x,y,z
x,-y,z
loop_
_atom_site_type_symbol
_atom_site_label
_atom_site_fract_x
_atom_site_fract_y
_atom_site_fract_z
Si Si1 0.335342 0.888737 0.171759
Si Si2 0.000000 0.891258 0.174214
Si Si3 0.830281 0.606848 0.831143
Si Si4 0.281402 0.391298 0.671690
Si Si5 0.220979 0.886766 0.334122
Si Si6 0.390860 0.726587 0.673428
Si Si7 0.500000 0.608684 0.325867
Si Si8 0.884643 0.797553 0.170498
O O1 0.276856 0.853721 0.246656
O O2 0.387249 0.828659 0.243223
O O3 0.347578 0.000000 0.204425
O O4 0.330946 0.868169 0.000000
O O5 0.055391 0.835254 0.232714
O O6 0.000000 0.000000 0.235043
O O7 0.000000 0.891356 0.000000
O O8 0.847989 0.500000 0.774881
O O9 0.775659 0.648682 0.746303
O O10 0.881681 0.682002 0.806439
O O11 0.813052 0.602061 0.000000
O O12 0.272368 0.383689 0.500000
O O13 0.291575 0.500000 0.722676
O O14 0.335746 0.332410 0.722950
O O15 0.226049 0.846961 0.500000
O O16 0.164918 0.847803 0.258862
O O17 0.216265 0.000000 0.333305
O O18 0.393870 0.744554 0.500000
O O19 0.445063 0.666825 0.729306
O O20 0.500000 0.500000 0.261616
O O21 0.500000 0.601917 0.500000
O O22 0.877521 0.824894 0.000000
#
# Coordination Sequence:
#
# PCOD8195727 Si02
#       8
#     8   4   8   8   8   8   4   8
#     4  10  21  36  53  74 102 136 171 208 254 307
#     4   9  18  32  50  72  96 125 167 213 250 293
#     4   9  18  31  46  68  98 128 160 201 247 293
#     4   9  17  29  47  73 102 130 161 198 244 298
#     4  10  20  33  51  77 106 132 161 204 256 305
#     4  10  19  32  53  78 103 134 172 213 253 293
#     4   9  18  34  56  81 108 138 173 211 252 303
#     4  10  19  32  51  72  97 133 172 207 247 297
#
# _framework density 18.702681999999999
#
# number of rings (size 3 to 8) (size 9 to 14) (size 15 to 20)
#    0.000    2.429    0.000    2.571    0.000    7.429 
#    0.000    1.429    0.000    7.286    0.000    0.000 
#    0.000    3.429    0.000    0.000    0.000    0.000 
#
# Total GULP energy -694362.851841 kJ/mol
# GULP energy per Si atom -12399.336640 kJ/mol
# Density = 1.866011 g / cm^3
# Si number density = 18.702682 Si / 1000 Ang^3
#
#
#
# Elastic Constant Matrix: (Units=GPa)
#
#
# Indices 1 2 3 4 5 6 
#
# 1 129.5202 92.6029 39.4324 0.0000 0.0000 0.0000
# 2 92.6029 97.0265 38.3287 0.0000 0.0000 0.0000
# 3 39.4324 38.3287 54.8293 0.0000 0.0000 0.0000
# 4 0.0000 0.0000 0.0000 25.1174 0.0000 0.0000
# 5 0.0000 0.0000 0.0000 0.0000 23.0739 0.0000
# 6 0.0000 0.0000 0.0000 0.0000 0.0000 34.0454
#
#
#
# Elastic Compliance Matrix: (Units=1/GPa)
#
#
# Indices 1 2 3 4 5 6 
#
# 1 0.024429 -0.022622 -0.001755 0.000000 0.000000 0.000000
# 2 -0.022622 0.035187 -0.008328 0.000000 0.000000 0.000000
# 3 -0.001755 -0.008328 0.025322 0.000000 0.000000 0.000000
# 4 0.000000 0.000000 0.000000 0.039813 0.000000 0.000000
# 5 0.000000 0.000000 0.000000 0.000000 0.043339 0.000000
# 6 0.000000 0.000000 0.000000 0.000000 0.000000 0.029373
#
#
# Mechanical properties :
#
#
# Convention : Reuss Voigt Hill
#
# Bulk Modulus (GPa) = 51.20830 69.12265 60.16547
# Shear Modulus (GPa) = 18.56089 23.84815 21.20452
#
# Velocity S-wave (km/s) = 3.15369 3.57475 3.37080
# Velocity P-wave (km/s) = 6.37970 7.35373 6.88397
#
# Compressibility (1/GPa) = 0.01952808
#
# Stress axis : x y z
#
# Youngs Moduli (GPa) = 40.93455 28.41946 39.49061
#
# Poissons Ratio (x) = 0.64291 0.06931
# Poissons Ratio (y) = 0.92603 0.32889
# Poissons Ratio (z) = 0.07184 0.23668
#
# Static dielectric constant tensor:
#      x y z
#    x 3.420220 0.000000 0.000000 
#    y 0.000000 3.764600 0.000000 
#    z 0.000000 0.000000 3.265120 
# 
# 
# High freq. dielectric constant tensor:
#      x y z
#    x 1.708010 0.000000 0.000000 
#    y 0.000000 1.744220 0.000000 
#    z 0.000000 0.000000 1.705610 
# 
# From -- ./inp_files/11329.got.cif
#   From: 2010.03.12/outbox.cif.g09.slc.cpg/sg47_6_cif.got.tgz:11329.got - 2010.04.14 03:12:58.
