data_PCOD8195882
_publ_section_title
;
Structure prediction by ZEFSAII (Michael W. Deem and Ramdas Pophale) SiO2 
 PCOD8195882
Probable space group: P M M M
;
_chemical_formula_sum "Si O2"
_cell_formula_units_Z 40
_cell_length_a 29.420088
_cell_length_b 9.121203
_cell_length_c 7.657552
_cell_angle_alpha 90.000000
_cell_angle_beta 90.000000
_cell_angle_gamma 90.000000
_cell_volume 2054.878005
_symmetry_space_group_name_H-M "P M M M"
_symmetry_group_IT_number 47
_symmetry_cell_setting 'orthorhombic'
loop_
_space_group_symop_operation_xyz
x,y,z
-x,-y,z
x,-y,-z
-x,y,-z
-x,-y,-z
x,y,-z
-x,y,z
x,-y,z
loop_
_atom_site_type_symbol
_atom_site_label
_atom_site_fract_x
_atom_site_fract_y
_atom_site_fract_z
Si Si1 0.296320 0.330682 0.705654
Si Si2 0.882624 0.672355 0.299959
Si Si3 0.384986 0.832572 0.194931
Si Si4 0.207723 0.835212 0.707213
Si Si5 0.449439 0.173965 0.500000
Si Si6 0.050522 0.673619 0.000000
O O1 0.301492 0.306937 0.500000
O O2 0.292096 0.500000 0.755915
O O3 0.339964 0.263977 0.798675
O O4 0.251702 0.249559 0.779908
O O5 0.894689 0.714865 0.500000
O O6 0.873548 0.500000 0.283000
O O7 0.837594 0.752840 0.230908
O O8 0.923661 0.725077 0.175691
O O9 0.422767 0.770841 0.328151
O O10 0.372226 0.000000 0.244137
O O11 0.405494 0.823022 0.000000
O O12 0.209412 0.835653 0.500000
O O13 0.207586 0.000000 0.782455
O O14 0.500000 0.243268 0.500000
O O15 0.453270 0.000000 0.500000
O O16 0.047004 0.500000 0.000000
O O17 0.000000 0.743276 0.000000
#
# Coordination Sequence:
#
# PCOD8195882 Si02
#       6
#     8   8   8   8   4   4
#     4  10  19  32  53  79 108 144 182 220 266 320
#     4   9  17  31  51  74 102 135 172 215 261 311
#     4  10  20  34  54  80 110 143 180 222 267 318
#     4   9  17  30  51  77 105 139 177 217 263 316
#     4   9  18  34  57  83 111 143 179 225 276 319
#     4   9  18  32  51  77 105 133 171 219 266 311
#
# _framework density 19.465876000000002
#
# number of rings (size 3 to 8) (size 9 to 14) (size 15 to 20)
#    0.000    2.600    1.000    1.200    0.000    4.400 
#    1.800    4.500    0.000    2.400    0.000    4.200 
#    0.000    0.000    0.000    0.000    0.000    0.000 
#
# Total GULP energy -495992.245788 kJ/mol
# GULP energy per Si atom -12399.806145 kJ/mol
# Density = 1.942157 g / cm^3
# Si number density = 19.465876 Si / 1000 Ang^3
#
#
#
# Elastic Constant Matrix: (Units=GPa)
#
#
# Indices 1 2 3 4 5 6 
#
# 1 181.8112 49.2859 69.4094 0.0000 0.0000 0.0000
# 2 49.2859 74.0759 29.6025 0.0000 0.0000 0.0000
# 3 69.4094 29.6025 101.2740 0.0000 0.0000 0.0000
# 4 0.0000 0.0000 0.0000 12.1927 0.0000 0.0000
# 5 0.0000 0.0000 0.0000 0.0000 6.7050 0.0000
# 6 0.0000 0.0000 0.0000 0.0000 0.0000 23.5932
#
#
#
# Elastic Compliance Matrix: (Units=1/GPa)
#
#
# Indices 1 2 3 4 5 6 
#
# 1 0.008238 -0.003651 -0.004579 0.000000 0.000000 0.000000
# 2 -0.003651 0.016904 -0.002438 0.000000 0.000000 0.000000
# 3 -0.004579 -0.002438 0.013725 0.000000 0.000000 0.000000
# 4 0.000000 0.000000 0.000000 0.082016 0.000000 0.000000
# 5 0.000000 0.000000 0.000000 0.000000 0.149143 0.000000
# 6 0.000000 0.000000 0.000000 0.000000 0.000000 0.042385
#
#
# Mechanical properties :
#
#
# Convention : Reuss Voigt Hill
#
# Bulk Modulus (GPa) = 57.04645 72.63966 64.84305
# Shear Modulus (GPa) = 14.72360 22.42240 18.57300
#
# Velocity S-wave (km/s) = 2.75322 3.39762 3.09225
# Velocity P-wave (km/s) = 6.28303 7.26562 6.79211
#
# Compressibility (1/GPa) = 0.01752957
#
# Stress axis : x y z
#
# Youngs Moduli (GPa) = 121.38801 59.15928 72.85940
#
# Poissons Ratio (x) = 0.21601 0.33361
# Poissons Ratio (y) = 0.44323 0.17766
# Poissons Ratio (z) = 0.55581 0.14426
#
# Static dielectric constant tensor:
#      x y z
#    x 3.693950 0.000000 0.000000 
#    y 0.000000 3.384120 0.000000 
#    z 0.000000 0.000000 3.499670 
# 
# 
# High freq. dielectric constant tensor:
#      x y z
#    x 1.754400 0.000000 0.000000 
#    y 0.000000 1.732250 0.000000 
#    z 0.000000 0.000000 1.755000 
# 
# From -- ./inp_files/13076.got.cif
#   From: 2010.03.12/outbox.cif.g09.slc.cpg/sg47_7_cif.got.tgz:13076.got - 2010.04.14 03:12:58.
