data_PCOD8195451
_publ_section_title
;
Structure prediction by ZEFSAII (Michael W. Deem and Ramdas Pophale) SiO2 
 PCOD8195451
Probable space group: P M M M
;
_chemical_formula_sum "Si O2"
_cell_formula_units_Z 44
_cell_length_a 31.865936
_cell_length_b 7.962311
_cell_length_c 9.378449
_cell_angle_alpha 90.000000
_cell_angle_beta 90.000000
_cell_angle_gamma 90.000000
_cell_volume 2379.560972
_symmetry_space_group_name_H-M "P M M M"
_symmetry_group_IT_number 47
_symmetry_cell_setting 'orthorhombic'
loop_
_space_group_symop_operation_xyz
x,y,z
-x,-y,z
x,-y,-z
-x,y,-z
-x,-y,-z
x,y,-z
-x,y,z
x,-y,z
loop_
_atom_site_type_symbol
_atom_site_label
_atom_site_fract_x
_atom_site_fract_y
_atom_site_fract_z
Si Si1 0.000000 0.803041 0.339560
Si Si2 0.912952 0.305749 0.662869
Si Si3 0.547294 0.686461 0.169454
Si Si4 0.305361 0.000000 0.830725
Si Si5 0.600276 0.000000 0.170559
Si Si6 0.174758 0.808776 0.664740
Si Si7 0.749375 0.687838 0.165098
O O1 0.957310 0.740291 0.260307
O O2 0.000000 0.726630 0.500000
O O3 0.000000 0.000000 0.341238
O O4 0.917269 0.244446 0.500000
O O5 0.903644 0.500000 0.677047
O O6 0.872357 0.212533 0.728875
O O7 0.500000 0.719924 0.224330
O O8 0.562357 0.500000 0.219908
O O9 0.577418 0.832417 0.230570
O O10 0.547810 0.693064 0.000000
O O11 0.352452 0.000000 0.769064
O O12 0.282450 0.169873 0.775794
O O13 0.307085 0.000000 0.000000
O O14 0.599613 0.000000 0.000000
O O15 0.175349 0.750426 0.500000
O O16 0.206866 0.694385 0.751456
O O17 0.189120 0.000000 0.682012
O O18 0.730183 0.500000 0.186188
O O19 0.759036 0.722984 0.000000
#
# Coordination Sequence:
#
# PCOD8195451 Si02
#       7
#     4   8   8   4   4   8   8
#     4   9  15  23  35  53  82 117 146 173 214 267
#     4   9  16  25  38  59  87 116 145 179 220 267
#     4   8  13  20  30  47  72 101 136 179 223 266
#     4   9  18  31  43  60  85 112 151 198 235 276
#     4   9  15  22  35  51  71 103 141 183 228 268
#     4  10  19  31  49  72  95 119 151 192 234 276
#     4  10  20  34  51  68  90 122 156 193 239 284
#
# _framework density 18.490807
#
# number of rings (size 3 to 8) (size 9 to 14) (size 15 to 20)
#    0.000    2.818    0.909    2.182    0.000    6.182 
#    0.000    3.636    0.000    0.000    0.000    0.636 
#    0.000    5.091    0.000    0.000    0.000    7.273 
#
# Total GULP energy -545272.304193 kJ/mol
# GULP energy per Si atom -12392.552368 kJ/mol
# Density = 1.844872 g / cm^3
# Si number density = 18.490807 Si / 1000 Ang^3
#
#
#
# Elastic Constant Matrix: (Units=GPa)
#
#
# Indices 1 2 3 4 5 6 
#
# 1 152.8232 76.8412 18.0707 0.0000 0.0000 0.0000
# 2 76.8412 132.0058 15.2750 0.0000 0.0000 0.0000
# 3 18.0707 15.2750 14.4201 0.0000 0.0000 0.0000
# 4 0.0000 0.0000 0.0000 10.9394 0.0000 0.0000
# 5 0.0000 0.0000 0.0000 0.0000 -7.9292 0.0000
# 6 0.0000 0.0000 0.0000 0.0000 0.0000 27.7525
#
#
#
# Elastic Compliance Matrix: (Units=1/GPa)
#
#
# Indices 1 2 3 4 5 6 
#
# 1 0.009859 -0.004911 -0.007152 0.000000 0.000000 0.000000
# 2 -0.004911 0.011080 -0.005583 0.000000 0.000000 0.000000
# 3 -0.007152 -0.005583 0.084224 0.000000 0.000000 0.000000
# 4 0.000000 0.000000 0.000000 0.091413 0.000000 0.000000
# 5 0.000000 0.000000 0.000000 0.000000 -0.126117 0.000000
# 6 0.000000 0.000000 0.000000 0.000000 0.000000 0.036033
#
#
# Mechanical properties :
#
#
# Convention : Reuss Voigt Hill
#
# Bulk Modulus (GPa) = 14.31209 57.73590 36.02399
# Shear Modulus (GPa) = 30.28946 18.75669 24.52307
#
# Velocity S-wave (km/s) = 4.05171 3.18839 3.64570
# Velocity P-wave (km/s) = 5.44476 6.69674 6.10294
#
# Compressibility (1/GPa) = 0.06987102
#
# Stress axis : x y z
#
# Youngs Moduli (GPa) = 101.43444 90.25102 11.87309
#
# Poissons Ratio (x) = 0.44323 0.08492
# Poissons Ratio (y) = 0.49816 0.06628
# Poissons Ratio (z) = 0.72547 0.50384
#
# Static dielectric constant tensor:
#      x y z
#    x 3.650610 0.000000 0.000000 
#    y 0.000000 3.596000 0.000000 
#    z 0.000000 0.000000 2.636930 
# 
# 
# High freq. dielectric constant tensor:
#      x y z
#    x 1.725240 0.000000 0.000000 
#    y 0.000000 1.735850 0.000000 
#    z 0.000000 0.000000 1.621260 
# 
# From -- ./inp_files/13775.got.cif
#   From: 2010.03.12/outbox.cif.g09.slc.cpg/sg47_7_cif.got.tgz:13775.got - 2010.04.14 03:12:58.
