data_PCOD8195482
_publ_section_title
;
Structure prediction by ZEFSAII (Michael W. Deem and Ramdas Pophale) SiO2 
 PCOD8195482
Probable space group: P M M M
;
_chemical_formula_sum "Si O2"
_cell_formula_units_Z 52
_cell_length_a 8.843747
_cell_length_b 11.618760
_cell_length_c 28.614806
_cell_angle_alpha 90.000000
_cell_angle_beta 90.000000
_cell_angle_gamma 90.000000
_cell_volume 2940.267860
_symmetry_space_group_name_H-M "P M M M"
_symmetry_group_IT_number 47
_symmetry_cell_setting 'orthorhombic'
loop_
_space_group_symop_operation_xyz
x,y,z
-x,-y,z
x,-y,-z
-x,y,-z
-x,-y,-z
x,y,-z
-x,y,z
x,-y,z
loop_
_atom_site_type_symbol
_atom_site_label
_atom_site_fract_x
_atom_site_fract_y
_atom_site_fract_z
Si Si1 0.318842 0.629555 0.649636
Si Si2 0.327718 0.633888 0.829047
Si Si3 0.822971 0.244671 0.912778
Si Si4 0.821039 0.000000 0.878491
Si Si5 0.678735 0.368970 0.000000
Si Si6 0.675536 0.774261 0.736818
Si Si7 0.330606 0.363291 0.549454
Si Si8 0.178425 0.000000 0.226789
O O1 0.500000 0.627636 0.648613
O O2 0.259636 0.500000 0.659844
O O3 0.260600 0.714926 0.689839
O O4 0.255660 0.676040 0.598900
O O5 0.500000 0.657597 0.845429
O O6 0.293360 0.500000 0.826199
O O7 0.211247 0.689281 0.865073
O O8 0.296558 0.685242 0.778433
O O9 0.733648 0.302578 0.954588
O O10 0.000000 0.251327 0.923708
O O11 0.767592 0.112565 0.906949
O O12 0.751885 0.000000 0.825931
O O13 0.000000 0.000000 0.873563
O O14 0.741557 0.500000 0.000000
O O15 0.500000 0.370740 0.000000
O O16 0.500000 0.806260 0.732085
O O17 0.768187 0.889389 0.744996
O O18 0.248608 0.325205 0.500000
O O19 0.500000 0.313603 0.547453
O O20 0.337031 0.500000 0.551684
O O21 0.000000 0.000000 0.224102
#
# Coordination Sequence:
#
# PCOD8195482 Si02
#       8
#     8   8   8   4   4   8   8   4
#     4   8  13  22  38  63  97 132 163 200 247 299
#     4  10  20  33  50  75 106 135 162 197 244 294
#     4  11  22  39  61  82 104 135 173 206 241 288
#     4   9  20  38  58  79 104 131 162 207 251 282
#     4  11  25  44  61  82 114 141 162 199 250 295
#     4  10  19  31  49  73  98 129 167 204 245 297
#     4   7   9  14  27  51  86 127 164 195 236 294
#     4  11  21  37  54  70  98 133 167 207 254 293
#
# _framework density 17.685464
#
# number of rings (size 3 to 8) (size 9 to 14) (size 15 to 20)
#    0.000    2.538    1.538    3.231    0.000    4.923 
#    0.000    3.077    0.000    1.385    0.000    0.538 
#    0.000    4.923    0.000    3.846    0.000    3.077 
#
# Total GULP energy -644381.467225 kJ/mol
# GULP energy per Si atom -12391.951293 kJ/mol
# Density = 1.764521 g / cm^3
# Si number density = 17.685464 Si / 1000 Ang^3
#
#
#
# Elastic Constant Matrix: (Units=GPa)
#
#
# Indices 1 2 3 4 5 6 
#
# 1 31.8466 28.4094 28.5781 0.0000 0.0000 0.0000
# 2 28.4094 128.4437 69.1338 0.0000 0.0000 0.0000
# 3 28.5781 69.1338 149.8316 0.0000 0.0000 0.0000
# 4 0.0000 0.0000 0.0000 22.0342 0.0000 0.0000
# 5 0.0000 0.0000 0.0000 0.0000 18.7560 0.0000
# 6 0.0000 0.0000 0.0000 0.0000 0.0000 17.5135
#
#
#
# Elastic Compliance Matrix: (Units=1/GPa)
#
#
# Indices 1 2 3 4 5 6 
#
# 1 0.041675 -0.006571 -0.004917 0.000000 0.000000 0.000000
# 2 -0.006571 0.011394 -0.004004 0.000000 0.000000 0.000000
# 3 -0.004917 -0.004004 0.009459 0.000000 0.000000 0.000000
# 4 0.000000 0.000000 0.000000 0.045384 0.000000 0.000000
# 5 0.000000 0.000000 0.000000 0.000000 0.053316 0.000000
# 6 0.000000 0.000000 0.000000 0.000000 0.000000 0.057099
#
#
# Mechanical properties :
#
#
# Convention : Reuss Voigt Hill
#
# Bulk Modulus (GPa) = 31.70153 62.48494 47.09323
# Shear Modulus (GPa) = 19.24364 23.92745 21.58555
#
# Velocity S-wave (km/s) = 3.30222 3.68223 3.49739
# Velocity P-wave (km/s) = 5.70120 7.31344 6.55706
#
# Compressibility (1/GPa) = 0.03154422
#
# Stress axis : x y z
#
# Youngs Moduli (GPa) = 23.99534 87.76508 105.71463
#
# Poissons Ratio (x) = 0.57673 0.51978
# Poissons Ratio (y) = 0.15768 0.42328
# Poissons Ratio (z) = 0.11798 0.35141
#
# Static dielectric constant tensor:
#      x y z
#    x 2.917150 0.000000 0.000000 
#    y 0.000000 3.320740 0.000000 
#    z 0.000000 0.000000 -1.344940 
# 
# 
# High freq. dielectric constant tensor:
#      x y z
#    x 1.642030 0.000000 0.000000 
#    y 0.000000 1.666710 0.000000 
#    z 0.000000 0.000000 1.701850 
# 
# From -- ./inp_files/33329.got.cif
#   From: 2010.03.12/outbox.cif.g09.slc.cpg/sg47_17_cif.got.tgz:33329.got - 2010.04.14 03:12:58.
