data_PCOD8195869
_publ_section_title
;
Structure prediction by ZEFSAII (Michael W. Deem and Ramdas Pophale) SiO2 
 PCOD8195869
Probable space group: P M M M
;
_chemical_formula_sum "Si O2"
_cell_formula_units_Z 52
_cell_length_a 8.054178
_cell_length_b 24.991063
_cell_length_c 14.412900
_cell_angle_alpha 90.000000
_cell_angle_beta 90.000000
_cell_angle_gamma 90.000000
_cell_volume 2901.064109
_symmetry_space_group_name_H-M "P M M M"
_symmetry_group_IT_number 47
_symmetry_cell_setting 'orthorhombic'
loop_
_space_group_symop_operation_xyz
x,y,z
-x,-y,z
x,-y,-z
-x,y,-z
-x,-y,-z
x,y,-z
-x,y,z
x,-y,z
loop_
_atom_site_type_symbol
_atom_site_label
_atom_site_fract_x
_atom_site_fract_y
_atom_site_fract_z
Si Si1 0.191763 0.388026 0.604124
Si Si2 0.192502 0.867937 0.109412
Si Si3 0.690749 0.728775 0.397553
Si Si4 0.808384 0.760827 0.792666
Si Si5 0.500000 0.059699 0.109792
Si Si6 0.806413 0.658656 0.897212
Si Si7 0.306273 0.440103 0.781898
O O1 0.222989 0.409566 0.500000
O O2 0.292430 0.334001 0.623533
O O3 0.253216 0.432944 0.674898
O O4 0.000000 0.374300 0.621295
O O5 0.258953 0.814478 0.159793
O O6 0.326858 0.912376 0.141849
O O7 0.000000 0.883240 0.136831
O O8 0.202044 0.857947 0.000000
O O9 0.767006 0.741652 0.500000
O O10 0.500000 0.744878 0.396023
O O11 0.779954 0.763098 0.318023
O O12 0.724679 0.707562 0.838105
O O13 0.000000 0.758292 0.814614
O O14 0.500000 0.000000 0.152396
O O15 0.500000 0.057325 0.000000
O O16 0.783204 0.601985 0.847726
O O17 0.000000 0.669148 0.906211
O O18 0.725429 0.657238 0.000000
O O19 0.500000 0.431381 0.792307
O O20 0.254103 0.500000 0.812014
#
# Coordination Sequence:
#
# PCOD8195869 Si02
#       7
#     8   8   8   8   4   8   8
#     4  10  20  35  55  76  97 123 158 201 251 310
#     4   9  18  32  50  76 111 148 184 223 266 308
#     4  10  20  32  49  75 105 135 165 201 252 313
#     4  10  19  32  53  78 104 136 171 211 258 307
#     4   9  18  32  50  76 111 151 194 230 258 297
#     4  10  21  37  56  76  97 126 165 207 254 307
#     4  11  24  39  53  71  96 125 161 207 256 309
#
# _framework density 17.924457
#
# number of rings (size 3 to 8) (size 9 to 14) (size 15 to 20)
#    0.000    2.077    1.538    1.846    1.077    6.154 
#    0.000    4.615    0.000    0.000    0.000    0.000 
#    0.000    1.231    0.000    3.385    0.000    0.154 
#
# Total GULP energy -644589.470399 kJ/mol
# GULP energy per Si atom -12395.951354 kJ/mol
# Density = 1.788366 g / cm^3
# Si number density = 17.924457 Si / 1000 Ang^3
#
#
#
# Elastic Constant Matrix: (Units=GPa)
#
#
# Indices 1 2 3 4 5 6 
#
# 1 49.4431 40.3676 15.8494 0.0000 0.0000 0.0000
# 2 40.3676 119.8650 54.2739 0.0000 0.0000 0.0000
# 3 15.8494 54.2739 95.8752 0.0000 0.0000 0.0000
# 4 0.0000 0.0000 0.0000 18.3444 0.0000 0.0000
# 5 0.0000 0.0000 0.0000 0.0000 17.0402 0.0000
# 6 0.0000 0.0000 0.0000 0.0000 0.0000 25.4385
#
#
#
# Elastic Compliance Matrix: (Units=1/GPa)
#
#
# Indices 1 2 3 4 5 6 
#
# 1 0.027960 -0.009847 0.000952 0.000000 0.000000 0.000000
# 2 -0.009847 0.014686 -0.006686 0.000000 0.000000 0.000000
# 3 0.000952 -0.006686 0.014058 0.000000 0.000000 0.000000
# 4 0.000000 0.000000 0.000000 0.054512 0.000000 0.000000
# 5 0.000000 0.000000 0.000000 0.000000 0.058685 0.000000
# 6 0.000000 0.000000 0.000000 0.000000 0.000000 0.039311
#
#
# Mechanical properties :
#
#
# Convention : Reuss Voigt Hill
#
# Bulk Modulus (GPa) = 39.15122 54.01835 46.58478
# Shear Modulus (GPa) = 20.08940 22.47745 21.28343
#
# Velocity S-wave (km/s) = 3.35144 3.54504 3.44960
# Velocity P-wave (km/s) = 6.07173 6.85263 6.47397
#
# Compressibility (1/GPa) = 0.02554199
#
# Stress axis : x y z
#
# Youngs Moduli (GPa) = 35.76558 68.09011 71.13590
#
# Poissons Ratio (x) = 0.67051 -0.06775
# Poissons Ratio (y) = 0.35220 0.47561
# Poissons Ratio (z) = -0.03406 0.45524
#
# Static dielectric constant tensor:
#      x y z
#    x 3.321950 0.000000 0.000000 
#    y 0.000000 3.262590 0.000000 
#    z 0.000000 0.000000 5.051800 
# 
# 
# High freq. dielectric constant tensor:
#      x y z
#    x 1.695450 0.000000 0.000000 
#    y 0.000000 1.662290 0.000000 
#    z 0.000000 0.000000 1.687010 
# 
# From -- ./inp_files/7578.got.cif
#   From: 2010.03.12/outbox.cif.g09.slc.cpg/sg47_4_cif.got.tgz:7578.got - 2010.04.14 03:12:58.
