data_PCOD8195343
_publ_section_title
;
Structure prediction by ZEFSAII (Michael W. Deem and Ramdas Pophale) SiO2 
 PCOD8195343
Probable space group: P M M M
;
_chemical_formula_sum "Si O2"
_cell_formula_units_Z 48
_cell_length_a 14.047538
_cell_length_b 9.984919
_cell_length_c 19.140948
_cell_angle_alpha 90.000000
_cell_angle_beta 90.000000
_cell_angle_gamma 90.000000
_cell_volume 2684.776916
_symmetry_space_group_name_H-M "P M M M"
_symmetry_group_IT_number 47
_symmetry_cell_setting 'orthorhombic'
loop_
_space_group_symop_operation_xyz
x,y,z
-x,-y,z
x,-y,-z
-x,y,-z
-x,-y,-z
x,y,-z
-x,y,z
x,-y,z
loop_
_atom_site_type_symbol
_atom_site_label
_atom_site_fract_x
_atom_site_fract_y
_atom_site_fract_z
Si Si1 0.000000 0.650115 0.581293
Si Si2 0.888076 0.000000 0.077658
Si Si3 0.237980 0.847700 0.277475
Si Si4 0.112323 0.742056 0.834562
Si Si5 0.390720 0.155083 0.832497
Si Si6 0.169445 0.846281 0.578454
Si Si7 0.270428 0.353276 0.078948
O O1 0.909895 0.739985 0.601341
O O2 0.000000 0.500000 0.616997
O O3 0.000000 0.625222 0.500000
O O4 0.856141 0.872356 0.121530
O O5 0.000000 0.000000 0.069681
O O6 0.841610 0.000000 0.000000
O O7 0.151803 0.759209 0.244359
O O8 0.338412 0.814061 0.241173
O O9 0.249074 0.824290 0.361311
O O10 0.208128 0.000000 0.263297
O O11 0.173123 0.630886 0.875338
O O12 0.000000 0.709708 0.833465
O O13 0.500000 0.194987 0.822109
O O14 0.345081 0.244986 0.892718
O O15 0.379495 0.000000 0.854306
O O16 0.209198 0.816523 0.500000
O O17 0.130446 0.000000 0.580775
O O18 0.319010 0.500000 0.081286
O O19 0.243120 0.313392 0.000000
#
# Coordination Sequence:
#
# PCOD8195343 Si02
#       7
#     4   4   8   8   8   8   8
#     4   9  17  29  43  63  95 133 169 206 246 281
#     4   9  16  26  42  66  90 118 164 213 246 278
#     4   9  17  30  50  74 101 131 164 208 253 299
#     4  10  19  31  47  70  99 136 175 209 247 289
#     4   9  19  37  59  79  97 123 164 211 259 306
#     4   9  17  29  47  71  98 133 173 206 240 291
#     4  10  22  37  52  74 104 136 167 202 251 307
#
# _framework density 17.878579999999999
#
# number of rings (size 3 to 8) (size 9 to 14) (size 15 to 20)
#    0.000    2.667    0.833    0.750    2.333    3.333 
#    0.000    5.833    0.000    0.500    0.000    3.500 
#    0.000    0.000    0.000   10.167    0.000    9.000 
#
# Total GULP energy -594634.622919 kJ/mol
# GULP energy per Si atom -12388.221311 kJ/mol
# Density = 1.783789 g / cm^3
# Si number density = 17.878580 Si / 1000 Ang^3
#
#
#
# Elastic Constant Matrix: (Units=GPa)
#
#
# Indices 1 2 3 4 5 6 
#
# 1 106.8385 30.4276 48.4850 0.0000 0.0000 0.0000
# 2 30.4276 71.3411 31.2627 0.0000 0.0000 0.0000
# 3 48.4850 31.2627 138.1385 0.0000 0.0000 0.0000
# 4 0.0000 0.0000 0.0000 12.0038 0.0000 0.0000
# 5 0.0000 0.0000 0.0000 0.0000 17.4000 0.0000
# 6 0.0000 0.0000 0.0000 0.0000 0.0000 12.0157
#
#
#
# Elastic Compliance Matrix: (Units=1/GPa)
#
#
# Indices 1 2 3 4 5 6 
#
# 1 0.011914 -0.003607 -0.003366 0.000000 0.000000 0.000000
# 2 -0.003607 0.016652 -0.002503 0.000000 0.000000 0.000000
# 3 -0.003366 -0.002503 0.008987 0.000000 0.000000 0.000000
# 4 0.000000 0.000000 0.000000 0.083307 0.000000 0.000000
# 5 0.000000 0.000000 0.000000 0.000000 0.057471 0.000000
# 6 0.000000 0.000000 0.000000 0.000000 0.000000 0.083224
#
#
# Mechanical properties :
#
#
# Convention : Reuss Voigt Hill
#
# Bulk Modulus (GPa) = 53.75370 59.62984 56.69177
# Shear Modulus (GPa) = 17.43941 22.02677 19.73309
#
# Velocity S-wave (km/s) = 3.12659 3.51382 3.32584
# Velocity P-wave (km/s) = 6.57003 7.06312 6.82103
#
# Compressibility (1/GPa) = 0.01860337
#
# Stress axis : x y z
#
# Youngs Moduli (GPa) = 83.93142 60.05210 111.27452
#
# Poissons Ratio (x) = 0.21659 0.37450
# Poissons Ratio (y) = 0.30272 0.27849
# Poissons Ratio (z) = 0.28248 0.15029
#
# Static dielectric constant tensor:
#      x y z
#    x 3.052420 0.000000 0.000000 
#    y 0.000000 3.448170 0.000000 
#    z 0.000000 0.000000 3.424160 
# 
# 
# High freq. dielectric constant tensor:
#      x y z
#    x 1.655990 0.000000 0.000000 
#    y 0.000000 1.686060 0.000000 
#    z 0.000000 0.000000 1.694850 
# 
# From -- ./inp_files/28034.got.cif
#   From: 2010.03.12/outbox.cif.g09.slc.cpg/sg47_15_cif.got.tgz:28034.got - 2010.04.14 03:12:58.
