data_PCOD8195623
_publ_section_title
;
Structure prediction by ZEFSAII (Michael W. Deem and Ramdas Pophale) SiO2 
 PCOD8195623
Probable space group: P M M M
;
_chemical_formula_sum "Si O2"
_cell_formula_units_Z 36
_cell_length_a 9.336534
_cell_length_b 15.374163
_cell_length_c 16.708788
_cell_angle_alpha 90.000000
_cell_angle_beta 90.000000
_cell_angle_gamma 90.000000
_cell_volume 2398.402748
_symmetry_space_group_name_H-M "P M M M"
_symmetry_group_IT_number 47
_symmetry_cell_setting 'orthorhombic'
loop_
_space_group_symop_operation_xyz
x,y,z
-x,-y,z
x,-y,-z
-x,y,-z
-x,-y,-z
x,y,-z
-x,y,z
x,-y,z
loop_
_atom_site_type_symbol
_atom_site_label
_atom_site_fract_x
_atom_site_fract_y
_atom_site_fract_z
Si Si1 0.833802 0.655096 0.825635
Si Si2 0.835971 0.399612 0.349018
Si Si3 0.661992 0.603589 0.500000
Si Si4 0.666166 0.500000 0.094196
Si Si5 0.165618 0.165881 0.092539
Si Si6 0.338160 0.000000 0.095198
O O1 0.802575 0.654222 0.730990
O O2 0.737672 0.585666 0.870615
O O3 0.791178 0.749800 0.857029
O O4 0.000000 0.633185 0.843147
O O5 0.799035 0.500000 0.330896
O O6 0.739479 0.360903 0.420398
O O7 0.000000 0.389649 0.375861
O O8 0.671820 0.500000 0.500000
O O9 0.500000 0.637609 0.500000
O O10 0.500000 0.500000 0.117974
O O11 0.689374 0.500000 0.000000
O O12 0.000000 0.141427 0.103765
O O13 0.258128 0.085955 0.126864
O O14 0.200861 0.185112 0.000000
O O15 0.500000 0.000000 0.127807
O O16 0.332899 0.000000 0.000000
#
# Coordination Sequence:
#
# PCOD8195623 Si02
#       6
#     8   8   4   4   8   4
#     4  10  19  32  48  65  85 115 153 188 221 259
#     4   9  16  28  44  62  84 111 144 181 219 256
#     4   9  17  27  41  61  83 110 143 176 215 261
#     4  11  23  33  41  58  87 122 155 187 220 255
#     4   9  17  29  46  66  86 111 146 186 223 259
#     4   9  17  29  45  63  85 112 141 178 225 271
#
# _framework density 15.00999
#
# number of rings (size 3 to 8) (size 9 to 14) (size 15 to 20)
#    0.000    2.556    1.111    1.667    0.000    6.222 
#    0.000    2.222    0.000    0.000    0.000    0.000 
#    0.000    0.889    0.000   10.222    0.000    4.000 
#
# Total GULP energy -446441.922324 kJ/mol
# GULP energy per Si atom -12401.164509 kJ/mol
# Density = 1.497583 g / cm^3
# Si number density = 15.009990 Si / 1000 Ang^3
#
#
#
# Elastic Constant Matrix: (Units=GPa)
#
#
# Indices 1 2 3 4 5 6 
#
# 1 99.6703 63.9322 57.8098 0.0000 0.0000 0.0000
# 2 63.9322 105.2926 56.0411 0.0000 0.0000 0.0000
# 3 57.8098 56.0411 90.4078 0.0000 0.0000 0.0000
# 4 0.0000 0.0000 0.0000 -8.4292 0.0000 0.0000
# 5 0.0000 0.0000 0.0000 0.0000 18.9259 0.0000
# 6 0.0000 0.0000 0.0000 0.0000 0.0000 11.8013
#
#
#
# Elastic Compliance Matrix: (Units=1/GPa)
#
#
# Indices 1 2 3 4 5 6 
#
# 1 0.019412 -0.007731 -0.007621 0.000000 0.000000 0.000000
# 2 -0.007731 0.017252 -0.005751 0.000000 0.000000 0.000000
# 3 -0.007621 -0.005751 0.019499 0.000000 0.000000 0.000000
# 4 0.000000 0.000000 0.000000 -0.118635 0.000000 0.000000
# 5 0.000000 0.000000 0.000000 0.000000 0.052838 0.000000
# 6 0.000000 0.000000 0.000000 0.000000 0.000000 0.084736
#
#
# Mechanical properties :
#
#
# Convention : Reuss Voigt Hill
#
# Bulk Modulus (GPa) = 71.64120 72.32634 71.98377
# Shear Modulus (GPa) = 40.99754 12.29877 26.64816
#
# Velocity S-wave (km/s) = 5.23190 2.86557 4.21807
# Velocity P-wave (km/s) = 9.18312 7.69667 8.47256
#
# Compressibility (1/GPa) = 0.01395845
#
# Stress axis : x y z
#
# Youngs Moduli (GPa) = 51.51507 57.96400 51.28555
#
# Poissons Ratio (x) = 0.44809 0.39083
# Poissons Ratio (y) = 0.39824 0.29494
# Poissons Ratio (z) = 0.39258 0.33334
#
# Static dielectric constant tensor:
#      x y z
#    x 2.993910 0.000000 0.000000 
#    y 0.000000 2.068040 0.000000 
#    z 0.000000 0.000000 2.843860 
# 
# 
# High freq. dielectric constant tensor:
#      x y z
#    x 1.581460 0.000000 0.000000 
#    y 0.000000 1.545950 0.000000 
#    z 0.000000 0.000000 1.560150 
# 
# From -- ./inp_files/5607.got.cif
#   From: 2010.03.12/outbox.cif.g09.slc.cpg/sg47_3_cif.got.tgz:5607.got - 2010.04.14 03:12:58.
