data_PCOD8195641
_publ_section_title
;
Structure prediction by ZEFSAII (Michael W. Deem and Ramdas Pophale) SiO2 
 PCOD8195641
Probable space group: P M M M
;
_chemical_formula_sum "Si O2"
_cell_formula_units_Z 48
_cell_length_a 16.433131
_cell_length_b 18.549339
_cell_length_c 8.811985
_cell_angle_alpha 90.000000
_cell_angle_beta 90.000000
_cell_angle_gamma 90.000000
_cell_volume 2686.102028
_symmetry_space_group_name_H-M "P M M M"
_symmetry_group_IT_number 47
_symmetry_cell_setting 'orthorhombic'
loop_
_space_group_symop_operation_xyz
x,y,z
-x,-y,z
x,-y,-z
-x,y,-z
-x,-y,-z
x,y,-z
-x,y,z
x,-y,z
loop_
_atom_site_type_symbol
_atom_site_label
_atom_site_fract_x
_atom_site_fract_y
_atom_site_fract_z
Si Si1 0.911192 0.785539 0.178281
Si Si2 0.500000 0.585482 0.169960
Si Si3 0.189872 0.918827 0.175050
Si Si4 0.750485 0.290114 0.819759
Si Si5 0.500000 0.081895 0.319887
Si Si6 0.664959 0.582721 0.678759
Si Si7 0.334959 0.157260 0.321120
O O1 0.885450 0.867354 0.218539
O O2 0.840780 0.732060 0.238498
O O3 0.000000 0.769423 0.253005
O O4 0.918829 0.775613 0.000000
O O5 0.500000 0.500000 0.166269
O O6 0.420648 0.612570 0.258445
O O7 0.500000 0.617532 0.000000
O O8 0.267242 0.901758 0.279090
O O9 0.160843 0.000000 0.204518
O O10 0.215397 0.905648 0.000000
O O11 0.735555 0.369245 0.752124
O O12 0.683722 0.233181 0.760297
O O13 0.745402 0.292331 0.000000
O O14 0.500000 0.076956 0.500000
O O15 0.421025 0.125872 0.263132
O O16 0.500000 0.000000 0.253498
O O17 0.664702 0.591698 0.500000
O O18 0.680344 0.500000 0.726975
O O19 0.335436 0.170737 0.500000
#
# Coordination Sequence:
#
# PCOD8195641 Si02
#       7
#     8   4   8   8   4   8   8
#     4   8  15  29  49  72  96 124 160 202 249 299
#     4   9  17  30  49  74 103 132 162 197 236 274
#     4   9  17  29  46  70  98 124 155 200 251 301
#     4  10  20  34  52  74 100 128 162 205 250 299
#     4   9  18  31  47  68  92 124 170 213 241 273
#     4  10  20  34  53  77 105 136 169 203 242 293
#     4  10  19  32  49  67  92 128 168 207 248 294
#
# _framework density 17.869759999999999
#
# number of rings (size 3 to 8) (size 9 to 14) (size 15 to 20)
#    0.000    2.667    0.000    3.250    0.000    4.000 
#    0.000    5.833    0.000   16.000    0.000    8.167 
#    0.000    0.000    0.000    0.000    0.000    0.000 
#
# Total GULP energy -595055.561591 kJ/mol
# GULP energy per Si atom -12396.990866 kJ/mol
# Density = 1.782909 g / cm^3
# Si number density = 17.869760 Si / 1000 Ang^3
#
#
#
# Elastic Constant Matrix: (Units=GPa)
#
#
# Indices 1 2 3 4 5 6 
#
# 1 145.4316 71.9613 31.6255 0.0000 0.0000 0.0000
# 2 71.9613 115.4553 37.1054 0.0000 0.0000 0.0000
# 3 31.6255 37.1054 58.9676 0.0000 0.0000 0.0000
# 4 0.0000 0.0000 0.0000 27.7366 0.0000 0.0000
# 5 0.0000 0.0000 0.0000 0.0000 11.7080 0.0000
# 6 0.0000 0.0000 0.0000 0.0000 0.0000 19.0311
#
#
#
# Elastic Compliance Matrix: (Units=1/GPa)
#
#
# Indices 1 2 3 4 5 6 
#
# 1 0.010097 -0.005707 -0.001824 0.000000 0.000000 0.000000
# 2 -0.005707 0.014083 -0.005801 0.000000 0.000000 0.000000
# 3 -0.001824 -0.005801 0.021587 0.000000 0.000000 0.000000
# 4 0.000000 0.000000 0.000000 0.036053 0.000000 0.000000
# 5 0.000000 0.000000 0.000000 0.000000 0.085411 0.000000
# 6 0.000000 0.000000 0.000000 0.000000 0.000000 0.052545
#
#
# Mechanical properties :
#
#
# Convention : Reuss Voigt Hill
#
# Bulk Modulus (GPa) = 52.34828 66.80433 59.57630
# Shear Modulus (GPa) = 19.77792 23.63930 21.70861
#
# Velocity S-wave (km/s) = 3.33044 3.64107 3.48921
# Velocity P-wave (km/s) = 6.64433 7.42574 7.04588
#
# Compressibility (1/GPa) = 0.01910283
#
# Stress axis : x y z
#
# Youngs Moduli (GPa) = 99.04406 71.00973 46.32453
#
# Poissons Ratio (x) = 0.40524 0.08449
# Poissons Ratio (y) = 0.56522 0.26872
# Poissons Ratio (z) = 0.18065 0.41191
#
# Static dielectric constant tensor:
#      x y z
#    x 3.555510 0.000000 0.000000 
#    y 0.000000 3.296440 0.000000 
#    z 0.000000 0.000000 3.150100 
# 
# 
# High freq. dielectric constant tensor:
#      x y z
#    x 1.684170 0.000000 0.000000 
#    y 0.000000 1.684250 0.000000 
#    z 0.000000 0.000000 1.676630 
# 
# From -- ./inp_files/6446.got.cif
#   From: 2010.03.12/outbox.cif.g09.slc.cpg/sg47_4_cif.got.tgz:6446.got - 2010.04.14 03:12:58.
