data_PCOD8195459
_publ_section_title
;
Structure prediction by ZEFSAII (Michael W. Deem and Ramdas Pophale) SiO2 
 PCOD8195459
Probable space group: P M M M
;
_chemical_formula_sum "Si O2"
_cell_formula_units_Z 52
_cell_length_a 20.018911
_cell_length_b 9.540456
_cell_length_c 14.897527
_cell_angle_alpha 90.000000
_cell_angle_beta 90.000000
_cell_angle_gamma 90.000000
_cell_volume 2845.271822
_symmetry_space_group_name_H-M "P M M M"
_symmetry_group_IT_number 47
_symmetry_cell_setting 'orthorhombic'
loop_
_space_group_symop_operation_xyz
x,y,z
-x,-y,z
x,-y,-z
-x,y,-z
-x,-y,-z
x,y,-z
-x,y,z
x,-y,z
loop_
_atom_site_type_symbol
_atom_site_label
_atom_site_fract_x
_atom_site_fract_y
_atom_site_fract_z
Si Si1 0.858607 0.337517 0.338235
Si Si2 0.183800 0.336998 0.861862
Si Si3 0.374035 0.165606 0.283995
Si Si4 0.925523 0.334790 0.000000
Si Si5 0.500000 0.167465 0.395524
Si Si6 0.315156 0.162778 0.899931
Si Si7 0.000000 0.666119 0.399524
Si Si8 0.253804 0.842471 0.599073
O O1 0.854372 0.500000 0.364702
O O2 0.830904 0.306430 0.240551
O O3 0.934388 0.281780 0.346792
O O4 0.812321 0.251288 0.405582
O O5 0.198993 0.500000 0.881320
O O6 0.247296 0.249661 0.893490
O O7 0.117105 0.287543 0.913554
O O8 0.437372 0.228034 0.337868
O O9 0.368616 0.208481 0.177906
O O10 0.307392 0.222923 0.332148
O O11 0.378127 0.000000 0.294473
O O12 0.935189 0.500000 0.000000
O O13 0.000000 0.265355 0.000000
O O14 0.500000 0.221385 0.500000
O O15 0.500000 0.000000 0.396873
O O16 0.296784 0.000000 0.885653
O O17 0.346254 0.186814 0.000000
O O18 0.000000 0.500000 0.403253
O O19 0.000000 0.728401 0.500000
O O20 0.286282 0.843373 0.500000
O O21 0.234326 0.000000 0.628676
#
# Coordination Sequence:
#
# PCOD8195459 Si02
#       8
#     8   8   8   4   4   8   4   8
#     4  10  20  32  49  71  95 125 164 205 248 296
#     4  10  19  31  49  73  97 125 164 207 249 295
#     4   9  17  30  47  72 104 133 166 206 246 292
#     4   9  18  30  47  71  99 126 159 210 264 303
#     4   9  16  28  49  75 104 139 173 205 246 298
#     4  10  19  32  51  73 100 134 165 198 250 302
#     4   9  18  32  47  64  92 127 160 201 251 299
#     4  10  19  31  49  72  98 128 162 203 249 293
#
# _framework density 18.275935
#
# number of rings (size 3 to 8) (size 9 to 14) (size 15 to 20)
#    0.000    2.385    2.308    0.923    1.077    2.769 
#    0.000    0.769    0.000    4.615    0.000    2.154 
#    0.000    4.923    0.000    0.000    0.000    0.000 
#
# Total GULP energy -644426.868528 kJ/mol
# GULP energy per Si atom -12392.824395 kJ/mol
# Density = 1.823434 g / cm^3
# Si number density = 18.275935 Si / 1000 Ang^3
#
#
#
# Elastic Constant Matrix: (Units=GPa)
#
#
# Indices 1 2 3 4 5 6 
#
# 1 123.3783 25.3722 60.8185 0.0000 0.0000 0.0000
# 2 25.3722 27.3631 25.5245 0.0000 0.0000 0.0000
# 3 60.8185 25.5245 131.1147 0.0000 0.0000 0.0000
# 4 0.0000 0.0000 0.0000 16.4135 0.0000 0.0000
# 5 0.0000 0.0000 0.0000 0.0000 47.6249 0.0000
# 6 0.0000 0.0000 0.0000 0.0000 0.0000 12.3435
#
#
#
# Elastic Compliance Matrix: (Units=1/GPa)
#
#
# Indices 1 2 3 4 5 6 
#
# 1 0.011496 -0.006947 -0.003980 0.000000 0.000000 0.000000
# 2 -0.006947 0.048852 -0.006288 0.000000 0.000000 0.000000
# 3 -0.003980 -0.006288 0.010697 0.000000 0.000000 0.000000
# 4 0.000000 0.000000 0.000000 0.060926 0.000000 0.000000
# 5 0.000000 0.000000 0.000000 0.000000 0.020997 0.000000
# 6 0.000000 0.000000 0.000000 0.000000 0.000000 0.081014
#
#
# Mechanical properties :
#
#
# Convention : Reuss Voigt Hill
#
# Bulk Modulus (GPa) = 27.31066 56.14295 41.72680
# Shear Modulus (GPa) = 17.81791 26.61910 22.21851
#
# Velocity S-wave (km/s) = 3.12579 3.82057 3.49051
# Velocity P-wave (km/s) = 5.29182 7.08862 6.25508
#
# Compressibility (1/GPa) = 0.03661574
#
# Stress axis : x y z
#
# Youngs Moduli (GPa) = 86.98964 20.46994 93.48273
#
# Poissons Ratio (x) = 0.14220 0.37206
# Poissons Ratio (y) = 0.60429 0.58781
# Poissons Ratio (z) = 0.34622 0.12871
#
# Static dielectric constant tensor:
#      x y z
#    x 3.476370 0.000000 0.000000 
#    y 0.000000 2.936500 0.000000 
#    z 0.000000 0.000000 3.660560 
# 
# 
# High freq. dielectric constant tensor:
#      x y z
#    x 1.699500 0.000000 0.000000 
#    y 0.000000 1.655440 0.000000 
#    z 0.000000 0.000000 1.729420 
# 
# From -- ./inp_files/24650.got.cif
#   From: 2010.03.12/outbox.cif.g09.slc.cpg/sg47_13_cif.got.tgz:24650.got - 2010.04.14 03:12:58.
