data_PCOD8195239
_publ_section_title
;
Structure prediction by ZEFSAII (Michael W. Deem and Ramdas Pophale) SiO2 
 PCOD8195239
Probable space group: P M M M
;
_chemical_formula_sum "Si O2"
_cell_formula_units_Z 44
_cell_length_a 7.776135
_cell_length_b 9.546338
_cell_length_c 31.461512
_cell_angle_alpha 90.000000
_cell_angle_beta 90.000000
_cell_angle_gamma 90.000000
_cell_volume 2335.501708
_symmetry_space_group_name_H-M "P M M M"
_symmetry_group_IT_number 47
_symmetry_cell_setting 'orthorhombic'
loop_
_space_group_symop_operation_xyz
x,y,z
-x,-y,z
x,-y,-z
-x,y,-z
-x,-y,-z
x,y,-z
-x,y,z
x,-y,z
loop_
_atom_site_type_symbol
_atom_site_label
_atom_site_fract_x
_atom_site_fract_y
_atom_site_fract_z
Si Si1 0.500000 0.835019 0.692396
Si Si2 0.500000 0.332596 0.605910
Si Si3 0.808935 0.333850 0.452562
Si Si4 0.294619 0.157550 0.000000
Si Si5 0.191036 0.840797 0.247386
Si Si6 0.295240 0.344203 0.076587
Si Si7 0.302248 0.336354 0.171158
O O1 0.500000 0.743252 0.650551
O O2 0.669328 0.789457 0.718484
O O3 0.500000 0.000000 0.681479
O O4 0.500000 0.500000 0.612287
O O5 0.332374 0.278464 0.580442
O O6 0.768641 0.276317 0.500000
O O7 0.800874 0.500000 0.453951
O O8 0.000000 0.284353 0.438194
O O9 0.222730 0.235708 0.958122
O O10 0.500000 0.158753 0.000000
O O11 0.222494 0.000000 0.000000
O O12 0.192432 0.749195 0.204890
O O13 0.000000 0.827620 0.267538
O O14 0.232844 0.000000 0.234306
O O15 0.500000 0.347283 0.075941
O O16 0.226412 0.500000 0.065647
O O17 0.234219 0.299437 0.123761
O O18 0.500000 0.291783 0.176055
O O19 0.278074 0.500000 0.180163
#
# Coordination Sequence:
#
# PCOD8195239 Si02
#       7
#     4   4   8   4   8   8   8
#     4  10  22  39  53  71 104 141 171 210 262 313
#     4  10  19  30  50  78 102 130 173 217 252 299
#     4   8  14  26  46  74 107 138 169 211 260 303
#     4   9  15  21  31  55  90 125 164 204 237 279
#     4  10  21  37  56  75  96 130 174 213 256 312
#     4   8  14  24  38  58  88 126 159 192 240 298
#     4   9  17  30  50  75 100 126 162 208 259 310
#
# _framework density 18.839635999999999
#
# number of rings (size 3 to 8) (size 9 to 14) (size 15 to 20)
#    0.000    3.000    0.909    2.182    0.000    4.727 
#    0.000    1.818    0.000    1.091    0.000    1.909 
#    0.000    5.091    0.000    0.000    0.000    0.000 
#
# Total GULP energy -545415.213813 kJ/mol
# GULP energy per Si atom -12395.800314 kJ/mol
# Density = 1.879676 g / cm^3
# Si number density = 18.839636 Si / 1000 Ang^3
#
#
#
# Elastic Constant Matrix: (Units=GPa)
#
#
# Indices 1 2 3 4 5 6 
#
# 1 101.7605 32.9885 68.1472 0.0000 0.0000 0.0000
# 2 32.9885 65.9378 64.4622 0.0000 0.0000 0.0000
# 3 68.1472 64.4622 155.6956 0.0000 0.0000 0.0000
# 4 0.0000 0.0000 0.0000 4.9534 0.0000 0.0000
# 5 0.0000 0.0000 0.0000 0.0000 2.9531 0.0000
# 6 0.0000 0.0000 0.0000 0.0000 0.0000 10.7220
#
#
#
# Elastic Compliance Matrix: (Units=1/GPa)
#
#
# Indices 1 2 3 4 5 6 
#
# 1 0.014015 -0.001705 -0.005429 0.000000 0.000000 0.000000
# 2 -0.001705 0.025686 -0.009889 0.000000 0.000000 0.000000
# 3 -0.005429 -0.009889 0.012893 0.000000 0.000000 0.000000
# 4 0.000000 0.000000 0.000000 0.201880 0.000000 0.000000
# 5 0.000000 0.000000 0.000000 0.000000 0.338627 0.000000
# 6 0.000000 0.000000 0.000000 0.000000 0.000000 0.093266
#
#
# Mechanical properties :
#
#
# Convention : Reuss Voigt Hill
#
# Bulk Modulus (GPa) = 53.90704 72.73217 63.31961
# Shear Modulus (GPa) = 6.88143 14.24544 10.56343
#
# Velocity S-wave (km/s) = 1.91326 2.75279 2.37048
# Velocity P-wave (km/s) = 5.79280 6.98524 6.41678
#
# Compressibility (1/GPa) = 0.01855045
#
# Stress axis : x y z
#
# Youngs Moduli (GPa) = 71.35222 38.93184 77.56157
#
# Poissons Ratio (x) = 0.06636 0.42105
# Poissons Ratio (y) = 0.12163 0.76697
# Poissons Ratio (z) = 0.38734 0.38498
#
# Static dielectric constant tensor:
#      x y z
#    x 3.461970 0.000000 0.000000 
#    y 0.000000 3.241170 0.000000 
#    z 0.000000 0.000000 3.469050 
# 
# 
# High freq. dielectric constant tensor:
#      x y z
#    x 1.723450 0.000000 0.000000 
#    y 0.000000 1.702460 0.000000 
#    z 0.000000 0.000000 1.727590 
# 
# From -- ./inp_files/33960.got.cif
#   From: 2010.03.12/outbox.cif.g09.slc.cpg/sg47_17_cif.got.tgz:33960.got - 2010.04.14 03:12:58.
