data_PCOD8195831
_publ_section_title
;
Structure prediction by ZEFSAII (Michael W. Deem and Ramdas Pophale) SiO2 
 PCOD8195831
Probable space group: P M M M
;
_chemical_formula_sum "Si O2"
_cell_formula_units_Z 56
_cell_length_a 19.242126
_cell_length_b 9.399116
_cell_length_c 16.055876
_cell_angle_alpha 90.000000
_cell_angle_beta 90.000000
_cell_angle_gamma 90.000000
_cell_volume 2903.849266
_symmetry_space_group_name_H-M "P M M M"
_symmetry_group_IT_number 47
_symmetry_cell_setting 'orthorhombic'
loop_
_space_group_symop_operation_xyz
x,y,z
-x,-y,z
x,-y,-z
-x,y,-z
-x,-y,-z
x,y,-z
-x,y,z
x,-y,z
loop_
_atom_site_type_symbol
_atom_site_label
_atom_site_fract_x
_atom_site_fract_y
_atom_site_fract_z
Si Si1 0.575615 0.168445 0.407293
Si Si2 0.081583 0.664273 0.745104
Si Si3 0.421417 0.837944 0.097645
Si Si4 0.286580 0.163490 0.323442
Si Si5 0.296679 0.336466 0.167385
Si Si6 0.155042 0.664579 0.090488
Si Si7 0.145343 0.836516 0.405948
O O1 0.580413 0.232736 0.500000
O O2 0.500000 0.209288 0.368095
O O3 0.639456 0.227725 0.353578
O O4 0.583330 0.000000 0.412784
O O5 0.104342 0.500000 0.734950
O O6 0.116190 0.732509 0.829137
O O7 0.104319 0.744922 0.661689
O O8 0.000000 0.680752 0.755971
O O9 0.500000 0.799965 0.124672
O O10 0.369434 0.734402 0.144360
O O11 0.404343 0.000000 0.122966
O O12 0.412545 0.816433 0.000000
O O13 0.262839 0.260450 0.247053
O O14 0.228459 0.178393 0.394649
O O15 0.293954 0.000000 0.294431
O O16 0.311525 0.500000 0.187569
O O17 0.238610 0.318305 0.096192
O O18 0.134010 0.500000 0.089684
O O19 0.133148 0.731726 0.000000
O O20 0.127308 0.785182 0.500000
O O21 0.122666 0.000000 0.393982
#
# Coordination Sequence:
#
# PCOD8195831 Si02
#       7
#     8   8   8   8   8   8   8
#     4   8  14  26  46  72  99 128 169 223 275 319
#     4  10  21  38  60  86 115 145 181 228 280 337
#     4   9  19  36  55  75 103 141 186 235 283 331
#     4  10  19  32  52  77 106 141 185 230 273 325
#     4  11  21  33  52  78 111 146 182 227 279 332
#     4   9  18  34  56  82 112 145 182 225 275 331
#     4  10  21  37  58  83 113 151 192 234 280 330
#
# _framework density 19.284748
#
# number of rings (size 3 to 8) (size 9 to 14) (size 15 to 20)
#    0.000    2.429    1.429    2.143    0.000    4.571 
#    0.000    5.000    0.000    2.571    0.000    2.000 
#    0.000    0.000    0.000    0.000    0.000    0.000 
#
# Total GULP energy -694073.977845 kJ/mol
# GULP energy per Si atom -12394.178176 kJ/mol
# Density = 1.924085 g / cm^3
# Si number density = 19.284748 Si / 1000 Ang^3
#
#
#
# Elastic Constant Matrix: (Units=GPa)
#
#
# Indices 1 2 3 4 5 6 
#
# 1 83.9865 33.7654 47.3138 0.0000 0.0000 0.0000
# 2 33.7654 65.1961 48.2082 0.0000 0.0000 0.0000
# 3 47.3138 48.2082 140.4747 0.0000 0.0000 0.0000
# 4 0.0000 0.0000 0.0000 21.2811 0.0000 0.0000
# 5 0.0000 0.0000 0.0000 0.0000 27.2286 0.0000
# 6 0.0000 0.0000 0.0000 0.0000 0.0000 25.3687
#
#
#
# Elastic Compliance Matrix: (Units=1/GPa)
#
#
# Indices 1 2 3 4 5 6 
#
# 1 0.016198 -0.005836 -0.003453 0.000000 0.000000 0.000000
# 2 -0.005836 0.022657 -0.005810 0.000000 0.000000 0.000000
# 3 -0.003453 -0.005810 0.010276 0.000000 0.000000 0.000000
# 4 0.000000 0.000000 0.000000 0.046990 0.000000 0.000000
# 5 0.000000 0.000000 0.000000 0.000000 0.036726 0.000000
# 6 0.000000 0.000000 0.000000 0.000000 0.000000 0.039419
#
#
# Mechanical properties :
#
#
# Convention : Reuss Voigt Hill
#
# Bulk Modulus (GPa) = 52.81733 60.91467 56.86600
# Shear Modulus (GPa) = 23.94941 25.46700 24.70821
#
# Velocity S-wave (km/s) = 3.52786 3.63792 3.58331
# Velocity P-wave (km/s) = 6.63641 7.02150 6.83167
#
# Compressibility (1/GPa) = 0.01893318
#
# Stress axis : x y z
#
# Youngs Moduli (GPa) = 61.73556 44.13711 97.31844
#
# Poissons Ratio (x) = 0.25758 0.33604
# Poissons Ratio (y) = 0.36028 0.56540
# Poissons Ratio (z) = 0.21317 0.25643
#
# Static dielectric constant tensor:
#      x y z
#    x 3.624500 0.000000 0.000000 
#    y 0.000000 3.190530 0.000000 
#    z 0.000000 0.000000 3.652060 
# 
# 
# High freq. dielectric constant tensor:
#      x y z
#    x 1.757980 0.000000 0.000000 
#    y 0.000000 1.706910 0.000000 
#    z 0.000000 0.000000 1.755580 
# 
# From -- ./inp_files/11234.got.cif
#   From: 2010.03.12/outbox.cif.g09.slc.cpg/sg47_6_cif.got.tgz:11234.got - 2010.04.14 03:12:58.
