data_PCOD8195092
_publ_section_title
;
Structure prediction by ZEFSAII (Michael W. Deem and Ramdas Pophale) SiO2 
 PCOD8195092
Probable space group: P M M M
;
_chemical_formula_sum "Si O2"
_cell_formula_units_Z 40
_cell_length_a 23.485986
_cell_length_b 13.071391
_cell_length_c 7.958885
_cell_angle_alpha 90.000000
_cell_angle_beta 90.000000
_cell_angle_gamma 90.000000
_cell_volume 2443.333969
_symmetry_space_group_name_H-M "P M M M"
_symmetry_group_IT_number 47
_symmetry_cell_setting 'orthorhombic'
loop_
_space_group_symop_operation_xyz
x,y,z
-x,-y,z
x,-y,-z
-x,y,-z
-x,-y,-z
x,y,-z
-x,y,z
x,-y,z
loop_
_atom_site_type_symbol
_atom_site_label
_atom_site_fract_x
_atom_site_fract_y
_atom_site_fract_z
Si Si1 0.103371 0.749358 0.193745
Si Si2 0.439014 0.883451 0.302277
Si Si3 0.321555 0.117786 0.190901
Si Si4 0.797380 0.117628 0.691076
Si Si5 0.000000 0.111595 0.197588
Si Si6 0.933552 0.379414 0.500000
O O1 0.163667 0.807288 0.199296
O O2 0.056071 0.829471 0.254920
O O3 0.098460 0.658096 0.329474
O O4 0.093631 0.710808 0.000000
O O5 0.433582 0.879337 0.500000
O O6 0.500000 0.832316 0.246577
O O7 0.382538 0.826914 0.228399
O O8 0.440596 0.000000 0.237698
O O9 0.267794 0.158969 0.296939
O O10 0.330395 0.000000 0.240393
O O11 0.304331 0.134222 0.000000
O O12 0.818016 0.123413 0.500000
O O13 0.801282 0.000000 0.758401
O O14 0.000000 0.000000 0.284260
O O15 0.000000 0.099011 0.000000
O O16 0.927616 0.500000 0.500000
O O17 0.000000 0.346227 0.500000
#
# Coordination Sequence:
#
# PCOD8195092 Si02
#       6
#     8   8   8   8   4   4
#     4  11  21  36  55  76 100 126 159 194 236 284
#     4   8  13  21  32  45  65  99 146 197 239 270
#     4   9  16  24  34  52  79 112 151 193 234 273
#     4  10  19  30  46  68  96 129 161 193 233 284
#     4   9  18  31  49  74 103 131 156 188 226 270
#     4  11  24  42  60  78  98 120 155 200 245 289
#
# _framework density 16.371074
#
# number of rings (size 3 to 8) (size 9 to 14) (size 15 to 20)
#    0.000    2.400    2.000    2.400    0.000    5.200 
#    0.000    3.500    0.000    0.000    0.000    0.000 
#    0.000    0.000    0.000    0.000    0.000    2.000 
#
# Total GULP energy -495553.274754 kJ/mol
# GULP energy per Si atom -12388.831869 kJ/mol
# Density = 1.633381 g / cm^3
# Si number density = 16.371074 Si / 1000 Ang^3
#
#
#
# Elastic Constant Matrix: (Units=GPa)
#
#
# Indices 1 2 3 4 5 6 
#
# 1 125.0884 26.3256 30.3235 0.0000 0.0000 0.0000
# 2 26.3256 42.8441 23.2540 0.0000 0.0000 0.0000
# 3 30.3235 23.2540 68.5471 0.0000 0.0000 0.0000
# 4 0.0000 0.0000 0.0000 12.8734 0.0000 0.0000
# 5 0.0000 0.0000 0.0000 0.0000 25.1820 0.0000
# 6 0.0000 0.0000 0.0000 0.0000 0.0000 13.5467
#
#
#
# Elastic Compliance Matrix: (Units=1/GPa)
#
#
# Indices 1 2 3 4 5 6 
#
# 1 0.009586 -0.004399 -0.002749 0.000000 0.000000 0.000000
# 2 -0.004399 0.030626 -0.008444 0.000000 0.000000 0.000000
# 3 -0.002749 -0.008444 0.018669 0.000000 0.000000 0.000000
# 4 0.000000 0.000000 0.000000 0.077679 0.000000 0.000000
# 5 0.000000 0.000000 0.000000 0.000000 0.039711 0.000000
# 6 0.000000 0.000000 0.000000 0.000000 0.000000 0.073819
#
#
# Mechanical properties :
#
#
# Convention : Reuss Voigt Hill
#
# Bulk Modulus (GPa) = 36.10182 44.03175 40.06678
# Shear Modulus (GPa) = 17.21139 20.75887 18.98513
#
# Velocity S-wave (km/s) = 3.24594 3.56479 3.40910
# Velocity P-wave (km/s) = 6.01234 6.62556 6.32639
#
# Compressibility (1/GPa) = 0.02769944
#
# Stress axis : x y z
#
# Youngs Moduli (GPa) = 104.31513 32.65195 53.56499
#
# Poissons Ratio (x) = 0.14362 0.14723
# Poissons Ratio (y) = 0.45883 0.45229
# Poissons Ratio (z) = 0.28672 0.27571
#
# Static dielectric constant tensor:
#      x y z
#    x 3.530050 0.000000 0.000000 
#    y 0.000000 2.497560 0.000000 
#    z 0.000000 0.000000 3.027130 
# 
# 
# High freq. dielectric constant tensor:
#      x y z
#    x 1.653150 0.000000 0.000000 
#    y 0.000000 1.534660 0.000000 
#    z 0.000000 0.000000 1.637300 
# 
# From -- ./inp_files/10685.got.cif
#   From: 2010.03.12/outbox.cif.g09.slc.cpg/sg47_6_cif.got.tgz:10685.got - 2010.04.14 03:12:58.
