data_PCOD8195639
_publ_section_title
;
Structure prediction by ZEFSAII (Michael W. Deem and Ramdas Pophale) SiO2 
 PCOD8195639
Probable space group: P M M M
;
_chemical_formula_sum "Si O2"
_cell_formula_units_Z 40
_cell_length_a 18.155629
_cell_length_b 18.134690
_cell_length_c 8.075986
_cell_angle_alpha 90.000000
_cell_angle_beta 90.000000
_cell_angle_gamma 90.000000
_cell_volume 2658.991769
_symmetry_space_group_name_H-M "P M M M"
_symmetry_group_IT_number 47
_symmetry_cell_setting 'orthorhombic'
loop_
_space_group_symop_operation_xyz
x,y,z
-x,-y,z
x,-y,-z
-x,y,-z
-x,-y,-z
x,y,-z
-x,y,z
x,-y,z
loop_
_atom_site_type_symbol
_atom_site_label
_atom_site_fract_x
_atom_site_fract_y
_atom_site_fract_z
Si Si1 0.913916 0.323558 0.814252
Si Si2 0.420426 0.087333 0.687322
Si Si3 0.000000 0.087007 0.188391
Si Si4 0.266981 0.084301 0.811050
Si Si5 0.135438 0.825050 0.313384
Si Si6 0.087447 0.582597 0.500000
O O1 0.871040 0.246189 0.803540
O O2 0.884942 0.378228 0.669827
O O3 0.000000 0.306932 0.786546
O O4 0.900220 0.356497 0.000000
O O5 0.408453 0.114678 0.500000
O O6 0.500000 0.117724 0.753932
O O7 0.350921 0.114590 0.795188
O O8 0.423668 0.000000 0.694083
O O9 0.927085 0.115473 0.276649
O O10 0.000000 0.000000 0.201435
O O11 0.000000 0.114705 0.000000
O O12 0.214304 0.136427 0.705690
O O13 0.261621 0.000000 0.745147
O O14 0.241450 0.088145 0.000000
O O15 0.126460 0.796636 0.500000
O O16 0.120136 0.500000 0.500000
O O17 0.000000 0.580088 0.500000
#
# Coordination Sequence:
#
# PCOD8195639 Si02
#       6
#     8   8   4   8   8   4
#     4  10  19  32  49  67  89 116 145 178 220 266
#     4   8  14  26  43  60  78 102 134 175 224 273
#     4  11  23  35  45  59  79 108 149 195 237 271
#     4  10  20  31  42  59  83 110 145 191 233 267
#     4  12  22  32  46  61  82 113 152 188 226 271
#     4   9  18  32  50  72  92 110 139 176 215 261
#
# _framework density 15.043295000000001
#
# number of rings (size 3 to 8) (size 9 to 14) (size 15 to 20)
#    0.000    2.000    2.000    3.900    0.000    5.200 
#    0.000    4.000    0.000    0.000    0.000    0.000 
#    0.000    0.000    0.000    0.000    0.000    2.000 
#
# Total GULP energy -495836.613264 kJ/mol
# GULP energy per Si atom -12395.915332 kJ/mol
# Density = 1.500906 g / cm^3
# Si number density = 15.043295 Si / 1000 Ang^3
#
#
#
# Elastic Constant Matrix: (Units=GPa)
#
#
# Indices 1 2 3 4 5 6 
#
# 1 79.6622 25.1033 19.7059 0.0000 0.0000 0.0000
# 2 25.1033 63.1423 29.7981 0.0000 0.0000 0.0000
# 3 19.7059 29.7981 89.7282 0.0000 0.0000 0.0000
# 4 0.0000 0.0000 0.0000 17.2710 0.0000 0.0000
# 5 0.0000 0.0000 0.0000 0.0000 19.2687 0.0000
# 6 0.0000 0.0000 0.0000 0.0000 0.0000 2.9285
#
#
#
# Elastic Compliance Matrix: (Units=1/GPa)
#
#
# Indices 1 2 3 4 5 6 
#
# 1 0.014521 -0.005061 -0.001508 0.000000 0.000000 0.000000
# 2 -0.005061 0.020545 -0.005711 0.000000 0.000000 0.000000
# 3 -0.001508 -0.005711 0.013373 0.000000 0.000000 0.000000
# 4 0.000000 0.000000 0.000000 0.057901 0.000000 0.000000
# 5 0.000000 0.000000 0.000000 0.000000 0.051898 0.000000
# 6 0.000000 0.000000 0.000000 0.000000 0.000000 0.341470
#
#
# Mechanical properties :
#
#
# Convention : Reuss Voigt Hill
#
# Bulk Modulus (GPa) = 41.88157 42.41638 42.14897
# Shear Modulus (GPa) = 9.39449 18.42199 13.90824
#
# Velocity S-wave (km/s) = 2.50170 3.50322 3.04394
# Velocity P-wave (km/s) = 6.02045 6.67988 6.35872
#
# Compressibility (1/GPa) = 0.02387685
#
# Stress axis : x y z
#
# Youngs Moduli (GPa) = 68.86558 48.67441 74.77948
#
# Poissons Ratio (x) = 0.24636 0.11279
# Poissons Ratio (y) = 0.34855 0.42708
# Poissons Ratio (z) = 0.10387 0.27799
#
# Static dielectric constant tensor:
#      x y z
#    x 3.204920 0.000000 0.000000 
#    y 0.000000 2.609510 0.000000 
#    z 0.000000 0.000000 3.065980 
# 
# 
# High freq. dielectric constant tensor:
#      x y z
#    x 1.554670 0.000000 0.000000 
#    y 0.000000 1.527190 0.000000 
#    z 0.000000 0.000000 1.591990 
# 
# From -- ./inp_files/9385.got.cif
#   From: 2010.03.12/outbox.cif.g09.slc.cpg/sg47_5_cif.got.tgz:9385.got - 2010.04.14 03:12:58.
