data_PCOD8195556
_publ_section_title
;
Structure prediction by ZEFSAII (Michael W. Deem and Ramdas Pophale) SiO2 
 PCOD8195556
Probable space group: P M M M
;
_chemical_formula_sum "Si O2"
_cell_formula_units_Z 56
_cell_length_a 14.899028
_cell_length_b 9.257651
_cell_length_c 20.366363
_cell_angle_alpha 90.000000
_cell_angle_beta 90.000000
_cell_angle_gamma 90.000000
_cell_volume 2809.132478
_symmetry_space_group_name_H-M "P M M M"
_symmetry_group_IT_number 47
_symmetry_cell_setting 'orthorhombic'
loop_
_space_group_symop_operation_xyz
x,y,z
-x,-y,z
x,-y,-z
-x,y,-z
-x,-y,-z
x,y,-z
-x,y,z
x,-y,z
loop_
_atom_site_type_symbol
_atom_site_label
_atom_site_fract_x
_atom_site_fract_y
_atom_site_fract_z
Si Si1 0.644583 0.335463 0.342749
Si Si2 0.154039 0.336452 0.645028
Si Si3 0.097752 0.662621 0.888900
Si Si4 0.500000 0.829118 0.424045
Si Si5 0.291789 0.331698 0.929515
Si Si6 0.000000 0.837034 0.422763
Si Si7 0.602345 0.328852 0.803773
Si Si8 0.899285 0.160855 0.239331
O O1 0.607537 0.500000 0.344155
O O2 0.742540 0.330216 0.376207
O O3 0.586996 0.233090 0.388649
O O4 0.641643 0.278794 0.266944
O O5 0.117537 0.500000 0.645554
O O6 0.157079 0.272862 0.718203
O O7 0.091046 0.242085 0.598623
O O8 0.105891 0.500000 0.859133
O O9 0.184112 0.693827 0.933452
O O10 0.100229 0.783812 0.833992
O O11 0.000000 0.676000 0.925661
O O12 0.500000 0.781678 0.500000
O O13 0.500000 0.000000 0.416676
O O14 0.313780 0.500000 0.927098
O O15 0.339071 0.261537 0.864749
O O16 0.328455 0.269736 0.000000
O O17 0.000000 0.838749 0.500000
O O18 0.000000 0.000000 0.394463
O O19 0.500000 0.273844 0.810867
O O20 0.607258 0.500000 0.807654
O O21 0.000000 0.158279 0.268740
O O22 0.857501 0.000000 0.241590
#
# Coordination Sequence:
#
# PCOD8195556 Si02
#       8
#     8   8   8   4   8   4   8   8
#     4  10  21  39  63  90 118 155 198 243 296 351
#     4  11  22  36  60  88 115 149 194 245 292 341
#     4   9  17  29  46  69 102 144 187 233 286 343
#     4  11  25  43  63  91 124 153 186 236 297 359
#     4   9  17  28  44  73 111 146 186 239 294 347
#     4  11  25  43  59  79 117 165 202 235 282 341
#     4   9  16  29  52  78 109 146 185 232 290 351
#     4  10  19  31  50  77 110 144 183 232 289 347
#
# _framework density 19.934979999999999
#
# number of rings (size 3 to 8) (size 9 to 14) (size 15 to 20)
#    0.000    2.143    1.429    2.143    0.000    6.286 
#    0.000    5.714    0.000    0.429    0.000    2.000 
#    0.000    0.571    0.000    0.000    0.000    0.000 
#
# Total GULP energy -693880.256107 kJ/mol
# GULP energy per Si atom -12390.718859 kJ/mol
# Density = 1.988961 g / cm^3
# Si number density = 19.934980 Si / 1000 Ang^3
#
#
#
# Elastic Constant Matrix: (Units=GPa)
#
#
# Indices 1 2 3 4 5 6 
#
# 1 112.0291 34.1993 51.2153 0.0000 0.0000 0.0000
# 2 34.1993 93.6697 42.4509 0.0000 0.0000 0.0000
# 3 51.2153 42.4509 127.4896 0.0000 0.0000 0.0000
# 4 0.0000 0.0000 0.0000 11.0798 0.0000 0.0000
# 5 0.0000 0.0000 0.0000 0.0000 16.7218 0.0000
# 6 0.0000 0.0000 0.0000 0.0000 0.0000 12.4626
#
#
#
# Elastic Compliance Matrix: (Units=1/GPa)
#
#
# Indices 1 2 3 4 5 6 
#
# 1 0.011395 -0.002456 -0.003760 0.000000 0.000000 0.000000
# 2 -0.002456 0.013103 -0.003376 0.000000 0.000000 0.000000
# 3 -0.003760 -0.003376 0.010478 0.000000 0.000000 0.000000
# 4 0.000000 0.000000 0.000000 0.090254 0.000000 0.000000
# 5 0.000000 0.000000 0.000000 0.000000 0.059802 0.000000
# 6 0.000000 0.000000 0.000000 0.000000 0.000000 0.080240
#
#
# Mechanical properties :
#
#
# Convention : Reuss Voigt Hill
#
# Bulk Modulus (GPa) = 63.32514 65.43549 64.38032
# Shear Modulus (GPa) = 17.25800 21.74104 19.49952
#
# Velocity S-wave (km/s) = 2.94549 3.30600 3.13094
# Velocity P-wave (km/s) = 6.58807 6.88974 6.74060
#
# Compressibility (1/GPa) = 0.01579152
#
# Stress axis : x y z
#
# Youngs Moduli (GPa) = 87.75860 76.32017 95.43582
#
# Poissons Ratio (x) = 0.18748 0.35880
# Poissons Ratio (y) = 0.21558 0.32220
# Poissons Ratio (z) = 0.32994 0.25766
#
# Static dielectric constant tensor:
#      x y z
#    x 3.780260 0.000000 0.000000 
#    y 0.000000 3.343960 0.000000 
#    z 0.000000 0.000000 3.631190 
# 
# 
# High freq. dielectric constant tensor:
#      x y z
#    x 1.782460 0.000000 0.000000 
#    y 0.000000 1.741640 0.000000 
#    z 0.000000 0.000000 1.772750 
# 
# From -- ./inp_files/31091.got.cif
#   From: 2010.03.12/outbox.cif.g09.slc.cpg/sg47_16_cif.got.tgz:31091.got - 2010.04.14 03:12:58.
