data_PCOD8195348
_publ_section_title
;
Structure prediction by ZEFSAII (Michael W. Deem and Ramdas Pophale) SiO2 
 PCOD8195348
Probable space group: P M M M
;
_chemical_formula_sum "Si O2"
_cell_formula_units_Z 48
_cell_length_a 9.469916
_cell_length_b 15.397712
_cell_length_c 18.459648
_cell_angle_alpha 90.000000
_cell_angle_beta 90.000000
_cell_angle_gamma 90.000000
_cell_volume 2691.694297
_symmetry_space_group_name_H-M "P M M M"
_symmetry_group_IT_number 47
_symmetry_cell_setting 'orthorhombic'
loop_
_space_group_symop_operation_xyz
x,y,z
-x,-y,z
x,-y,-z
-x,y,-z
-x,-y,-z
x,y,-z
-x,y,z
x,-y,z
loop_
_atom_site_type_symbol
_atom_site_label
_atom_site_fract_x
_atom_site_fract_y
_atom_site_fract_z
Si Si1 0.343803 0.801515 0.793439
Si Si2 0.231182 0.500000 0.081967
Si Si3 0.157478 0.500000 0.760374
Si Si4 0.663694 0.310828 0.921769
Si Si5 0.837272 0.902270 0.690934
Si Si6 0.163763 0.749384 0.583473
Si Si7 0.658126 0.645548 0.313667
O O1 0.500000 0.837810 0.813206
O O2 0.267755 0.751953 0.861201
O O3 0.246861 0.879454 0.764680
O O4 0.360172 0.733287 0.729649
O O5 0.129836 0.500000 0.152163
O O6 0.323853 0.413654 0.091988
O O7 0.160150 0.500000 0.000000
O O8 0.246469 0.582232 0.734260
O O9 0.000000 0.500000 0.725944
O O10 0.500000 0.289352 0.920219
O O11 0.730764 0.287026 0.000000
O O12 0.799039 0.839031 0.624471
O O13 0.000000 0.893569 0.711894
O O14 0.798458 0.000000 0.666800
O O15 0.200528 0.764541 0.500000
O O16 0.258985 0.669245 0.612323
O O17 0.000000 0.724431 0.594917
O O18 0.500000 0.607359 0.329911
#
# Coordination Sequence:
#
# PCOD8195348 Si02
#       7
#     8   4   4   8   8   8   8
#     4   9  17  30  49  72  98 129 166 208 252 298
#     4  10  19  31  47  72 106 140 172 209 253 300
#     4  12  23  34  51  73 103 140 177 216 252 292
#     4   9  16  27  46  72 101 133 170 211 253 297
#     4   9  18  32  51  76 103 131 164 200 243 300
#     4   9  18  34  55  78 105 133 161 199 251 306
#     4  10  20  34  52  74 100 133 174 213 251 296
#
# _framework density 17.832633999999999
#
# number of rings (size 3 to 8) (size 9 to 14) (size 15 to 20)
#    0.000    2.500    1.667    1.000    0.000    3.500 
#    0.000    2.083    0.000    3.500    0.000    8.167 
#    0.000    0.000    0.000    0.000    0.000    0.000 
#
# Total GULP energy -594635.009733 kJ/mol
# GULP energy per Si atom -12388.229369 kJ/mol
# Density = 1.779205 g / cm^3
# Si number density = 17.832634 Si / 1000 Ang^3
#
#
#
# Elastic Constant Matrix: (Units=GPa)
#
#
# Indices 1 2 3 4 5 6 
#
# 1 86.2129 38.3110 44.9057 0.0000 0.0000 0.0000
# 2 38.3110 62.9842 47.9930 0.0000 0.0000 0.0000
# 3 44.9057 47.9930 126.9772 0.0000 0.0000 0.0000
# 4 0.0000 0.0000 0.0000 24.7235 0.0000 0.0000
# 5 0.0000 0.0000 0.0000 0.0000 21.0579 0.0000
# 6 0.0000 0.0000 0.0000 0.0000 0.0000 20.4805
#
#
#
# Elastic Compliance Matrix: (Units=1/GPa)
#
#
# Indices 1 2 3 4 5 6 
#
# 1 0.016617 -0.007907 -0.002888 0.000000 0.000000 0.000000
# 2 -0.007907 0.026062 -0.007054 0.000000 0.000000 0.000000
# 3 -0.002888 -0.007054 0.011563 0.000000 0.000000 0.000000
# 4 0.000000 0.000000 0.000000 0.040447 0.000000 0.000000
# 5 0.000000 0.000000 0.000000 0.000000 0.047488 0.000000
# 6 0.000000 0.000000 0.000000 0.000000 0.000000 0.048827
#
#
# Mechanical properties :
#
#
# Convention : Reuss Voigt Hill
#
# Bulk Modulus (GPa) = 53.92720 59.84371 56.88545
# Shear Modulus (GPa) = 21.46995 22.91669 22.19332
#
# Velocity S-wave (km/s) = 3.47359 3.58872 3.53162
# Velocity P-wave (km/s) = 6.81133 7.12764 6.97128
#
# Compressibility (1/GPa) = 0.01854352
#
# Stress axis : x y z
#
# Youngs Moduli (GPa) = 60.17867 38.37065 86.48247
#
# Poissons Ratio (x) = 0.30339 0.24978
# Poissons Ratio (y) = 0.47583 0.61006
# Poissons Ratio (z) = 0.17381 0.27067
#
# Static dielectric constant tensor:
#      x y z
#    x 3.399080 0.000000 0.000000 
#    y 0.000000 3.196630 0.000000 
#    z 0.000000 0.000000 3.513560 
# 
# 
# High freq. dielectric constant tensor:
#      x y z
#    x 1.676430 0.000000 0.000000 
#    y 0.000000 1.668180 0.000000 
#    z 0.000000 0.000000 1.687220 
# 
# From -- ./inp_files/26548.got.cif
#   From: 2010.03.12/outbox.cif.g09.slc.cpg/sg47_14_cif.got.tgz:26548.got - 2010.04.14 03:12:58.
