data_PCOD8195433
_publ_section_title
;
Structure prediction by ZEFSAII (Michael W. Deem and Ramdas Pophale) SiO2 
 PCOD8195433
Probable space group: P M M M
;
_chemical_formula_sum "Si O2"
_cell_formula_units_Z 64
_cell_length_a 17.694592
_cell_length_b 9.203498
_cell_length_c 22.828575
_cell_angle_alpha 90.000000
_cell_angle_beta 90.000000
_cell_angle_gamma 90.000000
_cell_volume 3717.682339
_symmetry_space_group_name_H-M "P M M M"
_symmetry_group_IT_number 47
_symmetry_cell_setting 'orthorhombic'
loop_
_space_group_symop_operation_xyz
x,y,z
-x,-y,z
x,-y,-z
-x,y,-z
-x,-y,-z
x,y,-z
-x,y,z
x,-y,z
loop_
_atom_site_type_symbol
_atom_site_label
_atom_site_fract_x
_atom_site_fract_y
_atom_site_fract_z
Si Si1 0.420541 0.172194 0.934346
Si Si2 0.586436 0.668615 0.660330
Si Si3 0.255839 0.829237 0.931694
Si Si4 0.686638 0.836227 0.743007
Si Si5 0.086368 0.331696 0.730836
Si Si6 0.710479 0.669097 0.566748
Si Si7 0.791272 0.329076 0.825917
Si Si8 0.184776 0.837200 0.646085
O O1 0.500000 0.222651 0.902090
O O2 0.339769 0.222753 0.908837
O O3 0.417939 0.000000 0.935960
O O4 0.424644 0.232622 0.000000
O O5 0.500000 0.706002 0.645349
O O6 0.597442 0.500000 0.676050
O O7 0.611734 0.760926 0.716961
O O8 0.635889 0.711265 0.603562
O O9 0.197800 0.739312 0.890911
O O10 0.243000 0.000000 0.921896
O O11 0.243216 0.789914 0.000000
O O12 0.717218 0.743812 0.797393
O O13 0.749316 0.837505 0.693275
O O14 0.667120 0.000000 0.763771
O O15 0.097755 0.500000 0.715541
O O16 0.134386 0.289840 0.788381
O O17 0.112430 0.243071 0.673652
O O18 0.000000 0.292816 0.744908
O O19 0.694085 0.713306 0.500000
O O20 0.729062 0.500000 0.573343
O O21 0.784652 0.754396 0.588839
O O22 0.778473 0.500000 0.830304
O O23 0.160968 0.000000 0.628376
#
# Coordination Sequence:
#
# PCOD8195433 Si02
#       8
#     8   8   8   8   8   8   8   8
#     4   7  10  19  37  59  80 104 139 181 217 247
#     4   9  17  29  45  66  94 126 161 206 252 283
#     4   9  17  29  46  68  94 125 159 193 230 275
#     4   9  17  30  47  65  87 118 156 194 234 283
#     4   9  18  33  53  75  96 118 147 186 233 285
#     4   9  17  29  46  68  95 131 171 202 232 277
#     4  10  19  31  49  71  94 119 149 188 233 281
#     4   9  17  29  47  71  96 121 151 190 234 277
#
# _framework density 17.215026000000002
#
# number of rings (size 3 to 8) (size 9 to 14) (size 15 to 20)
#    0.000    3.125    0.000    2.250    0.000    4.750 
#    0.000    1.875    0.000    3.375    0.000   10.500 
#    0.000    0.000    0.000    0.000    0.000    0.000 
#
# Total GULP energy -793024.371137 kJ/mol
# GULP energy per Si atom -12391.005799 kJ/mol
# Density = 1.717584 g / cm^3
# Si number density = 17.215026 Si / 1000 Ang^3
#
#
#
# Elastic Constant Matrix: (Units=GPa)
#
#
# Indices 1 2 3 4 5 6 
#
# 1 94.6626 46.3783 52.1709 0.0000 0.0000 0.0000
# 2 46.3783 80.0310 51.1421 0.0000 0.0000 0.0000
# 3 52.1709 51.1421 91.0665 0.0000 0.0000 0.0000
# 4 0.0000 0.0000 0.0000 26.4410 0.0000 0.0000
# 5 0.0000 0.0000 0.0000 0.0000 17.8385 0.0000
# 6 0.0000 0.0000 0.0000 0.0000 0.0000 17.6751
#
#
#
# Elastic Compliance Matrix: (Units=1/GPa)
#
#
# Indices 1 2 3 4 5 6 
#
# 1 0.016924 -0.005633 -0.006532 0.000000 0.000000 0.000000
# 2 -0.005633 0.021365 -0.008771 0.000000 0.000000 0.000000
# 3 -0.006532 -0.008771 0.019649 0.000000 0.000000 0.000000
# 4 0.000000 0.000000 0.000000 0.037820 0.000000 0.000000
# 5 0.000000 0.000000 0.000000 0.000000 0.056058 0.000000
# 6 0.000000 0.000000 0.000000 0.000000 0.000000 0.056577
#
#
# Mechanical properties :
#
#
# Convention : Reuss Voigt Hill
#
# Bulk Modulus (GPa) = 62.24754 62.79363 62.52058
# Shear Modulus (GPa) = 19.56041 20.12886 19.84464
#
# Velocity S-wave (km/s) = 3.37447 3.42316 3.39890
# Velocity P-wave (km/s) = 7.17078 7.22352 7.19720
#
# Compressibility (1/GPa) = 0.01606489
#
# Stress axis : x y z
#
# Youngs Moduli (GPa) = 59.08934 46.80653 50.89443
#
# Poissons Ratio (x) = 0.26368 0.33242
# Poissons Ratio (y) = 0.33287 0.44639
# Poissons Ratio (z) = 0.38595 0.41053
#
# Static dielectric constant tensor:
#      x y z
#    x 2.251410 0.000000 0.000000 
#    y 0.000000 3.169130 0.000000 
#    z 0.000000 0.000000 3.109620 
# 
# 
# High freq. dielectric constant tensor:
#      x y z
#    x 1.645050 0.000000 0.000000 
#    y 0.000000 1.654400 0.000000 
#    z 0.000000 0.000000 1.648090 
# 
# From -- ./inp_files/28924.got.cif
#   From: 2010.03.12/outbox.cif.g09.slc.cpg/sg47_15_cif.got.tgz:28924.got - 2010.04.14 03:12:58.
