data_PCOD8195746
_publ_section_title
;
Structure prediction by ZEFSAII (Michael W. Deem and Ramdas Pophale) SiO2 
 PCOD8195746
Probable space group: P M M M
;
_chemical_formula_sum "Si O2"
_cell_formula_units_Z 52
_cell_length_a 27.972344
_cell_length_b 7.940192
_cell_length_c 12.767269
_cell_angle_alpha 90.000000
_cell_angle_beta 90.000000
_cell_angle_gamma 90.000000
_cell_volume 2835.684266
_symmetry_space_group_name_H-M "P M M M"
_symmetry_group_IT_number 47
_symmetry_cell_setting 'orthorhombic'
loop_
_space_group_symop_operation_xyz
x,y,z
-x,-y,z
x,-y,-z
-x,y,-z
-x,-y,-z
x,y,-z
-x,y,z
x,-y,z
loop_
_atom_site_type_symbol
_atom_site_label
_atom_site_fract_x
_atom_site_fract_y
_atom_site_fract_z
Si Si1 0.727358 0.806362 0.117383
Si Si2 0.622602 0.698124 0.881435
Si Si3 0.221389 0.691964 0.316393
Si Si4 0.604276 0.806773 0.500000
Si Si5 0.552796 0.695727 0.706398
Si Si6 0.881587 0.692782 0.624278
Si Si7 0.287853 0.298826 0.500000
Si Si8 0.946337 0.000000 0.624499
O O1 0.672152 0.786469 0.148823
O O2 0.761112 0.708108 0.197376
O O3 0.741846 0.000000 0.122892
O O4 0.735643 0.733899 0.000000
O O5 0.630098 0.500000 0.865255
O O6 0.582219 0.772862 0.804261
O O7 0.607206 0.741504 0.000000
O O8 0.216661 0.500000 0.349902
O O9 0.168169 0.765643 0.328802
O O10 0.259543 0.770603 0.397769
O O11 0.581938 0.719714 0.600786
O O12 0.660913 0.787707 0.500000
O O13 0.589481 0.000000 0.500000
O O14 0.500000 0.780221 0.700198
O O15 0.546435 0.500000 0.727395
O O16 0.877341 0.694412 0.500000
O O17 0.893620 0.500000 0.662073
O O18 0.921146 0.826961 0.663905
O O19 0.294947 0.500000 0.500000
O O20 0.946787 0.000000 0.500000
O O21 0.000000 0.000000 0.670014
#
# Coordination Sequence:
#
# PCOD8195746 Si02
#       8
#     8   8   8   4   8   8   4   4
#     4  10  21  34  48  70 101 135 167 202 246 299
#     4   9  18  34  55  76  97 121 152 196 247 299
#     4  10  19  32  51  74 100 133 172 209 254 305
#     4  12  25  37  48  71 100 126 163 201 239 290
#     4  10  21  37  56  74  93 122 157 196 246 298
#     4   9  17  31  48  71 105 140 177 224 269 310
#     4  10  20  35  53  74 100 130 164 203 247 301
#     4   9  18  30  46  72 103 145 191 223 260 310
#
# _framework density 18.337726
#
# number of rings (size 3 to 8) (size 9 to 14) (size 15 to 20)
#    0.000    2.231    0.769    2.308    1.077    7.692 
#    0.000    3.077    0.000    0.000    0.000    3.231 
#    0.000    1.231    0.000    3.385    0.000    0.154 
#
# Total GULP energy -644673.211186 kJ/mol
# GULP energy per Si atom -12397.561754 kJ/mol
# Density = 1.829599 g / cm^3
# Si number density = 18.337726 Si / 1000 Ang^3
#
#
#
# Elastic Constant Matrix: (Units=GPa)
#
#
# Indices 1 2 3 4 5 6 
#
# 1 138.0997 28.4484 56.1002 0.0000 0.0000 0.0000
# 2 28.4484 47.2033 13.7494 0.0000 0.0000 0.0000
# 3 56.1002 13.7494 92.6019 0.0000 0.0000 0.0000
# 4 0.0000 0.0000 0.0000 10.3161 0.0000 0.0000
# 5 0.0000 0.0000 0.0000 0.0000 -13.1860 0.0000
# 6 0.0000 0.0000 0.0000 0.0000 0.0000 8.9442
#
#
#
# Elastic Compliance Matrix: (Units=1/GPa)
#
#
# Indices 1 2 3 4 5 6 
#
# 1 0.010510 -0.004682 -0.005672 0.000000 0.000000 0.000000
# 2 -0.004682 0.024228 -0.000761 0.000000 0.000000 0.000000
# 3 -0.005672 -0.000761 0.014348 0.000000 0.000000 0.000000
# 4 0.000000 0.000000 0.000000 0.096936 0.000000 0.000000
# 5 0.000000 0.000000 0.000000 0.000000 -0.075838 0.000000
# 6 0.000000 0.000000 0.000000 0.000000 0.000000 0.111804
#
#
# Mechanical properties :
#
#
# Convention : Reuss Voigt Hill
#
# Bulk Modulus (GPa) = 37.23481 52.72234 44.97858
# Shear Modulus (GPa) = 23.45550 13.18865 18.32208
#
# Velocity S-wave (km/s) = 3.58031 2.68472 3.16436
# Velocity P-wave (km/s) = 6.11887 6.19866 6.15890
#
# Compressibility (1/GPa) = 0.02685659
#
# Stress axis : x y z
#
# Youngs Moduli (GPa) = 95.15046 41.27405 69.69603
#
# Poissons Ratio (x) = 0.19324 0.39530
# Poissons Ratio (y) = 0.44548 0.05304
# Poissons Ratio (z) = 0.53968 0.03141
#
# Static dielectric constant tensor:
#      x y z
#    x 3.491180 0.000000 0.000000 
#    y 0.000000 3.308900 0.000000 
#    z 0.000000 0.000000 3.269600 
# 
# 
# High freq. dielectric constant tensor:
#      x y z
#    x 1.701440 0.000000 0.000000 
#    y 0.000000 1.704890 0.000000 
#    z 0.000000 0.000000 1.690910 
# 
# From -- ./inp_files/19836.got.cif
#   From: 2010.03.12/outbox.cif.g09.slc.cpg/sg47_10_cif.got.tgz:19836.got - 2010.04.14 03:12:58.
