data_PCOD8195129
_publ_section_title
;
Structure prediction by ZEFSAII (Michael W. Deem and Ramdas Pophale) SiO2 
 PCOD8195129
Probable space group: P M M M
;
_chemical_formula_sum "Si O2"
_cell_formula_units_Z 56
_cell_length_a 9.140004
_cell_length_b 13.648486
_cell_length_c 29.113790
_cell_angle_alpha 90.000000
_cell_angle_beta 90.000000
_cell_angle_gamma 90.000000
_cell_volume 3631.864268
_symmetry_space_group_name_H-M "P M M M"
_symmetry_group_IT_number 47
_symmetry_cell_setting 'orthorhombic'
loop_
_space_group_symop_operation_xyz
x,y,z
-x,-y,z
x,-y,-z
-x,y,-z
-x,-y,-z
x,y,-z
-x,y,z
x,-y,z
loop_
_atom_site_type_symbol
_atom_site_label
_atom_site_fract_x
_atom_site_fract_y
_atom_site_fract_z
Si Si1 0.172102 0.606963 0.218823
Si Si2 0.173060 0.275910 0.130005
Si Si3 0.669033 0.113186 0.817979
Si Si4 0.173491 0.201324 0.733249
Si Si5 0.665512 0.116413 0.449911
Si Si6 0.668137 0.387740 0.053135
Si Si7 0.828473 0.111993 0.361785
O O1 0.245128 0.500000 0.227889
O O2 0.219671 0.645795 0.168880
O O3 0.219978 0.685673 0.257480
O O4 0.000000 0.595014 0.220066
O O5 0.250780 0.173330 0.141721
O O6 0.227812 0.315623 0.081375
O O7 0.000000 0.258767 0.128536
O O8 0.500000 0.145270 0.814703
O O9 0.745404 0.130948 0.768940
O O10 0.684330 0.000000 0.831112
O O11 0.224326 0.174241 0.682014
O O12 0.000000 0.185745 0.740044
O O13 0.723377 0.153383 0.500000
O O14 0.500000 0.151932 0.443033
O O15 0.759678 0.159335 0.407834
O O16 0.675298 0.000000 0.449026
O O17 0.500000 0.370688 0.067321
O O18 0.713142 0.500000 0.062696
O O19 0.691537 0.362078 0.000000
O O20 0.000000 0.118272 0.368061
O O21 0.777174 0.000000 0.354479
#
# Coordination Sequence:
#
# PCOD8195129 Si02
#       7
#     8   8   8   8   8   8   8
#     4   8  14  25  41  61  84 109 137 168 202 242
#     4  10  19  30  47  69  91 116 146 181 217 254
#     4  10  20  32  46  64  86 114 148 182 215 255
#     4   9  17  28  42  61  85 112 141 174 211 249
#     4   8  14  24  36  50  70  98 132 167 202 242
#     4   9  18  32  49  70  97 125 148 174 213 258
#     4   9  16  24  35  53  78 107 136 166 202 245
#
# _framework density 15.419077
#
# number of rings (size 3 to 8) (size 9 to 14) (size 15 to 20)
#    0.000    3.000    0.000    3.429    0.000    3.714 
#    0.000    3.571    0.000    4.286    0.000    3.000 
#    0.000    0.571    0.000    7.143    0.000    1.429 
#
# Total GULP energy -694129.448049 kJ/mol
# GULP energy per Si atom -12395.168715 kJ/mol
# Density = 1.538398 g / cm^3
# Si number density = 15.419077 Si / 1000 Ang^3
#
#
#
# Elastic Constant Matrix: (Units=GPa)
#
#
# Indices 1 2 3 4 5 6 
#
# 1 59.1514 34.2806 45.3672 0.0000 0.0000 0.0000
# 2 34.2806 81.8168 49.4889 0.0000 0.0000 0.0000
# 3 45.3672 49.4889 117.7917 0.0000 0.0000 0.0000
# 4 0.0000 0.0000 0.0000 25.2545 0.0000 0.0000
# 5 0.0000 0.0000 0.0000 0.0000 27.4107 0.0000
# 6 0.0000 0.0000 0.0000 0.0000 0.0000 16.3383
#
#
#
# Elastic Compliance Matrix: (Units=1/GPa)
#
#
# Indices 1 2 3 4 5 6 
#
# 1 0.026398 -0.006584 -0.007401 0.000000 0.000000 0.000000
# 2 -0.006584 0.018029 -0.005039 0.000000 0.000000 0.000000
# 3 -0.007401 -0.005039 0.013457 0.000000 0.000000 0.000000
# 4 0.000000 0.000000 0.000000 0.039597 0.000000 0.000000
# 5 0.000000 0.000000 0.000000 0.000000 0.036482 0.000000
# 6 0.000000 0.000000 0.000000 0.000000 0.000000 0.061206
#
#
# Mechanical properties :
#
#
# Convention : Reuss Voigt Hill
#
# Bulk Modulus (GPa) = 50.41244 57.44815 53.93030
# Shear Modulus (GPa) = 20.84830 22.44224 21.64527
#
# Velocity S-wave (km/s) = 3.68110 3.81922 3.75079
# Velocity P-wave (km/s) = 7.12973 7.53574 7.33554
#
# Compressibility (1/GPa) = 0.01983637
#
# Stress axis : x y z
#
# Youngs Moduli (GPa) = 37.88222 55.46654 74.31054
#
# Poissons Ratio (x) = 0.36518 0.54996
# Poissons Ratio (y) = 0.24941 0.37444
# Poissons Ratio (z) = 0.28036 0.27949
#
# Static dielectric constant tensor:
#      x y z
#    x 2.882100 0.000000 0.000000 
#    y 0.000000 2.925440 0.000000 
#    z 0.000000 0.000000 3.086900 
# 
# 
# High freq. dielectric constant tensor:
#      x y z
#    x 1.584400 0.000000 0.000000 
#    y 0.000000 1.562210 0.000000 
#    z 0.000000 0.000000 1.588030 
# 
# From -- ./inp_files/14222.got.cif
#   From: 2010.03.12/outbox.cif.g09.slc.cpg/sg47_8_cif.got.tgz:14222.got - 2010.04.14 03:12:58.
