data_PCOD8195961
_publ_section_title
;
Structure prediction by ZEFSAII (Michael W. Deem and Ramdas Pophale) SiO2 
 PCOD8195961
Probable space group: P M M M
;
_chemical_formula_sum "Si O2"
_cell_formula_units_Z 52
_cell_length_a 10.611359
_cell_length_b 9.406082
_cell_length_c 30.735993
_cell_angle_alpha 90.000000
_cell_angle_beta 90.000000
_cell_angle_gamma 90.000000
_cell_volume 3067.799814
_symmetry_space_group_name_H-M "P M M M"
_symmetry_group_IT_number 47
_symmetry_cell_setting 'orthorhombic'
loop_
_space_group_symop_operation_xyz
x,y,z
-x,-y,z
x,-y,-z
-x,y,-z
-x,-y,-z
x,y,-z
-x,y,z
x,-y,z
loop_
_atom_site_type_symbol
_atom_site_label
_atom_site_fract_x
_atom_site_fract_y
_atom_site_fract_z
Si Si1 0.000000 0.834259 0.048126
Si Si2 0.649198 0.158341 0.826727
Si Si3 0.853788 0.667270 0.415369
Si Si4 0.351645 0.656756 0.251461
Si Si5 0.358733 0.668953 0.652446
Si Si6 0.148292 0.840623 0.500000
Si Si7 0.265067 0.168168 0.080228
Si Si8 0.642876 0.654840 0.000000
O O1 0.119053 0.790539 0.076640
O O2 0.000000 0.000000 0.039272
O O3 0.000000 0.760302 0.000000
O O4 0.500000 0.155310 0.823369
O O5 0.708162 0.247689 0.786808
O O6 0.688229 0.224735 0.873068
O O7 0.705460 0.000000 0.822961
O O8 0.839437 0.500000 0.424888
O O9 0.754946 0.719788 0.378709
O O10 0.809378 0.753015 0.457756
O O11 0.000000 0.701438 0.402338
O O12 0.500000 0.644233 0.244455
O O13 0.290265 0.500000 0.248200
O O14 0.325496 0.725415 0.299055
O O15 0.500000 0.723170 0.638026
O O16 0.363386 0.500000 0.654268
O O17 0.000000 0.854238 0.500000
O O18 0.207944 0.000000 0.500000
O O19 0.292110 0.000000 0.074689
O O20 0.333763 0.251868 0.042454
O O21 0.715078 0.500000 0.000000
O O22 0.500000 0.614130 0.000000
#
# Coordination Sequence:
#
# PCOD8195961 Si02
#       8
#     4   8   8   8   8   4   8   4
#     4   9  16  30  52  72  84 108 154 190 212 249
#     4   9  17  28  44  68  92 113 142 181 221 259
#     4   9  16  27  46  69  89 113 152 197 230 260
#     4   8  14  26  45  65  86 116 148 176 212 262
#     4   8  14  26  45  68  91 117 151 187 225 271
#     4   9  17  29  44  63  90 124 156 185 226 278
#     4  10  19  33  52  69  88 117 152 185 217 260
#     4  11  23  34  45  68  98 119 138 175 226 271
#
# _framework density 16.950258999999999
#
# number of rings (size 3 to 8) (size 9 to 14) (size 15 to 20)
#    0.000    3.000    0.769    1.846    0.000    2.769 
#    0.000    3.462    1.692    3.692    0.000    0.000 
#    0.000    0.000    0.000    0.000    0.000    0.000 
#
# Total GULP energy -644282.503317 kJ/mol
# GULP energy per Si atom -12390.048141 kJ/mol
# Density = 1.691168 g / cm^3
# Si number density = 16.950259 Si / 1000 Ang^3
#
#
#
# Elastic Constant Matrix: (Units=GPa)
#
#
# Indices 1 2 3 4 5 6 
#
# 1 60.3301 24.0571 49.3312 0.0000 0.0000 0.0000
# 2 24.0571 59.2884 56.8744 0.0000 0.0000 0.0000
# 3 49.3312 56.8744 161.9886 0.0000 0.0000 0.0000
# 4 0.0000 0.0000 0.0000 24.3402 0.0000 0.0000
# 5 0.0000 0.0000 0.0000 0.0000 31.2291 0.0000
# 6 0.0000 0.0000 0.0000 0.0000 0.0000 9.5005
#
#
#
# Elastic Compliance Matrix: (Units=1/GPa)
#
#
# Indices 1 2 3 4 5 6 
#
# 1 0.022649 -0.003881 -0.005535 0.000000 0.000000 0.000000
# 2 -0.003881 0.026097 -0.007981 0.000000 0.000000 0.000000
# 3 -0.005535 -0.007981 0.010661 0.000000 0.000000 0.000000
# 4 0.000000 0.000000 0.000000 0.041084 0.000000 0.000000
# 5 0.000000 0.000000 0.000000 0.000000 0.032021 0.000000
# 6 0.000000 0.000000 0.000000 0.000000 0.000000 0.105258
#
#
# Mechanical properties :
#
#
# Convention : Reuss Voigt Hill
#
# Bulk Modulus (GPa) = 40.62705 60.23693 50.43199
# Shear Modulus (GPa) = 17.80831 23.10360 20.45596
#
# Velocity S-wave (km/s) = 3.24485 3.69592 3.47770
# Velocity P-wave (km/s) = 6.16921 7.33674 6.77816
#
# Compressibility (1/GPa) = 0.02461414
#
# Stress axis : x y z
#
# Youngs Moduli (GPa) = 44.15281 38.31803 93.79991
#
# Poissons Ratio (x) = 0.14869 0.51917
# Poissons Ratio (y) = 0.17134 0.74862
# Poissons Ratio (z) = 0.24438 0.30582
#
# Static dielectric constant tensor:
#      x y z
#    x 2.431320 0.000000 0.000000 
#    y 0.000000 3.170850 0.000000 
#    z 0.000000 0.000000 3.374260 
# 
# 
# High freq. dielectric constant tensor:
#      x y z
#    x 1.623660 0.000000 0.000000 
#    y 0.000000 1.630550 0.000000 
#    z 0.000000 0.000000 1.659990 
# 
# From -- ./inp_files/34552.got.cif
#   From: 2010.03.12/outbox.cif.g09.slc.cpg/sg47_18_cif.got.tgz:34552.got - 2010.04.14 03:12:58.
