data_PCOD8195715
_publ_section_title
;
Structure prediction by ZEFSAII (Michael W. Deem and Ramdas Pophale) SiO2 
 PCOD8195715
Probable space group: P M M M
;
_chemical_formula_sum "Si O2"
_cell_formula_units_Z 64
_cell_length_a 18.224842
_cell_length_b 13.717259
_cell_length_c 15.280329
_cell_angle_alpha 90.000000
_cell_angle_beta 90.000000
_cell_angle_gamma 90.000000
_cell_volume 3820.003983
_symmetry_space_group_name_H-M "P M M M"
_symmetry_group_IT_number 47
_symmetry_cell_setting 'orthorhombic'
loop_
_space_group_symop_operation_xyz
x,y,z
-x,-y,z
x,-y,-z
-x,y,-z
-x,-y,-z
x,y,-z
-x,y,z
x,-y,z
loop_
_atom_site_type_symbol
_atom_site_label
_atom_site_fract_x
_atom_site_fract_y
_atom_site_fract_z
Si Si1 0.294746 0.108476 0.627271
Si Si2 0.083234 0.886329 0.221351
Si Si3 0.864847 0.115753 0.593916
Si Si4 0.417111 0.743283 0.405353
Si Si5 0.665054 0.108554 0.821970
Si Si6 0.293584 0.609886 0.100584
Si Si7 0.584016 0.700175 0.213528
Si Si8 0.202785 0.207261 0.099256
O O1 0.218344 0.156608 0.596588
O O2 0.363176 0.165863 0.588944
O O3 0.290829 0.108305 0.731718
O O4 0.302942 0.000000 0.589893
O O5 0.089481 0.848064 0.321969
O O6 0.135845 0.823558 0.160212
O O7 0.000000 0.869702 0.190267
O O8 0.105234 0.000000 0.213761
O O9 0.900064 0.148835 0.500000
O O10 0.861732 0.000000 0.598618
O O11 0.409954 0.686396 0.500000
O O12 0.500000 0.783502 0.394933
O O13 0.399465 0.681145 0.317579
O O14 0.599529 0.187441 0.815134
O O15 0.725596 0.138104 0.893807
O O16 0.633370 0.000000 0.843017
O O17 0.265291 0.500000 0.115647
O O18 0.365052 0.626926 0.160014
O O19 0.227789 0.683207 0.126354
O O20 0.316856 0.627673 0.000000
O O21 0.500000 0.676278 0.190994
O O22 0.174285 0.203091 0.000000
#
# Coordination Sequence:
#
# PCOD8195715 Si02
#       8
#     8   8   8   8   8   8   8   8
#     4   9  15  24  38  56  82 120 166 208 237 261
#     4  10  20  32  46  69 102 134 162 190 220 262
#     4   9  16  26  41  61  88 125 166 203 234 261
#     4   9  17  27  38  57  90 128 160 192 231 273
#     4   9  16  27  43  62  91 130 166 195 227 268
#     4   9  19  36  57  77  92 111 145 193 248 294
#     4   9  18  30  45  69  97 124 158 197 237 279
#     4  10  19  32  51  71  93 121 153 189 230 279
#
# _framework density 16.753909
#
# number of rings (size 3 to 8) (size 9 to 14) (size 15 to 20)
#    0.000    2.750    1.250    0.750    0.000    3.250 
#    0.000    5.625    0.000    0.750    0.000    7.000 
#    0.000    0.000    0.000    1.125    0.000    0.125 
#
# Total GULP energy -792970.998014 kJ/mol
# GULP energy per Si atom -12390.171844 kJ/mol
# Density = 1.671578 g / cm^3
# Si number density = 16.753909 Si / 1000 Ang^3
#
#
#
# Elastic Constant Matrix: (Units=GPa)
#
#
# Indices 1 2 3 4 5 6 
#
# 1 78.5090 27.6908 51.3778 0.0000 0.0000 0.0000
# 2 27.6908 66.1484 36.5279 0.0000 0.0000 0.0000
# 3 51.3778 36.5279 104.5818 0.0000 0.0000 0.0000
# 4 0.0000 0.0000 0.0000 12.2715 0.0000 0.0000
# 5 0.0000 0.0000 0.0000 0.0000 11.9389 0.0000
# 6 0.0000 0.0000 0.0000 0.0000 0.0000 14.7135
#
#
#
# Elastic Compliance Matrix: (Units=1/GPa)
#
#
# Indices 1 2 3 4 5 6 
#
# 1 0.019421 -0.003545 -0.008303 0.000000 0.000000 0.000000
# 2 -0.003545 0.019377 -0.005026 0.000000 0.000000 0.000000
# 3 -0.008303 -0.005026 0.015396 0.000000 0.000000 0.000000
# 4 0.000000 0.000000 0.000000 0.081490 0.000000 0.000000
# 5 0.000000 0.000000 0.000000 0.000000 0.083759 0.000000
# 6 0.000000 0.000000 0.000000 0.000000 0.000000 0.067965
#
#
# Mechanical properties :
#
#
# Convention : Reuss Voigt Hill
#
# Bulk Modulus (GPa) = 48.90886 53.38137 51.14511
# Shear Modulus (GPa) = 15.24516 16.69431 15.96973
#
# Velocity S-wave (km/s) = 3.01980 3.16007 3.09073
# Velocity P-wave (km/s) = 6.43544 6.72651 6.58258
#
# Compressibility (1/GPa) = 0.02044619
#
# Stress axis : x y z
#
# Youngs Moduli (GPa) = 51.48969 51.60709 64.95010
#
# Poissons Ratio (x) = 0.18295 0.53927
# Poissons Ratio (y) = 0.18254 0.32646
# Poissons Ratio (z) = 0.42751 0.25940
#
# Static dielectric constant tensor:
#      x y z
#    x 2.994260 0.000000 0.000000 
#    y 0.000000 2.827310 0.000000 
#    z 0.000000 0.000000 3.431910 
# 
# 
# High freq. dielectric constant tensor:
#      x y z
#    x 1.632780 0.000000 0.000000 
#    y 0.000000 1.590960 0.000000 
#    z 0.000000 0.000000 1.663990 
# 
# From -- ./inp_files/24084.got.cif
#   From: 2010.03.12/outbox.cif.g09.slc.cpg/sg47_13_cif.got.tgz:24084.got - 2010.04.14 03:12:58.
