data_PCOD8195317
_publ_section_title
;
Structure prediction by ZEFSAII (Michael W. Deem and Ramdas Pophale) SiO2 
 PCOD8195317
Probable space group: P M M M
;
_chemical_formula_sum "Si O2"
_cell_formula_units_Z 56
_cell_length_a 19.083614
_cell_length_b 9.126758
_cell_length_c 18.821873
_cell_angle_alpha 90.000000
_cell_angle_beta 90.000000
_cell_angle_gamma 90.000000
_cell_volume 3278.234357
_symmetry_space_group_name_H-M "P M M M"
_symmetry_group_IT_number 47
_symmetry_cell_setting 'orthorhombic'
loop_
_space_group_symop_operation_xyz
x,y,z
-x,-y,z
x,-y,-z
-x,y,-z
-x,-y,-z
x,y,-z
-x,y,z
x,-y,z
loop_
_atom_site_type_symbol
_atom_site_label
_atom_site_fract_x
_atom_site_fract_y
_atom_site_fract_z
Si Si1 0.578915 0.828760 0.342592
Si Si2 0.917158 0.337556 0.074551
Si Si3 0.337259 0.827755 0.796956
Si Si4 0.580262 0.329500 0.082116
Si Si5 0.922570 0.674461 0.773538
Si Si6 0.304454 0.328735 0.420790
Si Si7 0.220279 0.672573 0.285745
O O1 0.500000 0.770387 0.347092
O O2 0.607427 0.789420 0.264690
O O3 0.622567 0.749720 0.403977
O O4 0.583702 0.000000 0.357242
O O5 0.883770 0.500000 0.073434
O O6 0.897840 0.259093 0.149294
O O7 0.000000 0.351573 0.074582
O O8 0.893042 0.257205 0.000000
O O9 0.366437 0.763853 0.870426
O O10 0.263359 0.754581 0.775921
O O11 0.325733 0.000000 0.805976
O O12 0.500000 0.283042 0.098104
O O13 0.590662 0.500000 0.099540
O O14 0.598127 0.297451 0.000000
O O15 0.927586 0.500000 0.781236
O O16 0.861938 0.718514 0.717980
O O17 0.000000 0.734442 0.750334
O O18 0.279211 0.285050 0.500000
O O19 0.318399 0.500000 0.414779
O O20 0.245570 0.278576 0.364154
O O21 0.230293 0.500000 0.273586
#
# Coordination Sequence:
#
# PCOD8195317 Si02
#       7
#     8   8   8   8   8   8   8
#     4   9  18  31  46  66  90 114 143 181 223 264
#     4   7   9  14  26  47  76 104 126 154 197 246
#     4  10  19  31  47  66  91 122 155 189 225 270
#     4   9  18  32  49  69  93 122 158 199 237 268
#     4   8  13  22  39  62  84 109 145 186 225 267
#     4   9  18  31  45  62  86 117 149 178 214 266
#     4   9  17  30  47  65  87 116 149 186 229 274
#
# _framework density 17.082366
#
# number of rings (size 3 to 8) (size 9 to 14) (size 15 to 20)
#    0.000    3.286    0.000    2.571    0.000    2.571 
#    0.000    2.857    0.000    3.429    0.000    3.000 
#    0.000    0.000    0.000   12.000    0.000   12.143 
#
# Total GULP energy -693740.305976 kJ/mol
# GULP energy per Si atom -12388.219750 kJ/mol
# Density = 1.704349 g / cm^3
# Si number density = 17.082366 Si / 1000 Ang^3
#
#
#
# Elastic Constant Matrix: (Units=GPa)
#
#
# Indices 1 2 3 4 5 6 
#
# 1 123.9196 27.9018 64.8133 0.0000 0.0000 0.0000
# 2 27.9018 33.0095 29.9481 0.0000 0.0000 0.0000
# 3 64.8133 29.9481 104.1953 0.0000 0.0000 0.0000
# 4 0.0000 0.0000 0.0000 18.7232 0.0000 0.0000
# 5 0.0000 0.0000 0.0000 0.0000 18.9786 0.0000
# 6 0.0000 0.0000 0.0000 0.0000 0.0000 9.9468
#
#
#
# Elastic Compliance Matrix: (Units=1/GPa)
#
#
# Indices 1 2 3 4 5 6 
#
# 1 0.012488 -0.004745 -0.006404 0.000000 0.000000 0.000000
# 2 -0.004745 0.042784 -0.009345 0.000000 0.000000 0.000000
# 3 -0.006404 -0.009345 0.016267 0.000000 0.000000 0.000000
# 4 0.000000 0.000000 0.000000 0.053410 0.000000 0.000000
# 5 0.000000 0.000000 0.000000 0.000000 0.052691 0.000000
# 6 0.000000 0.000000 0.000000 0.000000 0.000000 0.100535
#
#
# Mechanical properties :
#
#
# Convention : Reuss Voigt Hill
#
# Bulk Modulus (GPa) = 32.73388 56.27231 44.50310
# Shear Modulus (GPa) = 15.18159 18.76046 16.97102
#
# Velocity S-wave (km/s) = 2.98439 3.31756 3.15537
# Velocity P-wave (km/s) = 5.57489 6.90566 6.27565
#
# Compressibility (1/GPa) = 0.03054939
#
# Stress axis : x y z
#
# Youngs Moduli (GPa) = 80.07948 23.37326 61.47496
#
# Poissons Ratio (x) = 0.11092 0.39367
# Poissons Ratio (y) = 0.38001 0.57450
# Poissons Ratio (z) = 0.51281 0.21843
#
# Static dielectric constant tensor:
#      x y z
#    x 3.192810 0.000000 0.000000 
#    y 0.000000 2.861050 0.000000 
#    z 0.000000 0.000000 3.502840 
# 
# 
# High freq. dielectric constant tensor:
#      x y z
#    x 1.642290 0.000000 0.000000 
#    y 0.000000 1.621500 0.000000 
#    z 0.000000 0.000000 1.659280 
# 
# From -- ./inp_files/26947.got.cif
#   From: 2010.03.12/outbox.cif.g09.slc.cpg/sg47_14_cif.got.tgz:26947.got - 2010.04.14 03:12:58.
