data_PCOD8195725
_publ_section_title
;
Structure prediction by ZEFSAII (Michael W. Deem and Ramdas Pophale) SiO2 
 PCOD8195725
Probable space group: P M M M
;
_chemical_formula_sum "Si O2"
_cell_formula_units_Z 56
_cell_length_a 9.054555
_cell_length_b 13.646313
_cell_length_c 23.737054
_cell_angle_alpha 90.000000
_cell_angle_beta 90.000000
_cell_angle_gamma 90.000000
_cell_volume 2932.981051
_symmetry_space_group_name_H-M "P M M M"
_symmetry_group_IT_number 47
_symmetry_cell_setting 'orthorhombic'
loop_
_space_group_symop_operation_xyz
x,y,z
-x,-y,z
x,-y,-z
-x,y,-z
-x,-y,-z
x,y,-z
-x,y,z
x,-y,z
loop_
_atom_site_type_symbol
_atom_site_label
_atom_site_fract_x
_atom_site_fract_y
_atom_site_fract_z
Si Si1 0.324830 0.612946 0.000000
Si Si2 0.828934 0.201565 0.385039
Si Si3 0.828974 0.298143 0.892813
Si Si4 0.333953 0.615999 0.787862
Si Si5 0.169734 0.110284 0.170523
Si Si6 0.824209 0.111718 0.500000
Si Si7 0.664520 0.115690 0.719825
Si Si8 0.829966 0.389655 0.322898
O O1 0.265261 0.668684 0.945774
O O2 0.271692 0.500000 0.000000
O O3 0.500000 0.618801 0.000000
O O4 0.762001 0.168308 0.445064
O O5 0.752450 0.142086 0.335755
O O6 0.804564 0.318406 0.376415
O O7 0.000000 0.173332 0.382531
O O8 0.773085 0.354233 0.838040
O O9 0.806882 0.181215 0.883227
O O10 0.000000 0.324270 0.903098
O O11 0.500000 0.657688 0.796192
O O12 0.336944 0.500000 0.785995
O O13 0.268319 0.653111 0.728249
O O14 0.260436 0.156114 0.222946
O O15 0.000000 0.110108 0.189671
O O16 0.220880 0.000000 0.153984
O O17 0.000000 0.114480 0.500000
O O18 0.766088 0.000000 0.500000
O O19 0.500000 0.159330 0.716097
O O20 0.662892 0.000000 0.725092
O O21 0.783604 0.500000 0.340445
O O22 0.000000 0.387041 0.303134
#
# Coordination Sequence:
#
# PCOD8195725 Si02
#       8
#     4   8   8   8   8   4   8   8
#     4  11  25  43  60  79 106 140 175 211 254 305
#     4  10  19  32  51  72  96 132 174 211 253 306
#     4  11  22  36  57  82 106 137 176 216 257 298
#     4  10  20  33  51  77 108 140 171 206 254 310
#     4   9  19  36  56  79 108 140 173 209 252 305
#     4   9  18  32  50  72  96 125 167 215 256 301
#     4  10  20  32  49  77 109 137 167 208 258 306
#     4   9  18  32  49  72 102 132 165 209 257 304
#
# _framework density 19.093202000000002
#
# number of rings (size 3 to 8) (size 9 to 14) (size 15 to 20)
#    0.000    2.143    0.000    3.214    0.000    9.714 
#    0.000    1.071    0.000    5.571    0.000    0.000 
#    0.000    3.429    0.000    0.000    0.000    0.000 
#
# Total GULP energy -694389.620441 kJ/mol
# GULP energy per Si atom -12399.814651 kJ/mol
# Density = 1.904975 g / cm^3
# Si number density = 19.093202 Si / 1000 Ang^3
#
#
#
# Elastic Constant Matrix: (Units=GPa)
#
#
# Indices 1 2 3 4 5 6 
#
# 1 72.8926 36.2427 42.0192 0.0000 0.0000 0.0000
# 2 36.2427 73.0387 71.9820 0.0000 0.0000 0.0000
# 3 42.0192 71.9820 135.0742 0.0000 0.0000 0.0000
# 4 0.0000 0.0000 0.0000 30.6433 0.0000 0.0000
# 5 0.0000 0.0000 0.0000 0.0000 -9.5323 0.0000
# 6 0.0000 0.0000 0.0000 0.0000 0.0000 20.6533
#
#
#
# Elastic Compliance Matrix: (Units=1/GPa)
#
#
# Indices 1 2 3 4 5 6 
#
# 1 0.018420 -0.007357 -0.001810 0.000000 0.000000 0.000000
# 2 -0.007357 0.031774 -0.014644 0.000000 0.000000 0.000000
# 3 -0.001810 -0.014644 0.015770 0.000000 0.000000 0.000000
# 4 0.000000 0.000000 0.000000 0.032634 0.000000 0.000000
# 5 0.000000 0.000000 0.000000 0.000000 -0.104906 0.000000
# 6 0.000000 0.000000 0.000000 0.000000 0.000000 0.048418
#
#
# Mechanical properties :
#
#
# Convention : Reuss Voigt Hill
#
# Bulk Modulus (GPa) = 54.51593 64.61036 59.56314
# Shear Modulus (GPa) = 52.16762 17.07030 34.61896
#
# Velocity S-wave (km/s) = 5.23277 2.99331 4.26274
# Velocity P-wave (km/s) = 8.06993 6.77196 7.44927
#
# Compressibility (1/GPa) = 0.01834326
#
# Stress axis : x y z
#
# Youngs Moduli (GPa) = 54.28953 31.47227 63.41067
#
# Poissons Ratio (x) = 0.23153 0.11475
# Poissons Ratio (y) = 0.39939 0.92859
# Poissons Ratio (z) = 0.09825 0.46088
#
# Static dielectric constant tensor:
#      x y z
#    x 3.614460 0.000000 0.000000 
#    y 0.000000 3.756100 0.000000 
#    z 0.000000 0.000000 3.504640 
# 
# 
# High freq. dielectric constant tensor:
#      x y z
#    x 1.737670 0.000000 0.000000 
#    y 0.000000 1.757930 0.000000 
#    z 0.000000 0.000000 1.723130 
# 
# From -- ./inp_files/11353.got.cif
#   From: 2010.03.12/outbox.cif.g09.slc.cpg/sg47_6_cif.got.tgz:11353.got - 2010.04.14 03:12:58.
