data_PCOD8195161
_publ_section_title
;
Structure prediction by ZEFSAII (Michael W. Deem and Ramdas Pophale) SiO2 
 PCOD8195161
Probable space group: P M M M
;
_chemical_formula_sum "Si O2"
_cell_formula_units_Z 64
_cell_length_a 13.783697
_cell_length_b 9.380708
_cell_length_c 27.901925
_cell_angle_alpha 90.000000
_cell_angle_beta 90.000000
_cell_angle_gamma 90.000000
_cell_volume 3607.742249
_symmetry_space_group_name_H-M "P M M M"
_symmetry_group_IT_number 47
_symmetry_cell_setting 'orthorhombic'
loop_
_space_group_symop_operation_xyz
x,y,z
-x,-y,z
x,-y,-z
-x,y,-z
-x,-y,-z
x,y,-z
-x,y,z
x,-y,z
loop_
_atom_site_type_symbol
_atom_site_label
_atom_site_fract_x
_atom_site_fract_y
_atom_site_fract_z
Si Si1 0.275095 0.332734 0.132332
Si Si2 0.889795 0.163421 0.632326
Si Si3 0.226667 0.165777 0.724984
Si Si4 0.887997 0.834183 0.819856
Si Si5 0.393531 0.841021 0.556858
Si Si6 0.211832 0.666113 0.444112
Si Si7 0.611449 0.837280 0.055621
Si Si8 0.610923 0.333831 0.228042
O O1 0.258411 0.500000 0.125627
O O2 0.171510 0.259143 0.141967
O O3 0.319498 0.269207 0.084089
O O4 0.349222 0.298038 0.175307
O O5 0.820838 0.215754 0.675242
O O6 0.873810 0.259531 0.585345
O O7 0.000000 0.182035 0.649556
O O8 0.868082 0.000000 0.618714
O O9 0.149682 0.200602 0.766608
O O10 0.326667 0.250753 0.732259
O O11 0.252579 0.000000 0.724107
O O12 0.000000 0.789317 0.822980
O O13 0.873442 0.000000 0.832227
O O14 0.395925 0.840927 0.500000
O O15 0.500000 0.795657 0.576352
O O16 0.313668 0.729857 0.575161
O O17 0.367371 0.000000 0.575416
O O18 0.194893 0.699076 0.500000
O O19 0.212262 0.500000 0.433395
O O20 0.500000 0.795606 0.065316
O O21 0.630198 0.000000 0.071963
O O22 0.636637 0.819340 0.000000
O O23 0.500000 0.281629 0.230897
O O24 0.620046 0.500000 0.239322
#
# Coordination Sequence:
#
# PCOD8195161 Si02
#       8
#     8   8   8   8   8   8   8   8
#     4  10  19  30  47  73 104 136 170 209 252 297
#     4  10  21  37  56  75  96 125 161 202 247 293
#     4   9  18  33  53  77 100 123 159 204 245 287
#     4   9  17  31  52  75  99 128 162 203 251 299
#     4   8  14  27  49  74  97 122 153 189 228 270
#     4  10  21  35  51  74 103 131 160 197 239 285
#     4   9  18  32  49  70  98 133 173 215 256 300
#     4   9  18  32  49  72 105 140 168 196 236 290
#
# _framework density 17.739626999999999
#
# number of rings (size 3 to 8) (size 9 to 14) (size 15 to 20)
#    0.000    2.750    0.000    2.250    0.000    5.500 
#    0.000    3.750    0.000    3.375    0.000    2.625 
#    0.000    0.000    0.000    0.000    0.000    0.000 
#
# Total GULP energy -793625.813682 kJ/mol
# GULP energy per Si atom -12400.403339 kJ/mol
# Density = 1.769925 g / cm^3
# Si number density = 17.739627 Si / 1000 Ang^3
#
#
#
# Elastic Constant Matrix: (Units=GPa)
#
#
# Indices 1 2 3 4 5 6 
#
# 1 129.8173 59.1663 50.6726 0.0000 0.0000 0.0000
# 2 59.1663 82.8534 49.5994 0.0000 0.0000 0.0000
# 3 50.6726 49.5994 73.6863 0.0000 0.0000 0.0000
# 4 0.0000 0.0000 0.0000 26.0727 0.0000 0.0000
# 5 0.0000 0.0000 0.0000 0.0000 27.9510 0.0000
# 6 0.0000 0.0000 0.0000 0.0000 0.0000 24.5809
#
#
#
# Elastic Compliance Matrix: (Units=1/GPa)
#
#
# Indices 1 2 3 4 5 6 
#
# 1 0.012154 -0.006157 -0.004214 0.000000 0.000000 0.000000
# 2 -0.006157 0.023334 -0.011473 0.000000 0.000000 0.000000
# 3 -0.004214 -0.011473 0.024191 0.000000 0.000000 0.000000
# 4 0.000000 0.000000 0.000000 0.038354 0.000000 0.000000
# 5 0.000000 0.000000 0.000000 0.000000 0.035777 0.000000
# 6 0.000000 0.000000 0.000000 0.000000 0.000000 0.040682
#
#
# Mechanical properties :
#
#
# Convention : Reuss Voigt Hill
#
# Bulk Modulus (GPa) = 62.52805 67.24817 64.88811
# Shear Modulus (GPa) = 22.37037 24.18217 23.27627
#
# Velocity S-wave (km/s) = 3.55496 3.69612 3.62623
# Velocity P-wave (km/s) = 7.22320 7.49706 7.36140
#
# Compressibility (1/GPa) = 0.01599282
#
# Stress axis : x y z
#
# Youngs Moduli (GPa) = 82.27768 42.85589 41.33713
#
# Poissons Ratio (x) = 0.26385 0.17419
# Poissons Ratio (y) = 0.50655 0.47425
# Poissons Ratio (z) = 0.34671 0.49167
#
# Static dielectric constant tensor:
#      x y z
#    x 3.384830 0.000000 0.000000 
#    y 0.000000 3.244930 0.000000 
#    z 0.000000 0.000000 3.063610 
# 
# 
# High freq. dielectric constant tensor:
#      x y z
#    x 1.687500 0.000000 0.000000 
#    y 0.000000 1.683640 0.000000 
#    z 0.000000 0.000000 1.665040 
# 
# From -- ./inp_files/4907.got.cif
#   From: 2010.03.12/outbox.cif.g09.slc.cpg/sg47_3_cif.got.tgz:4907.got - 2010.04.14 03:12:58.
