data_PCOD8195065
_publ_section_title
;
Structure prediction by ZEFSAII (Michael W. Deem and Ramdas Pophale) SiO2 
 PCOD8195065
Probable space group: P M M M
;
_chemical_formula_sum "Si O2"
_cell_formula_units_Z 64
_cell_length_a 9.313004
_cell_length_b 18.666779
_cell_length_c 20.813692
_cell_angle_alpha 90.000000
_cell_angle_beta 90.000000
_cell_angle_gamma 90.000000
_cell_volume 3618.331049
_symmetry_space_group_name_H-M "P M M M"
_symmetry_group_IT_number 47
_symmetry_cell_setting 'orthorhombic'
loop_
_space_group_symop_operation_xyz
x,y,z
-x,-y,z
x,-y,-z
-x,y,-z
-x,-y,-z
x,y,-z
-x,y,z
x,-y,z
loop_
_atom_site_type_symbol
_atom_site_label
_atom_site_fract_x
_atom_site_fract_y
_atom_site_fract_z
Si Si1 0.161390 0.414865 0.070255
Si Si2 0.661234 0.085031 0.071047
Si Si3 0.329579 0.919805 0.570712
Si Si4 0.671171 0.164932 0.693721
Si Si5 0.331463 0.417495 0.808843
Si Si6 0.670886 0.419520 0.571238
Si Si7 0.833659 0.084766 0.193360
Si Si8 0.329289 0.328013 0.688370
O O1 0.167127 0.500000 0.070537
O O2 0.262815 0.384803 0.126338
O O3 0.000000 0.388075 0.083272
O O4 0.213719 0.387139 0.000000
O O5 0.500000 0.112417 0.086820
O O6 0.770903 0.112999 0.125280
O O7 0.662177 0.000000 0.070606
O O8 0.708599 0.112858 0.000000
O O9 0.276082 0.893824 0.500000
O O10 0.500000 0.920517 0.571386
O O11 0.273207 0.867276 0.626097
O O12 0.271778 0.000000 0.584298
O O13 0.500000 0.157634 0.701817
O O14 0.746658 0.122783 0.750584
O O15 0.723657 0.246780 0.694247
O O16 0.500000 0.408690 0.816296
O O17 0.287844 0.500000 0.797644
O O18 0.270973 0.372335 0.749163
O O19 0.724395 0.396821 0.500000
O O20 0.500000 0.418219 0.573146
O O21 0.724122 0.500000 0.587480
O O22 0.734066 0.364173 0.623573
O O23 0.000000 0.106315 0.196693
O O24 0.811816 0.000000 0.200859
O O25 0.500000 0.331343 0.686285
#
# Coordination Sequence:
#
# PCOD8195065 Si02
#       8
#     8   8   8   8   8   8   8   8
#     4   8  14  25  41  62  87 111 138 179 227 268
#     4   8  14  26  46  72  98 121 148 185 228 273
#     4   8  14  25  42  65  89 110 138 181 230 274
#     4  10  19  30  46  66  90 122 156 191 231 275
#     4   9  16  26  42  63  88 118 148 180 219 262
#     4   8  13  22  38  61  91 126 157 185 225 278
#     4  10  20  32  47  68  94 123 154 190 230 273
#     4   9  17  27  39  60  90 121 154 190 225 263
#
# _framework density 17.687712000000001
#
# number of rings (size 3 to 8) (size 9 to 14) (size 15 to 20)
#    0.000    3.250    0.000    2.625    0.000    3.750 
#    0.000    5.625    0.000    1.125    0.000    3.500 
#    0.000    1.500    0.000    8.875    0.000    8.250 
#
# Total GULP energy -793145.992122 kJ/mol
# GULP energy per Si atom -12392.906127 kJ/mol
# Density = 1.764745 g / cm^3
# Si number density = 17.687712 Si / 1000 Ang^3
#
#
#
# Elastic Constant Matrix: (Units=GPa)
#
#
# Indices 1 2 3 4 5 6 
#
# 1 40.3165 27.5495 48.5806 0.0000 0.0000 0.0000
# 2 27.5495 72.2137 69.9518 0.0000 0.0000 0.0000
# 3 48.5806 69.9518 185.5816 0.0000 0.0000 0.0000
# 4 0.0000 0.0000 0.0000 4.1227 0.0000 0.0000
# 5 0.0000 0.0000 0.0000 0.0000 1.8457 0.0000
# 6 0.0000 0.0000 0.0000 0.0000 0.0000 9.1954
#
#
#
# Elastic Compliance Matrix: (Units=1/GPa)
#
#
# Indices 1 2 3 4 5 6 
#
# 1 0.038853 -0.007829 -0.007220 0.000000 0.000000 0.000000
# 2 -0.007829 0.023389 -0.006767 0.000000 0.000000 0.000000
# 3 -0.007220 -0.006767 0.009829 0.000000 0.000000 0.000000
# 4 0.000000 0.000000 0.000000 0.242557 0.000000 0.000000
# 5 0.000000 0.000000 0.000000 0.000000 0.541790 0.000000
# 6 0.000000 0.000000 0.000000 0.000000 0.000000 0.108750
#
#
# Mechanical properties :
#
#
# Convention : Reuss Voigt Hill
#
# Bulk Modulus (GPa) = 35.16094 65.58618 50.37356
# Shear Modulus (GPa) = 4.91024 13.16811 9.03918
#
# Velocity S-wave (km/s) = 1.66796 2.73147 2.26308
# Velocity P-wave (km/s) = 4.86121 6.86356 5.94726
#
# Compressibility (1/GPa) = 0.02844065
#
# Stress axis : x y z
#
# Youngs Moduli (GPa) = 25.73798 42.75457 101.73885
#
# Poissons Ratio (x) = 0.33471 0.73454
# Poissons Ratio (y) = 0.20150 0.68845
# Poissons Ratio (z) = 0.18582 0.28931
#
# Static dielectric constant tensor:
#      x y z
#    x 2.899090 0.000000 0.000000 
#    y 0.000000 3.117980 0.000000 
#    z 0.000000 0.000000 3.835060 
# 
# 
# High freq. dielectric constant tensor:
#      x y z
#    x 1.634520 0.000000 0.000000 
#    y 0.000000 1.651630 0.000000 
#    z 0.000000 0.000000 1.706260 
# 
# From -- ./inp_files/29959.got.cif
#   From: 2010.03.12/outbox.cif.g09.slc.cpg/sg47_15_cif.got.tgz:29959.got - 2010.04.14 03:12:58.
