data_PCOD8195058
_publ_section_title
;
Structure prediction by ZEFSAII (Michael W. Deem and Ramdas Pophale) SiO2 
 PCOD8195058
Probable space group: P M M M
;
_chemical_formula_sum "Si O2"
_cell_formula_units_Z 52
_cell_length_a 9.172726
_cell_length_b 12.774567
_cell_length_c 26.123232
_cell_angle_alpha 90.000000
_cell_angle_beta 90.000000
_cell_angle_gamma 90.000000
_cell_volume 3061.057705
_symmetry_space_group_name_H-M "P M M M"
_symmetry_group_IT_number 47
_symmetry_cell_setting 'orthorhombic'
loop_
_space_group_symop_operation_xyz
x,y,z
-x,-y,z
x,-y,-z
-x,y,-z
-x,-y,-z
x,y,-z
-x,y,z
x,-y,z
loop_
_atom_site_type_symbol
_atom_site_label
_atom_site_fract_x
_atom_site_fract_y
_atom_site_fract_z
Si Si1 0.326767 0.697921 0.942795
Si Si2 0.830826 0.691968 0.698691
Si Si3 0.326679 0.500000 0.121439
Si Si4 0.671618 0.117985 0.128214
Si Si5 0.831912 0.118407 0.769381
Si Si6 0.835062 0.624430 0.500000
Si Si7 0.169661 0.500000 0.229020
Si Si8 0.670301 0.622332 0.600532
O O1 0.500000 0.694024 0.945796
O O2 0.269266 0.600932 0.909409
O O3 0.273470 0.805792 0.916759
O O4 0.260655 0.692116 0.000000
O O5 0.795370 0.804968 0.722644
O O6 0.787004 0.602259 0.738791
O O7 0.732418 0.684827 0.648611
O O8 0.000000 0.680214 0.683167
O O9 0.500000 0.500000 0.126472
O O10 0.261568 0.500000 0.177654
O O11 0.500000 0.126806 0.135533
O O12 0.741294 0.154240 0.181417
O O13 0.719566 0.000000 0.113769
O O14 0.000000 0.127867 0.784949
O O15 0.791435 0.000000 0.752680
O O16 0.834168 0.500000 0.500000
O O17 0.751009 0.665477 0.550080
O O18 0.000000 0.668077 0.500000
O O19 0.000000 0.500000 0.214683
O O20 0.500000 0.645005 0.594408
O O21 0.702437 0.500000 0.608764
#
# Coordination Sequence:
#
# PCOD8195058 Si02
#       8
#     8   8   4   8   8   4   4   8
#     4   9  17  29  45  65  87 111 143 183 224 269
#     4  10  19  31  47  67  94 126 158 192 231 279
#     4  10  19  30  46  64  83 113 150 183 218 267
#     4   9  17  29  46  67  88 111 142 183 230 277
#     4   9  18  32  49  68  91 122 157 191 230 278
#     4   9  17  29  47  67  94 135 172 199 231 277
#     4  10  20  31  45  66  93 122 150 183 229 279
#     4  10  19  30  45  69 100 130 162 200 238 274
#
# _framework density 16.987591999999999
#
# number of rings (size 3 to 8) (size 9 to 14) (size 15 to 20)
#    0.000    2.538    0.769    1.846    0.000    4.000 
#    0.000    1.538    0.000    2.308    0.000    2.692 
#    0.000    4.308    0.000    0.000    0.000    0.000 
#
# Total GULP energy -644854.726097 kJ/mol
# GULP energy per Si atom -12401.052425 kJ/mol
# Density = 1.694893 g / cm^3
# Si number density = 16.987592 Si / 1000 Ang^3
#
#
#
# Elastic Constant Matrix: (Units=GPa)
#
#
# Indices 1 2 3 4 5 6 
#
# 1 53.2728 30.6184 55.3714 0.0000 0.0000 0.0000
# 2 30.6184 89.2767 63.1456 0.0000 0.0000 0.0000
# 3 55.3714 63.1456 151.9542 0.0000 0.0000 0.0000
# 4 0.0000 0.0000 0.0000 13.3116 0.0000 0.0000
# 5 0.0000 0.0000 0.0000 0.0000 2.7225 0.0000
# 6 0.0000 0.0000 0.0000 0.0000 0.0000 13.7774
#
#
#
# Elastic Compliance Matrix: (Units=1/GPa)
#
#
# Indices 1 2 3 4 5 6 
#
# 1 0.031078 -0.003751 -0.009766 0.000000 0.000000 0.000000
# 2 -0.003751 0.016317 -0.005414 0.000000 0.000000 0.000000
# 3 -0.009766 -0.005414 0.012389 0.000000 0.000000 0.000000
# 4 0.000000 0.000000 0.000000 0.075123 0.000000 0.000000
# 5 0.000000 0.000000 0.000000 0.000000 0.367306 0.000000
# 6 0.000000 0.000000 0.000000 0.000000 0.000000 0.072583
#
#
# Mechanical properties :
#
#
# Convention : Reuss Voigt Hill
#
# Bulk Modulus (GPa) = 45.61496 65.86385 55.73941
# Shear Modulus (GPa) = 8.06499 15.65351 11.85925
#
# Velocity S-wave (km/s) = 2.18126 3.03886 2.64505
# Velocity P-wave (km/s) = 5.76663 7.15324 6.49703
#
# Compressibility (1/GPa) = 0.02192263
#
# Stress axis : x y z
#
# Youngs Moduli (GPa) = 32.17732 61.28699 80.71528
#
# Poissons Ratio (x) = 0.22989 0.78825
# Poissons Ratio (y) = 0.12070 0.43696
# Poissons Ratio (z) = 0.31424 0.33179
#
# Static dielectric constant tensor:
#      x y z
#    x 3.034710 0.000000 0.000000 
#    y 0.000000 3.228400 0.000000 
#    z 0.000000 0.000000 3.211300 
# 
# 
# High freq. dielectric constant tensor:
#      x y z
#    x 1.640360 0.000000 0.000000 
#    y 0.000000 1.641640 0.000000 
#    z 0.000000 0.000000 1.656810 
# 
# From -- ./inp_files/33279.got.cif
#   From: 2010.03.12/outbox.cif.g09.slc.cpg/sg47_17_cif.got.tgz:33279.got - 2010.04.14 03:12:58.
