data_PCOD8195211
_publ_section_title
;
Structure prediction by ZEFSAII (Michael W. Deem and Ramdas Pophale) SiO2 
 PCOD8195211
Probable space group: P M M M
;
_chemical_formula_sum "Si O2"
_cell_formula_units_Z 64
_cell_length_a 16.084492
_cell_length_b 23.431748
_cell_length_c 8.955544
_cell_angle_alpha 90.000000
_cell_angle_beta 90.000000
_cell_angle_gamma 90.000000
_cell_volume 3375.234947
_symmetry_space_group_name_H-M "P M M M"
_symmetry_group_IT_number 47
_symmetry_cell_setting 'orthorhombic'
loop_
_space_group_symop_operation_xyz
x,y,z
-x,-y,z
x,-y,-z
-x,y,-z
-x,-y,-z
x,y,-z
-x,y,z
x,-y,z
loop_
_atom_site_type_symbol
_atom_site_label
_atom_site_fract_x
_atom_site_fract_y
_atom_site_fract_z
Si Si1 0.905783 0.932866 0.828306
Si Si2 0.407212 0.262808 0.339100
Si Si3 0.778321 0.435446 0.674698
Si Si4 0.905574 0.660196 0.329425
Si Si5 0.595886 0.849624 0.823904
Si Si6 0.803891 0.746513 0.170061
Si Si7 0.760193 0.136285 0.323188
Si Si8 0.667921 0.647411 0.168898
O O1 0.836302 0.903484 0.726758
O O2 0.000000 0.914119 0.781758
O O3 0.896479 0.000000 0.806456
O O4 0.890147 0.915625 0.000000
O O5 0.358321 0.259634 0.500000
O O6 0.500000 0.247557 0.378566
O O7 0.378477 0.215090 0.219888
O O8 0.406138 0.326304 0.267522
O O9 0.759100 0.432238 0.500000
O O10 0.796900 0.500000 0.725596
O O11 0.855784 0.396221 0.721642
O O12 0.697897 0.412410 0.763182
O O13 0.883795 0.675544 0.500000
O O14 0.887417 0.716246 0.230475
O O15 0.000000 0.642648 0.307532
O O16 0.500000 0.866102 0.775800
O O17 0.670323 0.885821 0.744640
O O18 0.604671 0.856516 0.000000
O O19 0.780919 0.799810 0.271812
O O20 0.735572 0.697397 0.186467
O O21 0.816491 0.766758 0.000000
O O22 0.752020 0.133641 0.500000
O O23 0.639651 0.636975 0.000000
#
# Coordination Sequence:
#
# PCOD8195211 Si02
#       8
#     8   8   8   8   8   8   8   8
#     4   9  20  41  66  88 112 147 193 242 287 332
#     4  10  19  30  48  75 105 136 169 208 258 316
#     4   9  18  32  50  70  92 123 164 210 261 318
#     4   9  18  32  49  70  98 129 163 210 266 323
#     4  10  20  34  53  80 116 154 191 230 271 323
#     4  10  20  33  49  71 101 137 176 214 257 316
#     4  12  23  34  56  86 118 154 188 230 282 335
#     4  10  19  31  49  70  97 132 167 209 255 305
#
# _framework density 18.961644
#
# number of rings (size 3 to 8) (size 9 to 14) (size 15 to 20)
#    0.000    2.125    1.250    3.000    0.000    4.250 
#    0.000    1.875    0.000    0.750    0.000    8.750 
#    0.000    0.000    0.000    0.000    0.000    0.000 
#
# Total GULP energy -792994.515523 kJ/mol
# GULP energy per Si atom -12390.539305 kJ/mol
# Density = 1.891849 g / cm^3
# Si number density = 18.961644 Si / 1000 Ang^3
#
#
#
# Elastic Constant Matrix: (Units=GPa)
#
#
# Indices 1 2 3 4 5 6 
#
# 1 95.7387 39.6031 47.4032 0.0000 0.0000 0.0000
# 2 39.6031 54.2772 33.6440 0.0000 0.0000 0.0000
# 3 47.4032 33.6440 114.4602 0.0000 0.0000 0.0000
# 4 0.0000 0.0000 0.0000 26.1141 0.0000 0.0000
# 5 0.0000 0.0000 0.0000 0.0000 26.7299 0.0000
# 6 0.0000 0.0000 0.0000 0.0000 0.0000 24.6853
#
#
#
# Elastic Compliance Matrix: (Units=1/GPa)
#
#
# Indices 1 2 3 4 5 6 
#
# 1 0.016323 -0.009440 -0.003986 0.000000 0.000000 0.000000
# 2 -0.009440 0.027988 -0.004317 0.000000 0.000000 0.000000
# 3 -0.003986 -0.004317 0.011656 0.000000 0.000000 0.000000
# 4 0.000000 0.000000 0.000000 0.038293 0.000000 0.000000
# 5 0.000000 0.000000 0.000000 0.000000 0.037411 0.000000
# 6 0.000000 0.000000 0.000000 0.000000 0.000000 0.040510
#
#
# Mechanical properties :
#
#
# Convention : Reuss Voigt Hill
#
# Bulk Modulus (GPa) = 48.82274 56.19741 52.51007
# Shear Modulus (GPa) = 23.31068 25.09426 24.20247
#
# Velocity S-wave (km/s) = 3.51003 3.64183 3.57654
# Velocity P-wave (km/s) = 6.49855 6.88373 6.69391
#
# Compressibility (1/GPa) = 0.02048226
#
# Stress axis : x y z
#
# Youngs Moduli (GPa) = 61.26215 35.73013 85.79110
#
# Poissons Ratio (x) = 0.33728 0.34192
# Poissons Ratio (y) = 0.57830 0.37037
# Poissons Ratio (z) = 0.24416 0.15425
#
# Static dielectric constant tensor:
#      x y z
#    x 3.670040 0.000000 0.000000 
#    y 0.000000 3.316230 0.000000 
#    z 0.000000 0.000000 3.627310 
# 
# 
# High freq. dielectric constant tensor:
#      x y z
#    x 1.736550 0.000000 0.000000 
#    y 0.000000 1.704230 0.000000 
#    z 0.000000 0.000000 1.743170 
# 
# From -- ./inp_files/10156.got.cif
#   From: 2010.03.12/outbox.cif.g09.slc.cpg/sg47_6_cif.got.tgz:10156.got - 2010.04.14 03:12:58.
