data_PCOD8195886
_publ_section_title
;
Structure prediction by ZEFSAII (Michael W. Deem and Ramdas Pophale) SiO2 
 PCOD8195886
Probable space group: P M M M
;
_chemical_formula_sum "Si O2"
_cell_formula_units_Z 52
_cell_length_a 9.072243
_cell_length_b 23.244943
_cell_length_c 14.187933
_cell_angle_alpha 90.000000
_cell_angle_beta 90.000000
_cell_angle_gamma 90.000000
_cell_volume 2992.004820
_symmetry_space_group_name_H-M "P M M M"
_symmetry_group_IT_number 47
_symmetry_cell_setting 'orthorhombic'
loop_
_space_group_symop_operation_xyz
x,y,z
-x,-y,z
x,-y,-z
-x,y,-z
-x,-y,-z
x,y,-z
-x,y,z
x,-y,z
loop_
_atom_site_type_symbol
_atom_site_label
_atom_site_fract_x
_atom_site_fract_y
_atom_site_fract_z
Si Si1 0.330350 0.935219 0.221355
Si Si2 0.329131 0.768673 0.606474
Si Si3 0.666588 0.500000 0.887879
Si Si4 0.172457 0.387190 0.108207
Si Si5 0.827971 0.110724 0.393453
Si Si6 0.826792 0.724250 0.223349
Si Si7 0.171860 0.162414 0.108673
O O1 0.500000 0.918484 0.236624
O O2 0.248432 0.933149 0.322112
O O3 0.260323 0.892342 0.145925
O O4 0.314144 0.000000 0.182060
O O5 0.306790 0.745912 0.500000
O O6 0.500000 0.779759 0.628441
O O7 0.241006 0.827108 0.623196
O O8 0.261488 0.722175 0.678118
O O9 0.500000 0.500000 0.851187
O O10 0.745905 0.442846 0.848998
O O11 0.677297 0.500000 0.000000
O O12 0.223562 0.331444 0.165497
O O13 0.000000 0.398493 0.117992
O O14 0.216994 0.376404 0.000000
O O15 0.800836 0.088887 0.500000
O O16 0.000000 0.115178 0.369951
O O17 0.780528 0.780603 0.164658
O O18 0.000000 0.723329 0.243840
O O19 0.000000 0.149644 0.122641
O O20 0.211744 0.172466 0.000000
#
# Coordination Sequence:
#
# PCOD8195886 Si02
#       7
#     8   8   4   8   8   8   8
#     4  11  24  39  54  74 101 133 169 209 256 312
#     4  10  20  33  51  76 106 137 166 201 251 309
#     4   9  17  29  45  69 104 143 182 219 251 288
#     4   9  17  30  49  74 106 143 178 211 251 298
#     4  10  20  35  56  79 101 127 162 206 256 310
#     4  10  19  32  53  80 106 134 170 212 255 302
#     4  10  21  37  56  77 101 131 169 213 258 303
#
# _framework density 17.379650000000002
#
# number of rings (size 3 to 8) (size 9 to 14) (size 15 to 20)
#    0.000    2.077    1.538    2.077    0.000    7.385 
#    0.000    3.077    0.000    2.769    0.000    0.538 
#    0.000    4.308    0.000    0.000    0.000    0.000 
#
# Total GULP energy -644908.490150 kJ/mol
# GULP energy per Si atom -12402.086349 kJ/mol
# Density = 1.734009 g / cm^3
# Si number density = 17.379650 Si / 1000 Ang^3
#
#
#
# Elastic Constant Matrix: (Units=GPa)
#
#
# Indices 1 2 3 4 5 6 
#
# 1 86.0847 54.9094 47.7783 0.0000 0.0000 0.0000
# 2 54.9094 119.4461 52.3796 0.0000 0.0000 0.0000
# 3 47.7783 52.3796 96.9130 0.0000 0.0000 0.0000
# 4 0.0000 0.0000 0.0000 21.6452 0.0000 0.0000
# 5 0.0000 0.0000 0.0000 0.0000 25.5225 0.0000
# 6 0.0000 0.0000 0.0000 0.0000 0.0000 17.1262
#
#
#
# Elastic Compliance Matrix: (Units=1/GPa)
#
#
# Indices 1 2 3 4 5 6 
#
# 1 0.018780 -0.005994 -0.006019 0.000000 0.000000 0.000000
# 2 -0.005994 0.012886 -0.004009 0.000000 0.000000 0.000000
# 3 -0.006019 -0.004009 0.015453 0.000000 0.000000 0.000000
# 4 0.000000 0.000000 0.000000 0.046200 0.000000 0.000000
# 5 0.000000 0.000000 0.000000 0.000000 0.039181 0.000000
# 6 0.000000 0.000000 0.000000 0.000000 0.000000 0.058390
#
#
# Mechanical properties :
#
#
# Convention : Reuss Voigt Hill
#
# Bulk Modulus (GPa) = 66.33913 68.06423 67.20168
# Shear Modulus (GPa) = 21.93371 22.68387 22.30879
#
# Velocity S-wave (km/s) = 3.55637 3.61667 3.58664
# Velocity P-wave (km/s) = 7.42409 7.52918 7.47682
#
# Compressibility (1/GPa) = 0.01507406
#
# Stress axis : x y z
#
# Youngs Moduli (GPa) = 53.24699 77.60634 64.71209
#
# Poissons Ratio (x) = 0.46516 0.38952
# Poissons Ratio (y) = 0.31915 0.25946
# Poissons Ratio (z) = 0.32051 0.31116
#
# Static dielectric constant tensor:
#      x y z
#    x 3.272960 0.000000 0.000000 
#    y 0.000000 3.152270 0.000000 
#    z 0.000000 0.000000 3.266820 
# 
# 
# High freq. dielectric constant tensor:
#      x y z
#    x 1.678100 0.000000 0.000000 
#    y 0.000000 1.656600 0.000000 
#    z 0.000000 0.000000 1.662050 
# 
# From -- ./inp_files/6972.got.cif
#   From: 2010.03.12/outbox.cif.g09.slc.cpg/sg47_4_cif.got.tgz:6972.got - 2010.04.14 03:12:58.
