data_PCOD8195954
_publ_section_title
;
Structure prediction by ZEFSAII (Michael W. Deem and Ramdas Pophale) SiO2 
 PCOD8195954
Probable space group: P M M M
;
_chemical_formula_sum "Si O2"
_cell_formula_units_Z 60
_cell_length_a 9.507361
_cell_length_b 19.813502
_cell_length_c 17.996589
_cell_angle_alpha 90.000000
_cell_angle_beta 90.000000
_cell_angle_gamma 90.000000
_cell_volume 3390.091547
_symmetry_space_group_name_H-M "P M M M"
_symmetry_group_IT_number 47
_symmetry_cell_setting 'orthorhombic'
loop_
_space_group_symop_operation_xyz
x,y,z
-x,-y,z
x,-y,-z
-x,y,-z
-x,-y,-z
x,y,-z
-x,y,z
x,-y,z
loop_
_atom_site_type_symbol
_atom_site_label
_atom_site_fract_x
_atom_site_fract_y
_atom_site_fract_z
Si Si1 0.345491 0.144525 0.416430
Si Si2 0.339509 0.075945 0.087633
Si Si3 0.659751 0.580113 0.000000
Si Si4 0.160101 0.175511 0.816871
Si Si5 0.165335 0.688013 0.256724
Si Si6 0.846478 0.073449 0.315348
Si Si7 0.163812 0.421999 0.141111
Si Si8 0.834641 0.722651 0.582339
O O1 0.361572 0.120790 0.500000
O O2 0.500000 0.162129 0.383555
O O3 0.276987 0.081717 0.374618
O O4 0.243079 0.207378 0.408562
O O5 0.500000 0.084651 0.114481
O O6 0.249951 0.138050 0.120228
O O7 0.286727 0.000000 0.110698
O O8 0.328816 0.083178 0.000000
O O9 0.743076 0.605478 0.072689
O O10 0.658753 0.500000 0.000000
O O11 0.500000 0.608591 0.000000
O O12 0.225752 0.247652 0.789820
O O13 0.167854 0.129711 0.745526
O O14 0.000000 0.183785 0.846280
O O15 0.208594 0.619523 0.214411
O O16 0.213589 0.680398 0.343965
O O17 0.000000 0.698683 0.256983
O O18 0.000000 0.079253 0.353975
O O19 0.828204 0.000000 0.278100
O O20 0.195734 0.500000 0.158454
O O21 0.000000 0.411179 0.120796
O O22 0.796656 0.690157 0.500000
O O23 0.000000 0.736544 0.585337
#
# Coordination Sequence:
#
# PCOD8195954 Si02
#       8
#     8   8   4   8   8   8   8   8
#     4  10  20  32  46  66  93 123 157 200 247 292
#     4   9  19  36  54  70  93 127 163 200 246 301
#     4   9  17  31  51  75 105 137 170 207 240 279
#     4  10  19  33  51  72  96 122 159 207 249 287
#     4   9  17  31  51  76 103 129 164 210 250 289
#     4  10  20  33  49  68  91 122 159 199 244 295
#     4   9  17  31  53  78 105 140 175 203 241 297
#     4   9  16  30  53  73  93 128 169 204 245 298
#
# _framework density 17.698637000000002
#
# number of rings (size 3 to 8) (size 9 to 14) (size 15 to 20)
#    0.000    2.600    1.333    1.400    0.000    3.733 
#    1.200    3.333    0.000    0.400    0.000    2.800 
#    0.000    0.000    0.000    6.667    0.000    6.933 
#
# Total GULP energy -743292.628236 kJ/mol
# GULP energy per Si atom -12388.210471 kJ/mol
# Density = 1.765835 g / cm^3
# Si number density = 17.698637 Si / 1000 Ang^3
#
#
#
# Elastic Constant Matrix: (Units=GPa)
#
#
# Indices 1 2 3 4 5 6 
#
# 1 60.9474 24.1078 42.4758 0.0000 0.0000 0.0000
# 2 24.1078 80.8546 52.1102 0.0000 0.0000 0.0000
# 3 42.4758 52.1102 109.4063 0.0000 0.0000 0.0000
# 4 0.0000 0.0000 0.0000 37.2913 0.0000 0.0000
# 5 0.0000 0.0000 0.0000 0.0000 13.7741 0.0000
# 6 0.0000 0.0000 0.0000 0.0000 0.0000 9.9776
#
#
#
# Elastic Compliance Matrix: (Units=1/GPa)
#
#
# Indices 1 2 3 4 5 6 
#
# 1 0.022630 -0.001566 -0.008040 0.000000 0.000000 0.000000
# 2 -0.001566 0.017954 -0.007944 0.000000 0.000000 0.000000
# 3 -0.008040 -0.007944 0.016045 0.000000 0.000000 0.000000
# 4 0.000000 0.000000 0.000000 0.026816 0.000000 0.000000
# 5 0.000000 0.000000 0.000000 0.000000 0.072600 0.000000
# 6 0.000000 0.000000 0.000000 0.000000 0.000000 0.100225
#
#
# Mechanical properties :
#
#
# Convention : Reuss Voigt Hill
#
# Bulk Modulus (GPa) = 46.44527 54.28845 50.36686
# Shear Modulus (GPa) = 16.74776 21.04289 18.89532
#
# Velocity S-wave (km/s) = 3.07949 3.45186 3.27098
# Velocity P-wave (km/s) = 6.24048 6.82844 6.54107
#
# Compressibility (1/GPa) = 0.02153072
#
# Stress axis : x y z
#
# Youngs Moduli (GPa) = 44.18843 55.69649 62.32289
#
# Poissons Ratio (x) = 0.08720 0.50109
# Poissons Ratio (y) = 0.06918 0.49508
# Poissons Ratio (z) = 0.35529 0.44245
#
# Static dielectric constant tensor:
#      x y z
#    x 3.414230 0.000000 0.000000 
#    y 0.000000 3.262680 0.000000 
#    z 0.000000 0.000000 3.539100 
# 
# 
# High freq. dielectric constant tensor:
#      x y z
#    x 1.672050 0.000000 0.000000 
#    y 0.000000 1.656940 0.000000 
#    z 0.000000 0.000000 1.686370 
# 
# From -- ./inp_files/9924.got.cif
#   From: 2010.03.12/outbox.cif.g09.slc.cpg/sg47_5_cif.got.tgz:9924.got - 2010.04.14 03:12:58.
