data_PCOD8195104
_publ_section_title
;
Structure prediction by ZEFSAII (Michael W. Deem and Ramdas Pophale) SiO2 
 PCOD8195104
Probable space group: P M M M
;
_chemical_formula_sum "Si O2"
_cell_formula_units_Z 48
_cell_length_a 15.388791
_cell_length_b 8.780403
_cell_length_c 19.016480
_cell_angle_alpha 90.000000
_cell_angle_beta 90.000000
_cell_angle_gamma 90.000000
_cell_volume 2569.502721
_symmetry_space_group_name_H-M "P M M M"
_symmetry_group_IT_number 47
_symmetry_cell_setting 'orthorhombic'
loop_
_space_group_symop_operation_xyz
x,y,z
-x,-y,z
x,-y,-z
-x,y,-z
-x,-y,-z
x,y,-z
-x,y,z
x,-y,z
loop_
_atom_site_type_symbol
_atom_site_label
_atom_site_fract_x
_atom_site_fract_y
_atom_site_fract_z
Si Si1 0.750443 0.681400 0.824694
Si Si2 0.753710 0.179582 0.671817
Si Si3 0.596633 0.681030 0.921385
Si Si4 0.899911 0.323721 0.419052
Si Si5 0.596256 0.819122 0.421330
Si Si6 0.096354 0.318969 0.078475
O O1 0.750560 0.500000 0.822244
O O2 0.753822 0.743886 0.746999
O O3 0.665126 0.744998 0.864820
O O4 0.834167 0.745809 0.866336
O O5 0.841135 0.219547 0.630262
O O6 0.669977 0.246129 0.630277
O O7 0.747798 0.000000 0.680834
O O8 0.500000 0.737684 0.900264
O O9 0.599786 0.500000 0.921621
O O10 0.620204 0.739504 0.000000
O O11 0.880240 0.283331 0.500000
O O12 0.879316 0.500000 0.404155
O O13 0.000000 0.288014 0.401251
O O14 0.613598 0.756250 0.500000
O O15 0.500000 0.766815 0.395756
O O16 0.601164 0.000000 0.422765
O O17 0.100087 0.500000 0.077993
O O18 0.000000 0.263588 0.100956
O O19 0.118447 0.259160 0.000000
#
# Coordination Sequence:
#
# PCOD8195104 Si02
#       6
#     8   8   8   8   8   8
#     4  10  19  30  46  69  97 129 161 196 244 299
#     4  11  22  33  48  74 106 137 167 201 243 293
#     4   8  14  26  46  71  95 121 161 214 263 301
#     4   9  19  37  59  79  99 127 164 205 249 296
#     4   8  15  30  51  71  91 121 164 208 244 280
#     4   8  14  26  46  70  90 111 150 202 243 276
#
# _framework density 18.680657
#
# number of rings (size 3 to 8) (size 9 to 14) (size 15 to 20)
#    0.000    3.000    0.000    3.500    0.000    4.667 
#    0.000    2.500    0.000    3.500    0.000    8.167 
#    0.000    0.000    0.000    0.000    0.000    0.000 
#
# Total GULP energy -594980.843661 kJ/mol
# GULP energy per Si atom -12395.434243 kJ/mol
# Density = 1.863814 g / cm^3
# Si number density = 18.680657 Si / 1000 Ang^3
#
#
#
# Elastic Constant Matrix: (Units=GPa)
#
#
# Indices 1 2 3 4 5 6 
#
# 1 158.4472 19.2908 99.2922 0.0000 0.0000 0.0000
# 2 19.2908 15.3996 16.0408 0.0000 0.0000 0.0000
# 3 99.2922 16.0408 140.9879 0.0000 0.0000 0.0000
# 4 0.0000 0.0000 0.0000 5.8567 0.0000 0.0000
# 5 0.0000 0.0000 0.0000 0.0000 18.2973 0.0000
# 6 0.0000 0.0000 0.0000 0.0000 0.0000 14.8021
#
#
#
# Elastic Compliance Matrix: (Units=1/GPa)
#
#
# Indices 1 2 3 4 5 6 
#
# 1 0.011931 -0.007026 -0.007603 0.000000 0.000000 0.000000
# 2 -0.007026 0.077805 -0.003904 0.000000 0.000000 0.000000
# 3 -0.007603 -0.003904 0.012892 0.000000 0.000000 0.000000
# 4 0.000000 0.000000 0.000000 0.170745 0.000000 0.000000
# 5 0.000000 0.000000 0.000000 0.000000 0.054653 0.000000
# 6 0.000000 0.000000 0.000000 0.000000 0.000000 0.067558
#
#
# Mechanical properties :
#
#
# Convention : Reuss Voigt Hill
#
# Bulk Modulus (GPa) = 15.25296 64.89803 40.07550
# Shear Modulus (GPa) = 11.00098 19.80528 15.40313
#
# Velocity S-wave (km/s) = 2.42935 3.25961 2.87461
# Velocity P-wave (km/s) = 4.00647 6.99878 5.70240
#
# Compressibility (1/GPa) = 0.06556104
#
# Stress axis : x y z
#
# Youngs Moduli (GPa) = 83.81208 12.85264 77.56895
#
# Poissons Ratio (x) = 0.09031 0.58979
# Poissons Ratio (y) = 0.58889 0.30282
# Poissons Ratio (z) = 0.63726 0.05017
#
# Static dielectric constant tensor:
#      x y z
#    x 3.865950 0.000000 0.000000 
#    y 0.000000 2.857170 0.000000 
#    z 0.000000 0.000000 3.488700 
# 
# 
# High freq. dielectric constant tensor:
#      x y z
#    x 1.743170 0.000000 0.000000 
#    y 0.000000 1.667300 0.000000 
#    z 0.000000 0.000000 1.725510 
# 
# From -- ./inp_files/21033.got.cif
#   From: 2010.03.12/outbox.cif.g09.slc.cpg/sg47_11_cif.got.tgz:21033.got - 2010.04.14 03:12:58.
