data_PCOD8195365
_publ_section_title
;
Structure prediction by ZEFSAII (Michael W. Deem and Ramdas Pophale) SiO2 
 PCOD8195365
Probable space group: P M M M
;
_chemical_formula_sum "Si O2"
_cell_formula_units_Z 40
_cell_length_a 9.885193
_cell_length_b 11.984636
_cell_length_c 19.838726
_cell_angle_alpha 90.000000
_cell_angle_beta 90.000000
_cell_angle_gamma 90.000000
_cell_volume 2350.302596
_symmetry_space_group_name_H-M "P M M M"
_symmetry_group_IT_number 47
_symmetry_cell_setting 'orthorhombic'
loop_
_space_group_symop_operation_xyz
x,y,z
-x,-y,z
x,-y,-z
-x,y,-z
-x,-y,-z
x,y,-z
-x,y,z
x,-y,z
loop_
_atom_site_type_symbol
_atom_site_label
_atom_site_fract_x
_atom_site_fract_y
_atom_site_fract_z
Si Si1 0.151484 0.132672 0.924509
Si Si2 0.653963 0.132737 0.808773
Si Si3 0.500000 0.122042 0.421331
Si Si4 0.852314 0.126461 0.307937
Si Si5 0.758714 0.736795 0.578902
Si Si6 0.349434 0.500000 0.420651
O O1 0.264810 0.181061 0.873494
O O2 0.000000 0.175526 0.905736
O O3 0.151747 0.000000 0.920762
O O4 0.189711 0.172372 0.000000
O O5 0.500000 0.180137 0.806972
O O6 0.736702 0.171115 0.742604
O O7 0.650746 0.000000 0.812284
O O8 0.500000 0.102944 0.500000
O O9 0.627834 0.193005 0.400006
O O10 0.500000 0.000000 0.385178
O O11 0.869727 0.207281 0.373179
O O12 0.000000 0.128592 0.271914
O O13 0.819050 0.000000 0.331554
O O14 0.797719 0.747634 0.500000
O O15 0.735736 0.608603 0.600236
O O16 0.500000 0.500000 0.387630
O O17 0.371168 0.500000 0.500000
#
# Coordination Sequence:
#
# PCOD8195365 Si02
#       6
#     8   8   4   8   8   4
#     4   8  13  22  37  56  80 113 150 184 219 263
#     4   9  17  27  40  59  83 113 150 190 228 270
#     4   9  16  25  41  67  93 112 136 178 223 262
#     4  10  21  34  46  62  89 123 153 188 238 290
#     4  10  19  31  48  68  88 114 151 190 232 280
#     4   9  16  30  49  69  91 115 142 183 236 285
#
# _framework density 17.019085
#
# number of rings (size 3 to 8) (size 9 to 14) (size 15 to 20)
#    0.000    2.800    1.000    1.800    1.400    4.400 
#    0.000    3.500    0.000    1.800    0.000    0.000 
#    0.000    0.000    0.000    0.900    0.000   11.400 
#
# Total GULP energy -495590.262731 kJ/mol
# GULP energy per Si atom -12389.756568 kJ/mol
# Density = 1.698035 g / cm^3
# Si number density = 17.019085 Si / 1000 Ang^3
#
#
#
# Elastic Constant Matrix: (Units=GPa)
#
#
# Indices 1 2 3 4 5 6 
#
# 1 112.1946 22.5492 55.7831 0.0000 0.0000 0.0000
# 2 22.5492 73.3098 28.4363 0.0000 0.0000 0.0000
# 3 55.7831 28.4363 100.0480 0.0000 0.0000 0.0000
# 4 0.0000 0.0000 0.0000 3.7797 0.0000 0.0000
# 5 0.0000 0.0000 0.0000 0.0000 27.5587 0.0000
# 6 0.0000 0.0000 0.0000 0.0000 0.0000 9.3408
#
#
#
# Elastic Compliance Matrix: (Units=1/GPa)
#
#
# Indices 1 2 3 4 5 6 
#
# 1 0.012437 -0.001276 -0.006572 0.000000 0.000000 0.000000
# 2 -0.001276 0.015462 -0.003683 0.000000 0.000000 0.000000
# 3 -0.006572 -0.003683 0.014706 0.000000 0.000000 0.000000
# 4 0.000000 0.000000 0.000000 0.264569 0.000000 0.000000
# 5 0.000000 0.000000 0.000000 0.000000 0.036286 0.000000
# 6 0.000000 0.000000 0.000000 0.000000 0.000000 0.107057
#
#
# Mechanical properties :
#
#
# Convention : Reuss Voigt Hill
#
# Bulk Modulus (GPa) = 51.16925 55.45439 53.31182
# Shear Modulus (GPa) = 10.41462 20.05477 15.23469
#
# Velocity S-wave (km/s) = 2.47642 3.43646 2.99516
# Velocity P-wave (km/s) = 6.18934 6.95702 6.58438
#
# Compressibility (1/GPa) = 0.01954299
#
# Stress axis : x y z
#
# Youngs Moduli (GPa) = 80.40492 64.67485 67.99880
#
# Poissons Ratio (x) = 0.08255 0.44687
# Poissons Ratio (y) = 0.10263 0.25044
# Poissons Ratio (z) = 0.52839 0.23820
#
# Static dielectric constant tensor:
#      x y z
#    x 3.449660 0.000000 0.000000 
#    y 0.000000 2.879070 0.000000 
#    z 0.000000 0.000000 3.122640 
# 
# 
# High freq. dielectric constant tensor:
#      x y z
#    x 1.665470 0.000000 0.000000 
#    y 0.000000 1.592110 0.000000 
#    z 0.000000 0.000000 1.641740 
# 
# From -- ./inp_files/29361.got.cif
#   From: 2010.03.12/outbox.cif.g09.slc.cpg/sg47_15_cif.got.tgz:29361.got - 2010.04.14 03:12:58.
