data_PCOD8195152
_publ_section_title
;
Structure prediction by ZEFSAII (Michael W. Deem and Ramdas Pophale) SiO2 
 PCOD8195152
Probable space group: P M M M
;
_chemical_formula_sum "Si O2"
_cell_formula_units_Z 40
_cell_length_a 9.042220
_cell_length_b 12.910629
_cell_length_c 18.542710
_cell_angle_alpha 90.000000
_cell_angle_beta 90.000000
_cell_angle_gamma 90.000000
_cell_volume 2164.689831
_symmetry_space_group_name_H-M "P M M M"
_symmetry_group_IT_number 47
_symmetry_cell_setting 'orthorhombic'
loop_
_space_group_symop_operation_xyz
x,y,z
-x,-y,z
x,-y,-z
-x,y,-z
-x,-y,-z
x,y,-z
-x,y,z
x,-y,z
loop_
_atom_site_type_symbol
_atom_site_label
_atom_site_fract_x
_atom_site_fract_y
_atom_site_fract_z
Si Si1 0.823651 0.000000 0.918236
Si Si2 0.175725 0.799313 0.665946
Si Si3 0.672190 0.381534 0.417325
Si Si4 0.824053 0.385675 0.919264
Si Si5 0.823890 0.000000 0.581369
Si Si6 0.176293 0.195666 0.171031
O O1 0.762970 0.899918 0.875914
O O2 0.000000 0.000000 0.919400
O O3 0.762216 0.000000 0.000000
O O4 0.234437 0.692527 0.633774
O O5 0.236455 0.897424 0.621034
O O6 0.234617 0.812223 0.747392
O O7 0.000000 0.795239 0.663652
O O8 0.716733 0.360022 0.500000
O O9 0.500000 0.359299 0.405682
O O10 0.710016 0.500000 0.396907
O O11 0.769415 0.500000 0.895284
O O12 0.759845 0.301090 0.864059
O O13 0.000000 0.381898 0.918950
O O14 0.767256 0.360682 0.000000
O O15 0.762542 0.000000 0.500000
O O16 0.000000 0.000000 0.582484
O O17 0.000000 0.195121 0.170215
#
# Coordination Sequence:
#
# PCOD8195152 Si02
#       6
#     4   8   8   8   4   8
#     4   9  15  23  37  56  84 127 168 192 220 273
#     4  10  19  30  47  71  98 126 156 194 239 285
#     4   9  19  36  54  70  92 123 157 195 239 286
#     4   8  13  21  32  46  70 107 143 172 210 260
#     4   9  17  29  44  63  90 122 152 183 224 273
#     4   9  16  24  35  56  86 115 147 189 229 263
#
# _framework density 18.478397000000001
#
# number of rings (size 3 to 8) (size 9 to 14) (size 15 to 20)
#    0.000    3.000    0.000    3.000    0.000    7.200 
#    0.000    3.500    0.000    1.800    0.000    0.000 
#    0.000    4.000    0.000   11.000    0.000    8.400 
#
# Total GULP energy -495876.716577 kJ/mol
# GULP energy per Si atom -12396.917914 kJ/mol
# Density = 1.843634 g / cm^3
# Si number density = 18.478397 Si / 1000 Ang^3
#
#
#
# Elastic Constant Matrix: (Units=GPa)
#
#
# Indices 1 2 3 4 5 6 
#
# 1 9.9809 16.1632 16.5581 0.0000 0.0000 0.0000
# 2 16.1632 168.6758 108.4659 0.0000 0.0000 0.0000
# 3 16.5581 108.4659 176.0325 0.0000 0.0000 0.0000
# 4 0.0000 0.0000 0.0000 33.9425 0.0000 0.0000
# 5 0.0000 0.0000 0.0000 0.0000 7.1262 0.0000
# 6 0.0000 0.0000 0.0000 0.0000 0.0000 10.3550
#
#
#
# Elastic Compliance Matrix: (Units=1/GPa)
#
#
# Indices 1 2 3 4 5 6 
#
# 1 0.123846 -0.007248 -0.007183 0.000000 0.000000 0.000000
# 2 -0.007248 0.010243 -0.005630 0.000000 0.000000 0.000000
# 3 -0.007183 -0.005630 0.009825 0.000000 0.000000 0.000000
# 4 0.000000 0.000000 0.000000 0.029462 0.000000 0.000000
# 5 0.000000 0.000000 0.000000 0.000000 0.140326 0.000000
# 6 0.000000 0.000000 0.000000 0.000000 0.000000 0.096572
#
#
# Mechanical properties :
#
#
# Convention : Reuss Voigt Hill
#
# Bulk Modulus (GPa) = 9.63465 70.78485 40.20975
# Shear Modulus (GPa) = 10.30940 24.51820 17.41380
#
# Velocity S-wave (km/s) = 2.36459 3.64656 3.07316
# Velocity P-wave (km/s) = 3.56095 7.49132 5.86516
#
# Compressibility (1/GPa) = 0.10379206
#
# Stress axis : x y z
#
# Youngs Moduli (GPa) = 8.07455 97.62453 101.77754
#
# Poissons Ratio (x) = 0.70762 0.73107
# Poissons Ratio (y) = 0.05853 0.57299
# Poissons Ratio (z) = 0.05800 0.54961
#
# Static dielectric constant tensor:
#      x y z
#    x 2.627870 0.000000 0.000000 
#    y 0.000000 3.672080 0.000000 
#    z 0.000000 0.000000 3.612190 
# 
# 
# High freq. dielectric constant tensor:
#      x y z
#    x 1.637020 0.000000 0.000000 
#    y 0.000000 1.735480 0.000000 
#    z 0.000000 0.000000 1.726490 
# 
# From -- ./inp_files/29363.got.cif
#   From: 2010.03.12/outbox.cif.g09.slc.cpg/sg47_15_cif.got.tgz:29363.got - 2010.04.14 03:12:58.
