data_PCOD8195854
_publ_section_title
;
Structure prediction by ZEFSAII (Michael W. Deem and Ramdas Pophale) SiO2 
 PCOD8195854
Probable space group: P M M M
;
_chemical_formula_sum "Si O2"
_cell_formula_units_Z 48
_cell_length_a 34.552113
_cell_length_b 9.010220
_cell_length_c 7.864181
_cell_angle_alpha 90.000000
_cell_angle_beta 90.000000
_cell_angle_gamma 90.000000
_cell_volume 2448.293655
_symmetry_space_group_name_H-M "P M M M"
_symmetry_group_IT_number 47
_symmetry_cell_setting 'orthorhombic'
loop_
_space_group_symop_operation_xyz
x,y,z
-x,-y,z
x,-y,-z
-x,y,-z
-x,-y,-z
x,y,-z
-x,y,z
x,-y,z
loop_
_atom_site_type_symbol
_atom_site_label
_atom_site_fract_x
_atom_site_fract_y
_atom_site_fract_z
Si Si1 0.196483 0.666527 0.300635
Si Si2 0.595703 0.822446 0.000000
Si Si3 0.958499 0.838695 0.303378
Si Si4 0.114941 0.664734 0.195753
Si Si5 0.321506 0.322336 0.000000
Si Si6 0.543214 0.824138 0.311176
Si Si7 0.725556 0.824774 0.698766
O O1 0.193416 0.655856 0.500000
O O2 0.203015 0.500000 0.223862
O O3 0.156602 0.740865 0.231866
O O4 0.231498 0.773368 0.247589
O O5 0.634702 0.730664 0.000000
O O6 0.572460 0.768063 0.833063
O O7 0.603176 0.000000 0.000000
O O8 0.963998 0.861963 0.500000
O O9 0.921566 0.737555 0.281698
O O10 0.000000 0.773944 0.232082
O O11 0.950887 0.000000 0.217819
O O12 0.118276 0.500000 0.272278
O O13 0.105554 0.664574 0.000000
O O14 0.303240 0.259223 0.825700
O O15 0.318348 0.500000 0.000000
O O16 0.557164 0.772643 0.500000
O O17 0.500000 0.761669 0.275236
O O18 0.541531 0.000000 0.304112
O O19 0.716627 0.784317 0.500000
O O20 0.721792 0.000000 0.727682
#
# Coordination Sequence:
#
# PCOD8195854 Si02
#       7
#     8   4   8   8   4   8   8
#     4   9  18  34  56  81 109 141 176 216 268 330
#     4  10  19  32  52  80 112 148 194 245 295 342
#     4   9  19  36  55  73  96 131 176 222 265 310
#     4  10  21  34  50  78 112 141 171 207 253 313
#     4  12  26  41  59  83 118 162 203 243 292 356
#     4   8  14  26  48  80 114 147 187 239 297 349
#     4  10  22  41  64  89 115 145 189 245 299 350
#
# _framework density 19.605491000000001
#
# number of rings (size 3 to 8) (size 9 to 14) (size 15 to 20)
#    0.000    2.500    0.000    3.000    1.167    5.333 
#    0.000    5.833    0.000    1.000    0.000    1.167 
#    0.000    0.000    0.000    0.000    0.000    0.000 
#
# Total GULP energy -594719.005909 kJ/mol
# GULP energy per Si atom -12389.979290 kJ/mol
# Density = 1.956087 g / cm^3
# Si number density = 19.605491 Si / 1000 Ang^3
#
#
#
# Elastic Constant Matrix: (Units=GPa)
#
#
# Indices 1 2 3 4 5 6 
#
# 1 161.3787 53.0690 75.7044 0.0000 0.0000 0.0000
# 2 53.0690 74.6569 40.8367 0.0000 0.0000 0.0000
# 3 75.7044 40.8367 97.4255 0.0000 0.0000 0.0000
# 4 0.0000 0.0000 0.0000 28.0594 0.0000 0.0000
# 5 0.0000 0.0000 0.0000 0.0000 51.4152 0.0000
# 6 0.0000 0.0000 0.0000 0.0000 0.0000 56.6223
#
#
#
# Elastic Compliance Matrix: (Units=1/GPa)
#
#
# Indices 1 2 3 4 5 6 
#
# 1 0.010566 -0.003918 -0.006568 0.000000 0.000000 0.000000
# 2 -0.003918 0.018832 -0.004849 0.000000 0.000000 0.000000
# 3 -0.006568 -0.004849 0.017401 0.000000 0.000000 0.000000
# 4 0.000000 0.000000 0.000000 0.035639 0.000000 0.000000
# 5 0.000000 0.000000 0.000000 0.000000 0.019449 0.000000
# 6 0.000000 0.000000 0.000000 0.000000 0.000000 0.017661
#
#
# Mechanical properties :
#
#
# Convention : Reuss Voigt Hill
#
# Bulk Modulus (GPa) = 62.00311 74.74237 68.37274
# Shear Modulus (GPa) = 32.13469 38.14279 35.13874
#
# Velocity S-wave (km/s) = 4.05293 4.41558 4.23814
# Velocity P-wave (km/s) = 7.32091 8.01264 7.67457
#
# Compressibility (1/GPa) = 0.01612822
#
# Stress axis : x y z
#
# Youngs Moduli (GPa) = 94.64048 53.10062 57.46932
#
# Poissons Ratio (x) = 0.20806 0.37747
# Poissons Ratio (y) = 0.37082 0.27867
# Poissons Ratio (z) = 0.62162 0.25749
#
# Static dielectric constant tensor:
#      x y z
#    x 4.019660 0.000000 0.000000 
#    y 0.000000 3.484200 0.000000 
#    z 0.000000 0.000000 3.714370 
# 
# 
# High freq. dielectric constant tensor:
#      x y z
#    x 1.773590 0.000000 0.000000 
#    y 0.000000 1.730020 0.000000 
#    z 0.000000 0.000000 1.768720 
# 
# From -- ./inp_files/13922.got.cif
#   From: 2010.03.12/outbox.cif.g09.slc.cpg/sg47_7_cif.got.tgz:13922.got - 2010.04.14 03:12:58.
