data_PCOD8195951
_publ_section_title
;
Structure prediction by ZEFSAII (Michael W. Deem and Ramdas Pophale) SiO2 
 PCOD8195951
Probable space group: P M M M
;
_chemical_formula_sum "Si O2"
_cell_formula_units_Z 60
_cell_length_a 19.182883
_cell_length_b 13.108127
_cell_length_c 13.859282
_cell_angle_alpha 90.000000
_cell_angle_beta 90.000000
_cell_angle_gamma 90.000000
_cell_volume 3484.939557
_symmetry_space_group_name_H-M "P M M M"
_symmetry_group_IT_number 47
_symmetry_cell_setting 'orthorhombic'
loop_
_space_group_symop_operation_xyz
x,y,z
-x,-y,z
x,-y,-z
-x,y,-z
-x,-y,-z
x,y,-z
-x,y,z
x,-y,z
loop_
_atom_site_type_symbol
_atom_site_label
_atom_site_fract_x
_atom_site_fract_y
_atom_site_fract_z
Si Si1 0.579787 0.725218 0.609998
Si Si2 0.152244 0.203046 0.888887
Si Si3 0.823777 0.381485 0.393698
Si Si4 0.688381 0.233479 0.110661
Si Si5 0.420814 0.882649 0.773657
Si Si6 0.079542 0.000000 0.114765
Si Si7 0.080743 0.618015 0.224742
Si Si8 0.691881 0.382691 0.719559
O O1 0.599164 0.751805 0.500000
O O2 0.500000 0.690377 0.619281
O O3 0.596379 0.824293 0.674354
O O4 0.626227 0.631852 0.648619
O O5 0.234594 0.187939 0.874942
O O6 0.115928 0.102367 0.843435
O O7 0.125724 0.307873 0.842014
O O8 0.131438 0.212837 0.000000
O O9 0.830055 0.330250 0.500000
O O10 0.807357 0.500000 0.407146
O O11 0.895639 0.364814 0.335557
O O12 0.759751 0.333403 0.332715
O O13 0.631509 0.149217 0.141016
O O14 0.678256 0.332299 0.176927
O O15 0.675543 0.265248 0.000000
O O16 0.500000 0.860100 0.807830
O O17 0.409491 0.000000 0.749640
O O18 0.000000 0.000000 0.149572
O O19 0.086500 0.000000 0.000000
O O20 0.094583 0.500000 0.193938
O O21 0.000000 0.646345 0.215943
O O22 0.704134 0.500000 0.741789
#
# Coordination Sequence:
#
# PCOD8195951 Si02
#       8
#     8   8   8   8   8   4   8   8
#     4   9  18  32  51  78 108 134 166 209 253 301
#     4  10  20  34  52  74 102 136 172 212 257 308
#     4   9  17  30  48  70  97 130 166 203 246 298
#     4  10  21  34  51  75 101 133 172 216 259 301
#     4   9  19  35  54  77 105 136 169 208 257 309
#     4   9  18  32  50  72  98 130 168 209 254 308
#     4  10  20  33  50  75 105 134 168 211 259 312
#     4  10  19  33  51  71 100 137 173 208 251 303
#
# _framework density 17.216940000000001
#
# number of rings (size 3 to 8) (size 9 to 14) (size 15 to 20)
#    0.000    2.467    1.333    0.800    0.933    3.467 
#    0.000    6.000    0.000    0.000    0.000    4.200 
#    0.000    1.600    0.000    0.000    0.000    0.000 
#
# Total GULP energy -743889.586437 kJ/mol
# GULP energy per Si atom -12398.159774 kJ/mol
# Density = 1.717775 g / cm^3
# Si number density = 17.216940 Si / 1000 Ang^3
#
#
#
# Elastic Constant Matrix: (Units=GPa)
#
#
# Indices 1 2 3 4 5 6 
#
# 1 95.8425 33.6101 43.7821 0.0000 0.0000 0.0000
# 2 33.6101 70.3233 29.9083 0.0000 0.0000 0.0000
# 3 43.7821 29.9083 98.1851 0.0000 0.0000 0.0000
# 4 0.0000 0.0000 0.0000 12.1469 0.0000 0.0000
# 5 0.0000 0.0000 0.0000 0.0000 24.9779 0.0000
# 6 0.0000 0.0000 0.0000 0.0000 0.0000 25.4523
#
#
#
# Elastic Compliance Matrix: (Units=1/GPa)
#
#
# Indices 1 2 3 4 5 6 
#
# 1 0.014367 -0.004758 -0.004957 0.000000 0.000000 0.000000
# 2 -0.004758 0.017912 -0.003335 0.000000 0.000000 0.000000
# 3 -0.004957 -0.003335 0.013411 0.000000 0.000000 0.000000
# 4 0.000000 0.000000 0.000000 0.082326 0.000000 0.000000
# 5 0.000000 0.000000 0.000000 0.000000 0.040035 0.000000
# 6 0.000000 0.000000 0.000000 0.000000 0.000000 0.039289
#
#
# Mechanical properties :
#
#
# Convention : Reuss Voigt Hill
#
# Bulk Modulus (GPa) = 51.04474 53.21687 52.13080
# Shear Modulus (GPa) = 20.83595 22.98546 21.91070
#
# Velocity S-wave (km/s) = 3.48257 3.65780 3.57126
# Velocity P-wave (km/s) = 6.77373 6.98684 6.88111
#
# Compressibility (1/GPa) = 0.01959066
#
# Stress axis : x y z
#
# Youngs Moduli (GPa) = 69.60485 55.82739 74.56593
#
# Poissons Ratio (x) = 0.26564 0.36962
# Poissons Ratio (y) = 0.33120 0.24864
# Poissons Ratio (z) = 0.34503 0.18616
#
# Static dielectric constant tensor:
#      x y z
#    x 3.392390 0.000000 0.000000 
#    y 0.000000 3.056580 0.000000 
#    z 0.000000 0.000000 3.224280 
# 
# 
# High freq. dielectric constant tensor:
#      x y z
#    x 1.676770 0.000000 0.000000 
#    y 0.000000 1.644690 0.000000 
#    z 0.000000 0.000000 1.655910 
# 
# From -- ./inp_files/19217.got.cif
#   From: 2010.03.12/outbox.cif.g09.slc.cpg/sg47_10_cif.got.tgz:19217.got - 2010.04.14 03:12:58.
