data_PCOD8195514
_publ_section_title
;
Structure prediction by ZEFSAII (Michael W. Deem and Ramdas Pophale) SiO2 
 PCOD8195514
Probable space group: P M M M
;
_chemical_formula_sum "Si O2"
_cell_formula_units_Z 56
_cell_length_a 15.574570
_cell_length_b 19.984932
_cell_length_c 9.231130
_cell_angle_alpha 90.000000
_cell_angle_beta 90.000000
_cell_angle_gamma 90.000000
_cell_volume 2873.251268
_symmetry_space_group_name_H-M "P M M M"
_symmetry_group_IT_number 47
_symmetry_cell_setting 'orthorhombic'
loop_
_space_group_symop_operation_xyz
x,y,z
-x,-y,z
x,-y,-z
-x,y,-z
-x,-y,-z
x,y,-z
-x,y,z
x,-y,z
loop_
_atom_site_type_symbol
_atom_site_label
_atom_site_fract_x
_atom_site_fract_y
_atom_site_fract_z
Si Si1 0.850855 0.286083 0.662968
Si Si2 0.660776 0.573585 0.168547
Si Si3 0.746653 0.925211 0.172367
Si Si4 0.833697 0.428697 0.335530
Si Si5 0.351820 0.298519 0.332557
Si Si6 0.596012 0.170401 0.834008
Si Si7 0.095242 0.160448 0.169237
O O1 0.870064 0.262314 0.500000
O O2 0.889640 0.361273 0.691567
O O3 0.749384 0.289015 0.693128
O O4 0.896753 0.234633 0.767874
O O5 0.617582 0.500000 0.194055
O O6 0.758651 0.569155 0.219214
O O7 0.614356 0.632599 0.258651
O O8 0.658068 0.592773 0.000000
O O9 0.663166 0.884533 0.226010
O O10 0.832823 0.889444 0.233692
O O11 0.742568 0.000000 0.237660
O O12 0.749337 0.928853 0.000000
O O13 0.795184 0.421942 0.500000
O O14 0.885435 0.500000 0.323161
O O15 0.376970 0.300682 0.500000
O O16 0.400536 0.237113 0.259829
O O17 0.500000 0.140146 0.821945
O O18 0.618842 0.188311 0.000000
O O19 0.000000 0.132048 0.204086
O O20 0.110061 0.167903 0.000000
#
# Coordination Sequence:
#
# PCOD8195514 Si02
#       7
#     8   8   8   8   8   8   8
#     4   9  17  29  48  73 100 136 177 218 265 312
#     4   9  16  25  41  69 103 138 178 224 272 318
#     4   9  18  34  56  82 111 139 168 210 262 313
#     4   8  14  25  41  65  98 134 176 223 268 316
#     4  10  19  31  50  74 103 142 183 222 266 315
#     4  10  20  34  55  82 109 139 174 213 261 315
#     4  10  20  33  52  78 106 139 177 216 260 310
#
# _framework density 19.490116
#
# number of rings (size 3 to 8) (size 9 to 14) (size 15 to 20)
#    0.000    2.714    1.429    1.714    0.000    4.286 
#    0.000    2.857    0.000    2.571    0.000    8.000 
#    0.000    0.000    0.000    0.000    0.000    0.000 
#
# Total GULP energy -693880.774491 kJ/mol
# GULP energy per Si atom -12390.728116 kJ/mol
# Density = 1.944576 g / cm^3
# Si number density = 19.490116 Si / 1000 Ang^3
#
#
#
# Elastic Constant Matrix: (Units=GPa)
#
#
# Indices 1 2 3 4 5 6 
#
# 1 88.3800 58.5757 29.1568 0.0000 0.0000 0.0000
# 2 58.5757 174.6476 48.3061 0.0000 0.0000 0.0000
# 3 29.1568 48.3061 64.7557 0.0000 0.0000 0.0000
# 4 0.0000 0.0000 0.0000 17.5235 0.0000 0.0000
# 5 0.0000 0.0000 0.0000 0.0000 12.2061 0.0000
# 6 0.0000 0.0000 0.0000 0.0000 0.0000 5.2555
#
#
#
# Elastic Compliance Matrix: (Units=1/GPa)
#
#
# Indices 1 2 3 4 5 6 
#
# 1 0.015275 -0.004058 -0.003850 0.000000 0.000000 0.000000
# 2 -0.004058 0.008292 -0.004359 0.000000 0.000000 0.000000
# 3 -0.003850 -0.004359 0.020428 0.000000 0.000000 0.000000
# 4 0.000000 0.000000 0.000000 0.057066 0.000000 0.000000
# 5 0.000000 0.000000 0.000000 0.000000 0.081926 0.000000
# 6 0.000000 0.000000 0.000000 0.000000 0.000000 0.190278
#
#
# Mechanical properties :
#
#
# Convention : Reuss Voigt Hill
#
# Bulk Modulus (GPa) = 51.38597 66.65119 59.01858
# Shear Modulus (GPa) = 12.36748 19.78000 16.07374
#
# Velocity S-wave (km/s) = 2.52176 3.18916 2.87490
# Velocity P-wave (km/s) = 5.90774 6.91612 6.43172
#
# Compressibility (1/GPa) = 0.01946057
#
# Stress axis : x y z
#
# Youngs Moduli (GPa) = 65.46837 120.59139 48.95277
#
# Poissons Ratio (x) = 0.48936 0.18848
# Poissons Ratio (y) = 0.26567 0.21338
# Poissons Ratio (z) = 0.25207 0.52563
#
# Static dielectric constant tensor:
#      x y z
#    x 3.278160 0.000000 0.000000 
#    y 0.000000 4.003750 0.000000 
#    z 0.000000 0.000000 3.358920 
# 
# 
# High freq. dielectric constant tensor:
#      x y z
#    x 1.723530 0.000000 0.000000 
#    y 0.000000 1.770640 0.000000 
#    z 0.000000 0.000000 1.737980 
# 
# From -- ./inp_files/7288.got.cif
#   From: 2010.03.12/outbox.cif.g09.slc.cpg/sg47_4_cif.got.tgz:7288.got - 2010.04.14 03:12:58.
