data_PCOD8195111
_publ_section_title
;
Structure prediction by ZEFSAII (Michael W. Deem and Ramdas Pophale) SiO2 
 PCOD8195111
Probable space group: P M M M
;
_chemical_formula_sum "Si O2"
_cell_formula_units_Z 44
_cell_length_a 32.165221
_cell_length_b 7.708946
_cell_length_c 9.220563
_cell_angle_alpha 90.000000
_cell_angle_beta 90.000000
_cell_angle_gamma 90.000000
_cell_volume 2286.330357
_symmetry_space_group_name_H-M "P M M M"
_symmetry_group_IT_number 47
_symmetry_cell_setting 'orthorhombic'
loop_
_space_group_symop_operation_xyz
x,y,z
-x,-y,z
x,-y,-z
-x,y,-z
-x,-y,-z
x,y,-z
-x,y,z
x,-y,z
loop_
_atom_site_type_symbol
_atom_site_label
_atom_site_fract_x
_atom_site_fract_y
_atom_site_fract_z
Si Si1 0.691921 0.500000 0.672665
Si Si2 0.157761 0.794499 0.661071
Si Si3 0.079796 0.793018 0.836963
Si Si4 0.604304 0.500000 0.173081
Si Si5 0.249342 0.807236 0.327484
Si Si6 0.546347 0.807247 0.172130
Si Si7 0.000000 0.206669 0.336270
O O1 0.685906 0.500000 0.500000
O O2 0.648337 0.500000 0.751399
O O3 0.716590 0.670292 0.726928
O O4 0.151854 0.714667 0.500000
O O5 0.122118 0.719060 0.765674
O O6 0.203383 0.747498 0.725306
O O7 0.153828 0.000000 0.650351
O O8 0.040683 0.722412 0.745929
O O9 0.079999 0.000000 0.837344
O O10 0.076628 0.720672 0.000000
O O11 0.579367 0.668307 0.230407
O O12 0.609650 0.500000 0.000000
O O13 0.248016 0.812952 0.500000
O O14 0.260544 0.000000 0.267414
O O15 0.500000 0.763369 0.230761
O O16 0.559704 0.000000 0.224321
O O17 0.545238 0.799327 0.000000
O O18 0.000000 0.278984 0.500000
O O19 0.000000 0.000000 0.337017
#
# Coordination Sequence:
#
# PCOD8195111 Si02
#       7
#     4   8   8   4   8   8   4
#     4  10  20  33  49  69  94 127 163 194 232 285
#     4   8  13  23  39  55  71  97 136 179 220 262
#     4   9  15  21  30  48  75 104 135 174 221 270
#     4  10  19  30  46  70  98 124 153 195 242 281
#     4   8  15  29  48  67  87 115 154 197 234 272
#     4   8  14  26  46  71  96 124 161 201 237 276
#     4   9  15  21  29  43  69 108 147 178 212 259
#
# _framework density 19.244813000000001
#
# number of rings (size 3 to 8) (size 9 to 14) (size 15 to 20)
#    0.000    3.364    0.000    2.727    0.000    5.091 
#    0.000    0.909    0.000    2.182    0.000    1.273 
#    0.000    0.727    0.000    8.636    0.000   25.273 
#
# Total GULP energy -545314.704294 kJ/mol
# GULP energy per Si atom -12393.516007 kJ/mol
# Density = 1.920101 g / cm^3
# Si number density = 19.244813 Si / 1000 Ang^3
#
#
#
# Elastic Constant Matrix: (Units=GPa)
#
#
# Indices 1 2 3 4 5 6 
#
# 1 196.3957 79.5691 60.0072 0.0000 0.0000 0.0000
# 2 79.5691 90.6222 26.1315 0.0000 0.0000 0.0000
# 3 60.0072 26.1315 77.4482 0.0000 0.0000 0.0000
# 4 0.0000 0.0000 0.0000 4.7890 0.0000 0.0000
# 5 0.0000 0.0000 0.0000 0.0000 31.4029 0.0000
# 6 0.0000 0.0000 0.0000 0.0000 0.0000 -13.4486
#
#
#
# Elastic Compliance Matrix: (Units=1/GPa)
#
#
# Indices 1 2 3 4 5 6 
#
# 1 0.009356 -0.006785 -0.004960 0.000000 0.000000 0.000000
# 2 -0.006785 0.017144 -0.000528 0.000000 0.000000 0.000000
# 3 -0.004960 -0.000528 0.016933 0.000000 0.000000 0.000000
# 4 0.000000 0.000000 0.000000 0.208811 0.000000 0.000000
# 5 0.000000 0.000000 0.000000 0.000000 0.031844 0.000000
# 6 0.000000 0.000000 0.000000 0.000000 0.000000 -0.074357
#
#
# Mechanical properties :
#
#
# Convention : Reuss Voigt Hill
#
# Bulk Modulus (GPa) = 52.94251 77.32019 65.13135
# Shear Modulus (GPa) = 20.78380 17.79922 19.29151
#
# Velocity S-wave (km/s) = 3.28985 3.04449 3.16955
# Velocity P-wave (km/s) = 6.48079 7.25417 6.87835
#
# Compressibility (1/GPa) = 0.01888841
#
# Stress axis : x y z
#
# Youngs Moduli (GPa) = 106.88342 58.32895 59.05681
#
# Poissons Ratio (x) = 0.39574 0.29291
# Poissons Ratio (y) = 0.72517 0.03117
# Poissons Ratio (z) = 0.53013 0.03078
#
# Static dielectric constant tensor:
#      x y z
#    x 3.687510 0.000000 0.000000 
#    y 0.000000 3.487830 0.000000 
#    z 0.000000 0.000000 3.217530 
# 
# 
# High freq. dielectric constant tensor:
#      x y z
#    x 1.753700 0.000000 0.000000 
#    y 0.000000 1.729580 0.000000 
#    z 0.000000 0.000000 1.701590 
# 
# From -- ./inp_files/13727.got.cif
#   From: 2010.03.12/outbox.cif.g09.slc.cpg/sg47_7_cif.got.tgz:13727.got - 2010.04.14 03:12:58.
