data_PCOD8195861
_publ_section_title
;
Structure prediction by ZEFSAII (Michael W. Deem and Ramdas Pophale) SiO2 
 PCOD8195861
Probable space group: P M M M
;
_chemical_formula_sum "Si O2"
_cell_formula_units_Z 64
_cell_length_a 20.611298
_cell_length_b 18.727700
_cell_length_c 8.884236
_cell_angle_alpha 90.000000
_cell_angle_beta 90.000000
_cell_angle_gamma 90.000000
_cell_volume 3429.334691
_symmetry_space_group_name_H-M "P M M M"
_symmetry_group_IT_number 47
_symmetry_cell_setting 'orthorhombic'
loop_
_space_group_symop_operation_xyz
x,y,z
-x,-y,z
x,-y,-z
-x,y,-z
-x,-y,-z
x,y,-z
-x,y,z
x,-y,z
loop_
_atom_site_type_symbol
_atom_site_label
_atom_site_fract_x
_atom_site_fract_y
_atom_site_fract_z
Si Si1 0.928982 0.658676 0.675136
Si Si2 0.792413 0.818642 0.174863
Si Si3 0.068853 0.192919 0.172297
Si Si4 0.425128 0.829714 0.675704
Si Si5 0.680536 0.918626 0.177892
Si Si6 0.424871 0.317544 0.176362
Si Si7 0.322431 0.416274 0.673209
Si Si8 0.201007 0.655067 0.822159
O O1 0.913285 0.649540 0.500000
O O2 0.933620 0.741763 0.714149
O O3 0.869240 0.624729 0.768452
O O4 0.000000 0.623616 0.713075
O O5 0.865124 0.851217 0.207570
O O6 0.738501 0.869910 0.248485
O O7 0.788920 0.737014 0.233934
O O8 0.777078 0.818736 0.000000
O O9 0.000000 0.149467 0.189464
O O10 0.075047 0.222098 0.000000
O O11 0.412017 0.821547 0.500000
O O12 0.500000 0.844662 0.711865
O O13 0.386000 0.896241 0.742329
O O14 0.401111 0.757459 0.755778
O O15 0.696300 0.000000 0.220034
O O16 0.672369 0.909118 0.000000
O O17 0.500000 0.331459 0.214752
O O18 0.384223 0.380916 0.248402
O O19 0.411413 0.315185 0.000000
O O20 0.320410 0.393093 0.500000
O O21 0.331250 0.500000 0.693074
O O22 0.255909 0.393424 0.750555
O O23 0.205294 0.648945 0.000000
#
# Coordination Sequence:
#
# PCOD8195861 Si02
#       8
#     8   8   8   8   8   8   8   8
#     4   9  16  26  43  70 103 133 163 208 266 322
#     4   8  15  28  46  70  97 126 165 210 254 300
#     4   8  13  23  41  64  91 125 165 209 256 306
#     4  10  21  37  57  79 103 132 167 211 262 313
#     4  10  20  33  50  72 101 138 176 215 260 312
#     4  10  21  38  61  86 110 137 172 214 257 306
#     4  11  24  39  55  78 110 145 178 214 257 306
#     4  10  19  32  53  76 100 135 178 223 266 312
#
# _framework density 18.662512
#
# number of rings (size 3 to 8) (size 9 to 14) (size 15 to 20)
#    0.000    2.500    0.000    3.375    0.000    5.000 
#    0.000    5.000    0.000    0.750    0.000    5.250 
#    0.000    0.000    0.000   32.625    0.000   30.250 
#
# Total GULP energy -793143.977983 kJ/mol
# GULP energy per Si atom -12392.874656 kJ/mol
# Density = 1.862004 g / cm^3
# Si number density = 18.662512 Si / 1000 Ang^3
#
#
#
# Elastic Constant Matrix: (Units=GPa)
#
#
# Indices 1 2 3 4 5 6 
#
# 1 110.4051 30.9829 40.1018 0.0000 0.0000 0.0000
# 2 30.9829 41.1630 26.7085 0.0000 0.0000 0.0000
# 3 40.1018 26.7085 66.4757 0.0000 0.0000 0.0000
# 4 0.0000 0.0000 0.0000 20.4377 0.0000 0.0000
# 5 0.0000 0.0000 0.0000 0.0000 28.3542 0.0000
# 6 0.0000 0.0000 0.0000 0.0000 0.0000 7.7829
#
#
#
# Elastic Compliance Matrix: (Units=1/GPa)
#
#
# Indices 1 2 3 4 5 6 
#
# 1 0.012667 -0.006190 -0.005154 0.000000 0.000000 0.000000
# 2 -0.006190 0.035885 -0.010684 0.000000 0.000000 0.000000
# 3 -0.005154 -0.010684 0.022445 0.000000 0.000000 0.000000
# 4 0.000000 0.000000 0.000000 0.048929 0.000000 0.000000
# 5 0.000000 0.000000 0.000000 0.000000 0.035268 0.000000
# 6 0.000000 0.000000 0.000000 0.000000 0.000000 0.128487
#
#
# Mechanical properties :
#
#
# Convention : Reuss Voigt Hill
#
# Bulk Modulus (GPa) = 37.11843 45.95892 41.53868
# Shear Modulus (GPa) = 14.84927 19.33166 17.09047
#
# Velocity S-wave (km/s) = 2.82383 3.22196 3.02944
# Velocity P-wave (km/s) = 5.52852 6.20654 5.87732
#
# Compressibility (1/GPa) = 0.02694079
#
# Stress axis : x y z
#
# Youngs Moduli (GPa) = 78.94672 27.86706 44.55340
#
# Poissons Ratio (x) = 0.17249 0.22965
# Poissons Ratio (y) = 0.48866 0.47599
# Poissons Ratio (z) = 0.40692 0.29772
#
# Static dielectric constant tensor:
#      x y z
#    x 3.919080 0.000000 0.000000 
#    y 0.000000 3.112880 0.000000 
#    z 0.000000 0.000000 3.357220 
# 
# 
# High freq. dielectric constant tensor:
#      x y z
#    x 1.751860 0.000000 0.000000 
#    y 0.000000 1.677220 0.000000 
#    z 0.000000 0.000000 1.719010 
# 
# From -- ./inp_files/11632.got.cif
#   From: 2010.03.12/outbox.cif.g09.slc.cpg/sg47_6_cif.got.tgz:11632.got - 2010.04.14 03:12:58.
