data_PCOD8195471
_publ_section_title
;
Structure prediction by ZEFSAII (Michael W. Deem and Ramdas Pophale) SiO2 
 PCOD8195471
Probable space group: P M M M
;
_chemical_formula_sum "Si O2"
_cell_formula_units_Z 32
_cell_length_a 8.057138
_cell_length_b 9.360304
_cell_length_c 22.361508
_cell_angle_alpha 90.000000
_cell_angle_beta 90.000000
_cell_angle_gamma 90.000000
_cell_volume 1686.443686
_symmetry_space_group_name_H-M "P M M M"
_symmetry_group_IT_number 47
_symmetry_cell_setting 'orthorhombic'
loop_
_space_group_symop_operation_xyz
x,y,z
-x,-y,z
x,-y,-z
-x,y,-z
-x,-y,-z
x,y,-z
-x,y,z
x,-y,z
loop_
_atom_site_type_symbol
_atom_site_label
_atom_site_fract_x
_atom_site_fract_y
_atom_site_fract_z
Si Si1 0.810696 0.165658 0.251510
Si Si2 0.805170 0.161406 0.500000
Si Si3 0.000000 0.330294 0.066963
Si Si4 0.313665 0.666121 0.856588
Si Si5 0.308341 0.835425 0.623753
O O1 0.695665 0.251572 0.206016
O O2 0.786782 0.228544 0.318655
O O3 0.000000 0.186465 0.231791
O O4 0.756416 0.000000 0.249809
O O5 0.741380 0.239986 0.560696
O O6 0.000000 0.162928 0.500000
O O7 0.732712 0.000000 0.500000
O O8 0.830552 0.275911 0.099029
O O9 0.000000 0.500000 0.064721
O O10 0.000000 0.266655 0.000000
O O11 0.500000 0.690644 0.883472
O O12 0.283149 0.500000 0.843558
O O13 0.500000 0.814131 0.636427
O O14 0.254738 0.000000 0.617971
#
# Coordination Sequence:
#
# PCOD8195471 Si02
#       5
#     8   4   4   8   8
#     4  10  19  31  49  73 101 134 170 208 252 300
#     4   9  15  23  35  53  82 119 158 201 248 297
#     4   9  18  34  55  79 107 134 163 204 248 291
#     4  10  20  34  54  79 105 134 168 205 248 297
#     4   9  16  25  38  59  88 122 160 203 250 297
#
# _framework density 18.974841000000001
#
# number of rings (size 3 to 8) (size 9 to 14) (size 15 to 20)
#    0.000    2.500    1.250    1.875    0.000    6.500 
#    0.000    2.500    0.000    1.500    0.000    2.625 
#    0.000    7.000    0.000    0.000    0.000    0.000 
#
# Total GULP energy -396605.543955 kJ/mol
# GULP energy per Si atom -12393.923249 kJ/mol
# Density = 1.893165 g / cm^3
# Si number density = 18.974841 Si / 1000 Ang^3
#
#
#
# Elastic Constant Matrix: (Units=GPa)
#
#
# Indices 1 2 3 4 5 6 
#
# 1 109.3341 18.6583 62.8934 0.0000 0.0000 0.0000
# 2 18.6583 20.8075 25.6932 0.0000 0.0000 0.0000
# 3 62.8934 25.6932 152.0961 0.0000 0.0000 0.0000
# 4 0.0000 0.0000 0.0000 -3.7510 0.0000 0.0000
# 5 0.0000 0.0000 0.0000 0.0000 29.7554 0.0000
# 6 0.0000 0.0000 0.0000 0.0000 0.0000 15.6709
#
#
#
# Elastic Compliance Matrix: (Units=1/GPa)
#
#
# Indices 1 2 3 4 5 6 
#
# 1 0.012593 -0.006144 -0.004170 0.000000 0.000000 0.000000
# 2 -0.006144 0.063724 -0.008224 0.000000 0.000000 0.000000
# 3 -0.004170 -0.008224 0.009688 0.000000 0.000000 0.000000
# 4 0.000000 0.000000 0.000000 -0.266598 0.000000 0.000000
# 5 0.000000 0.000000 0.000000 0.000000 0.033607 0.000000
# 6 0.000000 0.000000 0.000000 0.000000 0.000000 0.063813
#
#
# Mechanical properties :
#
#
# Convention : Reuss Voigt Hill
#
# Bulk Modulus (GPa) = 20.43724 55.19195 37.81459
# Shear Modulus (GPa) = -167.86077 20.00125 -73.92976
#
# Velocity S-wave (km/s) = -9.41578 3.25020 -6.24873
# Velocity P-wave (km/s) = 10.36413 6.57534 5.66481
#
# Compressibility (1/GPa) = 0.04893030
#
# Stress axis : x y z
#
# Youngs Moduli (GPa) = 79.40748 15.69266 103.21773
#
# Poissons Ratio (x) = 0.09641 0.43038
# Poissons Ratio (y) = 0.48787 0.84888
# Poissons Ratio (z) = 0.33110 0.12906
#
# Static dielectric constant tensor:
#      x y z
#    x 3.546330 0.000000 0.000000 
#    y 0.000000 2.847100 0.000000 
#    z 0.000000 0.000000 3.763950 
# 
# 
# High freq. dielectric constant tensor:
#      x y z
#    x 1.753010 0.000000 0.000000 
#    y 0.000000 1.656610 0.000000 
#    z 0.000000 0.000000 1.749280 
# 
# From -- ./inp_files/1281.got.cif
#   From: 2010.03.12/outbox.cif.g09.slc.cpg/sg47_1_cif.got.tgz:1281.got - 2010.04.14 03:12:58.
