data_PCOD8195993
_publ_section_title
;
Structure prediction by ZEFSAII (Michael W. Deem and Ramdas Pophale) SiO2 
 PCOD8195993
Probable space group: P M M M
;
_chemical_formula_sum "Si O2"
_cell_formula_units_Z 56
_cell_length_a 9.161417
_cell_length_b 19.090318
_cell_length_c 18.377034
_cell_angle_alpha 90.000000
_cell_angle_beta 90.000000
_cell_angle_gamma 90.000000
_cell_volume 3214.039671
_symmetry_space_group_name_H-M "P M M M"
_symmetry_group_IT_number 47
_symmetry_cell_setting 'orthorhombic'
loop_
_space_group_symop_operation_xyz
x,y,z
-x,-y,z
x,-y,-z
-x,y,-z
-x,-y,-z
x,y,-z
-x,y,z
x,-y,z
loop_
_atom_site_type_symbol
_atom_site_label
_atom_site_fract_x
_atom_site_fract_y
_atom_site_fract_z
Si Si1 0.671965 0.419804 0.222748
Si Si2 0.830899 0.699584 0.300369
Si Si3 0.329622 0.659277 0.080503
Si Si4 0.173521 0.075527 0.199701
Si Si5 0.667150 0.209915 0.583084
Si Si6 0.830467 0.079209 0.364794
Si Si7 0.832173 0.220714 0.848845
O O1 0.500000 0.408866 0.233225
O O2 0.718076 0.500000 0.232895
O O3 0.755951 0.374922 0.283236
O O4 0.721394 0.396397 0.141323
O O5 0.755353 0.733839 0.369832
O O6 0.809491 0.751005 0.232492
O O7 0.000000 0.686523 0.317834
O O8 0.500000 0.672122 0.086368
O O9 0.256604 0.734650 0.092937
O O10 0.286508 0.631272 0.000000
O O11 0.227842 0.084385 0.282230
O O12 0.228100 0.140490 0.150362
O O13 0.000000 0.076744 0.201975
O O14 0.228212 0.000000 0.168432
O O15 0.676363 0.235190 0.500000
O O16 0.500000 0.207228 0.610028
O O17 0.736007 0.132465 0.587694
O O18 0.000000 0.101240 0.369877
O O19 0.808908 0.000000 0.394263
O O20 0.000000 0.224406 0.872269
#
# Coordination Sequence:
#
# PCOD8195993 Si02
#       7
#     8   8   8   8   8   8   8
#     4   9  18  33  54  79 105 133 161 192 237 290
#     4  10  19  33  53  75  98 126 165 208 247 291
#     4   9  18  31  47  71 103 136 166 195 230 278
#     4   8  13  24  44  68  92 118 155 206 254 290
#     4  11  23  35  48  69 100 136 170 208 254 300
#     4   9  17  31  50  70  95 129 169 211 255 302
#     4   9  16  28  48  71  93 122 162 205 249 291
#
# _framework density 17.423556999999999
#
# number of rings (size 3 to 8) (size 9 to 14) (size 15 to 20)
#    0.000    2.714    1.429    1.714    0.000    3.143 
#    0.000    2.857    0.000    1.286    0.000   10.000 
#    0.000    0.000    0.000    0.000    0.000    0.000 
#
# Total GULP energy -694185.780755 kJ/mol
# GULP energy per Si atom -12396.174656 kJ/mol
# Density = 1.738390 g / cm^3
# Si number density = 17.423557 Si / 1000 Ang^3
#
#
#
# Elastic Constant Matrix: (Units=GPa)
#
#
# Indices 1 2 3 4 5 6 
#
# 1 64.3919 47.6403 36.7319 0.0000 0.0000 0.0000
# 2 47.6403 135.8835 41.8857 0.0000 0.0000 0.0000
# 3 36.7319 41.8857 61.5289 0.0000 0.0000 0.0000
# 4 0.0000 0.0000 0.0000 19.4910 0.0000 0.0000
# 5 0.0000 0.0000 0.0000 0.0000 21.4659 0.0000
# 6 0.0000 0.0000 0.0000 0.0000 0.0000 26.9555
#
#
#
# Elastic Compliance Matrix: (Units=1/GPa)
#
#
# Indices 1 2 3 4 5 6 
#
# 1 0.026531 -0.005593 -0.012031 0.000000 0.000000 0.000000
# 2 -0.005593 0.010493 -0.003804 0.000000 0.000000 0.000000
# 3 -0.012031 -0.003804 0.026024 0.000000 0.000000 0.000000
# 4 0.000000 0.000000 0.000000 0.051306 0.000000 0.000000
# 5 0.000000 0.000000 0.000000 0.000000 0.046585 0.000000
# 6 0.000000 0.000000 0.000000 0.000000 0.000000 0.037098
#
#
# Mechanical properties :
#
#
# Convention : Reuss Voigt Hill
#
# Bulk Modulus (GPa) = 49.52485 57.14668 53.33576
# Shear Modulus (GPa) = 20.19187 22.61892 21.40540
#
# Velocity S-wave (km/s) = 3.40793 3.60694 3.50884
# Velocity P-wave (km/s) = 6.63107 7.08635 6.86249
#
# Compressibility (1/GPa) = 0.02019189
#
# Stress axis : x y z
#
# Youngs Moduli (GPa) = 37.69173 95.30419 38.42549
#
# Poissons Ratio (x) = 0.53305 0.46230
# Poissons Ratio (y) = 0.21081 0.14617
# Poissons Ratio (z) = 0.45347 0.36253
#
# Static dielectric constant tensor:
#      x y z
#    x 3.119900 0.000000 0.000000 
#    y 0.000000 3.450730 0.000000 
#    z 0.000000 0.000000 3.055940 
# 
# 
# High freq. dielectric constant tensor:
#      x y z
#    x 1.658550 0.000000 0.000000 
#    y 0.000000 1.673970 0.000000 
#    z 0.000000 0.000000 1.646460 
# 
# From -- ./inp_files/26937.got.cif
#   From: 2010.03.12/outbox.cif.g09.slc.cpg/sg47_14_cif.got.tgz:26937.got - 2010.04.14 03:12:58.
