data_PCOD8195679
_publ_section_title
;
Structure prediction by ZEFSAII (Michael W. Deem and Ramdas Pophale) SiO2 
 PCOD8195679
Probable space group: P M M M
;
_chemical_formula_sum "Si O2"
_cell_formula_units_Z 60
_cell_length_a 19.304416
_cell_length_b 19.311891
_cell_length_c 9.287601
_cell_angle_alpha 90.000000
_cell_angle_beta 90.000000
_cell_angle_gamma 90.000000
_cell_volume 3462.462025
_symmetry_space_group_name_H-M "P M M M"
_symmetry_group_IT_number 47
_symmetry_cell_setting 'orthorhombic'
loop_
_space_group_symop_operation_xyz
x,y,z
-x,-y,z
x,-y,-z
-x,y,-z
-x,-y,-z
x,y,-z
-x,y,z
x,-y,z
loop_
_atom_site_type_symbol
_atom_site_label
_atom_site_fract_x
_atom_site_fract_y
_atom_site_fract_z
Si Si1 0.332534 0.720339 0.838315
Si Si2 0.853128 0.383896 0.336806
Si Si3 0.207384 0.818079 0.169101
Si Si4 0.698728 0.080064 0.667670
Si Si5 0.074988 0.500000 0.169350
Si Si6 0.577533 0.819603 0.668221
Si Si7 0.725557 0.420357 0.836837
Si Si8 0.080274 0.234480 0.664489
O O1 0.256591 0.751839 0.794393
O O2 0.392657 0.749741 0.738035
O O3 0.336349 0.636119 0.830301
O O4 0.347989 0.745596 0.000000
O O5 0.857146 0.411883 0.500000
O O6 0.888450 0.432248 0.221999
O O7 0.774356 0.386735 0.284393
O O8 0.891430 0.311742 0.324030
O O9 0.240524 0.886673 0.238015
O O10 0.130366 0.811064 0.235693
O O11 0.198242 0.828850 0.000000
O O12 0.716209 0.091665 0.500000
O O13 0.625209 0.114820 0.708264
O O14 0.692798 0.000000 0.707772
O O15 0.000000 0.500000 0.239202
O O16 0.073813 0.500000 0.000000
O O17 0.576982 0.805748 0.500000
O O18 0.500000 0.834321 0.725518
O O19 0.703386 0.500000 0.799028
O O20 0.757145 0.419308 0.000000
O O21 0.085436 0.208344 0.500000
O O22 0.000000 0.230751 0.717191
#
# Coordination Sequence:
#
# PCOD8195679 Si02
#       8
#     8   8   8   8   4   8   8   8
#     4   9  18  32  50  73 100 133 173 212 254 305
#     4  11  21  32  48  69  93 123 162 211 263 314
#     4  10  19  32  52  76 102 133 172 215 255 300
#     4   9  18  33  54  80 110 143 172 199 241 297
#     4  11  23  35  45  59  87 129 168 203 254 319
#     4   9  18  32  52  80 110 139 171 206 245 291
#     4  10  19  32  50  70  97 130 168 215 264 311
#     4  10  21  35  50  70  98 131 168 214 265 313
#
# _framework density 17.328710000000001
#
# number of rings (size 3 to 8) (size 9 to 14) (size 15 to 20)
#    0.000    2.200    2.000    1.400    0.000    3.733 
#    0.000    1.333    0.000    0.800    0.000    9.333 
#    0.000    0.000    0.000    0.000    0.000    0.000 
#
# Total GULP energy -743534.636018 kJ/mol
# GULP energy per Si atom -12392.243934 kJ/mol
# Density = 1.728927 g / cm^3
# Si number density = 17.328710 Si / 1000 Ang^3
#
#
#
# Elastic Constant Matrix: (Units=GPa)
#
#
# Indices 1 2 3 4 5 6 
#
# 1 102.7794 59.5076 50.5719 0.0000 0.0000 0.0000
# 2 59.5076 109.6986 41.9440 0.0000 0.0000 0.0000
# 3 50.5719 41.9440 65.4721 0.0000 0.0000 0.0000
# 4 0.0000 0.0000 0.0000 25.2350 0.0000 0.0000
# 5 0.0000 0.0000 0.0000 0.0000 29.2066 0.0000
# 6 0.0000 0.0000 0.0000 0.0000 0.0000 19.1573
#
#
#
# Elastic Compliance Matrix: (Units=1/GPa)
#
#
# Indices 1 2 3 4 5 6 
#
# 1 0.018234 -0.005968 -0.010261 0.000000 0.000000 0.000000
# 2 -0.005968 0.014027 -0.004376 0.000000 0.000000 0.000000
# 3 -0.010261 -0.004376 0.026003 0.000000 0.000000 0.000000
# 4 0.000000 0.000000 0.000000 0.039627 0.000000 0.000000
# 5 0.000000 0.000000 0.000000 0.000000 0.034239 0.000000
# 6 0.000000 0.000000 0.000000 0.000000 0.000000 0.052199
#
#
# Mechanical properties :
#
#
# Convention : Reuss Voigt Hill
#
# Bulk Modulus (GPa) = 58.63967 64.66634 61.65300
# Shear Modulus (GPa) = 21.62418 23.11490 22.36954
#
# Velocity S-wave (km/s) = 3.53637 3.65623 3.59680
# Velocity P-wave (km/s) = 7.11250 7.43119 7.27359
#
# Compressibility (1/GPa) = 0.01705330
#
# Stress axis : x y z
#
# Youngs Moduli (GPa) = 54.84395 71.29352 38.45730
#
# Poissons Ratio (x) = 0.42547 0.39460
# Poissons Ratio (y) = 0.32730 0.16830
# Poissons Ratio (z) = 0.56274 0.31200
#
# Static dielectric constant tensor:
#      x y z
#    x 3.244980 0.000000 0.000000 
#    y 0.000000 3.142900 0.000000 
#    z 0.000000 0.000000 3.287960 
# 
# 
# High freq. dielectric constant tensor:
#      x y z
#    x 1.648820 0.000000 0.000000 
#    y 0.000000 1.658190 0.000000 
#    z 0.000000 0.000000 1.674380 
# 
# From -- ./inp_files/10020.got.cif
#   From: 2010.03.12/outbox.cif.g09.slc.cpg/sg47_6_cif.got.tgz:10020.got - 2010.04.14 03:12:58.
