data_PCOD8195516
_publ_section_title
;
Structure prediction by ZEFSAII (Michael W. Deem and Ramdas Pophale) SiO2 
 PCOD8195516
Probable space group: P M M M
;
_chemical_formula_sum "Si O2"
_cell_formula_units_Z 64
_cell_length_a 13.980705
_cell_length_b 9.126994
_cell_length_c 29.022408
_cell_angle_alpha 90.000000
_cell_angle_beta 90.000000
_cell_angle_gamma 90.000000
_cell_volume 3703.311810
_symmetry_space_group_name_H-M "P M M M"
_symmetry_group_IT_number 47
_symmetry_cell_setting 'orthorhombic'
loop_
_space_group_symop_operation_xyz
x,y,z
-x,-y,z
x,-y,-z
-x,y,-z
-x,-y,-z
x,y,-z
-x,y,z
x,-y,z
loop_
_atom_site_type_symbol
_atom_site_label
_atom_site_fract_x
_atom_site_fract_y
_atom_site_fract_z
Si Si1 0.281425 0.827307 0.185310
Si Si2 0.391510 0.330542 0.107269
Si Si3 0.212680 0.671132 0.050234
Si Si4 0.899757 0.163145 0.445411
Si Si5 0.694273 0.174939 0.552487
Si Si6 0.610045 0.829463 0.722454
Si Si7 0.610702 0.661035 0.365987
Si Si8 0.109646 0.673989 0.859198
O O1 0.360294 0.769213 0.149787
O O2 0.321114 0.786763 0.235509
O O3 0.178109 0.750691 0.178313
O O4 0.269327 0.000000 0.178592
O O5 0.500000 0.292809 0.092954
O O6 0.380739 0.500000 0.122231
O O7 0.322732 0.296319 0.064017
O O8 0.194930 0.500000 0.045545
O O9 0.141066 0.730718 0.089799
O O10 0.192500 0.744641 0.000000
O O11 0.895810 0.151239 0.500000
O O12 0.799300 0.236228 0.430718
O O13 0.000000 0.244749 0.430290
O O14 0.903344 0.000000 0.424576
O O15 0.671024 0.222704 0.500000
O O16 0.620149 0.249255 0.586627
O O17 0.689658 0.000000 0.556498
O O18 0.500000 0.785570 0.733858
O O19 0.653330 0.746274 0.677991
O O20 0.615833 0.000000 0.711087
O O21 0.500000 0.643689 0.356457
O O22 0.658500 0.500000 0.370191
O O23 0.123823 0.500000 0.855293
O O24 0.000000 0.719813 0.850151
#
# Coordination Sequence:
#
# PCOD8195516 Si02
#       8
#     8   8   8   8   8   8   8   8
#     4  10  19  31  50  74  96 118 149 191 237 286
#     4   9  17  28  43  66  96 127 157 191 234 285
#     4   8  14  25  42  66  94 123 160 204 242 275
#     4   7  10  19  38  64  89 110 138 179 221 257
#     4   9  17  29  47  70  94 124 161 196 230 269
#     4   9  18  33  52  72  93 117 146 183 228 277
#     4  10  21  34  47  66  93 125 158 191 229 272
#     4   9  18  32  49  70  96 125 158 197 241 286
#
# _framework density 17.281828999999998
#
# number of rings (size 3 to 8) (size 9 to 14) (size 15 to 20)
#    0.000    3.125    0.000    3.000    0.000    3.750 
#    0.000    5.000    0.000    7.125    0.000   10.500 
#    0.000    0.000    0.000    0.000    0.000    0.000 
#
# Total GULP energy -792853.693218 kJ/mol
# GULP energy per Si atom -12388.338957 kJ/mol
# Density = 1.724249 g / cm^3
# Si number density = 17.281829 Si / 1000 Ang^3
#
#
#
# Elastic Constant Matrix: (Units=GPa)
#
#
# Indices 1 2 3 4 5 6 
#
# 1 90.7492 29.7449 41.9694 0.0000 0.0000 0.0000
# 2 29.7449 49.9254 45.4324 0.0000 0.0000 0.0000
# 3 41.9694 45.4324 115.8341 0.0000 0.0000 0.0000
# 4 0.0000 0.0000 0.0000 20.7387 0.0000 0.0000
# 5 0.0000 0.0000 0.0000 0.0000 18.1504 0.0000
# 6 0.0000 0.0000 0.0000 0.0000 0.0000 17.6675
#
#
#
# Elastic Compliance Matrix: (Units=1/GPa)
#
#
# Indices 1 2 3 4 5 6 
#
# 1 0.014276 -0.005907 -0.002856 0.000000 0.000000 0.000000
# 2 -0.005907 0.033591 -0.011035 0.000000 0.000000 0.000000
# 3 -0.002856 -0.011035 0.013996 0.000000 0.000000 0.000000
# 4 0.000000 0.000000 0.000000 0.048219 0.000000 0.000000
# 5 0.000000 0.000000 0.000000 0.000000 0.055095 0.000000
# 6 0.000000 0.000000 0.000000 0.000000 0.000000 0.056601
#
#
# Mechanical properties :
#
#
# Convention : Reuss Voigt Hill
#
# Bulk Modulus (GPa) = 44.90747 54.53359 49.72053
# Shear Modulus (GPa) = 18.60149 20.60211 19.60180
#
# Velocity S-wave (km/s) = 3.28435 3.45646 3.37151
# Velocity P-wave (km/s) = 6.35802 6.89590 6.63242
#
# Compressibility (1/GPa) = 0.02226801
#
# Stress axis : x y z
#
# Youngs Moduli (GPa) = 70.04661 29.77012 71.44981
#
# Poissons Ratio (x) = 0.17584 0.20405
# Poissons Ratio (y) = 0.41375 0.78843
# Poissons Ratio (z) = 0.20004 0.32851
#
# Static dielectric constant tensor:
#      x y z
#    x 3.488690 0.000000 0.000000 
#    y 0.000000 3.038760 0.000000 
#    z 0.000000 0.000000 3.136030 
# 
# 
# High freq. dielectric constant tensor:
#      x y z
#    x 1.666080 0.000000 0.000000 
#    y 0.000000 1.638080 0.000000 
#    z 0.000000 0.000000 1.649060 
# 
# From -- ./inp_files/34689.got.cif
#   From: 2010.03.12/outbox.cif.g09.slc.cpg/sg47_18_cif.got.tgz:34689.got - 2010.04.14 03:12:58.
