data_PCOD8195732
_publ_section_title
;
Structure prediction by ZEFSAII (Michael W. Deem and Ramdas Pophale) SiO2 
 PCOD8195732
Probable space group: P M M M
;
_chemical_formula_sum "Si O2"
_cell_formula_units_Z 48
_cell_length_a 29.683037
_cell_length_b 8.906054
_cell_length_c 10.225836
_cell_angle_alpha 90.000000
_cell_angle_beta 90.000000
_cell_angle_gamma 90.000000
_cell_volume 2703.289022
_symmetry_space_group_name_H-M "P M M M"
_symmetry_group_IT_number 47
_symmetry_cell_setting 'orthorhombic'
loop_
_space_group_symop_operation_xyz
x,y,z
-x,-y,z
x,-y,-z
-x,y,-z
-x,-y,-z
x,y,-z
-x,y,z
x,-y,z
loop_
_atom_site_type_symbol
_atom_site_label
_atom_site_fract_x
_atom_site_fract_y
_atom_site_fract_z
Si Si1 0.363145 0.668121 0.843841
Si Si2 0.450693 0.168968 0.155465
Si Si3 0.946914 0.323698 0.500000
Si Si4 0.053044 0.669389 0.000000
Si Si5 0.815826 0.325364 0.846434
Si Si6 0.903555 0.178822 0.246751
Si Si7 0.725065 0.832121 0.844720
O O1 0.357388 0.500000 0.791929
O O2 0.410249 0.731185 0.786541
O O3 0.321298 0.763923 0.788385
O O4 0.363563 0.673025 0.000000
O O5 0.500000 0.230849 0.200038
O O6 0.444308 0.000000 0.207301
O O7 0.448184 0.169952 0.000000
O O8 0.935966 0.500000 0.500000
O O9 0.925237 0.246608 0.375296
O O10 0.000000 0.293887 0.500000
O O11 0.068296 0.759264 0.126031
O O12 0.073943 0.500000 0.000000
O O13 0.000000 0.657617 0.000000
O O14 0.820408 0.500000 0.813066
O O15 0.851958 0.231197 0.764464
O O16 0.766816 0.270177 0.800012
O O17 0.823710 0.294360 0.000000
O O18 0.905939 0.000000 0.250216
O O19 0.731127 0.000000 0.789016
O O20 0.722576 0.835006 0.000000
#
# Coordination Sequence:
#
# PCOD8195732 Si02
#       7
#     8   8   4   4   8   8   8
#     4   9  15  21  29  43  64  91 126 168 220 278
#     4   8  13  20  28  37  52  79 118 165 217 270
#     4  11  25  45  65  83 109 145 179 211 254 307
#     4  11  23  39  59  83 111 143 177 211 252 301
#     4  10  19  32  51  73 100 130 162 199 245 298
#     4  12  24  38  59  85 112 139 173 215 257 302
#     4   9  16  25  38  56  80 108 141 182 231 283
#
# _framework density 17.756146999999999
#
# number of rings (size 3 to 8) (size 9 to 14) (size 15 to 20)
#    0.000    2.167    0.833    4.500    0.000    8.333 
#    0.000    1.667    0.000    0.000    0.000    0.000 
#    0.000    0.000    0.000    0.000    0.000    0.000 
#
# Total GULP energy -595108.983678 kJ/mol
# GULP energy per Si atom -12398.103827 kJ/mol
# Density = 1.771573 g / cm^3
# Si number density = 17.756147 Si / 1000 Ang^3
#
#
#
# Elastic Constant Matrix: (Units=GPa)
#
#
# Indices 1 2 3 4 5 6 
#
# 1 151.3985 79.4856 37.2223 0.0000 0.0000 0.0000
# 2 79.4856 153.7552 40.7471 0.0000 0.0000 0.0000
# 3 37.2223 40.7471 62.6292 0.0000 0.0000 0.0000
# 4 0.0000 0.0000 0.0000 16.9912 0.0000 0.0000
# 5 0.0000 0.0000 0.0000 0.0000 8.6457 0.0000
# 6 0.0000 0.0000 0.0000 0.0000 0.0000 38.2844
#
#
#
# Elastic Compliance Matrix: (Units=1/GPa)
#
#
# Indices 1 2 3 4 5 6 
#
# 1 0.009499 -0.004126 -0.002961 0.000000 0.000000 0.000000
# 2 -0.004126 0.009651 -0.003827 0.000000 0.000000 0.000000
# 3 -0.002961 -0.003827 0.020217 0.000000 0.000000 0.000000
# 4 0.000000 0.000000 0.000000 0.058854 0.000000 0.000000
# 5 0.000000 0.000000 0.000000 0.000000 0.115664 0.000000
# 6 0.000000 0.000000 0.000000 0.000000 0.000000 0.026120
#
#
# Mechanical properties :
#
#
# Convention : Reuss Voigt Hill
#
# Bulk Modulus (GPa) = 57.01640 75.85474 66.43557
# Shear Modulus (GPa) = 18.67901 26.80613 22.74257
#
# Velocity S-wave (km/s) = 3.24693 3.88968 3.58275
# Velocity P-wave (km/s) = 6.79980 7.93636 7.38996
#
# Compressibility (1/GPa) = 0.01753881
#
# Stress axis : x y z
#
# Youngs Moduli (GPa) = 105.27059 103.61633 49.46396
#
# Poissons Ratio (x) = 0.42752 0.14648
# Poissons Ratio (y) = 0.43435 0.18929
# Poissons Ratio (z) = 0.31174 0.39652
#
# Static dielectric constant tensor:
#      x y z
#    x 3.661710 0.000000 0.000000 
#    y 0.000000 3.517290 0.000000 
#    z 0.000000 0.000000 2.652770 
# 
# 
# High freq. dielectric constant tensor:
#      x y z
#    x 1.711510 0.000000 0.000000 
#    y 0.000000 1.703340 0.000000 
#    z 0.000000 0.000000 1.604340 
# 
# From -- ./inp_files/13927.got.cif
#   From: 2010.03.12/outbox.cif.g09.slc.cpg/sg47_7_cif.got.tgz:13927.got - 2010.04.14 03:12:58.
