data_PCOD8195637
_publ_section_title
;
Structure prediction by ZEFSAII (Michael W. Deem and Ramdas Pophale) SiO2 
 PCOD8195637
Probable space group: P M M M
;
_chemical_formula_sum "Si O2"
_cell_formula_units_Z 36
_cell_length_a 16.693599
_cell_length_b 15.581843
_cell_length_c 8.836638
_cell_angle_alpha 90.000000
_cell_angle_beta 90.000000
_cell_angle_gamma 90.000000
_cell_volume 2298.560109
_symmetry_space_group_name_H-M "P M M M"
_symmetry_group_IT_number 47
_symmetry_cell_setting 'orthorhombic'
loop_
_space_group_symop_operation_xyz
x,y,z
-x,-y,z
x,-y,-z
-x,y,-z
-x,-y,-z
x,y,-z
-x,y,z
x,-y,z
loop_
_atom_site_type_symbol
_atom_site_label
_atom_site_fract_x
_atom_site_fract_y
_atom_site_fract_z
Si Si1 0.405285 0.000000 0.828942
Si Si2 0.404607 0.314134 0.825631
Si Si3 0.679215 0.841852 0.677865
Si Si4 0.162441 0.099998 0.822624
Si Si5 0.000000 0.898093 0.329836
Si Si6 0.412982 0.500000 0.178225
O O1 0.376062 0.084341 0.745462
O O2 0.500000 0.000000 0.829817
O O3 0.370887 0.000000 0.000000
O O4 0.500000 0.309724 0.800957
O O5 0.360309 0.248911 0.715633
O O6 0.370494 0.409487 0.779507
O O7 0.384069 0.292022 0.000000
O O8 0.684955 0.854524 0.500000
O O9 0.767728 0.844923 0.747011
O O10 0.078775 0.134787 0.756529
O O11 0.176417 0.000000 0.783358
O O12 0.161891 0.116141 0.000000
O O13 0.000000 0.861566 0.500000
O O14 0.000000 0.000000 0.329569
O O15 0.500000 0.500000 0.257273
O O16 0.426243 0.500000 0.000000
#
# Coordination Sequence:
#
# PCOD8195637 Si02
#       6
#     4   8   8   8   4   4
#     4  11  23  37  49  60  81 120 165 201 231 269
#     4   9  17  31  50  69  90 119 156 195 235 280
#     4  12  23  32  45  66  94 123 155 194 236 276
#     4  10  19  32  49  66  88 120 159 193 226 270
#     4   9  17  29  47  69  93 116 145 186 234 278
#     4   7  12  26  49  71  87 110 149 194 235 277
#
# _framework density 15.661979000000001
#
# number of rings (size 3 to 8) (size 9 to 14) (size 15 to 20)
#    0.000    2.111    1.111    5.333    0.000    6.222 
#    0.000    0.556    0.000    2.000    0.000    0.000 
#    0.000    0.889    0.000    9.556    0.000    4.222 
#
# Total GULP energy -446272.744092 kJ/mol
# GULP energy per Si atom -12396.465114 kJ/mol
# Density = 1.562633 g / cm^3
# Si number density = 15.661979 Si / 1000 Ang^3
#
#
#
# Elastic Constant Matrix: (Units=GPa)
#
#
# Indices 1 2 3 4 5 6 
#
# 1 86.1208 37.0506 43.7962 0.0000 0.0000 0.0000
# 2 37.0506 96.5526 35.7833 0.0000 0.0000 0.0000
# 3 43.7962 35.7833 99.3819 0.0000 0.0000 0.0000
# 4 0.0000 0.0000 0.0000 -0.4974 0.0000 0.0000
# 5 0.0000 0.0000 0.0000 0.0000 6.5858 0.0000
# 6 0.0000 0.0000 0.0000 0.0000 0.0000 1.7585
#
#
#
# Elastic Compliance Matrix: (Units=1/GPa)
#
#
# Indices 1 2 3 4 5 6 
#
# 1 0.016285 -0.004142 -0.005685 0.000000 0.000000 0.000000
# 2 -0.004142 0.013005 -0.002857 0.000000 0.000000 0.000000
# 3 -0.005685 -0.002857 0.013596 0.000000 0.000000 0.000000
# 4 0.000000 0.000000 0.000000 -2.010435 0.000000 0.000000
# 5 0.000000 0.000000 0.000000 0.000000 0.151842 0.000000
# 6 0.000000 0.000000 0.000000 0.000000 0.000000 0.568680
#
#
# Mechanical properties :
#
#
# Convention : Reuss Voigt Hill
#
# Bulk Modulus (GPa) = 57.08573 57.25726 57.17149
# Shear Modulus (GPa) = -4.11246 12.59772 4.24263
#
# Velocity S-wave (km/s) = -1.62218 2.83918 1.64765
# Velocity P-wave (km/s) = 5.74623 6.88371 6.34053
#
# Compressibility (1/GPa) = 0.01751751
#
# Stress axis : x y z
#
# Youngs Moduli (GPa) = 61.40750 76.89067 73.54928
#
# Poissons Ratio (x) = 0.31849 0.41813
# Poissons Ratio (y) = 0.25435 0.21016
# Poissons Ratio (z) = 0.34910 0.21971
#
# Static dielectric constant tensor:
#      x y z
#    x 2.954320 0.000000 0.000000 
#    y 0.000000 1.527360 0.000000 
#    z 0.000000 0.000000 3.017660 
# 
# 
# High freq. dielectric constant tensor:
#      x y z
#    x 1.586830 0.000000 0.000000 
#    y 0.000000 1.576700 0.000000 
#    z 0.000000 0.000000 1.605130 
# 
# From -- ./inp_files/5605.got.cif
#   From: 2010.03.12/outbox.cif.g09.slc.cpg/sg47_3_cif.got.tgz:5605.got - 2010.04.14 03:12:58.
