data_PCOD8195611
_publ_section_title
;
Structure prediction by ZEFSAII (Michael W. Deem and Ramdas Pophale) SiO2 
 PCOD8195611
Probable space group: P M M M
;
_chemical_formula_sum "Si O2"
_cell_formula_units_Z 52
_cell_length_a 18.079746
_cell_length_b 24.374332
_cell_length_c 9.514602
_cell_angle_alpha 90.000000
_cell_angle_beta 90.000000
_cell_angle_gamma 90.000000
_cell_volume 4192.911284
_symmetry_space_group_name_H-M "P M M M"
_symmetry_group_IT_number 47
_symmetry_cell_setting 'orthorhombic'
loop_
_space_group_symop_operation_xyz
x,y,z
-x,-y,z
x,-y,-z
-x,y,-z
-x,-y,-z
x,y,-z
-x,y,z
x,-y,z
loop_
_atom_site_type_symbol
_atom_site_label
_atom_site_fract_x
_atom_site_fract_y
_atom_site_fract_z
Si Si1 0.000000 0.435125 0.163250
Si Si2 0.914478 0.738308 0.340127
Si Si3 0.581275 0.565198 0.158342
Si Si4 0.911757 0.160193 0.158576
Si Si5 0.283381 0.436765 0.337226
Si Si6 0.087957 0.060852 0.342312
Si Si7 0.869392 0.382110 0.336873
O O1 0.927693 0.411710 0.237732
O O2 0.000000 0.500000 0.179751
O O3 0.000000 0.417363 0.000000
O O4 0.904519 0.758690 0.500000
O O5 0.883263 0.785633 0.238678
O O6 0.869250 0.683007 0.311044
O O7 0.000000 0.725230 0.308459
O O8 0.500000 0.586254 0.208209
O O9 0.582012 0.500000 0.166275
O O10 0.646195 0.588843 0.256326
O O11 0.596391 0.585156 0.000000
O O12 0.879481 0.106168 0.235834
O O13 0.000000 0.159016 0.161421
O O14 0.881292 0.161050 0.000000
O O15 0.301296 0.430243 0.500000
O O16 0.269431 0.500000 0.296359
O O17 0.211160 0.403119 0.293226
O O18 0.116643 0.073217 0.500000
O O19 0.000000 0.063552 0.341513
O O20 0.114025 0.000000 0.294390
O O21 0.887929 0.395740 0.500000
#
# Coordination Sequence:
#
# PCOD8195611 Si02
#       7
#     4   8   8   8   8   8   8
#     4  11  23  33  41  55  71  87 110 143 182 219
#     4   9  16  27  40  50  60  80 112 143 171 205
#     4   8  14  25  40  56  74  95 113 127 151 195
#     4   9  16  23  32  47  64  81 101 130 168 203
#     4   9  17  27  40  58  75  89 108 138 173 208
#     4   8  13  21  32  45  61  81 103 126 155 195
#     4  10  19  32  45  55  67  89 118 145 177 215
#
# _framework density 12.401884000000001
#
# number of rings (size 3 to 8) (size 9 to 14) (size 15 to 20)
#    0.000    3.000    0.769    2.077    0.000    4.923 
#    0.000    4.615    0.000    0.000    0.000    0.000 
#    0.000    0.000    0.000    0.000    0.000    0.000 
#
# Total GULP energy -644581.571933 kJ/mol
# GULP energy per Si atom -12395.799460 kJ/mol
# Density = 1.237366 g / cm^3
# Si number density = 12.401884 Si / 1000 Ang^3
#
#
#
# Elastic Constant Matrix: (Units=GPa)
#
#
# Indices 1 2 3 4 5 6 
#
# 1 70.4943 33.8684 44.2991 0.0000 0.0000 0.0000
# 2 33.8684 74.6467 49.7985 0.0000 0.0000 0.0000
# 3 44.2991 49.7985 84.4515 0.0000 0.0000 0.0000
# 4 0.0000 0.0000 0.0000 15.7463 0.0000 0.0000
# 5 0.0000 0.0000 0.0000 0.0000 13.1218 0.0000
# 6 0.0000 0.0000 0.0000 0.0000 0.0000 -0.4835
#
#
#
# Elastic Compliance Matrix: (Units=1/GPa)
#
#
# Indices 1 2 3 4 5 6 
#
# 1 0.021771 -0.003725 -0.009224 0.000000 0.000000 0.000000
# 2 -0.003725 0.022721 -0.011444 0.000000 0.000000 0.000000
# 3 -0.009224 -0.011444 0.023428 0.000000 0.000000 0.000000
# 4 0.000000 0.000000 0.000000 0.063507 0.000000 0.000000
# 5 0.000000 0.000000 0.000000 0.000000 0.076209 0.000000
# 6 0.000000 0.000000 0.000000 0.000000 0.000000 -2.068432
#
#
# Mechanical properties :
#
#
# Convention : Reuss Voigt Hill
#
# Bulk Modulus (GPa) = 52.26056 53.94716 53.10386
# Shear Modulus (GPa) = -2.76911 12.45202 4.84145
#
# Velocity S-wave (km/s) = -1.49588 3.17210 1.97795
# Velocity P-wave (km/s) = 6.26475 7.55049 6.93747
#
# Compressibility (1/GPa) = 0.01913489
#
# Stress axis : x y z
#
# Youngs Moduli (GPa) = 45.93193 44.01217 42.68426
#
# Poissons Ratio (x) = 0.16392 0.39372
# Poissons Ratio (y) = 0.17107 0.48849
# Poissons Ratio (z) = 0.42367 0.50368
#
# Static dielectric constant tensor:
#      x y z
#    x 2.402290 0.000000 0.000000 
#    y 0.000000 2.526310 0.000000 
#    z 0.000000 0.000000 2.693480 
# 
# 
# High freq. dielectric constant tensor:
#      x y z
#    x 1.420200 0.000000 0.000000 
#    y 0.000000 1.454880 0.000000 
#    z 0.000000 0.000000 1.479860 
# 
# From -- ./inp_files/10078.got.cif
#   From: 2010.03.12/outbox.cif.g09.slc.cpg/sg47_6_cif.got.tgz:10078.got - 2010.04.14 03:12:58.
