data_PCOD8195668
_publ_section_title
;
Structure prediction by ZEFSAII (Michael W. Deem and Ramdas Pophale) SiO2 
 PCOD8195668
Probable space group: P M M M
;
_chemical_formula_sum "Si O2"
_cell_formula_units_Z 44
_cell_length_a 9.638894
_cell_length_b 30.136283
_cell_length_c 8.228818
_cell_angle_alpha 90.000000
_cell_angle_beta 90.000000
_cell_angle_gamma 90.000000
_cell_volume 2390.310652
_symmetry_space_group_name_H-M "P M M M"
_symmetry_group_IT_number 47
_symmetry_cell_setting 'orthorhombic'
loop_
_space_group_symop_operation_xyz
x,y,z
-x,-y,z
x,-y,-z
-x,y,-z
-x,-y,-z
x,y,-z
-x,y,z
x,-y,z
loop_
_atom_site_type_symbol
_atom_site_label
_atom_site_fract_x
_atom_site_fract_y
_atom_site_fract_z
Si Si1 0.834898 0.050675 0.000000
Si Si2 0.659907 0.270298 0.314161
Si Si3 0.660239 0.452230 0.309779
Si Si4 0.164664 0.101560 0.318692
Si Si5 0.662270 0.638275 0.183897
Si Si6 0.843763 0.805909 0.814036
O O1 0.775003 0.072523 0.832264
O O2 0.000000 0.055105 0.000000
O O3 0.785585 0.000000 0.000000
O O4 0.677331 0.256633 0.500000
O O5 0.500000 0.268145 0.257249
O O6 0.718569 0.320325 0.289104
O O7 0.745654 0.236212 0.206527
O O8 0.676739 0.446141 0.500000
O O9 0.500000 0.453808 0.258630
O O10 0.726974 0.500000 0.255667
O O11 0.733435 0.409173 0.228222
O O12 0.218028 0.086414 0.500000
O O13 0.209233 0.152758 0.293437
O O14 0.000000 0.097590 0.314027
O O15 0.500000 0.632926 0.219563
O O16 0.696044 0.650228 0.000000
O O17 0.000000 0.792378 0.763036
O O18 0.840316 0.821779 0.000000
#
# Coordination Sequence:
#
# PCOD8195668 Si02
#       6
#     4   8   8   8   8   8
#     4   9  16  26  40  62  93 125 159 197 236 283
#     4  10  20  32  46  66  93 124 158 196 237 283
#     4   8  13  21  33  49  71 102 139 176 216 267
#     4   9  16  27  43  63  90 124 159 195 237 283
#     4   9  16  25  37  54  79 111 144 181 228 276
#     4  10  19  32  50  70  94 125 161 199 238 283
#
# _framework density 18.40765
#
# number of rings (size 3 to 8) (size 9 to 14) (size 15 to 20)
#    0.000    2.818    0.909    2.182    0.000    5.091 
#    0.000    3.636    0.000    0.000    0.000    0.000 
#    0.000    2.182    0.000   11.455    0.000   14.182 
#
# Total GULP energy -545150.157749 kJ/mol
# GULP energy per Si atom -12389.776312 kJ/mol
# Density = 1.836575 g / cm^3
# Si number density = 18.407650 Si / 1000 Ang^3
#
#
#
# Elastic Constant Matrix: (Units=GPa)
#
#
# Indices 1 2 3 4 5 6 
#
# 1 19.4192 25.2801 10.9848 0.0000 0.0000 0.0000
# 2 25.2801 136.2357 60.5341 0.0000 0.0000 0.0000
# 3 10.9848 60.5341 91.1807 0.0000 0.0000 0.0000
# 4 0.0000 0.0000 0.0000 33.0705 0.0000 0.0000
# 5 0.0000 0.0000 0.0000 0.0000 11.6296 0.0000
# 6 0.0000 0.0000 0.0000 0.0000 0.0000 17.3125
#
#
#
# Elastic Compliance Matrix: (Units=1/GPa)
#
#
# Indices 1 2 3 4 5 6 
#
# 1 0.067901 -0.012716 0.000262 0.000000 0.000000 0.000000
# 2 -0.012716 0.012793 -0.006961 0.000000 0.000000 0.000000
# 3 0.000262 -0.006961 0.015557 0.000000 0.000000 0.000000
# 4 0.000000 0.000000 0.000000 0.030238 0.000000 0.000000
# 5 0.000000 0.000000 0.000000 0.000000 0.085987 0.000000
# 6 0.000000 0.000000 0.000000 0.000000 0.000000 0.057762
#
#
# Mechanical properties :
#
#
# Convention : Reuss Voigt Hill
#
# Bulk Modulus (GPa) = 17.41543 48.93708 33.17625
# Shear Modulus (GPa) = 15.23416 22.40496 18.81956
#
# Velocity S-wave (km/s) = 2.87992 3.49256 3.20093
# Velocity P-wave (km/s) = 4.53212 6.55033 5.63236
#
# Compressibility (1/GPa) = 0.05742034
#
# Stress axis : x y z
#
# Youngs Moduli (GPa) = 14.72729 78.16812 64.27919
#
# Poissons Ratio (x) = 0.99400 -0.01684
# Poissons Ratio (y) = 0.18728 0.44746
# Poissons Ratio (z) = -0.00386 0.54414
#
# Static dielectric constant tensor:
#      x y z
#    x 2.621650 0.000000 0.000000 
#    y 0.000000 3.625920 0.000000 
#    z 0.000000 0.000000 3.504970 
# 
# 
# High freq. dielectric constant tensor:
#      x y z
#    x 1.615100 0.000000 0.000000 
#    y 0.000000 1.731050 0.000000 
#    z 0.000000 0.000000 1.725300 
# 
# From -- ./inp_files/2247.got.cif
#   From: 2010.03.12/outbox.cif.g09.slc.cpg/sg47_2_cif.got.tgz:2247.got - 2010.04.14 03:12:58.
