data_PCOD8195095
_publ_section_title
;
Structure prediction by ZEFSAII (Michael W. Deem and Ramdas Pophale) SiO2 
 PCOD8195095
Probable space group: P M M M
;
_chemical_formula_sum "Si O2"
_cell_formula_units_Z 48
_cell_length_a 20.881893
_cell_length_b 14.101238
_cell_length_c 9.458600
_cell_angle_alpha 90.000000
_cell_angle_beta 90.000000
_cell_angle_gamma 90.000000
_cell_volume 2785.184493
_symmetry_space_group_name_H-M "P M M M"
_symmetry_group_IT_number 47
_symmetry_cell_setting 'orthorhombic'
loop_
_space_group_symop_operation_xyz
x,y,z
-x,-y,z
x,-y,-z
-x,y,-z
-x,-y,-z
x,y,-z
-x,y,z
x,-y,z
loop_
_atom_site_type_symbol
_atom_site_label
_atom_site_fract_x
_atom_site_fract_y
_atom_site_fract_z
Si Si1 0.688312 0.394529 0.837494
Si Si2 0.629887 0.798536 0.165095
Si Si3 0.126832 0.205098 0.665814
Si Si4 0.185495 0.605071 0.664182
Si Si5 0.256200 0.888336 0.661796
Si Si6 0.500000 0.107677 0.167951
Si Si7 0.000000 0.108271 0.331107
O O1 0.661766 0.500000 0.799147
O O2 0.634233 0.315118 0.807382
O O3 0.750205 0.368960 0.746431
O O4 0.709985 0.390889 0.000000
O O5 0.685295 0.853198 0.245385
O O6 0.562176 0.836167 0.224200
O O7 0.637108 0.822263 0.000000
O O8 0.123910 0.185826 0.500000
O O9 0.130792 0.317757 0.700956
O O10 0.190413 0.154332 0.725286
O O11 0.062537 0.160943 0.733238
O O12 0.203606 0.610818 0.500000
O O13 0.160117 0.500000 0.705120
O O14 0.266590 0.855004 0.500000
O O15 0.251171 0.000000 0.672715
O O16 0.500000 0.000000 0.227141
O O17 0.500000 0.106485 0.000000
O O18 0.000000 0.113654 0.500000
O O19 0.000000 0.000000 0.278880
#
# Coordination Sequence:
#
# PCOD8195095 Si02
#       7
#     8   8   8   8   8   4   4
#     4   9  17  29  46  70  96 119 149 191 234 274
#     4  10  19  32  50  70  92 122 158 191 229 277
#     4   9  16  27  42  64  93 122 155 191 228 273
#     4   9  16  27  45  68  93 121 151 186 234 283
#     4  10  19  30  46  69  95 120 152 198 240 271
#     4   9  18  32  48  66  92 125 157 189 228 277
#     4   9  16  26  41  61  90 129 161 185 226 282
#
# _framework density 17.234045999999999
#
# number of rings (size 3 to 8) (size 9 to 14) (size 15 to 20)
#    0.000    2.667    1.667    1.000    0.000    3.000 
#    0.000    1.250    0.000    6.500    0.000    2.333 
#    0.000   10.667    0.000    0.000    0.000    0.000 
#
# Total GULP energy -594968.829562 kJ/mol
# GULP energy per Si atom -12395.183949 kJ/mol
# Density = 1.719482 g / cm^3
# Si number density = 17.234046 Si / 1000 Ang^3
#
#
#
# Elastic Constant Matrix: (Units=GPa)
#
#
# Indices 1 2 3 4 5 6 
#
# 1 153.2433 85.1842 27.4532 0.0000 0.0000 0.0000
# 2 85.1842 139.9543 24.6098 0.0000 0.0000 0.0000
# 3 27.4532 24.6098 25.0912 0.0000 0.0000 0.0000
# 4 0.0000 0.0000 0.0000 18.1447 0.0000 0.0000
# 5 0.0000 0.0000 0.0000 0.0000 77.3907 0.0000
# 6 0.0000 0.0000 0.0000 0.0000 0.0000 32.8089
#
#
#
# Elastic Compliance Matrix: (Units=1/GPa)
#
#
# Indices 1 2 3 4 5 6 
#
# 1 0.010649 -0.005357 -0.006398 0.000000 0.000000 0.000000
# 2 -0.005357 0.011329 -0.005250 0.000000 0.000000 0.000000
# 3 -0.006398 -0.005250 0.052004 0.000000 0.000000 0.000000
# 4 0.000000 0.000000 0.000000 0.055112 0.000000 0.000000
# 5 0.000000 0.000000 0.000000 0.000000 0.012921 0.000000
# 6 0.000000 0.000000 0.000000 0.000000 0.000000 0.030480
#
#
# Mechanical properties :
#
#
# Convention : Reuss Voigt Hill
#
# Bulk Modulus (GPa) = 25.01722 65.86479 45.44101
# Shear Modulus (GPa) = 22.74476 37.73831 30.24154
#
# Velocity S-wave (km/s) = 3.63679 4.68456 4.19352
# Velocity P-wave (km/s) = 5.67297 8.21954 7.06199
#
# Compressibility (1/GPa) = 0.03997247
#
# Stress axis : x y z
#
# Youngs Moduli (GPa) = 93.90114 88.26951 19.22914
#
# Poissons Ratio (x) = 0.47285 0.12303
# Poissons Ratio (y) = 0.50302 0.10096
# Poissons Ratio (z) = 0.60077 0.46345
#
# Static dielectric constant tensor:
#      x y z
#    x 3.265130 0.000000 0.000000 
#    y 0.000000 3.609670 0.000000 
#    z 0.000000 0.000000 2.921290 
# 
# 
# High freq. dielectric constant tensor:
#      x y z
#    x 1.647540 0.000000 0.000000 
#    y 0.000000 1.688860 0.000000 
#    z 0.000000 0.000000 1.624370 
# 
# From -- ./inp_files/9141.got.cif
#   From: 2010.03.12/outbox.cif.g09.slc.cpg/sg47_5_cif.got.tgz:9141.got - 2010.04.14 03:12:58.
