data_PCOD8195390
_publ_section_title
;
Structure prediction by ZEFSAII (Michael W. Deem and Ramdas Pophale) SiO2 
 PCOD8195390
Probable space group: P M M M
;
_chemical_formula_sum "Si O2"
_cell_formula_units_Z 44
_cell_length_a 13.594400
_cell_length_b 8.915595
_cell_length_c 19.103296
_cell_angle_alpha 90.000000
_cell_angle_beta 90.000000
_cell_angle_gamma 90.000000
_cell_volume 2315.360827
_symmetry_space_group_name_H-M "P M M M"
_symmetry_group_IT_number 47
_symmetry_cell_setting 'orthorhombic'
loop_
_space_group_symop_operation_xyz
x,y,z
-x,-y,z
x,-y,-z
-x,y,-z
-x,-y,-z
x,y,-z
-x,y,z
x,-y,z
loop_
_atom_site_type_symbol
_atom_site_label
_atom_site_fract_x
_atom_site_fract_y
_atom_site_fract_z
Si Si1 0.388998 0.673630 0.212483
Si Si2 0.106775 0.677756 0.164840
Si Si3 0.889820 0.322962 0.324000
Si Si4 0.500000 0.178295 0.420480
Si Si5 0.285668 0.323327 0.076921
Si Si6 0.304918 0.176784 0.658934
O O1 0.500000 0.709205 0.232996
O O2 0.361104 0.500000 0.225406
O O3 0.374154 0.714040 0.130472
O O4 0.319301 0.774522 0.260484
O O5 0.116908 0.500000 0.167067
O O6 0.120127 0.734778 0.244158
O O7 0.187119 0.745775 0.111889
O O8 0.000000 0.726654 0.136225
O O9 0.876174 0.500000 0.330255
O O10 0.800141 0.244907 0.367354
O O11 0.000000 0.278704 0.351970
O O12 0.500000 0.235636 0.500000
O O13 0.600725 0.239514 0.384604
O O14 0.500000 0.000000 0.415705
O O15 0.274074 0.500000 0.067576
O O16 0.304577 0.250973 0.000000
O O17 0.298278 0.000000 0.651874
#
# Coordination Sequence:
#
# PCOD8195390 Si02
#       6
#     8   8   8   4   8   8
#     4  10  19  31  48  69  97 133 171 214 262 313
#     4   8  13  22  38  61  89 121 158 203 253 298
#     4   9  17  31  52  77 107 141 175 213 259 308
#     4   9  20  38  57  81 112 141 168 206 259 307
#     4   9  16  25  39  62  92 126 167 215 261 303
#     4  11  20  32  55  82 106 134 171 215 257 309
#
# _framework density 19.003518
#
# number of rings (size 3 to 8) (size 9 to 14) (size 15 to 20)
#    0.000    2.636    2.727    1.636    0.000    1.091 
#    0.000    3.636    0.000    5.455    0.000    5.091 
#    0.000    2.909    0.000    0.000    0.000    0.000 
#
# Total GULP energy -545107.266955 kJ/mol
# GULP energy per Si atom -12388.801522 kJ/mol
# Density = 1.896027 g / cm^3
# Si number density = 19.003518 Si / 1000 Ang^3
#
#
#
# Elastic Constant Matrix: (Units=GPa)
#
#
# Indices 1 2 3 4 5 6 
#
# 1 156.2406 38.2451 46.8625 0.0000 0.0000 0.0000
# 2 38.2451 29.3384 11.2675 0.0000 0.0000 0.0000
# 3 46.8625 11.2675 61.8895 0.0000 0.0000 0.0000
# 4 0.0000 0.0000 0.0000 11.6910 0.0000 0.0000
# 5 0.0000 0.0000 0.0000 0.0000 20.8454 0.0000
# 6 0.0000 0.0000 0.0000 0.0000 0.0000 23.5871
#
#
#
# Elastic Compliance Matrix: (Units=1/GPa)
#
#
# Indices 1 2 3 4 5 6 
#
# 1 0.011312 -0.012318 -0.006323 0.000000 0.000000 0.000000
# 2 -0.012318 0.050061 0.000213 0.000000 0.000000 0.000000
# 3 -0.006323 0.000213 0.020907 0.000000 0.000000 0.000000
# 4 0.000000 0.000000 0.000000 0.085536 0.000000 0.000000
# 5 0.000000 0.000000 0.000000 0.000000 0.047972 0.000000
# 6 0.000000 0.000000 0.000000 0.000000 0.000000 0.042396
#
#
# Mechanical properties :
#
#
# Convention : Reuss Voigt Hill
#
# Bulk Modulus (GPa) = 22.01477 48.91318 35.46398
# Shear Modulus (GPa) = 16.11964 21.29759 18.70861
#
# Velocity S-wave (km/s) = 2.91562 3.35134 3.14105
# Velocity P-wave (km/s) = 4.79001 6.38516 5.64422
#
# Compressibility (1/GPa) = 0.04542405
#
# Stress axis : x y z
#
# Youngs Moduli (GPa) = 88.40108 19.97574 47.83162
#
# Poissons Ratio (x) = 0.24606 0.30243
# Poissons Ratio (y) = 1.08892 -0.01019
# Poissons Ratio (z) = 0.55895 -0.00426
#
# Static dielectric constant tensor:
#      x y z
#    x 3.958510 0.000000 0.000000 
#    y 0.000000 2.913340 0.000000 
#    z 0.000000 0.000000 3.392490 
# 
# 
# High freq. dielectric constant tensor:
#      x y z
#    x 1.763350 0.000000 0.000000 
#    y 0.000000 1.676640 0.000000 
#    z 0.000000 0.000000 1.706220 
# 
# From -- ./inp_files/27868.got.cif
#   From: 2010.03.12/outbox.cif.g09.slc.cpg/sg47_14_cif.got.tgz:27868.got - 2010.04.14 03:12:58.
