data_PCOD8195568
_publ_section_title
;
Structure prediction by ZEFSAII (Michael W. Deem and Ramdas Pophale) SiO2 
 PCOD8195568
Probable space group: P M M M
;
_chemical_formula_sum "Si O2"
_cell_formula_units_Z 56
_cell_length_a 8.861763
_cell_length_b 14.224644
_cell_length_c 22.748749
_cell_angle_alpha 90.000000
_cell_angle_beta 90.000000
_cell_angle_gamma 90.000000
_cell_volume 2867.603198
_symmetry_space_group_name_H-M "P M M M"
_symmetry_group_IT_number 47
_symmetry_cell_setting 'orthorhombic'
loop_
_space_group_symop_operation_xyz
x,y,z
-x,-y,z
x,-y,-z
-x,y,-z
-x,-y,-z
x,y,-z
-x,y,z
x,-y,z
loop_
_atom_site_type_symbol
_atom_site_label
_atom_site_fract_x
_atom_site_fract_y
_atom_site_fract_z
Si Si1 0.822986 0.606998 0.349604
Si Si2 0.826957 0.891306 0.709543
Si Si3 0.680072 0.393607 0.000000
Si Si4 0.322957 0.216066 0.607559
Si Si5 0.678482 0.283666 0.113343
Si Si6 0.177119 0.894791 0.844286
Si Si7 0.672210 0.608511 0.228090
Si Si8 0.821619 0.891637 0.500000
O O1 0.775055 0.500000 0.364597
O O2 0.736010 0.676306 0.394034
O O3 0.778105 0.632429 0.282991
O O4 0.000000 0.621822 0.357169
O O5 0.716228 0.829007 0.670380
O O6 0.778206 0.874974 0.776737
O O7 0.000000 0.859987 0.698936
O O8 0.808175 0.000000 0.692090
O O9 0.742980 0.339706 0.057313
O O10 0.742643 0.500000 0.000000
O O11 0.500000 0.394814 0.000000
O O12 0.500000 0.214921 0.596457
O O13 0.242347 0.156965 0.557575
O O14 0.500000 0.282380 0.110621
O O15 0.738970 0.177230 0.112640
O O16 0.735018 0.334015 0.172650
O O17 0.000000 0.883349 0.852441
O O18 0.227907 0.000000 0.861865
O O19 0.500000 0.636080 0.244135
O O20 0.682031 0.500000 0.210354
O O21 0.000000 0.881421 0.500000
O O22 0.771180 0.000000 0.500000
#
# Coordination Sequence:
#
# PCOD8195568 Si02
#       8
#     8   8   4   8   8   8   8   4
#     4  10  21  37  57  81 110 146 186 224 265 320
#     4   9  18  34  56  81 110 145 182 218 262 321
#     4   9  18  34  54  75 102 136 173 213 260 319
#     4  12  24  37  57  85 116 147 180 224 274 319
#     4  10  19  31  51  77 102 135 178 220 264 314
#     4   9  19  35  53  74 103 139 176 216 265 318
#     4   9  17  30  50  79 112 140 170 215 271 325
#     4  11  25  45  66  85 110 147 187 224 262 311
#
# _framework density 19.528504000000002
#
# number of rings (size 3 to 8) (size 9 to 14) (size 15 to 20)
#    0.000    2.143    0.000    4.500    0.000    8.857 
#    0.000    2.500    0.000    6.000    0.000    0.000 
#    0.000    0.000    0.000    0.000    0.000    0.000 
#
# Total GULP energy -694543.607405 kJ/mol
# GULP energy per Si atom -12402.564418 kJ/mol
# Density = 1.948406 g / cm^3
# Si number density = 19.528504 Si / 1000 Ang^3
#
#
#
# Elastic Constant Matrix: (Units=GPa)
#
#
# Indices 1 2 3 4 5 6 
#
# 1 54.6637 44.2277 33.1888 0.0000 0.0000 0.0000
# 2 44.2277 149.8234 75.9911 0.0000 0.0000 0.0000
# 3 33.1888 75.9911 79.7386 0.0000 0.0000 0.0000
# 4 0.0000 0.0000 0.0000 34.7754 0.0000 0.0000
# 5 0.0000 0.0000 0.0000 0.0000 19.2845 0.0000
# 6 0.0000 0.0000 0.0000 0.0000 0.0000 31.9881
#
#
#
# Elastic Compliance Matrix: (Units=1/GPa)
#
#
# Indices 1 2 3 4 5 6 
#
# 1 0.025774 -0.004195 -0.006730 0.000000 0.000000 0.000000
# 2 -0.004195 0.013602 -0.011217 0.000000 0.000000 0.000000
# 3 -0.006730 -0.011217 0.026032 0.000000 0.000000 0.000000
# 4 0.000000 0.000000 0.000000 0.028756 0.000000 0.000000
# 5 0.000000 0.000000 0.000000 0.000000 0.051855 0.000000
# 6 0.000000 0.000000 0.000000 0.000000 0.000000 0.031262
#
#
# Mechanical properties :
#
#
# Convention : Reuss Voigt Hill
#
# Bulk Modulus (GPa) = 47.33845 65.67122 56.50484
# Shear Modulus (GPa) = 21.87185 25.93082 23.90134
#
# Velocity S-wave (km/s) = 3.35027 3.64791 3.50225
# Velocity P-wave (km/s) = 6.26570 7.17248 6.73437
#
# Compressibility (1/GPa) = 0.02112448
#
# Stress axis : x y z
#
# Youngs Moduli (GPa) = 38.79921 73.51813 38.41489
#
# Poissons Ratio (x) = 0.30841 0.25852
# Poissons Ratio (y) = 0.16277 0.43089
# Poissons Ratio (z) = 0.26110 0.82463
#
# Static dielectric constant tensor:
#      x y z
#    x 3.334600 0.000000 0.000000 
#    y 0.000000 3.816400 0.000000 
#    z 0.000000 0.000000 3.523830 
# 
# 
# High freq. dielectric constant tensor:
#      x y z
#    x 1.744900 0.000000 0.000000 
#    y 0.000000 1.778690 0.000000 
#    z 0.000000 0.000000 1.742530 
# 
# From -- ./inp_files/11342.got.cif
#   From: 2010.03.12/outbox.cif.g09.slc.cpg/sg47_6_cif.got.tgz:11342.got - 2010.04.14 03:12:58.
