data_PCOD8195934
_publ_section_title
;
Structure prediction by ZEFSAII (Michael W. Deem and Ramdas Pophale) SiO2 
 PCOD8195934
Probable space group: P M M M
;
_chemical_formula_sum "Si O2"
_cell_formula_units_Z 52
_cell_length_a 21.651603
_cell_length_b 14.713806
_cell_length_c 8.906362
_cell_angle_alpha 90.000000
_cell_angle_beta 90.000000
_cell_angle_gamma 90.000000
_cell_volume 2837.366417
_symmetry_space_group_name_H-M "P M M M"
_symmetry_group_IT_number 47
_symmetry_cell_setting 'orthorhombic'
loop_
_space_group_symop_operation_xyz
x,y,z
-x,-y,z
x,-y,-z
-x,y,-z
-x,-y,-z
x,y,-z
-x,y,z
x,-y,z
loop_
_atom_site_type_symbol
_atom_site_label
_atom_site_fract_x
_atom_site_fract_y
_atom_site_fract_z
Si Si1 0.070795 0.602314 0.676911
Si Si2 0.115127 0.220099 0.177192
Si Si3 0.427801 0.000000 0.833401
Si Si4 0.766678 0.104921 0.826301
Si Si5 0.359635 0.842738 0.322666
Si Si6 0.428707 0.683028 0.177173
Si Si7 0.427557 0.500000 0.666818
Si Si8 0.000000 0.103040 0.178826
O O1 0.077238 0.613364 0.500000
O O2 0.091875 0.500000 0.724576
O O3 0.113308 0.678450 0.754579
O O4 0.000000 0.617389 0.727373
O O5 0.177903 0.170151 0.225475
O O6 0.059584 0.157398 0.238968
O O7 0.110224 0.229982 0.000000
O O8 0.408730 0.912487 0.742030
O O9 0.500000 0.000000 0.852841
O O10 0.396850 0.000000 0.000000
O O11 0.708829 0.130532 0.725179
O O12 0.785650 0.000000 0.799410
O O13 0.749949 0.121138 0.000000
O O14 0.363641 0.842129 0.500000
O O15 0.379772 0.746696 0.258342
O O16 0.500000 0.704907 0.221302
O O17 0.407249 0.585420 0.235016
O O18 0.420122 0.689585 0.000000
O O19 0.500000 0.500000 0.644881
O O20 0.396756 0.500000 0.500000
O O21 0.000000 0.000000 0.243315
O O22 0.000000 0.098662 0.000000
#
# Coordination Sequence:
#
# PCOD8195934 Si02
#       8
#     8   8   4   8   8   8   4   4
#     4   9  18  33  53  78 111 150 184 219 276 341
#     4  10  19  32  55  85 110 140 184 231 274 322
#     4  11  23  39  59  83 113 148 185 230 283 339
#     4  10  21  38  58  78 107 149 189 224 274 340
#     4  12  24  37  56  82 112 146 188 236 281 329
#     4  10  20  35  57  84 113 147 184 223 275 337
#     4   9  17  31  53  83 117 147 179 224 275 328
#     4   9  16  28  48  79 116 142 173 223 274 321
#
# _framework density 18.326855999999999
#
# number of rings (size 3 to 8) (size 9 to 14) (size 15 to 20)
#    0.000    1.923    1.538    3.692    0.000    7.077 
#    0.000    0.769    1.692    1.846    0.000    0.000 
#    0.000    0.000    0.000    0.000    0.000    0.000 
#
# Total GULP energy -644783.369667 kJ/mol
# GULP energy per Si atom -12399.680186 kJ/mol
# Density = 1.828514 g / cm^3
# Si number density = 18.326856 Si / 1000 Ang^3
#
#
#
# Elastic Constant Matrix: (Units=GPa)
#
#
# Indices 1 2 3 4 5 6 
#
# 1 71.3113 51.6421 34.9080 0.0000 0.0000 0.0000
# 2 51.6421 153.9141 50.1688 0.0000 0.0000 0.0000
# 3 34.9080 50.1688 90.2820 0.0000 0.0000 0.0000
# 4 0.0000 0.0000 0.0000 31.9359 0.0000 0.0000
# 5 0.0000 0.0000 0.0000 0.0000 16.2255 0.0000
# 6 0.0000 0.0000 0.0000 0.0000 0.0000 59.5375
#
#
#
# Elastic Compliance Matrix: (Units=1/GPa)
#
#
# Indices 1 2 3 4 5 6 
#
# 1 0.020176 -0.005162 -0.004933 0.000000 0.000000 0.000000
# 2 -0.005162 0.009255 -0.003147 0.000000 0.000000 0.000000
# 3 -0.004933 -0.003147 0.014732 0.000000 0.000000 0.000000
# 4 0.000000 0.000000 0.000000 0.031313 0.000000 0.000000
# 5 0.000000 0.000000 0.000000 0.000000 0.061631 0.000000
# 6 0.000000 0.000000 0.000000 0.000000 0.000000 0.016796
#
#
# Mechanical properties :
#
#
# Convention : Reuss Voigt Hill
#
# Bulk Modulus (GPa) = 56.56081 65.43834 60.99958
# Shear Modulus (GPa) = 26.84147 33.45902 30.15024
#
# Velocity S-wave (km/s) = 3.83116 4.27744 4.06043
# Velocity P-wave (km/s) = 7.10631 7.75752 7.43904
#
# Compressibility (1/GPa) = 0.01768009
#
# Stress axis : x y z
#
# Youngs Moduli (GPa) = 49.56486 108.05254 67.87739
#
# Poissons Ratio (x) = 0.55772 0.33482
# Poissons Ratio (y) = 0.25583 0.21361
# Poissons Ratio (z) = 0.24449 0.34004
#
# Static dielectric constant tensor:
#      x y z
#    x 3.226680 0.000000 0.000000 
#    y 0.000000 3.625490 0.000000 
#    z 0.000000 0.000000 3.332890 
# 
# 
# High freq. dielectric constant tensor:
#      x y z
#    x 1.689360 0.000000 0.000000 
#    y 0.000000 1.725690 0.000000 
#    z 0.000000 0.000000 1.704870 
# 
# From -- ./inp_files/11159.got.cif
#   From: 2010.03.12/outbox.cif.g09.slc.cpg/sg47_6_cif.got.tgz:11159.got - 2010.04.14 03:12:58.
