data_PCOD8195413
_publ_section_title
;
Structure prediction by ZEFSAII (Michael W. Deem and Ramdas Pophale) SiO2 
 PCOD8195413
Probable space group: P M M M
;
_chemical_formula_sum "Si O2"
_cell_formula_units_Z 52
_cell_length_a 26.214269
_cell_length_b 12.480570
_cell_length_c 8.895412
_cell_angle_alpha 90.000000
_cell_angle_beta 90.000000
_cell_angle_gamma 90.000000
_cell_volume 2910.303220
_symmetry_space_group_name_H-M "P M M M"
_symmetry_group_IT_number 47
_symmetry_cell_setting 'orthorhombic'
loop_
_space_group_symop_operation_xyz
x,y,z
-x,-y,z
x,-y,-z
-x,y,-z
-x,-y,-z
x,y,-z
-x,y,z
x,-y,z
loop_
_atom_site_type_symbol
_atom_site_label
_atom_site_fract_x
_atom_site_fract_y
_atom_site_fract_z
Si Si1 0.058863 0.205907 0.175433
Si Si2 0.769220 0.000000 0.676678
Si Si3 0.124262 0.623651 0.674273
Si Si4 0.297052 0.203128 0.677661
Si Si5 0.500000 0.872691 0.330349
Si Si6 0.602850 0.124072 0.177010
Si Si7 0.879067 0.000000 0.177743
Si Si8 0.229308 0.374844 0.825489
O O1 0.076032 0.309926 0.267796
O O2 0.000000 0.183057 0.209765
O O3 0.090748 0.104351 0.234391
O O4 0.068183 0.227433 0.000000
O O5 0.738193 0.895736 0.729127
O O6 0.822944 0.000000 0.757264
O O7 0.778643 0.000000 0.500000
O O8 0.134603 0.646615 0.500000
O O9 0.111519 0.500000 0.704507
O O10 0.174136 0.660799 0.765110
O O11 0.303936 0.205651 0.500000
O O12 0.352097 0.193384 0.752665
O O13 0.272687 0.313238 0.734361
O O14 0.500000 0.828131 0.500000
O O15 0.449886 0.830757 0.244682
O O16 0.500000 0.000000 0.328231
O O17 0.610959 0.000000 0.221101
O O18 0.601504 0.140473 0.000000
O O19 0.875955 0.000000 0.000000
O O20 0.238359 0.500000 0.796598
O O21 0.232447 0.344550 0.000000
#
# Coordination Sequence:
#
# PCOD8195413 Si02
#       8
#     8   4   8   8   4   8   4   8
#     4  10  21  37  56  77 101 131 168 209 253 303
#     4  10  22  35  49  74 107 138 168 207 255 307
#     4  10  21  37  56  78 104 132 164 206 258 312
#     4  11  21  34  52  76 109 143 177 217 263 313
#     4   9  17  29  47  69 100 143 184 223 269 316
#     4  10  19  31  48  73 106 143 184 224 264 312
#     4  10  21  36  54  74  99 133 170 207 248 299
#     4  10  21  37  56  78 104 135 174 217 261 311
#
# _framework density 17.867554999999999
#
# number of rings (size 3 to 8) (size 9 to 14) (size 15 to 20)
#    0.000    1.923    0.769    3.231    0.000    9.231 
#    0.000    1.538    0.000    1.385    0.000    0.538 
#    0.000    4.308    0.000    0.000    0.000    0.000 
#
# Total GULP energy -645079.558597 kJ/mol
# GULP energy per Si atom -12405.376127 kJ/mol
# Density = 1.782689 g / cm^3
# Si number density = 17.867555 Si / 1000 Ang^3
#
#
#
# Elastic Constant Matrix: (Units=GPa)
#
#
# Indices 1 2 3 4 5 6 
#
# 1 124.9794 45.0292 40.5626 0.0000 0.0000 0.0000
# 2 45.0292 65.5042 31.5221 0.0000 0.0000 0.0000
# 3 40.5626 31.5221 68.5429 0.0000 0.0000 0.0000
# 4 0.0000 0.0000 0.0000 25.1075 0.0000 0.0000
# 5 0.0000 0.0000 0.0000 0.0000 20.3881 0.0000
# 6 0.0000 0.0000 0.0000 0.0000 0.0000 14.7513
#
#
#
# Elastic Compliance Matrix: (Units=1/GPa)
#
#
# Indices 1 2 3 4 5 6 
#
# 1 0.011450 -0.005920 -0.004053 0.000000 0.000000 0.000000
# 2 -0.005920 0.022666 -0.006920 0.000000 0.000000 0.000000
# 3 -0.004053 -0.006920 0.020171 0.000000 0.000000 0.000000
# 4 0.000000 0.000000 0.000000 0.039829 0.000000 0.000000
# 5 0.000000 0.000000 0.000000 0.000000 0.049048 0.000000
# 6 0.000000 0.000000 0.000000 0.000000 0.000000 0.067791
#
#
# Mechanical properties :
#
#
# Convention : Reuss Voigt Hill
#
# Bulk Modulus (GPa) = 48.78307 54.80602 51.79454
# Shear Modulus (GPa) = 19.87478 21.51022 20.69250
#
# Velocity S-wave (km/s) = 3.33879 3.47345 3.40679
# Velocity P-wave (km/s) = 6.49810 6.84299 6.67277
#
# Compressibility (1/GPa) = 0.02049892
#
# Stress axis : x y z
#
# Youngs Moduli (GPa) = 87.33726 44.11845 49.57727
#
# Poissons Ratio (x) = 0.26120 0.20094
# Poissons Ratio (y) = 0.51708 0.34309
# Poissons Ratio (z) = 0.35399 0.30531
#
# Static dielectric constant tensor:
#      x y z
#    x 3.337000 0.000000 0.000000 
#    y 0.000000 3.181000 0.000000 
#    z 0.000000 0.000000 3.344460 
# 
# 
# High freq. dielectric constant tensor:
#      x y z
#    x 1.696410 0.000000 0.000000 
#    y 0.000000 1.671310 0.000000 
#    z 0.000000 0.000000 1.701180 
# 
# From -- ./inp_files/13348.got.cif
#   From: 2010.03.12/outbox.cif.g09.slc.cpg/sg47_7_cif.got.tgz:13348.got - 2010.04.14 03:12:58.
