data_PCOD8195569
_publ_section_title
;
Structure prediction by ZEFSAII (Michael W. Deem and Ramdas Pophale) SiO2 
 PCOD8195569
Probable space group: P M M M
;
_chemical_formula_sum "Si O2"
_cell_formula_units_Z 64
_cell_length_a 23.087222
_cell_length_b 9.255003
_cell_length_c 15.706200
_cell_angle_alpha 90.000000
_cell_angle_beta 90.000000
_cell_angle_gamma 90.000000
_cell_volume 3355.980018
_symmetry_space_group_name_H-M "P M M M"
_symmetry_group_IT_number 47
_symmetry_cell_setting 'orthorhombic'
loop_
_space_group_symop_operation_xyz
x,y,z
-x,-y,z
x,-y,-z
-x,y,-z
-x,-y,-z
x,y,-z
-x,y,z
x,-y,z
loop_
_atom_site_type_symbol
_atom_site_label
_atom_site_fract_x
_atom_site_fract_y
_atom_site_fract_z
Si Si1 0.259793 0.155480 0.097416
Si Si2 0.935031 0.833466 0.249457
Si Si3 0.830521 0.665111 0.820870
Si Si4 0.386689 0.828853 0.902172
Si Si5 0.433975 0.333890 0.254735
Si Si6 0.225620 0.664962 0.641687
Si Si7 0.350450 0.672292 0.595867
Si Si8 0.102916 0.332904 0.593864
O O1 0.206973 0.267400 0.103752
O O2 0.321773 0.213992 0.130286
O O3 0.244003 0.000000 0.140994
O O4 0.271460 0.124654 0.000000
O O5 0.891049 0.748998 0.188332
O O6 0.935008 0.763766 0.343404
O O7 0.000000 0.819236 0.212305
O O8 0.916114 0.000000 0.255651
O O9 0.845610 0.500000 0.840679
O O10 0.787944 0.684799 0.741002
O O11 0.428034 0.750645 0.834531
O O12 0.396253 0.000000 0.896388
O O13 0.399309 0.777095 0.000000
O O14 0.500000 0.319384 0.285467
O O15 0.417045 0.500000 0.237437
O O16 0.394948 0.269299 0.332353
O O17 0.232690 0.500000 0.615218
O O18 0.286345 0.739673 0.616360
O O19 0.169324 0.725631 0.591807
O O20 0.368541 0.721834 0.500000
O O21 0.349453 0.500000 0.600664
O O22 0.075731 0.320726 0.500000
O O23 0.102294 0.500000 0.626593
#
# Coordination Sequence:
#
# PCOD8195569 Si02
#       8
#     8   8   8   8   8   8   8   8
#     4   9  18  33  53  78 107 133 156 189 239 299
#     4  10  21  35  49  66  92 130 174 214 250 290
#     4  10  19  31  51  77 103 131 163 202 248 299
#     4   9  19  36  57  80 105 135 170 206 250 311
#     4  10  21  34  48  72 105 137 174 222 269 309
#     4   8  14  25  43  69  96 121 155 200 251 303
#     4   9  16  27  46  70  97 132 172 214 259 307
#     4   9  17  29  46  69  96 123 155 204 263 315
#
# _framework density 19.070436000000001
#
# number of rings (size 3 to 8) (size 9 to 14) (size 15 to 20)
#    0.000    2.750    0.000    3.375    0.000    5.750 
#    0.000    5.000    0.000    0.750    0.000    3.500 
#    0.000    0.000    0.000    0.000    0.000    0.000 
#
# Total GULP energy -793034.445483 kJ/mol
# GULP energy per Si atom -12391.163211 kJ/mol
# Density = 1.902703 g / cm^3
# Si number density = 19.070436 Si / 1000 Ang^3
#
#
#
# Elastic Constant Matrix: (Units=GPa)
#
#
# Indices 1 2 3 4 5 6 
#
# 1 94.3775 34.1106 28.8850 0.0000 0.0000 0.0000
# 2 34.1106 68.6699 16.5838 0.0000 0.0000 0.0000
# 3 28.8850 16.5838 58.6806 0.0000 0.0000 0.0000
# 4 0.0000 0.0000 0.0000 20.5036 0.0000 0.0000
# 5 0.0000 0.0000 0.0000 0.0000 13.2057 0.0000
# 6 0.0000 0.0000 0.0000 0.0000 0.0000 24.1693
#
#
#
# Elastic Compliance Matrix: (Units=1/GPa)
#
#
# Indices 1 2 3 4 5 6 
#
# 1 0.014360 -0.005824 -0.005423 0.000000 0.000000 0.000000
# 2 -0.005824 0.017991 -0.002218 0.000000 0.000000 0.000000
# 3 -0.005423 -0.002218 0.020338 0.000000 0.000000 0.000000
# 4 0.000000 0.000000 0.000000 0.048772 0.000000 0.000000
# 5 0.000000 0.000000 0.000000 0.000000 0.075725 0.000000
# 6 0.000000 0.000000 0.000000 0.000000 0.000000 0.041375
#
#
# Mechanical properties :
#
#
# Convention : Reuss Voigt Hill
#
# Bulk Modulus (GPa) = 38.81981 42.32076 40.57028
# Shear Modulus (GPa) = 19.67921 21.05230 20.36575
#
# Velocity S-wave (km/s) = 3.21584 3.32614 3.27145
# Velocity P-wave (km/s) = 5.84714 6.08202 5.96573
#
# Compressibility (1/GPa) = 0.02576004
#
# Stress axis : x y z
#
# Youngs Moduli (GPa) = 69.63655 55.58403 49.17014
#
# Poissons Ratio (x) = 0.32370 0.26664
# Poissons Ratio (y) = 0.40553 0.10905
# Poissons Ratio (z) = 0.37763 0.12327
#
# Static dielectric constant tensor:
#      x y z
#    x 3.525420 0.000000 0.000000 
#    y 0.000000 3.216780 0.000000 
#    z 0.000000 0.000000 3.357210 
# 
# 
# High freq. dielectric constant tensor:
#      x y z
#    x 1.744430 0.000000 0.000000 
#    y 0.000000 1.708480 0.000000 
#    z 0.000000 0.000000 1.726150 
# 
# From -- ./inp_files/28793.got.cif
#   From: 2010.03.12/outbox.cif.g09.slc.cpg/sg47_15_cif.got.tgz:28793.got - 2010.04.14 03:12:58.
