data_PCOD8195615
_publ_section_title
;
Structure prediction by ZEFSAII (Michael W. Deem and Ramdas Pophale) SiO2 
 PCOD8195615
Probable space group: P M M M
;
_chemical_formula_sum "Si O2"
_cell_formula_units_Z 40
_cell_length_a 9.491992
_cell_length_b 15.262101
_cell_length_c 19.434839
_cell_angle_alpha 90.000000
_cell_angle_beta 90.000000
_cell_angle_gamma 90.000000
_cell_volume 2815.481215
_symmetry_space_group_name_H-M "P M M M"
_symmetry_group_IT_number 47
_symmetry_cell_setting 'orthorhombic'
loop_
_space_group_symop_operation_xyz
x,y,z
-x,-y,z
x,-y,-z
-x,y,-z
-x,-y,-z
x,y,-z
-x,y,z
x,-y,z
loop_
_atom_site_type_symbol
_atom_site_label
_atom_site_fract_x
_atom_site_fract_y
_atom_site_fract_z
Si Si1 0.661698 0.100719 0.700638
Si Si2 0.336462 0.846085 0.148979
Si Si3 0.661942 0.336071 0.079773
Si Si4 0.159052 0.104168 0.424521
Si Si5 0.159561 0.500000 0.918155
Si Si6 0.836778 0.000000 0.081340
O O1 0.500000 0.108299 0.679799
O O2 0.696183 0.153761 0.769796
O O3 0.746845 0.143256 0.637003
O O4 0.704660 0.000000 0.714243
O O5 0.500000 0.870816 0.135023
O O6 0.299249 0.750067 0.122216
O O7 0.237888 0.914009 0.110113
O O8 0.500000 0.363804 0.090637
O O9 0.759763 0.413831 0.108702
O O10 0.692723 0.316444 0.000000
O O11 0.211175 0.137113 0.500000
O O12 0.000000 0.135688 0.412147
O O13 0.168855 0.000000 0.422893
O O14 0.000000 0.500000 0.889834
O O15 0.162659 0.500000 0.000000
O O16 0.000000 0.000000 0.104107
O O17 0.821303 0.000000 0.000000
#
# Coordination Sequence:
#
# PCOD8195615 Si02
#       6
#     8   8   8   8   4   4
#     4   9  16  26  39  56  78 103 134 170 204 238
#     4  10  19  32  46  60  80 109 142 174 208 246
#     4   9  17  29  46  64  79 101 136 172 205 247
#     4   8  14  24  37  53  73  99 132 166 199 237
#     4   9  17  29  45  63  83 103 122 159 214 259
#     4  11  23  33  41  57  80 107 142 181 213 242
#
# _framework density 14.207163
#
# number of rings (size 3 to 8) (size 9 to 14) (size 15 to 20)
#    0.000    2.800    1.000    1.800    0.000    4.800 
#    0.000    4.000    0.000    0.000    0.000    0.000 
#    0.000    0.000    0.000    0.900    0.000   18.800 
#
# Total GULP energy -495897.008729 kJ/mol
# GULP energy per Si atom -12397.425218 kJ/mol
# Density = 1.417483 g / cm^3
# Si number density = 14.207163 Si / 1000 Ang^3
#
#
#
# Elastic Constant Matrix: (Units=GPa)
#
#
# Indices 1 2 3 4 5 6 
#
# 1 89.0073 55.6468 57.0518 0.0000 0.0000 0.0000
# 2 55.6468 82.5331 48.5274 0.0000 0.0000 0.0000
# 3 57.0518 48.5274 96.6148 0.0000 0.0000 0.0000
# 4 0.0000 0.0000 0.0000 -5.6934 0.0000 0.0000
# 5 0.0000 0.0000 0.0000 0.0000 23.6343 0.0000
# 6 0.0000 0.0000 0.0000 0.0000 0.0000 12.4441
#
#
#
# Elastic Compliance Matrix: (Units=1/GPa)
#
#
# Indices 1 2 3 4 5 6 
#
# 1 0.023369 -0.010845 -0.008352 0.000000 0.000000 0.000000
# 2 -0.010845 0.022228 -0.004760 0.000000 0.000000 0.000000
# 3 -0.008352 -0.004760 0.017673 0.000000 0.000000 0.000000
# 4 0.000000 0.000000 0.000000 -0.175641 0.000000 0.000000
# 5 0.000000 0.000000 0.000000 0.000000 0.042311 0.000000
# 6 0.000000 0.000000 0.000000 0.000000 0.000000 0.080359
#
#
# Mechanical properties :
#
#
# Convention : Reuss Voigt Hill
#
# Bulk Modulus (GPa) = 65.12746 65.62303 65.37524
# Shear Modulus (GPa) = 78.94798 13.20562 46.07680
#
# Velocity S-wave (km/s) = 7.46256 3.05208 5.70110
# Velocity P-wave (km/s) = 10.96329 7.66229 9.45792
#
# Compressibility (1/GPa) = 0.01535451
#
# Stress axis : x y z
#
# Youngs Moduli (GPa) = 42.79151 44.98929 56.58247
#
# Poissons Ratio (x) = 0.48793 0.47259
# Poissons Ratio (y) = 0.46409 0.26934
# Poissons Ratio (z) = 0.35741 0.21415
#
# Static dielectric constant tensor:
#      x y z
#    x 2.915940 0.000000 0.000000 
#    y 0.000000 2.556250 0.000000 
#    z 0.000000 0.000000 2.903170 
# 
# 
# High freq. dielectric constant tensor:
#      x y z
#    x 1.548860 0.000000 0.000000 
#    y 0.000000 1.501300 0.000000 
#    z 0.000000 0.000000 1.532920 
# 
# From -- ./inp_files/6653.got.cif
#   From: 2010.03.12/outbox.cif.g09.slc.cpg/sg47_4_cif.got.tgz:6653.got - 2010.04.14 03:12:58.
