data_PCOD8195726
_publ_section_title
;
Structure prediction by ZEFSAII (Michael W. Deem and Ramdas Pophale) SiO2 
 PCOD8195726
Probable space group: P M M M
;
_chemical_formula_sum "Si O2"
_cell_formula_units_Z 64
_cell_length_a 8.946252
_cell_length_b 19.616789
_cell_length_c 20.979864
_cell_angle_alpha 90.000000
_cell_angle_beta 90.000000
_cell_angle_gamma 90.000000
_cell_volume 3681.897692
_symmetry_space_group_name_H-M "P M M M"
_symmetry_group_IT_number 47
_symmetry_cell_setting 'orthorhombic'
loop_
_space_group_symop_operation_xyz
x,y,z
-x,-y,z
x,-y,-z
-x,y,-z
-x,-y,-z
x,y,-z
-x,y,z
x,-y,z
loop_
_atom_site_type_symbol
_atom_site_label
_atom_site_fract_x
_atom_site_fract_y
_atom_site_fract_z
Si Si1 0.677570 0.294316 0.190979
Si Si2 0.676845 0.074434 0.128229
Si Si3 0.171964 0.075173 0.260946
Si Si4 0.826237 0.782209 0.691534
Si Si5 0.175180 0.577137 0.236095
Si Si6 0.172712 0.697199 0.570853
Si Si7 0.322213 0.788739 0.069860
Si Si8 0.672449 0.577081 0.630394
O O1 0.500000 0.295526 0.193386
O O2 0.734949 0.253593 0.252324
O O3 0.740108 0.371276 0.189171
O O4 0.738344 0.259993 0.125824
O O5 0.500000 0.075402 0.130448
O O6 0.730527 0.089841 0.199165
O O7 0.735605 0.133897 0.081803
O O8 0.734619 0.000000 0.104619
O O9 0.206369 0.136262 0.310595
O O10 0.000000 0.077440 0.239713
O O11 0.210157 0.000000 0.290339
O O12 0.775612 0.752909 0.623009
O O13 0.000000 0.767274 0.704397
O O14 0.214169 0.500000 0.215071
O O15 0.229698 0.591520 0.307361
O O16 0.000000 0.591398 0.233396
O O17 0.200103 0.727378 0.500000
O O18 0.270470 0.628547 0.576541
O O19 0.000000 0.677710 0.580640
O O20 0.500000 0.787416 0.070796
O O21 0.262967 0.765383 0.000000
O O22 0.500000 0.591051 0.647148
O O23 0.695303 0.500000 0.605557
#
# Coordination Sequence:
#
# PCOD8195726 Si02
#       8
#     8   8   8   8   8   8   8   8
#     4  11  20  31  52  78 101 129 166 209 250 292
#     4   9  16  27  45  69  97 130 168 205 242 289
#     4   9  17  29  47  71  98 128 163 206 256 301
#     4  10  19  32  51  72  97 131 168 209 252 297
#     4  10  20  34  53  76 102 131 163 202 249 298
#     4  10  21  35  50  70  98 135 174 209 250 301
#     4   9  18  31  46  70 104 136 166 204 250 296
#     4  10  20  33  50  74 103 133 166 204 245 291
#
# _framework density 17.382339999999999
#
# number of rings (size 3 to 8) (size 9 to 14) (size 15 to 20)
#    0.000    2.250    2.500    1.125    0.000    2.250 
#    0.000    2.500    0.000    4.125    0.000    7.000 
#    0.000    0.000    0.000    5.375    0.000    5.750 
#
# Total GULP energy -793308.623898 kJ/mol
# GULP energy per Si atom -12395.447248 kJ/mol
# Density = 1.734278 g / cm^3
# Si number density = 17.382340 Si / 1000 Ang^3
#
#
#
# Elastic Constant Matrix: (Units=GPa)
#
#
# Indices 1 2 3 4 5 6 
#
# 1 37.9754 32.2156 27.2841 0.0000 0.0000 0.0000
# 2 32.2156 128.4457 73.7962 0.0000 0.0000 0.0000
# 3 27.2841 73.7962 121.0609 0.0000 0.0000 0.0000
# 4 0.0000 0.0000 0.0000 24.8610 0.0000 0.0000
# 5 0.0000 0.0000 0.0000 0.0000 12.2884 0.0000
# 6 0.0000 0.0000 0.0000 0.0000 0.0000 22.9770
#
#
#
# Elastic Compliance Matrix: (Units=1/GPa)
#
#
# Indices 1 2 3 4 5 6 
#
# 1 0.034582 -0.006457 -0.003858 0.000000 0.000000 0.000000
# 2 -0.006457 0.013187 -0.006583 0.000000 0.000000 0.000000
# 3 -0.003858 -0.006583 0.013143 0.000000 0.000000 0.000000
# 4 0.000000 0.000000 0.000000 0.040224 0.000000 0.000000
# 5 0.000000 0.000000 0.000000 0.000000 0.081378 0.000000
# 6 0.000000 0.000000 0.000000 0.000000 0.000000 0.043522
#
#
# Mechanical properties :
#
#
# Convention : Reuss Voigt Hill
#
# Bulk Modulus (GPa) = 36.87904 61.56378 49.22141
# Shear Modulus (GPa) = 18.59626 22.30435 20.45031
#
# Velocity S-wave (km/s) = 3.27438 3.58601 3.43373
# Velocity P-wave (km/s) = 5.96304 7.25536 6.64071
#
# Compressibility (1/GPa) = 0.02711567
#
# Stress axis : x y z
#
# Youngs Moduli (GPa) = 28.91645 75.83039 76.08672
#
# Poissons Ratio (x) = 0.48965 0.29353
# Poissons Ratio (y) = 0.18672 0.50091
# Poissons Ratio (z) = 0.11156 0.49922
#
# Static dielectric constant tensor:
#      x y z
#    x 3.142240 0.000000 0.000000 
#    y 0.000000 3.641380 0.000000 
#    z 0.000000 0.000000 3.157120 
# 
# 
# High freq. dielectric constant tensor:
#      x y z
#    x 1.662330 0.000000 0.000000 
#    y 0.000000 1.681110 0.000000 
#    z 0.000000 0.000000 1.641250 
# 
# From -- ./inp_files/30114.got.cif
#   From: 2010.03.12/outbox.cif.g09.slc.cpg/sg47_16_cif.got.tgz:30114.got - 2010.04.14 03:12:58.
