data_PCOD8195990
_publ_section_title
;
Structure prediction by ZEFSAII (Michael W. Deem and Ramdas Pophale) SiO2 
 PCOD8195990
Probable space group: P M M M
;
_chemical_formula_sum "Si O2"
_cell_formula_units_Z 52
_cell_length_a 23.079322
_cell_length_b 8.943485
_cell_length_c 14.099538
_cell_angle_alpha 90.000000
_cell_angle_beta 90.000000
_cell_angle_gamma 90.000000
_cell_volume 2910.279577
_symmetry_space_group_name_H-M "P M M M"
_symmetry_group_IT_number 47
_symmetry_cell_setting 'orthorhombic'
loop_
_space_group_symop_operation_xyz
x,y,z
-x,-y,z
x,-y,-z
-x,y,-z
-x,-y,-z
x,y,-z
-x,y,z
x,-y,z
loop_
_atom_site_type_symbol
_atom_site_label
_atom_site_fract_x
_atom_site_fract_y
_atom_site_fract_z
Si Si1 0.166191 0.675855 0.217223
Si Si2 0.727771 0.173130 0.111236
Si Si3 0.669416 0.328916 0.394502
Si Si4 0.617616 0.674162 0.200614
Si Si5 0.210874 0.825645 0.607630
Si Si6 0.500000 0.322326 0.107553
Si Si7 0.066525 0.171267 0.890395
O O1 0.173141 0.500000 0.217909
O O2 0.218742 0.743994 0.158445
O O3 0.167111 0.737019 0.324613
O O4 0.104962 0.719209 0.172248
O O5 0.667546 0.237540 0.147488
O O6 0.731401 0.000000 0.138592
O O7 0.732081 0.199572 0.000000
O O8 0.644105 0.294560 0.500000
O O9 0.691342 0.500000 0.388775
O O10 0.620656 0.299436 0.314620
O O11 0.723431 0.223377 0.371283
O O12 0.624690 0.500000 0.175502
O O13 0.556423 0.737188 0.163197
O O14 0.193483 0.787151 0.500000
O O15 0.205987 0.000000 0.629182
O O16 0.500000 0.500000 0.107020
O O17 0.500000 0.260009 0.000000
O O18 0.000000 0.196646 0.861587
O O19 0.084865 0.000000 0.871707
O O20 0.076204 0.211428 0.000000
#
# Coordination Sequence:
#
# PCOD8195990 Si02
#       7
#     8   8   8   8   8   4   8
#     4  12  23  34  53  82 113 144 177 219 270 322
#     4  11  23  36  51  74 105 138 175 224 274 319
#     4   9  17  30  49  75 105 134 168 215 269 322
#     4  10  19  33  53  75 100 137 178 219 269 324
#     4  10  20  34  54  79 107 141 179 218 265 322
#     4   9  18  32  50  72 100 137 183 227 265 320
#     4   9  19  37  59  81 109 148 189 226 265 312
#
# _framework density 17.867699000000002
#
# number of rings (size 3 to 8) (size 9 to 14) (size 15 to 20)
#    0.000    1.923    1.538    3.692    0.000    5.231 
#    0.000    1.538    0.000    4.154    0.000    3.231 
#    0.000    3.692    0.000    0.000    0.000    0.000 
#
# Total GULP energy -644865.686540 kJ/mol
# GULP energy per Si atom -12401.263203 kJ/mol
# Density = 1.782703 g / cm^3
# Si number density = 17.867699 Si / 1000 Ang^3
#
#
#
# Elastic Constant Matrix: (Units=GPa)
#
#
# Indices 1 2 3 4 5 6 
#
# 1 108.7495 50.1961 66.5825 0.0000 0.0000 0.0000
# 2 50.1961 95.5760 61.6770 0.0000 0.0000 0.0000
# 3 66.5825 61.6770 117.7973 0.0000 0.0000 0.0000
# 4 0.0000 0.0000 0.0000 25.4838 0.0000 0.0000
# 5 0.0000 0.0000 0.0000 0.0000 30.0167 0.0000
# 6 0.0000 0.0000 0.0000 0.0000 0.0000 -51.7473
#
#
#
# Elastic Compliance Matrix: (Units=1/GPa)
#
#
# Indices 1 2 3 4 5 6 
#
# 1 0.014837 -0.003595 -0.006504 0.000000 0.000000 0.000000
# 2 -0.003595 0.016673 -0.006698 0.000000 0.000000 0.000000
# 3 -0.006504 -0.006698 0.015672 0.000000 0.000000 0.000000
# 4 0.000000 0.000000 0.000000 0.039241 0.000000 0.000000
# 5 0.000000 0.000000 0.000000 0.000000 0.033315 0.000000
# 6 0.000000 0.000000 0.000000 0.000000 0.000000 -0.019325
#
#
# Mechanical properties :
#
#
# Convention : Reuss Voigt Hill
#
# Bulk Modulus (GPa) = 73.59062 75.44823 74.51943
# Shear Modulus (GPa) = 36.09158 10.32844 23.21001
#
# Velocity S-wave (km/s) = 4.49924 2.40688 3.60806
# Velocity P-wave (km/s) = 8.26237 7.07402 7.69118
#
# Compressibility (1/GPa) = 0.01358869
#
# Stress axis : x y z
#
# Youngs Moduli (GPa) = 67.39929 59.97623 63.80728
#
# Poissons Ratio (x) = 0.21563 0.41499
# Poissons Ratio (y) = 0.24232 0.42737
# Poissons Ratio (z) = 0.43836 0.40171
#
# Static dielectric constant tensor:
#      x y z
#    x 3.226200 0.000000 0.000000 
#    y 0.000000 3.281250 0.000000 
#    z 0.000000 0.000000 3.628180 
# 
# 
# High freq. dielectric constant tensor:
#      x y z
#    x 1.670920 0.000000 0.000000 
#    y 0.000000 1.687960 0.000000 
#    z 0.000000 0.000000 1.705650 
# 
# From -- ./inp_files/6913.got.cif
#   From: 2010.03.12/outbox.cif.g09.slc.cpg/sg47_4_cif.got.tgz:6913.got - 2010.04.14 03:12:58.
