data_PCOD8195139
_publ_section_title
;
Structure prediction by ZEFSAII (Michael W. Deem and Ramdas Pophale) SiO2 
 PCOD8195139
Probable space group: P M M M
;
_chemical_formula_sum "Si O2"
_cell_formula_units_Z 40
_cell_length_a 9.352503
_cell_length_b 13.630098
_cell_length_c 18.608279
_cell_angle_alpha 90.000000
_cell_angle_beta 90.000000
_cell_angle_gamma 90.000000
_cell_volume 2372.100273
_symmetry_space_group_name_H-M "P M M M"
_symmetry_group_IT_number 47
_symmetry_cell_setting 'orthorhombic'
loop_
_space_group_symop_operation_xyz
x,y,z
-x,-y,z
x,-y,-z
-x,y,-z
-x,-y,-z
x,y,-z
-x,y,z
x,-y,z
loop_
_atom_site_type_symbol
_atom_site_label
_atom_site_fract_x
_atom_site_fract_y
_atom_site_fract_z
Si Si1 0.836842 0.890229 0.170231
Si Si2 0.335469 0.610032 0.795722
Si Si3 0.668226 0.795956 0.706521
Si Si4 0.166872 0.295433 0.919018
Si Si5 0.834772 0.887313 0.582840
O O1 0.733618 0.873388 0.237624
O O2 0.800162 0.815770 0.105926
O O3 0.000000 0.875173 0.196626
O O4 0.812612 0.000000 0.140694
O O5 0.500000 0.625112 0.816829
O O6 0.305202 0.500000 0.767588
O O7 0.292807 0.685630 0.732518
O O8 0.245997 0.627781 0.867896
O O9 0.500000 0.813186 0.701134
O O10 0.737676 0.813720 0.628934
O O11 0.000000 0.319131 0.914951
O O12 0.224410 0.307484 0.000000
O O13 0.803971 0.863379 0.500000
O O14 0.000000 0.868714 0.601472
O O15 0.794438 0.000000 0.599880
#
# Coordination Sequence:
#
# PCOD8195139 Si02
#       5
#     8   8   8   8   8
#     4   9  17  29  45  64  89 124 158 183 217 271
#     4   9  19  35  51  66  87 118 154 189 229 278
#     4  10  19  30  47  70  93 117 150 193 231 262
#     4   9  18  31  46  67  93 117 147 191 235 271
#     4   9  18  32  49  70  98 130 156 176 208 260
#
# _framework density 16.862693
#
# number of rings (size 3 to 8) (size 9 to 14) (size 15 to 20)
#    0.000    2.800    0.000    1.800    0.000    6.000 
#    0.000    5.000    0.000    0.600    0.000    9.800 
#    0.000    0.000    0.000    0.000    0.000    0.000 
#
# Total GULP energy -495994.726710 kJ/mol
# GULP energy per Si atom -12399.868168 kJ/mol
# Density = 1.682431 g / cm^3
# Si number density = 16.862693 Si / 1000 Ang^3
#
#
#
# Elastic Constant Matrix: (Units=GPa)
#
#
# Indices 1 2 3 4 5 6 
#
# 1 65.6343 38.0244 52.6898 0.0000 0.0000 0.0000
# 2 38.0244 97.9111 46.8708 0.0000 0.0000 0.0000
# 3 52.6898 46.8708 109.8749 0.0000 0.0000 0.0000
# 4 0.0000 0.0000 0.0000 18.0904 0.0000 0.0000
# 5 0.0000 0.0000 0.0000 0.0000 21.1555 0.0000
# 6 0.0000 0.0000 0.0000 0.0000 0.0000 24.2757
#
#
#
# Elastic Compliance Matrix: (Units=1/GPa)
#
#
# Indices 1 2 3 4 5 6 
#
# 1 0.026835 -0.005355 -0.010584 0.000000 0.000000 0.000000
# 2 -0.005355 0.013903 -0.003363 0.000000 0.000000 0.000000
# 3 -0.010584 -0.003363 0.015611 0.000000 0.000000 0.000000
# 4 0.000000 0.000000 0.000000 0.055278 0.000000 0.000000
# 5 0.000000 0.000000 0.000000 0.000000 0.047269 0.000000
# 6 0.000000 0.000000 0.000000 0.000000 0.000000 0.041193
#
#
# Mechanical properties :
#
#
# Convention : Reuss Voigt Hill
#
# Bulk Modulus (GPa) = 56.35274 60.95448 58.65361
# Shear Modulus (GPa) = 20.44082 21.76000 21.10041
#
# Velocity S-wave (km/s) = 3.48543 3.59614 3.54122
# Velocity P-wave (km/s) = 7.04903 7.31225 7.18184
#
# Compressibility (1/GPa) = 0.01774536
#
# Stress axis : x y z
#
# Youngs Moduli (GPa) = 37.26473 71.92842 64.05559
#
# Poissons Ratio (x) = 0.38516 0.67798
# Poissons Ratio (y) = 0.19954 0.21541
# Poissons Ratio (z) = 0.39442 0.24188
#
# Static dielectric constant tensor:
#      x y z
#    x 3.150000 0.000000 0.000000 
#    y 0.000000 3.157300 0.000000 
#    z 0.000000 0.000000 3.075230 
# 
# 
# High freq. dielectric constant tensor:
#      x y z
#    x 1.650210 0.000000 0.000000 
#    y 0.000000 1.642800 0.000000 
#    z 0.000000 0.000000 1.637800 
# 
# From -- ./inp_files/3747.got.cif
#   From: 2010.03.12/outbox.cif.g09.slc.cpg/sg47_2_cif.got.tgz:3747.got - 2010.04.14 03:12:58.
