data_PCOD8195247
_publ_section_title
;
Structure prediction by ZEFSAII (Michael W. Deem and Ramdas Pophale) SiO2 
 PCOD8195247
Probable space group: P M M M
;
_chemical_formula_sum "Si O2"
_cell_formula_units_Z 64
_cell_length_a 9.137018
_cell_length_b 15.654619
_cell_length_c 23.978631
_cell_angle_alpha 90.000000
_cell_angle_beta 90.000000
_cell_angle_gamma 90.000000
_cell_volume 3429.820306
_symmetry_space_group_name_H-M "P M M M"
_symmetry_group_IT_number 47
_symmetry_cell_setting 'orthorhombic'
loop_
_space_group_symop_operation_xyz
x,y,z
-x,-y,z
x,-y,-z
-x,y,-z
-x,-y,-z
x,y,-z
-x,y,z
x,-y,z
loop_
_atom_site_type_symbol
_atom_site_label
_atom_site_fract_x
_atom_site_fract_y
_atom_site_fract_z
Si Si1 0.667196 0.326792 0.938458
Si Si2 0.326121 0.905710 0.437267
Si Si3 0.327843 0.407675 0.825829
Si Si4 0.171315 0.151906 0.062507
Si Si5 0.325559 0.255247 0.631380
Si Si6 0.668130 0.094402 0.166953
Si Si7 0.674390 0.248146 0.242370
Si Si8 0.170432 0.598035 0.435776
O O1 0.500000 0.294783 0.930613
O O2 0.707249 0.395565 0.891379
O O3 0.773432 0.247743 0.929868
O O4 0.688786 0.367816 0.000000
O O5 0.268603 0.890274 0.500000
O O6 0.500000 0.902920 0.436479
O O7 0.263701 0.830009 0.398722
O O8 0.273891 0.000000 0.416283
O O9 0.500000 0.408467 0.815723
O O10 0.261740 0.500000 0.808086
O O11 0.260063 0.331634 0.788731
O O12 0.247857 0.092911 0.108216
O O13 0.000000 0.150132 0.073539
O O14 0.208178 0.118440 0.000000
O O15 0.500000 0.259898 0.628319
O O16 0.267636 0.249442 0.694576
O O17 0.264347 0.340422 0.603190
O O18 0.500000 0.116439 0.154166
O O19 0.732956 0.163716 0.210414
O O20 0.684305 0.000000 0.193759
O O21 0.500000 0.247984 0.241826
O O22 0.211386 0.616169 0.500000
O O23 0.208733 0.500000 0.420604
O O24 0.000000 0.615744 0.425545
#
# Coordination Sequence:
#
# PCOD8195247 Si02
#       8
#     8   8   8   8   8   8   8   8
#     4   9  16  28  49  73  96 123 159 203 247 297
#     4   8  14  25  42  68 102 132 157 194 247 299
#     4   9  16  27  46  70  97 127 157 197 248 296
#     4  10  20  33  51  75 102 130 161 204 261 314
#     4  10  19  30  51  79 104 133 172 215 253 297
#     4  10  20  35  55  75  98 133 174 211 249 299
#     4   9  18  32  47  72 106 132 161 205 252 292
#     4   9  19  36  55  75 104 141 175 210 258 311
#
# _framework density 18.659870999999999
#
# number of rings (size 3 to 8) (size 9 to 14) (size 15 to 20)
#    0.000    2.750    1.250    1.500    0.000    3.500 
#    0.000    7.500    0.000    0.750    0.000    3.500 
#    0.000    0.000    0.000    0.000    0.000    0.000 
#
# Total GULP energy -793253.563109 kJ/mol
# GULP energy per Si atom -12394.586924 kJ/mol
# Density = 1.861740 g / cm^3
# Si number density = 18.659871 Si / 1000 Ang^3
#
#
#
# Elastic Constant Matrix: (Units=GPa)
#
#
# Indices 1 2 3 4 5 6 
#
# 1 30.2361 24.0720 27.1523 0.0000 0.0000 0.0000
# 2 24.0720 154.4414 88.4183 0.0000 0.0000 0.0000
# 3 27.1523 88.4183 141.9121 0.0000 0.0000 0.0000
# 4 0.0000 0.0000 0.0000 17.0494 0.0000 0.0000
# 5 0.0000 0.0000 0.0000 0.0000 14.9472 0.0000
# 6 0.0000 0.0000 0.0000 0.0000 0.0000 9.1669
#
#
#
# Elastic Compliance Matrix: (Units=1/GPa)
#
#
# Indices 1 2 3 4 5 6 
#
# 1 0.040773 -0.002936 -0.005972 0.000000 0.000000 0.000000
# 2 -0.002936 0.010277 -0.005841 0.000000 0.000000 0.000000
# 3 -0.005972 -0.005841 0.011828 0.000000 0.000000 0.000000
# 4 0.000000 0.000000 0.000000 0.058653 0.000000 0.000000
# 5 0.000000 0.000000 0.000000 0.000000 0.066902 0.000000
# 6 0.000000 0.000000 0.000000 0.000000 0.000000 0.109089
#
#
# Mechanical properties :
#
#
# Convention : Reuss Voigt Hill
#
# Bulk Modulus (GPa) = 29.95777 67.31941 48.63859
# Shear Modulus (GPa) = 14.78644 20.69582 17.74113
#
# Velocity S-wave (km/s) = 2.81805 3.33394 3.08679
# Velocity P-wave (km/s) = 5.16508 7.13972 6.23112
#
# Compressibility (1/GPa) = 0.03338032
#
# Stress axis : x y z
#
# Youngs Moduli (GPa) = 24.52574 97.30805 84.54175
#
# Poissons Ratio (x) = 0.28573 0.50487
# Poissons Ratio (y) = 0.07201 0.49381
# Poissons Ratio (z) = 0.14646 0.56838
#
# Static dielectric constant tensor:
#      x y z
#    x 2.957580 0.000000 0.000000 
#    y 0.000000 3.602510 0.000000 
#    z 0.000000 0.000000 3.612520 
# 
# 
# High freq. dielectric constant tensor:
#      x y z
#    x 1.671150 0.000000 0.000000 
#    y 0.000000 1.731150 0.000000 
#    z 0.000000 0.000000 1.725350 
# 
# From -- ./inp_files/32106.got.cif
#   From: 2010.03.12/outbox.cif.g09.slc.cpg/sg47_17_cif.got.tgz:32106.got - 2010.04.14 03:12:58.
