data_PCOD8195592
_publ_section_title
;
Structure prediction by ZEFSAII (Michael W. Deem and Ramdas Pophale) SiO2 
 PCOD8195592
Probable space group: P M M M
;
_chemical_formula_sum "Si O2"
_cell_formula_units_Z 56
_cell_length_a 14.046448
_cell_length_b 7.995184
_cell_length_c 24.498722
_cell_angle_alpha 90.000000
_cell_angle_beta 90.000000
_cell_angle_gamma 90.000000
_cell_volume 2751.302915
_symmetry_space_group_name_H-M "P M M M"
_symmetry_group_IT_number 47
_symmetry_cell_setting 'orthorhombic'
loop_
_space_group_symop_operation_xyz
x,y,z
-x,-y,z
x,-y,-z
-x,y,-z
-x,-y,-z
x,y,-z
-x,y,z
x,-y,z
loop_
_atom_site_type_symbol
_atom_site_label
_atom_site_fract_x
_atom_site_fract_y
_atom_site_fract_z
Si Si1 0.107476 0.698789 0.059391
Si Si2 0.896367 0.000000 0.436308
Si Si3 0.107778 0.302765 0.729525
Si Si4 0.387062 0.687021 0.000000
Si Si5 0.211200 0.694993 0.835769
Si Si6 0.395711 0.303449 0.560680
Si Si7 0.206384 0.697131 0.617341
Si Si8 0.394057 0.193766 0.883754
O O1 0.108719 0.500000 0.063602
O O2 0.166614 0.777463 0.109493
O O3 0.000000 0.765210 0.064204
O O4 0.150183 0.753289 0.000000
O O5 0.848201 0.175697 0.421396
O O6 0.905193 0.000000 0.500000
O O7 0.000000 0.000000 0.408377
O O8 0.099693 0.500000 0.735132
O O9 0.160728 0.224719 0.782562
O O10 0.174993 0.256888 0.678577
O O11 0.000000 0.229021 0.723699
O O12 0.351419 0.774592 0.055482
O O13 0.345508 0.500000 0.000000
O O14 0.500000 0.691453 0.000000
O O15 0.190963 0.500000 0.833995
O O16 0.324645 0.727650 0.838015
O O17 0.367210 0.233994 0.500000
O O18 0.500000 0.230762 0.577691
O O19 0.403574 0.500000 0.555953
O O20 0.317789 0.259361 0.606993
O O21 0.184279 0.500000 0.603847
O O22 0.500000 0.274171 0.877731
O O23 0.400665 0.000000 0.872566
#
# Coordination Sequence:
#
# PCOD8195592 Si02
#       8
#     8   4   8   4   8   8   8   8
#     4   8  14  25  43  70 102 131 161 206 268 330
#     4  11  24  38  55  87 123 153 195 249 299 350
#     4   9  18  34  56  81 109 143 185 232 281 337
#     4   9  17  31  53  77  98 127 172 221 267 328
#     4  10  19  31  52  79 103 131 178 232 276 323
#     4   8  14  27  51  83 116 150 189 232 279 335
#     4  10  20  37  60  84 116 159 201 241 294 354
#     4  10  21  36  51  71 105 144 177 216 276 342
#
# _framework density 20.353992999999999
#
# number of rings (size 3 to 8) (size 9 to 14) (size 15 to 20)
#    0.000    2.714    0.000    2.786    1.000    5.143 
#    1.286    1.786    0.000    5.143    0.000    1.000 
#    0.000    0.000    0.000    0.000    0.000    0.000 
#
# Total GULP energy -693783.751235 kJ/mol
# GULP energy per Si atom -12388.995558 kJ/mol
# Density = 2.030767 g / cm^3
# Si number density = 20.353993 Si / 1000 Ang^3
#
#
#
# Elastic Constant Matrix: (Units=GPa)
#
#
# Indices 1 2 3 4 5 6 
#
# 1 153.2858 15.6474 94.5297 0.0000 0.0000 0.0000
# 2 15.6474 39.1417 17.3314 0.0000 0.0000 0.0000
# 3 94.5297 17.3314 138.1586 0.0000 0.0000 0.0000
# 4 0.0000 0.0000 0.0000 14.9717 0.0000 0.0000
# 5 0.0000 0.0000 0.0000 0.0000 32.3011 0.0000
# 6 0.0000 0.0000 0.0000 0.0000 0.0000 7.1178
#
#
#
# Elastic Compliance Matrix: (Units=1/GPa)
#
#
# Indices 1 2 3 4 5 6 
#
# 1 0.011335 -0.001162 -0.007610 0.000000 0.000000 0.000000
# 2 -0.001162 0.027170 -0.002613 0.000000 0.000000 0.000000
# 3 -0.007610 -0.002613 0.012773 0.000000 0.000000 0.000000
# 4 0.000000 0.000000 0.000000 0.066792 0.000000 0.000000
# 5 0.000000 0.000000 0.000000 0.000000 0.030959 0.000000
# 6 0.000000 0.000000 0.000000 0.000000 0.000000 0.140493
#
#
# Mechanical properties :
#
#
# Convention : Reuss Voigt Hill
#
# Bulk Modulus (GPa) = 35.07854 65.06700 50.07277
# Shear Modulus (GPa) = 15.53784 24.41664 19.97724
#
# Velocity S-wave (km/s) = 2.76593 3.46728 3.13627
# Velocity P-wave (km/s) = 5.24139 6.93300 6.14567
#
# Compressibility (1/GPa) = 0.02850746
#
# Stress axis : x y z
#
# Youngs Moduli (GPa) = 88.21917 36.80549 78.29147
#
# Poissons Ratio (x) = 0.04276 0.59580
# Poissons Ratio (y) = 0.10250 0.20461
# Poissons Ratio (z) = 0.67135 0.09619
#
# Static dielectric constant tensor:
#      x y z
#    x 4.148450 0.000000 0.000000 
#    y 0.000000 3.235900 0.000000 
#    z 0.000000 0.000000 3.816760 
# 
# 
# High freq. dielectric constant tensor:
#      x y z
#    x 1.805500 0.000000 0.000000 
#    y 0.000000 1.756860 0.000000 
#    z 0.000000 0.000000 1.779250 
# 
# From -- ./inp_files/30986.got.cif
#   From: 2010.03.12/outbox.cif.g09.slc.cpg/sg47_16_cif.got.tgz:30986.got - 2010.04.14 03:12:58.
