data_PCOD8195002
_publ_section_title
;
Structure prediction by ZEFSAII (Michael W. Deem and Ramdas Pophale) SiO2 
 PCOD8195002
Probable space group: P M M M
;
_chemical_formula_sum "Si O2"
_cell_formula_units_Z 48
_cell_length_a 24.308233
_cell_length_b 9.226985
_cell_length_c 13.723902
_cell_angle_alpha 90.000000
_cell_angle_beta 90.000000
_cell_angle_gamma 90.000000
_cell_volume 3078.157328
_symmetry_space_group_name_H-M "P M M M"
_symmetry_group_IT_number 47
_symmetry_cell_setting 'orthorhombic'
loop_
_space_group_symop_operation_xyz
x,y,z
-x,-y,z
x,-y,-z
-x,y,-z
-x,-y,-z
x,y,-z
-x,y,z
x,-y,z
loop_
_atom_site_type_symbol
_atom_site_label
_atom_site_fract_x
_atom_site_fract_y
_atom_site_fract_z
Si Si1 0.668017 0.169952 0.388357
Si Si2 0.942047 0.830753 0.886402
Si Si3 0.725757 0.670212 0.777926
Si Si4 0.177565 0.171232 0.885684
Si Si5 0.384178 0.330806 0.109818
Si Si6 0.561163 0.167577 0.724961
O O1 0.675037 0.215854 0.500000
O O2 0.712684 0.258574 0.326515
O O3 0.606006 0.213229 0.355884
O O4 0.678566 0.000000 0.372868
O O5 0.883031 0.773682 0.847626
O O6 0.000000 0.764565 0.841695
O O7 0.942932 0.000000 0.866219
O O8 0.942710 0.798579 0.000000
O O9 0.734491 0.500000 0.763430
O O10 0.780289 0.739333 0.821420
O O11 0.676633 0.706069 0.852081
O O12 0.185307 0.000000 0.867992
O O13 0.185533 0.206596 0.000000
O O14 0.396120 0.500000 0.115391
O O15 0.429848 0.252768 0.174696
O O16 0.388862 0.272375 0.000000
O O17 0.500000 0.202793 0.684585
O O18 0.567413 0.000000 0.750801
#
# Coordination Sequence:
#
# PCOD8195002 Si02
#       6
#     8   8   8   8   8   8
#     4   9  18  33  51  67  83 105 133 168 212 259
#     4   7  10  18  33  54  81 113 148 182 211 238
#     4  10  19  30  44  62  86 113 142 177 214 254
#     4   9  16  25  40  63  89 118 151 183 212 243
#     4   9  18  31  44  58  80 113 147 173 200 237
#     4   9  18  31  46  66  88 106 129 164 206 252
#
# _framework density 15.593743999999999
#
# number of rings (size 3 to 8) (size 9 to 14) (size 15 to 20)
#    0.000    3.167    0.000    2.500    0.000    3.333 
#    0.000    3.333    0.000    0.500    0.000    7.000 
#    0.000    0.667    0.000    7.667    0.000    2.500 
#
# Total GULP energy -594709.876079 kJ/mol
# GULP energy per Si atom -12389.789085 kJ/mol
# Density = 1.555825 g / cm^3
# Si number density = 15.593744 Si / 1000 Ang^3
#
#
#
# Elastic Constant Matrix: (Units=GPa)
#
#
# Indices 1 2 3 4 5 6 
#
# 1 129.5046 41.3548 49.3138 0.0000 0.0000 0.0000
# 2 41.3548 41.5723 36.3675 0.0000 0.0000 0.0000
# 3 49.3138 36.3675 93.3181 0.0000 0.0000 0.0000
# 4 0.0000 0.0000 0.0000 18.1104 0.0000 0.0000
# 5 0.0000 0.0000 0.0000 0.0000 14.5226 0.0000
# 6 0.0000 0.0000 0.0000 0.0000 0.0000 14.5029
#
#
#
# Elastic Compliance Matrix: (Units=1/GPa)
#
#
# Indices 1 2 3 4 5 6 
#
# 1 0.011688 -0.009443 -0.002496 0.000000 0.000000 0.000000
# 2 -0.009443 0.044126 -0.012207 0.000000 0.000000 0.000000
# 3 -0.002496 -0.012207 0.016792 0.000000 0.000000 0.000000
# 4 0.000000 0.000000 0.000000 0.055217 0.000000 0.000000
# 5 0.000000 0.000000 0.000000 0.000000 0.068858 0.000000
# 6 0.000000 0.000000 0.000000 0.000000 0.000000 0.068952
#
#
# Mechanical properties :
#
#
# Convention : Reuss Voigt Hill
#
# Bulk Modulus (GPa) = 41.12733 57.60749 49.36741
# Shear Modulus (GPa) = 15.52656 18.58446 17.05551
#
# Velocity S-wave (km/s) = 3.15888 3.45598 3.31076
# Velocity P-wave (km/s) = 6.30367 7.27653 6.80750
#
# Compressibility (1/GPa) = 0.02431473
#
# Stress axis : x y z
#
# Youngs Moduli (GPa) = 85.56035 22.66233 59.55092
#
# Poissons Ratio (x) = 0.21399 0.14866
# Poissons Ratio (y) = 0.80792 0.72692
# Poissons Ratio (z) = 0.21359 0.27663
#
# Static dielectric constant tensor:
#      x y z
#    x 3.321340 0.000000 0.000000 
#    y 0.000000 2.812250 0.000000 
#    z 0.000000 0.000000 2.787830 
# 
# 
# High freq. dielectric constant tensor:
#      x y z
#    x 1.606730 0.000000 0.000000 
#    y 0.000000 1.582000 0.000000 
#    z 0.000000 0.000000 1.563240 
# 
# From -- ./inp_files/4336.got.cif
#   From: 2010.03.12/outbox.cif.g09.slc.cpg/sg47_3_cif.got.tgz:4336.got - 2010.04.14 03:12:58.
