data_PCOD8195519
_publ_section_title
;
Structure prediction by ZEFSAII (Michael W. Deem and Ramdas Pophale) SiO2 
 PCOD8195519
Probable space group: P M M M
;
_chemical_formula_sum "Si O2"
_cell_formula_units_Z 64
_cell_length_a 13.945668
_cell_length_b 9.198785
_cell_length_c 28.761120
_cell_angle_alpha 90.000000
_cell_angle_beta 90.000000
_cell_angle_gamma 90.000000
_cell_volume 3689.568556
_symmetry_space_group_name_H-M "P M M M"
_symmetry_group_IT_number 47
_symmetry_cell_setting 'orthorhombic'
loop_
_space_group_symop_operation_xyz
x,y,z
-x,-y,z
x,-y,-z
-x,y,-z
-x,-y,-z
x,y,-z
-x,y,z
x,-y,z
loop_
_atom_site_type_symbol
_atom_site_label
_atom_site_fract_x
_atom_site_fract_y
_atom_site_fract_z
Si Si1 0.213072 0.830534 0.554034
Si Si2 0.287828 0.330324 0.949335
Si Si3 0.891260 0.668009 0.891592
Si Si4 0.112418 0.661220 0.630582
Si Si5 0.604788 0.662209 0.444871
Si Si6 0.389974 0.672486 0.142330
Si Si7 0.218593 0.171126 0.186438
Si Si8 0.110167 0.831340 0.280001
O O1 0.197412 0.791656 0.500000
O O2 0.133081 0.748188 0.583374
O O3 0.316651 0.776849 0.572635
O O4 0.204611 0.000000 0.563241
O O5 0.305676 0.500000 0.954307
O O6 0.177588 0.298168 0.935269
O O7 0.359629 0.271736 0.909351
O O8 0.307887 0.256984 0.000000
O O9 0.880019 0.500000 0.876268
O O10 0.860634 0.768086 0.848808
O O11 0.000000 0.704446 0.906228
O O12 0.158082 0.500000 0.628162
O O13 0.152044 0.743765 0.675980
O O14 0.000000 0.650461 0.635325
O O15 0.600988 0.663847 0.500000
O O16 0.500000 0.707417 0.425222
O O17 0.631638 0.500000 0.427511
O O18 0.500000 0.716055 0.151713
O O19 0.374115 0.500000 0.146640
O O20 0.321872 0.751614 0.179762
O O21 0.179517 0.207550 0.237453
O O22 0.230488 0.000000 0.178328
O O23 0.000000 0.788422 0.267964
O O24 0.115832 0.000000 0.292850
#
# Coordination Sequence:
#
# PCOD8195519 Si02
#       8
#     8   8   8   8   8   8   8   8
#     4  10  20  32  48  71  99 133 169 203 240 281
#     4   8  14  25  42  66  94 123 160 205 247 285
#     4   9  17  28  43  66  96 127 158 195 239 286
#     4  10  21  35  51  72  97 127 163 201 240 282
#     4   8  14  26  45  68  93 121 154 194 238 279
#     4   9  18  32  49  70  96 125 159 201 247 291
#     4  10  19  31  50  74  97 122 154 192 236 288
#     4   9  18  33  52  73  97 123 150 185 233 287
#
# _framework density 17.346202000000002
#
# number of rings (size 3 to 8) (size 9 to 14) (size 15 to 20)
#    0.000    2.875    0.000    2.625    0.000    4.500 
#    0.000    6.250    0.000    6.750    0.000   10.500 
#    0.000    0.000    0.000    0.000    0.000    0.000 
#
# Total GULP energy -793280.669583 kJ/mol
# GULP energy per Si atom -12395.010462 kJ/mol
# Density = 1.730672 g / cm^3
# Si number density = 17.346202 Si / 1000 Ang^3
#
#
#
# Elastic Constant Matrix: (Units=GPa)
#
#
# Indices 1 2 3 4 5 6 
#
# 1 89.3296 34.0311 41.6166 0.0000 0.0000 0.0000
# 2 34.0311 74.7816 53.8661 0.0000 0.0000 0.0000
# 3 41.6166 53.8661 99.6986 0.0000 0.0000 0.0000
# 4 0.0000 0.0000 0.0000 22.4430 0.0000 0.0000
# 5 0.0000 0.0000 0.0000 0.0000 18.5138 0.0000
# 6 0.0000 0.0000 0.0000 0.0000 0.0000 25.9773
#
#
#
# Elastic Compliance Matrix: (Units=1/GPa)
#
#
# Indices 1 2 3 4 5 6 
#
# 1 0.014485 -0.003661 -0.004068 0.000000 0.000000 0.000000
# 2 -0.003661 0.022818 -0.010800 0.000000 0.000000 0.000000
# 3 -0.004068 -0.010800 0.017563 0.000000 0.000000 0.000000
# 4 0.000000 0.000000 0.000000 0.044557 0.000000 0.000000
# 5 0.000000 0.000000 0.000000 0.000000 0.054014 0.000000
# 6 0.000000 0.000000 0.000000 0.000000 0.000000 0.038495
#
#
# Mechanical properties :
#
#
# Convention : Reuss Voigt Hill
#
# Bulk Modulus (GPa) = 56.15686 58.09303 57.12495
# Shear Modulus (GPa) = 21.28333 22.33990 21.81161
#
# Velocity S-wave (km/s) = 3.50662 3.59260 3.54987
# Velocity P-wave (km/s) = 6.98853 7.12546 7.05733
#
# Compressibility (1/GPa) = 0.01780726
#
# Stress axis : x y z
#
# Youngs Moduli (GPa) = 69.03928 43.82576 56.93667
#
# Poissons Ratio (x) = 0.16046 0.23162
# Poissons Ratio (y) = 0.25277 0.61491
# Poissons Ratio (z) = 0.28086 0.47331
#
# Static dielectric constant tensor:
#      x y z
#    x 3.327900 0.000000 0.000000 
#    y 0.000000 3.221780 0.000000 
#    z 0.000000 0.000000 3.161960 
# 
# 
# High freq. dielectric constant tensor:
#      x y z
#    x 1.665440 0.000000 0.000000 
#    y 0.000000 1.659690 0.000000 
#    z 0.000000 0.000000 1.650410 
# 
# From -- ./inp_files/34693.got.cif
#   From: 2010.03.12/outbox.cif.g09.slc.cpg/sg47_18_cif.got.tgz:34693.got - 2010.04.14 03:12:58.
