data_PCOD8195525
_publ_section_title
;
Structure prediction by ZEFSAII (Michael W. Deem and Ramdas Pophale) SiO2 
 PCOD8195525
Probable space group: P M M M
;
_chemical_formula_sum "Si O2"
_cell_formula_units_Z 64
_cell_length_a 20.561244
_cell_length_b 9.046823
_cell_length_c 18.756069
_cell_angle_alpha 90.000000
_cell_angle_beta 90.000000
_cell_angle_gamma 90.000000
_cell_volume 3488.890202
_symmetry_space_group_name_H-M "P M M M"
_symmetry_group_IT_number 47
_symmetry_cell_setting 'orthorhombic'
loop_
_space_group_symop_operation_xyz
x,y,z
-x,-y,z
x,-y,-z
-x,y,-z
-x,-y,-z
x,y,-z
-x,y,z
x,-y,z
loop_
_atom_site_type_symbol
_atom_site_label
_atom_site_fract_x
_atom_site_fract_y
_atom_site_fract_z
Si Si1 0.073723 0.670732 0.192885
Si Si2 0.300379 0.325838 0.315228
Si Si3 0.571378 0.834558 0.676203
Si Si4 0.181888 0.670412 0.917966
Si Si5 0.568226 0.834988 0.845454
Si Si6 0.074429 0.174019 0.336352
Si Si7 0.293124 0.823123 0.835527
Si Si8 0.816284 0.670781 0.418391
O O1 0.080752 0.500000 0.214048
O O2 0.116784 0.711347 0.124676
O O3 0.098332 0.763829 0.260336
O O4 0.000000 0.711983 0.172564
O O5 0.304005 0.500000 0.302189
O O6 0.369727 0.272131 0.347506
O O7 0.280371 0.248190 0.241431
O O8 0.245550 0.280745 0.371869
O O9 0.500000 0.777947 0.648951
O O10 0.570536 0.840056 0.760766
O O11 0.584079 0.000000 0.646499
O O12 0.201661 0.500000 0.905883
O O13 0.239448 0.774628 0.891556
O O14 0.167517 0.704931 0.000000
O O15 0.500000 0.753028 0.869513
O O16 0.637300 0.764079 0.868506
O O17 0.564671 0.000000 0.876538
O O18 0.119692 0.237407 0.398256
O O19 0.000000 0.222637 0.351384
O O20 0.081598 0.000000 0.334455
O O21 0.294147 0.000000 0.826720
O O22 0.798763 0.704359 0.500000
O O23 0.832787 0.500000 0.405696
#
# Coordination Sequence:
#
# PCOD8195525 Si02
#       8
#     8   8   8   8   8   8   8   8
#     4   9  18  34  56  78  99 128 166 202 239 291
#     4  10  19  31  50  75 101 129 166 212 256 297
#     4   8  14  26  45  70 100 131 163 202 249 300
#     4  10  21  35  50  71 101 133 164 204 250 290
#     4   7  11  22  41  65  91 118 151 193 237 278
#     4  10  21  36  55  80 106 129 158 202 253 301
#     4  10  19  31  50  74  99 129 165 203 246 301
#     4  10  22  38  53  71  99 136 174 209 247 296
#
# _framework density 18.343941000000001
#
# number of rings (size 3 to 8) (size 9 to 14) (size 15 to 20)
#    0.000    2.750    0.000    3.375    0.000    6.500 
#    0.000    2.500    0.000    1.875    0.000    7.875 
#    0.000    0.000    0.000    0.000    0.000    0.000 
#
# Total GULP energy -793131.995628 kJ/mol
# GULP energy per Si atom -12392.687432 kJ/mol
# Density = 1.830219 g / cm^3
# Si number density = 18.343941 Si / 1000 Ang^3
#
#
#
# Elastic Constant Matrix: (Units=GPa)
#
#
# Indices 1 2 3 4 5 6 
#
# 1 115.7875 35.2965 36.0355 0.0000 0.0000 0.0000
# 2 35.2965 54.2716 19.7412 0.0000 0.0000 0.0000
# 3 36.0355 19.7412 55.7958 0.0000 0.0000 0.0000
# 4 0.0000 0.0000 0.0000 7.1270 0.0000 0.0000
# 5 0.0000 0.0000 0.0000 0.0000 5.0426 0.0000
# 6 0.0000 0.0000 0.0000 0.0000 0.0000 31.6041
#
#
#
# Elastic Compliance Matrix: (Units=1/GPa)
#
#
# Indices 1 2 3 4 5 6 
#
# 1 0.012230 -0.005832 -0.005836 0.000000 0.000000 0.000000
# 2 -0.005832 0.023928 -0.004700 0.000000 0.000000 0.000000
# 3 -0.005836 -0.004700 0.023354 0.000000 0.000000 0.000000
# 4 0.000000 0.000000 0.000000 0.140312 0.000000 0.000000
# 5 0.000000 0.000000 0.000000 0.000000 0.198311 0.000000
# 6 0.000000 0.000000 0.000000 0.000000 0.000000 0.031641
#
#
# Mechanical properties :
#
#
# Convention : Reuss Voigt Hill
#
# Bulk Modulus (GPa) = 37.34304 45.33349 41.33827
# Shear Modulus (GPa) = 10.60586 17.74018 14.17302
#
# Velocity S-wave (km/s) = 2.40712 3.11318 2.78263
# Velocity P-wave (km/s) = 5.30349 6.13915 5.73656
#
# Compressibility (1/GPa) = 0.02677875
#
# Stress axis : x y z
#
# Youngs Moduli (GPa) = 81.76366 41.79209 42.81868
#
# Poissons Ratio (x) = 0.24371 0.24988
# Poissons Ratio (y) = 0.47681 0.20124
# Poissons Ratio (z) = 0.47715 0.19641
#
# Static dielectric constant tensor:
#      x y z
#    x 4.017650 0.000000 0.000000 
#    y 0.000000 3.282180 0.000000 
#    z 0.000000 0.000000 3.047600 
# 
# 
# High freq. dielectric constant tensor:
#      x y z
#    x 1.734820 0.000000 0.000000 
#    y 0.000000 1.694830 0.000000 
#    z 0.000000 0.000000 1.673260 
# 
# From -- ./inp_files/28768.got.cif
#   From: 2010.03.12/outbox.cif.g09.slc.cpg/sg47_15_cif.got.tgz:28768.got - 2010.04.14 03:12:58.
