data_PCOD8195464
_publ_section_title
;
Structure prediction by ZEFSAII (Michael W. Deem and Ramdas Pophale) SiO2 
 PCOD8195464
Probable space group: P M M M
;
_chemical_formula_sum "Si O2"
_cell_formula_units_Z 64
_cell_length_a 18.616701
_cell_length_b 20.432305
_cell_length_c 8.665737
_cell_angle_alpha 90.000000
_cell_angle_beta 90.000000
_cell_angle_gamma 90.000000
_cell_volume 3296.291350
_symmetry_space_group_name_H-M "P M M M"
_symmetry_group_IT_number 47
_symmetry_cell_setting 'orthorhombic'
loop_
_space_group_symop_operation_xyz
x,y,z
-x,-y,z
x,-y,-z
-x,y,-z
-x,-y,-z
x,y,-z
-x,y,z
x,-y,z
loop_
_atom_site_type_symbol
_atom_site_label
_atom_site_fract_x
_atom_site_fract_y
_atom_site_fract_z
Si Si1 0.326932 0.692776 0.681411
Si Si2 0.919728 0.815470 0.816831
Si Si3 0.829585 0.692706 0.183274
Si Si4 0.583629 0.192541 0.178224
Si Si5 0.419513 0.572656 0.316676
Si Si6 0.919538 0.572354 0.816455
Si Si7 0.338873 0.924905 0.680214
Si Si8 0.187994 0.925340 0.820790
O O1 0.315997 0.687012 0.500000
O O2 0.250773 0.700457 0.760434
O O3 0.374221 0.755984 0.717436
O O4 0.365855 0.627725 0.749288
O O5 0.877144 0.752611 0.752725
O O6 0.878033 0.880808 0.764450
O O7 0.000000 0.816818 0.746065
O O8 0.924456 0.811980 0.000000
O O9 0.864085 0.625714 0.249938
O O10 0.829590 0.692776 0.000000
O O11 0.500000 0.201828 0.210902
O O12 0.605560 0.119263 0.225587
O O13 0.602732 0.204307 0.000000
O O14 0.421023 0.576422 0.500000
O O15 0.500000 0.586185 0.253458
O O16 0.393988 0.500000 0.263504
O O17 0.895839 0.500000 0.759344
O O18 0.000000 0.588209 0.756869
O O19 0.919642 0.574729 0.000000
O O20 0.350486 0.913195 0.500000
O O21 0.257719 0.905325 0.723465
O O22 0.353819 0.000000 0.727084
O O23 0.165300 0.000000 0.789756
O O24 0.206125 0.913030 0.000000
#
# Coordination Sequence:
#
# PCOD8195464 Si02
#       8
#     8   8   8   8   8   8   8   8
#     4  11  22  35  54  79 107 140 177 217 261 314
#     4   9  17  29  47  71  96 125 167 216 259 300
#     4  10  19  31  49  72  99 132 170 215 265 313
#     4  11  24  40  58  80 107 139 175 218 266 313
#     4   8  15  30  52  76 101 131 169 211 254 303
#     4   8  14  26  46  72 100 132 174 222 268 314
#     4  10  21  37  58  83 111 143 177 213 254 306
#     4   9  17  30  50  75 103 135 169 208 256 307
#
# _framework density 19.415759999999999
#
# number of rings (size 3 to 8) (size 9 to 14) (size 15 to 20)
#    0.000    2.500    0.000    3.375    0.000    5.750 
#    0.000    2.500    0.000    3.750    0.000    7.000 
#    0.000    0.000    0.000    0.000    0.000    0.000 
#
# Total GULP energy -793575.037637 kJ/mol
# GULP energy per Si atom -12399.609963 kJ/mol
# Density = 1.937157 g / cm^3
# Si number density = 19.415760 Si / 1000 Ang^3
#
#
#
# Elastic Constant Matrix: (Units=GPa)
#
#
# Indices 1 2 3 4 5 6 
#
# 1 109.7942 62.4137 13.1356 0.0000 0.0000 0.0000
# 2 62.4137 126.0031 13.8303 0.0000 0.0000 0.0000
# 3 13.1356 13.8303 14.5435 0.0000 0.0000 0.0000
# 4 0.0000 0.0000 0.0000 13.4233 0.0000 0.0000
# 5 0.0000 0.0000 0.0000 0.0000 5.3571 0.0000
# 6 0.0000 0.0000 0.0000 0.0000 0.0000 44.1313
#
#
#
# Elastic Compliance Matrix: (Units=1/GPa)
#
#
# Indices 1 2 3 4 5 6 
#
# 1 0.013185 -0.005833 -0.006362 0.000000 0.000000 0.000000
# 2 -0.005833 0.011441 -0.005612 0.000000 0.000000 0.000000
# 3 -0.006362 -0.005612 0.079842 0.000000 0.000000 0.000000
# 4 0.000000 0.000000 0.000000 0.074497 0.000000 0.000000
# 5 0.000000 0.000000 0.000000 0.000000 0.186670 0.000000
# 6 0.000000 0.000000 0.000000 0.000000 0.000000 0.022660
#
#
# Mechanical properties :
#
#
# Convention : Reuss Voigt Hill
#
# Bulk Modulus (GPa) = 14.52329 47.67778 31.10054
# Shear Modulus (GPa) = 11.18919 23.31308 17.25114
#
# Velocity S-wave (km/s) = 2.40322 3.46891 2.98403
# Velocity P-wave (km/s) = 3.89833 6.37605 5.28446
#
# Compressibility (1/GPa) = 0.06885490
#
# Stress axis : x y z
#
# Youngs Moduli (GPa) = 75.84593 87.40202 12.52468
#
# Poissons Ratio (x) = 0.50977 0.07968
# Poissons Ratio (y) = 0.44237 0.07029
# Poissons Ratio (z) = 0.48252 0.49054
#
# Static dielectric constant tensor:
#      x y z
#    x 3.644610 0.000000 0.000000 
#    y 0.000000 3.894800 0.000000 
#    z 0.000000 0.000000 3.119480 
# 
# 
# High freq. dielectric constant tensor:
#      x y z
#    x 1.757690 0.000000 0.000000 
#    y 0.000000 1.773080 0.000000 
#    z 0.000000 0.000000 1.713480 
# 
# From -- ./inp_files/9905.got.cif
#   From: 2010.03.12/outbox.cif.g09.slc.cpg/sg47_5_cif.got.tgz:9905.got - 2010.04.14 03:12:58.
