data_PCOD8195494
_publ_section_title
;
Structure prediction by ZEFSAII (Michael W. Deem and Ramdas Pophale) SiO2 
 PCOD8195494
Probable space group: P M M M
;
_chemical_formula_sum "Si O2"
_cell_formula_units_Z 48
_cell_length_a 17.972650
_cell_length_b 15.575140
_cell_length_c 8.757013
_cell_angle_alpha 90.000000
_cell_angle_beta 90.000000
_cell_angle_gamma 90.000000
_cell_volume 2451.320349
_symmetry_space_group_name_H-M "P M M M"
_symmetry_group_IT_number 47
_symmetry_cell_setting 'orthorhombic'
loop_
_space_group_symop_operation_xyz
x,y,z
-x,-y,z
x,-y,-z
-x,y,-z
-x,-y,-z
x,y,-z
-x,y,z
x,-y,z
loop_
_atom_site_type_symbol
_atom_site_label
_atom_site_fract_x
_atom_site_fract_y
_atom_site_fract_z
Si Si1 0.330281 0.000000 0.819178
Si Si2 0.086647 0.173796 0.322877
Si Si3 0.084761 0.500000 0.319526
Si Si4 0.162816 0.664331 0.820043
Si Si5 0.415892 0.500000 0.182189
Si Si6 0.415921 0.165801 0.182244
Si Si7 0.830039 0.000000 0.322272
Si Si8 0.668246 0.667299 0.181712
O O1 0.372044 0.916512 0.753309
O O2 0.245176 0.000000 0.772057
O O3 0.334600 0.000000 0.000000
O O4 0.100323 0.195559 0.500000
O O5 0.122173 0.247657 0.220643
O O6 0.122722 0.083384 0.276681
O O7 0.000000 0.167752 0.285056
O O8 0.089264 0.500000 0.500000
O O9 0.123571 0.415191 0.258798
O O10 0.000000 0.500000 0.261999
O O11 0.247271 0.668738 0.759268
O O12 0.160158 0.649901 0.000000
O O13 0.500000 0.500000 0.245056
O O14 0.373147 0.416763 0.245781
O O15 0.416175 0.500000 0.000000
O O16 0.500000 0.164145 0.244997
O O17 0.374599 0.249846 0.246643
O O18 0.416113 0.166022 0.000000
O O19 0.810404 0.000000 0.500000
O O20 0.666417 0.667819 0.000000
#
# Coordination Sequence:
#
# PCOD8195494 Si02
#       8
#     4   8   4   8   4   8   4   8
#     4  10  19  31  49  75 105 134 170 220 270 310
#     4  10  21  38  58  79 105 139 181 226 268 317
#     4  11  24  41  59  79 106 143 186 226 262 311
#     4  11  22  36  56  83 114 143 173 218 276 328
#     4   9  15  24  40  62  92 131 168 200 240 293
#     4   9  16  27  45  70 101 137 174 211 256 311
#     4  10  21  37  57  79 105 142 184 222 268 326
#     4   9  17  28  43  68 102 134 164 205 257 309
#
# _framework density 19.581284
#
# number of rings (size 3 to 8) (size 9 to 14) (size 15 to 20)
#    0.000    2.167    0.000    3.750    0.000   10.333 
#    0.000    0.000    0.000    2.500    0.000    0.000 
#    0.000   27.333    0.000    0.000    0.000    0.000 
#
# Total GULP energy -595317.321503 kJ/mol
# GULP energy per Si atom -12402.444198 kJ/mol
# Density = 1.953672 g / cm^3
# Si number density = 19.581284 Si / 1000 Ang^3
#
#
#
# Elastic Constant Matrix: (Units=GPa)
#
#
# Indices 1 2 3 4 5 6 
#
# 1 188.7643 92.3141 22.7668 0.0000 0.0000 0.0000
# 2 92.3141 187.8243 18.7431 0.0000 0.0000 0.0000
# 3 22.7668 18.7431 20.5845 0.0000 0.0000 0.0000
# 4 0.0000 0.0000 0.0000 29.5480 0.0000 0.0000
# 5 0.0000 0.0000 0.0000 0.0000 5.2734 0.0000
# 6 0.0000 0.0000 0.0000 0.0000 0.0000 48.9757
#
#
#
# Elastic Compliance Matrix: (Units=1/GPa)
#
#
# Indices 1 2 3 4 5 6 
#
# 1 0.007486 -0.003138 -0.005422 0.000000 0.000000 0.000000
# 2 -0.003138 0.007172 -0.003059 0.000000 0.000000 0.000000
# 3 -0.005422 -0.003059 0.057363 0.000000 0.000000 0.000000
# 4 0.000000 0.000000 0.000000 0.033843 0.000000 0.000000
# 5 0.000000 0.000000 0.000000 0.000000 0.189630 0.000000
# 6 0.000000 0.000000 0.000000 0.000000 0.000000 0.020418
#
#
# Mechanical properties :
#
#
# Convention : Reuss Voigt Hill
#
# Bulk Modulus (GPa) = 20.49968 73.86903 47.18436
# Shear Modulus (GPa) = 14.06811 34.31601 24.19206
#
# Velocity S-wave (km/s) = 2.68329 4.19082 3.51874
# Velocity P-wave (km/s) = 4.48239 7.82454 6.37634
#
# Compressibility (1/GPa) = 0.04878124
#
# Stress axis : x y z
#
# Youngs Moduli (GPa) = 133.57481 139.43291 17.43283
#
# Poissons Ratio (x) = 0.43760 0.09453
# Poissons Ratio (y) = 0.41921 0.05333
# Poissons Ratio (z) = 0.72431 0.42655
#
# Static dielectric constant tensor:
#      x y z
#    x 3.811350 0.000000 0.000000 
#    y 0.000000 3.812130 0.000000 
#    z 0.000000 0.000000 3.072100 
# 
# 
# High freq. dielectric constant tensor:
#      x y z
#    x 1.783650 0.000000 0.000000 
#    y 0.000000 1.784970 0.000000 
#    z 0.000000 0.000000 1.711570 
# 
# From -- ./inp_files/9262.got.cif
#   From: 2010.03.12/outbox.cif.g09.slc.cpg/sg47_5_cif.got.tgz:9262.got - 2010.04.14 03:12:58.
