data_PCOD8195146
_publ_section_title
;
Structure prediction by ZEFSAII (Michael W. Deem and Ramdas Pophale) SiO2 
 PCOD8195146
Probable space group: P M M M
;
_chemical_formula_sum "Si O2"
_cell_formula_units_Z 52
_cell_length_a 27.804002
_cell_length_b 11.865117
_cell_length_c 9.008040
_cell_angle_alpha 90.000000
_cell_angle_beta 90.000000
_cell_angle_gamma 90.000000
_cell_volume 2971.732009
_symmetry_space_group_name_H-M "P M M M"
_symmetry_group_IT_number 47
_symmetry_cell_setting 'orthorhombic'
loop_
_space_group_symop_operation_xyz
x,y,z
-x,-y,z
x,-y,-z
-x,y,-z
-x,-y,-z
x,y,-z
-x,y,z
x,-y,z
loop_
_atom_site_type_symbol
_atom_site_label
_atom_site_fract_x
_atom_site_fract_y
_atom_site_fract_z
Si Si1 0.340252 0.500000 0.173988
Si Si2 0.244630 0.500000 0.335148
Si Si3 0.096846 0.369225 0.824541
Si Si4 0.265871 0.868381 0.173598
Si Si5 0.361586 0.257198 0.824080
Si Si6 0.000000 0.366627 0.333205
Si Si7 0.554366 0.869726 0.670460
Si Si8 0.813379 0.273603 0.671039
O O1 0.284115 0.500000 0.208271
O O2 0.363417 0.614602 0.239244
O O3 0.346935 0.500000 0.000000
O O4 0.267955 0.500000 0.500000
O O5 0.212737 0.391558 0.310689
O O6 0.107051 0.500000 0.781355
O O7 0.136936 0.285467 0.759384
O O8 0.046953 0.325828 0.755084
O O9 0.094437 0.354802 0.000000
O O10 0.313744 0.805765 0.235371
O O11 0.219061 0.825102 0.259848
O O12 0.272566 0.000000 0.206114
O O13 0.258601 0.843725 0.000000
O O14 0.410046 0.198720 0.773251
O O15 0.360296 0.255149 0.000000
O O16 0.000000 0.500000 0.340512
O O17 0.000000 0.316072 0.500000
O O18 0.568308 0.849600 0.500000
O O19 0.500000 0.828390 0.700926
O O20 0.559124 0.000000 0.712267
O O21 0.823963 0.244301 0.500000
#
# Coordination Sequence:
#
# PCOD8195146 Si02
#       8
#     4   4   8   8   8   4   8   8
#     4  10  20  34  53  75 103 136 170 206 247 302
#     4  10  20  32  48  72 102 134 172 213 248 296
#     4  10  19  30  47  71 101 137 175 213 257 308
#     4  10  21  36  53  75 103 134 171 213 255 303
#     4  10  20  34  54  79 104 133 168 207 253 303
#     4   9  17  29  45  67 100 137 172 213 259 306
#     4   9  19  36  56  77 101 131 169 212 256 301
#     4  11  21  33  50  74 104 136 173 213 257 306
#
# _framework density 17.498213
#
# number of rings (size 3 to 8) (size 9 to 14) (size 15 to 20)
#    0.000    2.077    2.308    2.077    0.000    4.923 
#    0.000    1.154    0.000    2.308    0.000    0.538 
#    0.000    4.308    0.000    0.000    0.000    0.000 
#
# Total GULP energy -644777.689590 kJ/mol
# GULP energy per Si atom -12399.570954 kJ/mol
# Density = 1.745839 g / cm^3
# Si number density = 17.498213 Si / 1000 Ang^3
#
#
#
# Elastic Constant Matrix: (Units=GPa)
#
#
# Indices 1 2 3 4 5 6 
#
# 1 121.6271 49.0488 40.7668 0.0000 0.0000 0.0000
# 2 49.0488 86.0509 34.1101 0.0000 0.0000 0.0000
# 3 40.7668 34.1101 55.1482 0.0000 0.0000 0.0000
# 4 0.0000 0.0000 0.0000 26.1261 0.0000 0.0000
# 5 0.0000 0.0000 0.0000 0.0000 34.2379 0.0000
# 6 0.0000 0.0000 0.0000 0.0000 0.0000 29.8624
#
#
#
# Elastic Compliance Matrix: (Units=1/GPa)
#
#
# Indices 1 2 3 4 5 6 
#
# 1 0.012085 -0.004435 -0.006191 0.000000 0.000000 0.000000
# 2 -0.004435 0.017023 -0.007251 0.000000 0.000000 0.000000
# 3 -0.006191 -0.007251 0.027194 0.000000 0.000000 0.000000
# 4 0.000000 0.000000 0.000000 0.038276 0.000000 0.000000
# 5 0.000000 0.000000 0.000000 0.000000 0.029207 0.000000
# 6 0.000000 0.000000 0.000000 0.000000 0.000000 0.033487
#
#
# Mechanical properties :
#
#
# Convention : Reuss Voigt Hill
#
# Bulk Modulus (GPa) = 48.66221 56.74196 52.70208
# Shear Modulus (GPa) = 25.01566 27.30532 26.16049
#
# Velocity S-wave (km/s) = 3.78512 3.95456 3.87077
# Velocity P-wave (km/s) = 6.85369 7.30404 7.08245
#
# Compressibility (1/GPa) = 0.02054983
#
# Stress axis : x y z
#
# Youngs Moduli (GPa) = 82.74570 58.74440 36.77264
#
# Poissons Ratio (x) = 0.26050 0.22765
# Poissons Ratio (y) = 0.36694 0.26663
# Poissons Ratio (z) = 0.51227 0.42595
#
# Static dielectric constant tensor:
#      x y z
#    x 3.254320 0.000000 0.000000 
#    y 0.000000 3.221370 0.000000 
#    z 0.000000 0.000000 3.249140 
# 
# 
# High freq. dielectric constant tensor:
#      x y z
#    x 1.677430 0.000000 0.000000 
#    y 0.000000 1.653620 0.000000 
#    z 0.000000 0.000000 1.677400 
# 
# From -- ./inp_files/13304.got.cif
#   From: 2010.03.12/outbox.cif.g09.slc.cpg/sg47_7_cif.got.tgz:13304.got - 2010.04.14 03:12:58.
