data_PCOD8195573
_publ_section_title
;
Structure prediction by ZEFSAII (Michael W. Deem and Ramdas Pophale) SiO2 
 PCOD8195573
Probable space group: P M M M
;
_chemical_formula_sum "Si O2"
_cell_formula_units_Z 44
_cell_length_a 14.146071
_cell_length_b 18.252249
_cell_length_c 9.251287
_cell_angle_alpha 90.000000
_cell_angle_beta 90.000000
_cell_angle_gamma 90.000000
_cell_volume 2388.660195
_symmetry_space_group_name_H-M "P M M M"
_symmetry_group_IT_number 47
_symmetry_cell_setting 'orthorhombic'
loop_
_space_group_symop_operation_xyz
x,y,z
-x,-y,z
x,-y,-z
-x,y,-z
-x,-y,-z
x,y,-z
-x,y,z
x,-y,z
loop_
_atom_site_type_symbol
_atom_site_label
_atom_site_fract_x
_atom_site_fract_y
_atom_site_fract_z
Si Si1 0.112039 0.919829 0.661128
Si Si2 0.728345 0.714933 0.670241
Si Si3 0.109652 0.779815 0.831153
Si Si4 0.612701 0.000000 0.165292
Si Si5 0.608759 0.142409 0.668166
Si Si6 0.394466 0.581229 0.328500
O O1 0.149958 0.899973 0.500000
O O2 0.145989 0.858606 0.773133
O O3 0.000000 0.922737 0.657483
O O4 0.150736 0.000000 0.709057
O O5 0.746543 0.709748 0.500000
O O6 0.829191 0.717940 0.750945
O O7 0.665758 0.785176 0.711609
O O8 0.676316 0.642688 0.731940
O O9 0.000000 0.766154 0.793839
O O10 0.128946 0.777017 0.000000
O O11 0.651219 0.073141 0.244456
O O12 0.500000 0.000000 0.177164
O O13 0.647426 0.000000 0.000000
O O14 0.619312 0.123943 0.500000
O O15 0.500000 0.157188 0.709389
O O16 0.398408 0.587505 0.500000
O O17 0.500000 0.595206 0.267142
O O18 0.359312 0.500000 0.281981
#
# Coordination Sequence:
#
# PCOD8195573 Si02
#       6
#     8   8   8   4   8   8
#     4   8  14  27  48  70  90 116 155 206 260 307
#     4  10  19  31  51  78 102 129 166 205 247 298
#     4  10  21  35  49  67  95 132 172 213 257 301
#     4   9  17  29  45  65  92 129 170 207 243 282
#     4   9  17  30  48  70  97 128 162 200 241 290
#     4   8  14  27  51  84 116 137 155 191 246 303
#
# _framework density 18.420368
#
# number of rings (size 3 to 8) (size 9 to 14) (size 15 to 20)
#    0.000    3.000    0.000    2.455    0.000    5.455 
#    1.636    1.818    0.000    2.727    0.000    5.091 
#    0.000    0.000    0.000    0.000    0.000    0.000 
#
# Total GULP energy -545458.169063 kJ/mol
# GULP energy per Si atom -12396.776570 kJ/mol
# Density = 1.837844 g / cm^3
# Si number density = 18.420368 Si / 1000 Ang^3
#
#
#
# Elastic Constant Matrix: (Units=GPa)
#
#
# Indices 1 2 3 4 5 6 
#
# 1 79.7601 69.0772 37.7406 0.0000 0.0000 0.0000
# 2 69.0772 149.6883 54.9730 0.0000 0.0000 0.0000
# 3 37.7406 54.9730 62.9152 0.0000 0.0000 0.0000
# 4 0.0000 0.0000 0.0000 5.6546 0.0000 0.0000
# 5 0.0000 0.0000 0.0000 0.0000 18.8936 0.0000
# 6 0.0000 0.0000 0.0000 0.0000 0.0000 26.8793
#
#
#
# Elastic Compliance Matrix: (Units=1/GPa)
#
#
# Indices 1 2 3 4 5 6 
#
# 1 0.022573 -0.008016 -0.006536 0.000000 0.000000 0.000000
# 2 -0.008016 0.012684 -0.006274 0.000000 0.000000 0.000000
# 3 -0.006536 -0.006274 0.025297 0.000000 0.000000 0.000000
# 4 0.000000 0.000000 0.000000 0.176847 0.000000 0.000000
# 5 0.000000 0.000000 0.000000 0.000000 0.052928 0.000000
# 6 0.000000 0.000000 0.000000 0.000000 0.000000 0.037203
#
#
# Mechanical properties :
#
#
# Convention : Reuss Voigt Hill
#
# Bulk Modulus (GPa) = 52.90763 68.43834 60.67299
# Shear Modulus (GPa) = 13.31603 18.99035 16.15319
#
# Velocity S-wave (km/s) = 2.69159 3.21431 2.96450
# Velocity P-wave (km/s) = 6.20034 7.14213 6.68784
#
# Compressibility (1/GPa) = 0.01890086
#
# Stress axis : x y z
#
# Youngs Moduli (GPa) = 44.30031 78.83878 39.52967
#
# Poissons Ratio (x) = 0.63201 0.25838
# Poissons Ratio (y) = 0.35513 0.24801
# Poissons Ratio (z) = 0.28956 0.49465
#
# Static dielectric constant tensor:
#      x y z
#    x 3.376610 0.000000 0.000000 
#    y 0.000000 3.563950 0.000000 
#    z 0.000000 0.000000 3.126710 
# 
# 
# High freq. dielectric constant tensor:
#      x y z
#    x 1.711130 0.000000 0.000000 
#    y 0.000000 1.701430 0.000000 
#    z 0.000000 0.000000 1.684300 
# 
# From -- ./inp_files/6087.got.cif
#   From: 2010.03.12/outbox.cif.g09.slc.cpg/sg47_4_cif.got.tgz:6087.got - 2010.04.14 03:12:58.
