data_PCOD8195400
_publ_section_title
;
Structure prediction by ZEFSAII (Michael W. Deem and Ramdas Pophale) SiO2 
 PCOD8195400
Probable space group: P M M M
;
_chemical_formula_sum "Si O2"
_cell_formula_units_Z 40
_cell_length_a 24.574711
_cell_length_b 8.914958
_cell_length_c 10.261252
_cell_angle_alpha 90.000000
_cell_angle_beta 90.000000
_cell_angle_gamma 90.000000
_cell_volume 2248.060910
_symmetry_space_group_name_H-M "P M M M"
_symmetry_group_IT_number 47
_symmetry_cell_setting 'orthorhombic'
loop_
_space_group_symop_operation_xyz
x,y,z
-x,-y,z
x,-y,-z
-x,y,-z
-x,-y,-z
x,y,-z
-x,y,z
x,-y,z
loop_
_atom_site_type_symbol
_atom_site_label
_atom_site_fract_x
_atom_site_fract_y
_atom_site_fract_z
Si Si1 0.377670 0.178487 0.744550
Si Si2 0.835384 0.833008 0.845303
Si Si3 0.940321 0.668698 0.154982
Si Si4 0.563551 0.677282 0.500000
Si Si5 0.439582 0.822081 0.000000
Si Si6 0.273986 0.676144 0.151227
O O1 0.407978 0.252253 0.624554
O O2 0.408864 0.235973 0.872649
O O3 0.316104 0.236542 0.756530
O O4 0.377996 0.000000 0.729096
O O5 0.892025 0.770327 0.785986
O O6 0.785779 0.726697 0.802297
O O7 0.825739 0.000000 0.790201
O O8 0.839517 0.836136 0.000000
O O9 0.932511 0.500000 0.207343
O O10 0.000000 0.730221 0.198297
O O11 0.936706 0.668137 0.000000
O O12 0.572121 0.500000 0.500000
O O13 0.500000 0.720640 0.500000
O O14 0.500000 0.753247 0.000000
O O15 0.441767 0.000000 0.000000
O O16 0.280137 0.500000 0.173086
O O17 0.283673 0.720425 0.000000
#
# Coordination Sequence:
#
# PCOD8195400 Si02
#       6
#     8   8   8   4   4   8
#     4  11  21  36  58  81 106 135 171 213 256 305
#     4   9  16  24  36  56  83 116 158 205 250 295
#     4   8  13  21  32  47  72 110 155 199 245 298
#     4  11  25  43  59  79 109 141 172 207 252 309
#     4   9  18  32  53  81 107 129 160 205 252 297
#     4  10  19  31  48  70  99 131 165 206 256 309
#
# _framework density 17.793112000000001
#
# number of rings (size 3 to 8) (size 9 to 14) (size 15 to 20)
#    0.000    2.400    1.000    3.300    0.000    5.200 
#    0.000    2.000    0.000    2.400    0.000    0.000 
#    0.000    0.000    0.000    0.900    0.000   17.000 
#
# Total GULP energy -495902.122564 kJ/mol
# GULP energy per Si atom -12397.553064 kJ/mol
# Density = 1.775261 g / cm^3
# Si number density = 17.793112 Si / 1000 Ang^3
#
#
#
# Elastic Constant Matrix: (Units=GPa)
#
#
# Indices 1 2 3 4 5 6 
#
# 1 163.8932 60.7774 47.2853 0.0000 0.0000 0.0000
# 2 60.7774 93.0296 33.7218 0.0000 0.0000 0.0000
# 3 47.2853 33.7218 72.8637 0.0000 0.0000 0.0000
# 4 0.0000 0.0000 0.0000 27.4848 0.0000 0.0000
# 5 0.0000 0.0000 0.0000 0.0000 8.4875 0.0000
# 6 0.0000 0.0000 0.0000 0.0000 0.0000 33.7774
#
#
#
# Elastic Compliance Matrix: (Units=1/GPa)
#
#
# Indices 1 2 3 4 5 6 
#
# 1 0.008797 -0.004419 -0.003664 0.000000 0.000000 0.000000
# 2 -0.004419 0.015136 -0.004137 0.000000 0.000000 0.000000
# 3 -0.003664 -0.004137 0.018017 0.000000 0.000000 0.000000
# 4 0.000000 0.000000 0.000000 0.036384 0.000000 0.000000
# 5 0.000000 0.000000 0.000000 0.000000 0.117820 0.000000
# 6 0.000000 0.000000 0.000000 0.000000 0.000000 0.029606
#
#
# Mechanical properties :
#
#
# Convention : Reuss Voigt Hill
#
# Bulk Modulus (GPa) = 57.11182 68.15063 62.63122
# Shear Modulus (GPa) = 19.52842 26.48339 23.00591
#
# Velocity S-wave (km/s) = 3.31649 3.86217 3.59969
# Velocity P-wave (km/s) = 6.84345 7.63370 7.24935
#
# Compressibility (1/GPa) = 0.01750951
#
# Stress axis : x y z
#
# Youngs Moduli (GPa) = 113.66898 66.06694 55.50434
#
# Poissons Ratio (x) = 0.29198 0.20336
# Poissons Ratio (y) = 0.50235 0.22963
# Poissons Ratio (z) = 0.41646 0.27333
#
# Static dielectric constant tensor:
#      x y z
#    x 3.641440 0.000000 0.000000 
#    y 0.000000 3.344240 0.000000 
#    z 0.000000 0.000000 2.776320 
# 
# 
# High freq. dielectric constant tensor:
#      x y z
#    x 1.710860 0.000000 0.000000 
#    y 0.000000 1.691220 0.000000 
#    z 0.000000 0.000000 1.620010 
# 
# From -- ./inp_files/12981.got.cif
#   From: 2010.03.12/outbox.cif.g09.slc.cpg/sg47_7_cif.got.tgz:12981.got - 2010.04.14 03:12:58.
