data_PCOD8195656
_publ_section_title
;
Structure prediction by ZEFSAII (Michael W. Deem and Ramdas Pophale) SiO2 
 PCOD8195656
Probable space group: P M M M
;
_chemical_formula_sum "Si O2"
_cell_formula_units_Z 56
_cell_length_a 27.984875
_cell_length_b 9.582508
_cell_length_c 12.274306
_cell_angle_alpha 90.000000
_cell_angle_beta 90.000000
_cell_angle_gamma 90.000000
_cell_volume 3291.542810
_symmetry_space_group_name_H-M "P M M M"
_symmetry_group_IT_number 47
_symmetry_cell_setting 'orthorhombic'
loop_
_space_group_symop_operation_xyz
x,y,z
-x,-y,z
x,-y,-z
-x,y,-z
-x,-y,-z
x,y,-z
-x,y,z
x,-y,z
loop_
_atom_site_type_symbol
_atom_site_label
_atom_site_fract_x
_atom_site_fract_y
_atom_site_fract_z
Si Si1 0.729462 0.164632 0.231666
Si Si2 0.185672 0.840285 0.376458
Si Si3 0.868227 0.666853 0.000000
Si Si4 0.093833 0.340826 0.380207
Si Si5 0.552626 0.344129 0.370892
Si Si6 0.358829 0.164455 0.626568
Si Si7 0.948674 0.337453 0.838930
Si Si8 0.231446 0.834622 0.000000
O O1 0.774374 0.224918 0.297995
O O2 0.681720 0.222252 0.290331
O O3 0.736134 0.206879 0.104837
O O4 0.728630 0.000000 0.245667
O O5 0.204203 0.826547 0.500000
O O6 0.138461 0.754911 0.355313
O O7 0.174391 0.000000 0.346749
O O8 0.900951 0.718481 0.898121
O O9 0.818364 0.749887 0.000000
O O10 0.857563 0.500000 0.000000
O O11 0.072139 0.309973 0.500000
O O12 0.111577 0.500000 0.371324
O O13 0.053997 0.308169 0.290266
O O14 0.551385 0.343930 0.500000
O O15 0.500000 0.299035 0.326944
O O16 0.565009 0.500000 0.328770
O O17 0.592647 0.236230 0.330751
O O18 0.346686 0.203063 0.500000
O O19 0.365952 0.000000 0.637811
O O20 0.950449 0.500000 0.865486
O O21 0.000000 0.272552 0.878039
O O22 0.219434 0.000000 0.000000
#
# Coordination Sequence:
#
# PCOD8195656 Si02
#       8
#     8   8   4   8   8   8   8   4
#     4   9  17  29  44  63  85 111 144 177 211 252
#     4   9  16  27  44  62  82 111 142 169 202 249
#     4  10  19  32  50  68  84 103 135 178 213 245
#     4   9  17  28  42  62  86 108 133 167 203 241
#     4   8  14  25  40  60  90 124 151 175 210 258
#     4   9  16  26  42  64  89 115 145 182 216 246
#     4   9  17  29  46  66  85 107 135 167 206 250
#     4  10  20  33  49  65  85 115 144 171 209 258
#
# _framework density 17.013297999999999
#
# number of rings (size 3 to 8) (size 9 to 14) (size 15 to 20)
#    0.000    3.000    0.000    1.929    0.000    3.143 
#    0.000    4.286    0.000    5.571    0.000    2.500 
#    0.000    4.000    0.000    0.000    0.000    0.000 
#
# Total GULP energy -693769.346906 kJ/mol
# GULP energy per Si atom -12388.738338 kJ/mol
# Density = 1.697458 g / cm^3
# Si number density = 17.013298 Si / 1000 Ang^3
#
#
#
# Elastic Constant Matrix: (Units=GPa)
#
#
# Indices 1 2 3 4 5 6 
#
# 1 116.1403 38.0175 58.5039 0.0000 0.0000 0.0000
# 2 38.0175 36.7121 24.6256 0.0000 0.0000 0.0000
# 3 58.5039 24.6256 98.4108 0.0000 0.0000 0.0000
# 4 0.0000 0.0000 0.0000 12.3343 0.0000 0.0000
# 5 0.0000 0.0000 0.0000 0.0000 69.0000 0.0000
# 6 0.0000 0.0000 0.0000 0.0000 0.0000 23.0819
#
#
#
# Elastic Compliance Matrix: (Units=1/GPa)
#
#
# Indices 1 2 3 4 5 6 
#
# 1 0.015755 -0.012056 -0.006349 0.000000 0.000000 0.000000
# 2 -0.012056 0.041959 -0.003332 0.000000 0.000000 0.000000
# 3 -0.006349 -0.003332 0.014770 0.000000 0.000000 0.000000
# 4 0.000000 0.000000 0.000000 0.081075 0.000000 0.000000
# 5 0.000000 0.000000 0.000000 0.000000 0.014493 0.000000
# 6 0.000000 0.000000 0.000000 0.000000 0.000000 0.043324
#
#
# Mechanical properties :
#
#
# Convention : Reuss Voigt Hill
#
# Bulk Modulus (GPa) = 34.47277 54.83969 44.65623
# Shear Modulus (GPa) = 18.90209 29.55767 24.22988
#
# Velocity S-wave (km/s) = 3.33681 4.17265 3.77792
# Velocity P-wave (km/s) = 5.92891 7.45104 6.73313
#
# Compressibility (1/GPa) = 0.02900841
#
# Stress axis : x y z
#
# Youngs Moduli (GPa) = 63.47102 23.83267 67.70522
#
# Poissons Ratio (x) = 0.28734 0.42988
# Poissons Ratio (y) = 0.76523 0.22561
# Poissons Ratio (z) = 0.40300 0.07941
#
# Static dielectric constant tensor:
#      x y z
#    x 3.369880 0.000000 0.000000 
#    y 0.000000 2.974540 0.000000 
#    z 0.000000 0.000000 3.285830 
# 
# 
# High freq. dielectric constant tensor:
#      x y z
#    x 1.653040 0.000000 0.000000 
#    y 0.000000 1.621910 0.000000 
#    z 0.000000 0.000000 1.646170 
# 
# From -- ./inp_files/19618.got.cif
#   From: 2010.03.12/outbox.cif.g09.slc.cpg/sg47_10_cif.got.tgz:19618.got - 2010.04.14 03:12:58.
