data_PCOD8195621
_publ_section_title
;
Structure prediction by ZEFSAII (Michael W. Deem and Ramdas Pophale) SiO2 
 PCOD8195621
Probable space group: P M M M
;
_chemical_formula_sum "Si O2"
_cell_formula_units_Z 44
_cell_length_a 14.034266
_cell_length_b 15.409793
_cell_length_c 12.654049
_cell_angle_alpha 90.000000
_cell_angle_beta 90.000000
_cell_angle_gamma 90.000000
_cell_volume 2736.629602
_symmetry_space_group_name_H-M "P M M M"
_symmetry_group_IT_number 47
_symmetry_cell_setting 'orthorhombic'
loop_
_space_group_symop_operation_xyz
x,y,z
-x,-y,z
x,-y,-z
-x,y,-z
-x,-y,-z
x,y,-z
-x,y,z
x,-y,z
loop_
_atom_site_type_symbol
_atom_site_label
_atom_site_fract_x
_atom_site_fract_y
_atom_site_fract_z
Si Si1 0.895761 0.093886 0.377486
Si Si2 0.113797 0.395202 0.500000
Si Si3 0.110375 0.332942 0.118618
Si Si4 0.195879 0.732560 0.321213
Si Si5 0.394024 0.683930 0.378655
Si Si6 0.764888 0.500000 0.881475
Si Si7 0.604978 0.500000 0.292689
O O1 0.909516 0.081566 0.500000
O O2 0.822000 0.171243 0.362257
O O3 0.000000 0.117009 0.328134
O O4 0.860027 0.000000 0.330891
O O5 0.139054 0.500000 0.500000
O O6 0.156096 0.345511 0.603284
O O7 0.000000 0.383419 0.500000
O O8 0.147346 0.266299 0.206095
O O9 0.168542 0.419187 0.140312
O O10 0.000000 0.354227 0.135557
O O11 0.128489 0.296419 0.000000
O O12 0.310561 0.727482 0.309756
O O13 0.379529 0.710496 0.500000
O O14 0.500000 0.712915 0.339346
O O15 0.381295 0.581134 0.369271
O O16 0.676736 0.500000 0.804002
O O17 0.723850 0.500000 0.000000
O O18 0.500000 0.500000 0.240855
#
# Coordination Sequence:
#
# PCOD8195621 Si02
#       7
#     8   4   8   8   8   4   4
#     4   9  17  30  49  75 104 130 159 196 243 303
#     4  11  24  32  42  74 108 129 156 200 250 292
#     4  10  21  34  48  67  95 133 171 203 241 296
#     4  12  20  33  54  71  98 134 167 205 246 298
#     4  10  20  32  47  68  95 128 165 204 247 298
#     4  10  19  32  47  64  90 126 169 210 246 286
#     4  10  19  32  47  64  90 128 169 206 246 292
#
# _framework density 16.078171999999999
#
# number of rings (size 3 to 8) (size 9 to 14) (size 15 to 20)
#    0.000    1.727    3.636    2.727    2.545    2.364 
#    0.000    0.000    0.000    1.636    0.000    5.091 
#    0.000    0.000    0.000    1.636    0.000    0.364 
#
# Total GULP energy -545157.051474 kJ/mol
# GULP energy per Si atom -12389.932988 kJ/mol
# Density = 1.604158 g / cm^3
# Si number density = 16.078172 Si / 1000 Ang^3
#
#
#
# Elastic Constant Matrix: (Units=GPa)
#
#
# Indices 1 2 3 4 5 6 
#
# 1 116.8731 39.0198 31.9916 0.0000 0.0000 0.0000
# 2 39.0198 92.1072 14.6647 0.0000 0.0000 0.0000
# 3 31.9916 14.6647 69.6177 0.0000 0.0000 0.0000
# 4 0.0000 0.0000 0.0000 10.7680 0.0000 0.0000
# 5 0.0000 0.0000 0.0000 0.0000 22.8912 0.0000
# 6 0.0000 0.0000 0.0000 0.0000 0.0000 1.4136
#
#
#
# Elastic Compliance Matrix: (Units=1/GPa)
#
#
# Indices 1 2 3 4 5 6 
#
# 1 0.011054 -0.004009 -0.004235 0.000000 0.000000 0.000000
# 2 -0.004009 0.012687 -0.000830 0.000000 0.000000 0.000000
# 3 -0.004235 -0.000830 0.016485 0.000000 0.000000 0.000000
# 4 0.000000 0.000000 0.000000 0.092868 0.000000 0.000000
# 5 0.000000 0.000000 0.000000 0.000000 0.043685 0.000000
# 6 0.000000 0.000000 0.000000 0.000000 0.000000 0.707399
#
#
# Mechanical properties :
#
#
# Convention : Reuss Voigt Hill
#
# Bulk Modulus (GPa) = 45.29388 49.99447 47.64418
# Shear Modulus (GPa) = 5.49640 19.87602 12.68621
#
# Velocity S-wave (km/s) = 1.85094 3.51979 2.81202
# Velocity P-wave (km/s) = 5.72714 6.90512 6.34354
#
# Compressibility (1/GPa) = 0.02207804
#
# Stress axis : x y z
#
# Youngs Moduli (GPa) = 90.46580 78.81908 60.65992
#
# Poissons Ratio (x) = 0.31595 0.25691
# Poissons Ratio (y) = 0.36263 0.05038
# Poissons Ratio (z) = 0.38315 0.06546
#
# Static dielectric constant tensor:
#      x y z
#    x 3.247480 0.000000 0.000000 
#    y 0.000000 3.034840 0.000000 
#    z 0.000000 0.000000 3.000080 
# 
# 
# High freq. dielectric constant tensor:
#      x y z
#    x 1.625510 0.000000 0.000000 
#    y 0.000000 1.592440 0.000000 
#    z 0.000000 0.000000 1.599800 
# 
# From -- ./inp_files/17477.got.cif
#   From: 2010.03.12/outbox.cif.g09.slc.cpg/sg47_9_cif.got.tgz:17477.got - 2010.04.14 03:12:58.
