data_PCOD8195337
_publ_section_title
;
Structure prediction by ZEFSAII (Michael W. Deem and Ramdas Pophale) SiO2 
 PCOD8195337
Probable space group: P M M M
;
_chemical_formula_sum "Si O2"
_cell_formula_units_Z 48
_cell_length_a 9.022985
_cell_length_b 29.752132
_cell_length_c 10.266745
_cell_angle_alpha 90.000000
_cell_angle_beta 90.000000
_cell_angle_gamma 90.000000
_cell_volume 2756.138914
_symmetry_space_group_name_H-M "P M M M"
_symmetry_group_IT_number 47
_symmetry_cell_setting 'orthorhombic'
loop_
_space_group_symop_operation_xyz
x,y,z
-x,-y,z
x,-y,-z
-x,y,-z
-x,-y,-z
x,y,-z
-x,y,z
x,-y,z
loop_
_atom_site_type_symbol
_atom_site_label
_atom_site_fract_x
_atom_site_fract_y
_atom_site_fract_z
Si Si1 0.675360 0.449583 0.500000
Si Si2 0.833764 0.135724 0.155557
Si Si3 0.832047 0.553063 0.000000
Si Si4 0.827286 0.686997 0.846991
Si Si5 0.666655 0.950650 0.845148
Si Si6 0.333736 0.776964 0.845288
Si Si7 0.676499 0.599223 0.238477
O O1 0.743409 0.500000 0.500000
O O2 0.500000 0.453055 0.500000
O O3 0.729518 0.422693 0.626535
O O4 0.768876 0.088963 0.211974
O O5 0.738553 0.177410 0.210262
O O6 0.000000 0.140921 0.208001
O O7 0.830638 0.135527 0.000000
O O8 0.745346 0.569153 0.125960
O O9 0.836014 0.500000 0.000000
O O10 0.000000 0.572843 0.000000
O O11 0.764285 0.734803 0.799999
O O12 0.739719 0.649463 0.766660
O O13 0.000000 0.685195 0.813137
O O14 0.798780 0.678877 0.000000
O O15 0.500000 0.943276 0.793589
O O16 0.725261 0.000000 0.800268
O O17 0.667118 0.948296 0.000000
O O18 0.500000 0.772327 0.789494
O O19 0.337127 0.779118 0.000000
O O20 0.500000 0.600433 0.223462
#
# Coordination Sequence:
#
# PCOD8195337 Si02
#       7
#     4   8   4   8   8   8   8
#     4   9  20  38  57  79 105 131 163 203 240 277
#     4   9  15  21  29  43  64  90 122 163 217 271
#     4  11  23  37  53  77 107 133 161 199 240 281
#     4  10  19  31  47  68  97 123 148 187 235 281
#     4   8  13  20  28  37  52  79 118 164 212 261
#     4   9  16  25  38  55  76 103 138 175 217 271
#     4  11  21  35  57  79 101 130 165 200 238 285
#
# _framework density 17.415669000000001
#
# number of rings (size 3 to 8) (size 9 to 14) (size 15 to 20)
#    0.000    2.500    0.833    3.250    0.000    6.333 
#    0.000    3.333    0.000    3.000    0.000    0.000 
#    0.000    0.000    0.000    0.000    0.000    0.000 
#
# Total GULP energy -595097.289237 kJ/mol
# GULP energy per Si atom -12397.860192 kJ/mol
# Density = 1.737603 g / cm^3
# Si number density = 17.415669 Si / 1000 Ang^3
#
#
#
# Elastic Constant Matrix: (Units=GPa)
#
#
# Indices 1 2 3 4 5 6 
#
# 1 124.5486 72.8260 31.0597 0.0000 0.0000 0.0000
# 2 72.8260 163.6911 38.7880 0.0000 0.0000 0.0000
# 3 31.0597 38.7880 58.9381 0.0000 0.0000 0.0000
# 4 0.0000 0.0000 0.0000 -12.8320 0.0000 0.0000
# 5 0.0000 0.0000 0.0000 0.0000 -52.3309 0.0000
# 6 0.0000 0.0000 0.0000 0.0000 0.0000 34.9624
#
#
#
# Elastic Compliance Matrix: (Units=1/GPa)
#
#
# Indices 1 2 3 4 5 6 
#
# 1 0.011323 -0.004293 -0.003142 0.000000 0.000000 0.000000
# 2 -0.004293 0.008865 -0.003572 0.000000 0.000000 0.000000
# 3 -0.003142 -0.003572 0.020973 0.000000 0.000000 0.000000
# 4 0.000000 0.000000 0.000000 -0.077930 0.000000 0.000000
# 5 0.000000 0.000000 0.000000 0.000000 -0.019109 0.000000
# 6 0.000000 0.000000 0.000000 0.000000 0.000000 0.028602
#
#
# Mechanical properties :
#
#
# Convention : Reuss Voigt Hill
#
# Bulk Modulus (GPa) = 52.22469 70.28058 61.25263
# Shear Modulus (GPa) = 4462.07643 7.59351 2234.83497
#
# Velocity S-wave (km/s) = 50.67215 2.09036 35.86109
# Velocity P-wave (km/s) = 58.76740 6.80210 41.83226
#
# Compressibility (1/GPa) = 0.01914803
#
# Stress axis : x y z
#
# Youngs Moduli (GPa) = 88.31860 112.79717 47.67944
#
# Poissons Ratio (x) = 0.48424 0.14979
# Poissons Ratio (y) = 0.37915 0.17032
# Poissons Ratio (z) = 0.27746 0.40293
#
# Static dielectric constant tensor:
#      x y z
#    x 3.384770 0.000000 0.000000 
#    y 0.000000 3.583110 0.000000 
#    z 0.000000 0.000000 2.561340 
# 
# 
# High freq. dielectric constant tensor:
#      x y z
#    x 1.681330 0.000000 0.000000 
#    y 0.000000 1.697100 0.000000 
#    z 0.000000 0.000000 1.589660 
# 
# From -- ./inp_files/2726.got.cif
#   From: 2010.03.12/outbox.cif.g09.slc.cpg/sg47_2_cif.got.tgz:2726.got - 2010.04.14 03:12:58.
