data_PCOD8195765
_publ_section_title
;
Structure prediction by ZEFSAII (Michael W. Deem and Ramdas Pophale) SiO2 
 PCOD8195765
Probable space group: P M M M
;
_chemical_formula_sum "Si O2"
_cell_formula_units_Z 52
_cell_length_a 16.457383
_cell_length_b 20.820489
_cell_length_c 8.688157
_cell_angle_alpha 90.000000
_cell_angle_beta 90.000000
_cell_angle_gamma 90.000000
_cell_volume 2977.003614
_symmetry_space_group_name_H-M "P M M M"
_symmetry_group_IT_number 47
_symmetry_cell_setting 'orthorhombic'
loop_
_space_group_symop_operation_xyz
x,y,z
-x,-y,z
x,-y,-z
-x,y,-z
-x,-y,-z
x,y,-z
-x,y,z
x,-y,z
loop_
_atom_site_type_symbol
_atom_site_label
_atom_site_fract_x
_atom_site_fract_y
_atom_site_fract_z
Si Si1 0.910901 0.807475 0.181776
Si Si2 0.667199 0.143262 0.681011
Si Si3 0.500000 0.153009 0.179522
Si Si4 0.810748 0.927578 0.179203
Si Si5 0.246355 0.264462 0.817319
Si Si6 0.656246 0.627627 0.321793
Si Si7 0.500000 0.712647 0.675213
Si Si8 0.592605 0.500000 0.818383
O O1 0.881858 0.878919 0.231111
O O2 0.844913 0.754915 0.237519
O O3 0.000000 0.794119 0.255751
O O4 0.918124 0.804227 0.000000
O O5 0.664275 0.153562 0.500000
O O6 0.579359 0.121676 0.742899
O O7 0.729743 0.087214 0.724908
O O8 0.690905 0.211212 0.756687
O O9 0.500000 0.229256 0.206486
O O10 0.500000 0.137585 0.000000
O O11 0.839790 0.000000 0.213582
O O12 0.789881 0.917216 0.000000
O O13 0.266599 0.334151 0.747407
O O14 0.253070 0.266754 0.000000
O O15 0.671820 0.613876 0.500000
O O16 0.577383 0.669672 0.291153
O O17 0.644166 0.560726 0.236478
O O18 0.500000 0.739054 0.500000
O O19 0.500000 0.500000 0.750170
O O20 0.587813 0.500000 0.000000
#
# Coordination Sequence:
#
# PCOD8195765 Si02
#       8
#     8   8   4   8   8   8   4   4
#     4   8  15  29  51  80 108 131 160 203 253 303
#     4  11  21  33  49  70  98 130 168 210 254 302
#     4  12  22  32  50  72  96 126 168 218 260 296
#     4   9  18  33  52  74 101 132 166 204 248 301
#     4  10  19  32  51  75 102 132 170 212 254 300
#     4  11  21  34  51  71 102 140 177 212 253 300
#     4  10  20  31  47  71 100 134 171 209 250 297
#     4  11  23  35  49  71 104 141 180 219 253 292
#
# _framework density 17.467227000000001
#
# number of rings (size 3 to 8) (size 9 to 14) (size 15 to 20)
#    0.000    1.923    2.308    4.154    0.000    1.538 
#    0.000    1.923    0.000   13.846    0.000    4.846 
#    0.000    4.308    0.000    0.000    0.000    0.000 
#
# Total GULP energy -644774.594421 kJ/mol
# GULP energy per Si atom -12399.511431 kJ/mol
# Density = 1.742747 g / cm^3
# Si number density = 17.467227 Si / 1000 Ang^3
#
#
#
# Elastic Constant Matrix: (Units=GPa)
#
#
# Indices 1 2 3 4 5 6 
#
# 1 135.4285 49.5331 30.3280 0.0000 0.0000 0.0000
# 2 49.5331 99.8717 25.8223 0.0000 0.0000 0.0000
# 3 30.3280 25.8223 71.7336 0.0000 0.0000 0.0000
# 4 0.0000 0.0000 0.0000 18.6762 0.0000 0.0000
# 5 0.0000 0.0000 0.0000 0.0000 11.2218 0.0000
# 6 0.0000 0.0000 0.0000 0.0000 0.0000 14.8811
#
#
#
# Elastic Compliance Matrix: (Units=1/GPa)
#
#
# Indices 1 2 3 4 5 6 
#
# 1 0.009421 -0.004017 -0.002537 0.000000 0.000000 0.000000
# 2 -0.004017 0.012753 -0.002893 0.000000 0.000000 0.000000
# 3 -0.002537 -0.002893 0.016054 0.000000 0.000000 0.000000
# 4 0.000000 0.000000 0.000000 0.053544 0.000000 0.000000
# 5 0.000000 0.000000 0.000000 0.000000 0.089112 0.000000
# 6 0.000000 0.000000 0.000000 0.000000 0.000000 0.067199
#
#
# Mechanical properties :
#
#
# Convention : Reuss Voigt Hill
#
# Bulk Modulus (GPa) = 51.71791 57.60004 54.65897
# Shear Modulus (GPa) = 18.28675 22.37919 20.33297
#
# Velocity S-wave (km/s) = 3.23912 3.58328 3.41554
# Velocity P-wave (km/s) = 6.60772 7.08290 6.84944
#
# Compressibility (1/GPa) = 0.01933566
#
# Stress axis : x y z
#
# Youngs Moduli (GPa) = 106.14297 78.41396 62.28803
#
# Poissons Ratio (x) = 0.31496 0.15804
# Poissons Ratio (y) = 0.42633 0.18017
# Poissons Ratio (z) = 0.26932 0.22681
#
# Static dielectric constant tensor:
#      x y z
#    x 3.566330 0.000000 0.000000 
#    y 0.000000 3.167960 0.000000 
#    z 0.000000 0.000000 3.164960 
# 
# 
# High freq. dielectric constant tensor:
#      x y z
#    x 1.665010 0.000000 0.000000 
#    y 0.000000 1.656690 0.000000 
#    z 0.000000 0.000000 1.670260 
# 
# From -- ./inp_files/7109.got.cif
#   From: 2010.03.12/outbox.cif.g09.slc.cpg/sg47_4_cif.got.tgz:7109.got - 2010.04.14 03:12:58.
