data_PCOD8195842
_publ_section_title
;
Structure prediction by ZEFSAII (Michael W. Deem and Ramdas Pophale) SiO2 
 PCOD8195842
Probable space group: P M M M
;
_chemical_formula_sum "Si O2"
_cell_formula_units_Z 56
_cell_length_a 22.536727
_cell_length_b 9.735187
_cell_length_c 14.205831
_cell_angle_alpha 90.000000
_cell_angle_beta 90.000000
_cell_angle_gamma 90.000000
_cell_volume 3116.748691
_symmetry_space_group_name_H-M "P M M M"
_symmetry_group_IT_number 47
_symmetry_cell_setting 'orthorhombic'
loop_
_space_group_symop_operation_xyz
x,y,z
-x,-y,z
x,-y,-z
-x,y,-z
-x,-y,-z
x,y,-z
-x,y,z
x,-y,z
loop_
_atom_site_type_symbol
_atom_site_label
_atom_site_fract_x
_atom_site_fract_y
_atom_site_fract_z
Si Si1 0.731675 0.841202 0.304341
Si Si2 0.064231 0.146888 0.249471
Si Si3 0.607797 0.843208 0.388606
Si Si4 0.932326 0.500000 0.389470
Si Si5 0.500000 0.343296 0.387968
Si Si6 0.883457 0.657259 0.893916
Si Si7 0.770427 0.845029 0.103107
Si Si8 0.851286 0.757035 0.388976
O O1 0.669544 0.790213 0.345806
O O2 0.726342 0.822380 0.191051
O O3 0.783790 0.748450 0.350623
O O4 0.743247 0.000000 0.332408
O O5 0.071041 0.269384 0.175137
O O6 0.114470 0.127566 0.330041
O O7 0.000000 0.170158 0.298288
O O8 0.065214 0.000000 0.195467
O O9 0.612720 0.836014 0.500000
O O10 0.557353 0.739821 0.350894
O O11 0.593436 0.000000 0.356822
O O12 0.939808 0.500000 0.500000
O O13 0.891629 0.627317 0.358602
O O14 0.000000 0.500000 0.345810
O O15 0.500000 0.500000 0.348833
O O16 0.500000 0.345319 0.500000
O O17 0.874869 0.500000 0.862017
O O18 0.821451 0.734558 0.884819
O O19 0.908163 0.665050 0.000000
O O20 0.796819 0.000000 0.108949
O O21 0.739158 0.824528 0.000000
O O22 0.850589 0.785486 0.500000
#
# Coordination Sequence:
#
# PCOD8195842 Si02
#       8
#     8   8   8   4   4   8   8   8
#     4  10  19  32  52  79 105 132 171 215 262 314
#     4  11  24  38  53  75  99 128 168 212 262 318
#     4   9  17  30  49  74 106 144 179 210 247 296
#     4   9  20  38  54  68  91 132 182 222 264 318
#     4   9  17  31  49  73 106 145 182 216 247 283
#     4  10  21  37  57  78  98 124 161 208 263 323
#     4   9  17  32  54  76 102 134 165 205 259 315
#     4  11  22  36  53  74 102 137 175 218 264 311
#
# _framework density 17.967441999999998
#
# number of rings (size 3 to 8) (size 9 to 14) (size 15 to 20)
#    0.000    2.143    1.429    1.929    1.000    4.857 
#    1.286    2.143    0.000    0.000    0.000    0.500 
#    0.000    4.000    0.000    0.000    0.000    0.000 
#
# Total GULP energy -693830.165735 kJ/mol
# GULP energy per Si atom -12389.824388 kJ/mol
# Density = 1.792655 g / cm^3
# Si number density = 17.967442 Si / 1000 Ang^3
#
#
#
# Elastic Constant Matrix: (Units=GPa)
#
#
# Indices 1 2 3 4 5 6 
#
# 1 143.0870 57.7702 39.9500 0.0000 0.0000 0.0000
# 2 57.7702 109.0542 33.6963 0.0000 0.0000 0.0000
# 3 39.9500 33.6963 77.7885 0.0000 0.0000 0.0000
# 4 0.0000 0.0000 0.0000 20.4566 0.0000 0.0000
# 5 0.0000 0.0000 0.0000 0.0000 19.0889 0.0000
# 6 0.0000 0.0000 0.0000 0.0000 0.0000 141.7213
#
#
#
# Elastic Compliance Matrix: (Units=1/GPa)
#
#
# Indices 1 2 3 4 5 6 
#
# 1 0.009503 -0.004071 -0.003117 0.000000 0.000000 0.000000
# 2 -0.004071 0.012331 -0.003251 0.000000 0.000000 0.000000
# 3 -0.003117 -0.003251 0.015864 0.000000 0.000000 0.000000
# 4 0.000000 0.000000 0.000000 0.048884 0.000000 0.000000
# 5 0.000000 0.000000 0.000000 0.000000 0.052386 0.000000
# 6 0.000000 0.000000 0.000000 0.000000 0.000000 0.007056
#
#
# Mechanical properties :
#
#
# Convention : Reuss Voigt Hill
#
# Bulk Modulus (GPa) = 59.45067 65.86253 62.65660
# Shear Modulus (GPa) = 28.98425 49.48758 39.23592
#
# Velocity S-wave (km/s) = 4.02077 5.25383 4.67810
# Velocity P-wave (km/s) = 7.39698 8.57553 8.00797
#
# Compressibility (1/GPa) = 0.01682067
#
# Stress axis : x y z
#
# Youngs Moduli (GPa) = 105.23509 81.09885 63.03483
#
# Poissons Ratio (x) = 0.33014 0.19647
# Poissons Ratio (y) = 0.42839 0.20491
# Poissons Ratio (z) = 0.32800 0.26363
#
# Static dielectric constant tensor:
#      x y z
#    x 3.191590 0.000000 0.000000 
#    y 0.000000 3.527000 0.000000 
#    z 0.000000 0.000000 3.395130 
# 
# 
# High freq. dielectric constant tensor:
#      x y z
#    x 1.669720 0.000000 0.000000 
#    y 0.000000 1.700150 0.000000 
#    z 0.000000 0.000000 1.685190 
# 
# From -- ./inp_files/25175.got.cif
#   From: 2010.03.12/outbox.cif.g09.slc.cpg/sg47_13_cif.got.tgz:25175.got - 2010.04.14 03:12:58.
