data_PCOD8195988
_publ_section_title
;
Structure prediction by ZEFSAII (Michael W. Deem and Ramdas Pophale) SiO2 
 PCOD8195988
Probable space group: P M M M
;
_chemical_formula_sum "Si O2"
_cell_formula_units_Z 48
_cell_length_a 8.216033
_cell_length_b 34.172039
_cell_length_c 8.081401
_cell_angle_alpha 90.000000
_cell_angle_beta 90.000000
_cell_angle_gamma 90.000000
_cell_volume 2268.922832
_symmetry_space_group_name_H-M "P M M M"
_symmetry_group_IT_number 47
_symmetry_cell_setting 'orthorhombic'
loop_
_space_group_symop_operation_xyz
x,y,z
-x,-y,z
x,-y,-z
-x,y,-z
-x,-y,-z
x,y,-z
-x,y,z
x,-y,z
loop_
_atom_site_type_symbol
_atom_site_label
_atom_site_fract_x
_atom_site_fract_y
_atom_site_fract_z
Si Si1 0.318356 0.590010 0.302986
Si Si2 0.000000 0.544561 0.697004
Si Si3 0.309809 0.907271 0.687232
Si Si4 0.305937 0.044525 0.000000
Si Si5 0.681117 0.252080 0.812977
Si Si6 0.176453 0.174233 0.690211
Si Si7 0.814489 0.329300 0.312865
O O1 0.310869 0.588406 0.500000
O O2 0.500000 0.576031 0.242661
O O3 0.293521 0.634860 0.243216
O O4 0.168087 0.563933 0.232653
O O5 0.000000 0.500000 0.757921
O O6 0.000000 0.547796 0.500000
O O7 0.237026 0.915176 0.500000
O O8 0.500000 0.913829 0.675003
O O9 0.276736 0.863204 0.754196
O O10 0.237014 0.935744 0.829996
O O11 0.500000 0.047860 0.000000
O O12 0.245442 0.000000 0.000000
O O13 0.500000 0.264970 0.762139
O O14 0.730292 0.214956 0.706144
O O15 0.794482 0.289820 0.790919
O O16 0.692517 0.237692 0.000000
O O17 0.147209 0.166886 0.500000
O O18 0.000000 0.176578 0.780214
O O19 0.763678 0.319304 0.500000
O O20 0.000000 0.343603 0.302869
#
# Coordination Sequence:
#
# PCOD8195988 Si02
#       7
#     8   4   8   4   8   8   8
#     4   9  16  27  44  66  94 132 175 217 268 328
#     4   9  16  26  40  64  99 133 171 221 273 331
#     4   9  18  33  54  79 108 143 181 225 277 333
#     4   9  18  32  53  83 113 141 181 231 281 337
#     4  11  24  37  50  74 107 139 174 220 268 318
#     4  10  21  37  56  78 104 137 179 223 269 323
#     4  10  19  33  53  74  99 134 178 223 264 317
#
# _framework density 21.155415000000001
#
# number of rings (size 3 to 8) (size 9 to 14) (size 15 to 20)
#    0.000    2.333    0.833    2.000    1.167    6.000 
#    0.000    3.333    0.000    1.000    0.000    2.333 
#    0.000    1.333    0.000    3.500    0.000    3.333 
#
# Total GULP energy -594805.015123 kJ/mol
# GULP energy per Si atom -12391.771148 kJ/mol
# Density = 2.110726 g / cm^3
# Si number density = 21.155415 Si / 1000 Ang^3
#
#
#
# Elastic Constant Matrix: (Units=GPa)
#
#
# Indices 1 2 3 4 5 6 
#
# 1 93.7365 47.0271 24.9977 0.0000 0.0000 0.0000
# 2 47.0271 156.9349 37.3104 0.0000 0.0000 0.0000
# 3 24.9977 37.3104 57.0054 0.0000 0.0000 0.0000
# 4 0.0000 0.0000 0.0000 7.9276 0.0000 0.0000
# 5 0.0000 0.0000 0.0000 0.0000 9.6342 0.0000
# 6 0.0000 0.0000 0.0000 0.0000 0.0000 24.6904
#
#
#
# Elastic Compliance Matrix: (Units=1/GPa)
#
#
# Indices 1 2 3 4 5 6 
#
# 1 0.013214 -0.003058 -0.003793 0.000000 0.000000 0.000000
# 2 -0.003058 0.008254 -0.004061 0.000000 0.000000 0.000000
# 3 -0.003793 -0.004061 0.021864 0.000000 0.000000 0.000000
# 4 0.000000 0.000000 0.000000 0.126142 0.000000 0.000000
# 5 0.000000 0.000000 0.000000 0.000000 0.103797 0.000000
# 6 0.000000 0.000000 0.000000 0.000000 0.000000 0.040501
#
#
# Mechanical properties :
#
#
# Convention : Reuss Voigt Hill
#
# Bulk Modulus (GPa) = 46.49669 58.48305 52.48987
# Shear Modulus (GPa) = 14.58721 21.67321 18.13021
#
# Velocity S-wave (km/s) = 2.62873 3.20422 2.93063
# Velocity P-wave (km/s) = 5.58927 6.43380 6.02635
#
# Compressibility (1/GPa) = 0.02150691
#
# Stress axis : x y z
#
# Youngs Moduli (GPa) = 75.67811 121.15407 45.73793
#
# Poissons Ratio (x) = 0.37047 0.17349
# Poissons Ratio (y) = 0.23141 0.18576
# Poissons Ratio (z) = 0.28705 0.49205
#
# Static dielectric constant tensor:
#      x y z
#    x 3.994500 0.000000 0.000000 
#    y 0.000000 3.713930 0.000000 
#    z 0.000000 0.000000 3.617730 
# 
# 
# High freq. dielectric constant tensor:
#      x y z
#    x 1.825190 0.000000 0.000000 
#    y 0.000000 1.825080 0.000000 
#    z 0.000000 0.000000 1.796910 
# 
# From -- ./inp_files/2732.got.cif
#   From: 2010.03.12/outbox.cif.g09.slc.cpg/sg47_2_cif.got.tgz:2732.got - 2010.04.14 03:12:58.
