data_PCOD8195897
_publ_section_title
;
Structure prediction by ZEFSAII (Michael W. Deem and Ramdas Pophale) SiO2 
 PCOD8195897
Probable space group: P M M M
;
_chemical_formula_sum "Si O2"
_cell_formula_units_Z 64
_cell_length_a 24.656026
_cell_length_b 8.997974
_cell_length_c 15.042584
_cell_angle_alpha 90.000000
_cell_angle_beta 90.000000
_cell_angle_gamma 90.000000
_cell_volume 3337.261656
_symmetry_space_group_name_H-M "P M M M"
_symmetry_group_IT_number 47
_symmetry_cell_setting 'orthorhombic'
loop_
_space_group_symop_operation_xyz
x,y,z
-x,-y,z
x,-y,-z
-x,y,-z
-x,-y,-z
x,y,-z
-x,y,z
x,-y,z
loop_
_atom_site_type_symbol
_atom_site_label
_atom_site_fract_x
_atom_site_fract_y
_atom_site_fract_z
Si Si1 0.824324 0.827651 0.401182
Si Si2 0.287240 0.668298 0.629651
Si Si3 0.603765 0.170495 0.401954
Si Si4 0.738183 0.666437 0.170818
Si Si5 0.936810 0.170360 0.101645
Si Si6 0.855594 0.675714 0.770458
Si Si7 0.561577 0.670793 0.765360
Si Si8 0.641535 0.830964 0.101162
O O1 0.850404 0.808848 0.500000
O O2 0.766235 0.750500 0.402670
O O3 0.862326 0.752013 0.326282
O O4 0.817273 0.000000 0.376929
O O5 0.285937 0.500000 0.593293
O O6 0.337737 0.754756 0.590372
O O7 0.292681 0.667860 0.735572
O O8 0.576559 0.182475 0.500000
O O9 0.566307 0.250765 0.330007
O O10 0.610949 0.000000 0.373036
O O11 0.739978 0.500000 0.131044
O O12 0.799405 0.727786 0.183069
O O13 0.703337 0.770736 0.106150
O O14 0.904879 0.279048 0.166743
O O15 0.000000 0.196467 0.119128
O O16 0.921076 0.000000 0.121597
O O17 0.922270 0.210467 0.000000
O O18 0.854790 0.500000 0.755159
O O19 0.500000 0.688591 0.798927
O O20 0.577993 0.500000 0.752610
O O21 0.600496 0.738507 0.839221
O O22 0.641303 0.000000 0.134609
O O23 0.621671 0.818401 0.000000
#
# Coordination Sequence:
#
# PCOD8195897 Si02
#       8
#     8   8   8   8   8   8   8   8
#     4  10  20  33  51  78 114 156 199 240 283 333
#     4  10  19  32  53  81 113 149 187 228 276 330
#     4  11  23  37  57  85 114 146 183 225 277 335
#     4   9  19  35  54  80 115 152 187 224 274 334
#     4   9  19  37  60  85 115 153 196 242 292 345
#     4  10  21  35  55  85 119 156 195 239 290 340
#     4  11  25  44  64  84 108 142 184 232 285 339
#     4  11  24  40  61  88 114 144 183 229 283 340
#
# _framework density 19.177398
#
# number of rings (size 3 to 8) (size 9 to 14) (size 15 to 20)
#    0.000    1.875    1.250    3.750    0.000    9.500 
#    0.000    5.625    0.000    0.375    0.000    2.625 
#    0.000    0.000    0.000    0.000    0.000    0.000 
#
# Total GULP energy -793646.253810 kJ/mol
# GULP energy per Si atom -12400.722716 kJ/mol
# Density = 1.913375 g / cm^3
# Si number density = 19.177398 Si / 1000 Ang^3
#
#
#
# Elastic Constant Matrix: (Units=GPa)
#
#
# Indices 1 2 3 4 5 6 
#
# 1 70.6136 45.7279 45.2821 0.0000 0.0000 0.0000
# 2 45.7279 136.5840 56.2808 0.0000 0.0000 0.0000
# 3 45.2821 56.2808 99.2883 0.0000 0.0000 0.0000
# 4 0.0000 0.0000 0.0000 -7.4553 0.0000 0.0000
# 5 0.0000 0.0000 0.0000 0.0000 860.7767 0.0000
# 6 0.0000 0.0000 0.0000 0.0000 0.0000 27.3890
#
#
#
# Elastic Compliance Matrix: (Units=1/GPa)
#
#
# Indices 1 2 3 4 5 6 
#
# 1 0.021684 -0.004155 -0.007534 0.000000 0.000000 0.000000
# 2 -0.004155 0.010349 -0.003971 0.000000 0.000000 0.000000
# 3 -0.007534 -0.003971 0.015759 0.000000 0.000000 0.000000
# 4 0.000000 0.000000 0.000000 -0.134133 0.000000 0.000000
# 5 0.000000 0.000000 0.000000 0.000000 0.001162 0.000000
# 6 0.000000 0.000000 0.000000 0.000000 0.000000 0.036511
#
#
# Mechanical properties :
#
#
# Convention : Reuss Voigt Hill
#
# Bulk Modulus (GPa) = 60.71352 66.78526 63.74939
# Shear Modulus (GPa) = -421.65420 186.75508 -117.44956
#
# Velocity S-wave (km/s) = -14.84411 9.87898 -7.83433
# Velocity P-wave (km/s) = 16.18856 12.84626 6.96574
#
# Compressibility (1/GPa) = 0.01647080
#
# Stress axis : x y z
#
# Youngs Moduli (GPa) = 46.11780 96.62740 63.45720
#
# Poissons Ratio (x) = 0.40151 0.47807
# Poissons Ratio (y) = 0.19163 0.25200
# Poissons Ratio (z) = 0.34744 0.38373
#
# Static dielectric constant tensor:
#      x y z
#    x 3.261400 0.000000 0.000000 
#    y 0.000000 3.610140 0.000000 
#    z 0.000000 0.000000 3.574880 
# 
# 
# High freq. dielectric constant tensor:
#      x y z
#    x 1.721690 0.000000 0.000000 
#    y 0.000000 1.758250 0.000000 
#    z 0.000000 0.000000 1.750230 
# 
# From -- ./inp_files/25541.got.cif
#   From: 2010.03.12/outbox.cif.g09.slc.cpg/sg47_13_cif.got.tgz:25541.got - 2010.04.14 03:12:58.
