data_PCOD8195339
_publ_section_title
;
Structure prediction by ZEFSAII (Michael W. Deem and Ramdas Pophale) SiO2 
 PCOD8195339
Probable space group: P M M M
;
_chemical_formula_sum "Si O2"
_cell_formula_units_Z 36
_cell_length_a 17.564609
_cell_length_b 12.535487
_cell_length_c 9.390501
_cell_angle_alpha 90.000000
_cell_angle_beta 90.000000
_cell_angle_gamma 90.000000
_cell_volume 2067.609222
_symmetry_space_group_name_H-M "P M M M"
_symmetry_group_IT_number 47
_symmetry_cell_setting 'orthorhombic'
loop_
_space_group_symop_operation_xyz
x,y,z
-x,-y,z
x,-y,-z
-x,y,-z
-x,-y,-z
x,y,-z
-x,y,z
x,-y,z
loop_
_atom_site_type_symbol
_atom_site_label
_atom_site_fract_x
_atom_site_fract_y
_atom_site_fract_z
Si Si1 0.860230 0.377601 0.157959
Si Si2 0.000000 0.372406 0.660905
Si Si3 0.712845 0.334815 0.336919
Si Si4 0.359066 0.880561 0.338890
Si Si5 0.585826 0.500000 0.333413
Si Si6 0.500000 0.873765 0.156920
O O1 0.881614 0.500000 0.137790
O O2 0.779079 0.370109 0.232922
O O3 0.925905 0.326116 0.256698
O O4 0.858062 0.323794 0.000000
O O5 0.000000 0.500000 0.655070
O O6 0.000000 0.326696 0.500000
O O7 0.732769 0.366948 0.500000
O O8 0.707370 0.206312 0.323240
O O9 0.634689 0.394704 0.289756
O O10 0.390268 0.882734 0.500000
O O11 0.425687 0.836227 0.239675
O O12 0.330603 0.000000 0.295235
O O13 0.500000 0.500000 0.262726
O O14 0.572878 0.500000 0.500000
O O15 0.500000 0.000000 0.148768
O O16 0.500000 0.822323 0.000000
#
# Coordination Sequence:
#
# PCOD8195339 Si02
#       6
#     8   4   8   8   4   4
#     4  10  19  31  47  70 102 131 157 192 240 287
#     4   9  17  29  49  73  98 127 162 195 229 281
#     4  10  19  31  50  69  93 128 165 202 240 285
#     4   9  18  31  47  68  91 118 158 206 249 285
#     4   9  18  30  45  66  91 124 167 205 236 279
#     4   9  17  29  45  64  87 116 152 198 249 295
#
# _framework density 17.411414000000001
#
# number of rings (size 3 to 8) (size 9 to 14) (size 15 to 20)
#    0.000    2.556    1.111    1.333    1.556    4.444 
#    0.000    0.000    0.000    0.667    0.000    0.778 
#    0.000    6.222    0.000    0.000    0.000    0.000 
#
# Total GULP energy -446108.697673 kJ/mol
# GULP energy per Si atom -12391.908269 kJ/mol
# Density = 1.737178 g / cm^3
# Si number density = 17.411414 Si / 1000 Ang^3
#
#
#
# Elastic Constant Matrix: (Units=GPa)
#
#
# Indices 1 2 3 4 5 6 
#
# 1 117.1800 18.6560 57.6986 0.0000 0.0000 0.0000
# 2 18.6560 62.4982 15.4494 0.0000 0.0000 0.0000
# 3 57.6986 15.4494 113.2867 0.0000 0.0000 0.0000
# 4 0.0000 0.0000 0.0000 11.1419 0.0000 0.0000
# 5 0.0000 0.0000 0.0000 0.0000 77.1942 0.0000
# 6 0.0000 0.0000 0.0000 0.0000 0.0000 7.7446
#
#
#
# Elastic Compliance Matrix: (Units=1/GPa)
#
#
# Indices 1 2 3 4 5 6 
#
# 1 0.011646 -0.002080 -0.005648 0.000000 0.000000 0.000000
# 2 -0.002080 0.016930 -0.001249 0.000000 0.000000 0.000000
# 3 -0.005648 -0.001249 0.011874 0.000000 0.000000 0.000000
# 4 0.000000 0.000000 0.000000 0.089751 0.000000 0.000000
# 5 0.000000 0.000000 0.000000 0.000000 0.012954 0.000000
# 6 0.000000 0.000000 0.000000 0.000000 0.000000 0.129123
#
#
# Mechanical properties :
#
#
# Convention : Reuss Voigt Hill
#
# Bulk Modulus (GPa) = 44.45329 52.95254 48.70292
# Shear Modulus (GPa) = 16.79363 32.62686 24.71025
#
# Velocity S-wave (km/s) = 3.10904 4.33353 3.77131
# Velocity P-wave (km/s) = 6.20280 7.45103 6.85538
#
# Compressibility (1/GPa) = 0.02249552
#
# Stress axis : x y z
#
# Youngs Moduli (GPa) = 85.86632 59.06582 84.21730
#
# Poissons Ratio (x) = 0.12287 0.47564
# Poissons Ratio (y) = 0.17862 0.10522
# Poissons Ratio (z) = 0.48496 0.07379
#
# Static dielectric constant tensor:
#      x y z
#    x 3.125710 0.000000 0.000000 
#    y 0.000000 3.059510 0.000000 
#    z 0.000000 0.000000 3.462590 
# 
# 
# High freq. dielectric constant tensor:
#      x y z
#    x 1.658580 0.000000 0.000000 
#    y 0.000000 1.633190 0.000000 
#    z 0.000000 0.000000 1.672380 
# 
# From -- ./inp_files/5621.got.cif
#   From: 2010.03.12/outbox.cif.g09.slc.cpg/sg47_3_cif.got.tgz:5621.got - 2010.04.14 03:12:58.
