data_PCOD8195251
_publ_section_title
;
Structure prediction by ZEFSAII (Michael W. Deem and Ramdas Pophale) SiO2 
 PCOD8195251
Probable space group: P M M M
;
_chemical_formula_sum "Si O2"
_cell_formula_units_Z 64
_cell_length_a 26.078128
_cell_length_b 14.271662
_cell_length_c 8.951223
_cell_angle_alpha 90.000000
_cell_angle_beta 90.000000
_cell_angle_gamma 90.000000
_cell_volume 3331.450318
_symmetry_space_group_name_H-M "P M M M"
_symmetry_group_IT_number 47
_symmetry_cell_setting 'orthorhombic'
loop_
_space_group_symop_operation_xyz
x,y,z
-x,-y,z
x,-y,-z
-x,y,-z
-x,-y,-z
x,y,-z
-x,y,z
x,-y,z
loop_
_atom_site_type_symbol
_atom_site_label
_atom_site_fract_x
_atom_site_fract_y
_atom_site_fract_z
Si Si1 0.056797 0.104628 0.677276
Si Si2 0.442605 0.777007 0.672019
Si Si3 0.150743 0.225852 0.677015
Si Si4 0.249694 0.107347 0.675206
Si Si5 0.804241 0.607456 0.824229
Si Si6 0.598078 0.392849 0.823441
Si Si7 0.700867 0.389021 0.332729
Si Si8 0.646678 0.889592 0.172718
O O1 0.060811 0.101029 0.500000
O O2 0.099987 0.174438 0.739414
O O3 0.000000 0.139417 0.726207
O O4 0.066686 0.000000 0.740266
O O5 0.426889 0.766009 0.500000
O O6 0.500000 0.818650 0.688224
O O7 0.443735 0.674130 0.748362
O O8 0.403071 0.845585 0.751547
O O9 0.148789 0.240831 0.500000
O O10 0.200044 0.165408 0.725907
O O11 0.151139 0.326807 0.758396
O O12 0.258955 0.115605 0.500000
O O13 0.300463 0.148590 0.755077
O O14 0.240066 0.000000 0.723346
O O15 0.816448 0.500000 0.781278
O O16 0.752296 0.644772 0.747549
O O17 0.798645 0.619249 0.000000
O O18 0.587388 0.500000 0.774793
O O19 0.652739 0.354753 0.764119
O O20 0.596875 0.382695 0.000000
O O21 0.698830 0.346050 0.500000
O O22 0.700145 0.500000 0.339987
O O23 0.642986 0.000000 0.198561
O O24 0.646531 0.861601 0.000000
#
# Coordination Sequence:
#
# PCOD8195251 Si02
#       8
#     8   8   8   8   8   8   8   8
#     4   8  14  27  50  81 115 147 181 225 275 327
#     4  11  25  42  60  82 107 139 181 227 273 325
#     4  10  19  30  51  82 111 143 183 227 273 321
#     4   9  18  33  53  79 112 144 172 208 260 326
#     4  10  21  35  49  69 103 146 188 228 273 323
#     4  10  21  37  58  83 111 143 177 217 268 325
#     4   9  17  31  52  76 102 134 174 218 263 316
#     4  10  22  40  61  83 108 140 177 221 274 329
#
# _framework density 19.210851000000002
#
# number of rings (size 3 to 8) (size 9 to 14) (size 15 to 20)
#    0.000    2.375    0.000    2.625    1.750    7.250 
#    0.000    2.500    0.000    1.875    0.000    3.500 
#    0.000    0.000    0.000    0.000    0.000    0.000 
#
# Total GULP energy -793603.115079 kJ/mol
# GULP energy per Si atom -12400.048673 kJ/mol
# Density = 1.916713 g / cm^3
# Si number density = 19.210851 Si / 1000 Ang^3
#
#
#
# Elastic Constant Matrix: (Units=GPa)
#
#
# Indices 1 2 3 4 5 6 
#
# 1 135.4669 57.0417 48.5830 0.0000 0.0000 0.0000
# 2 57.0417 64.8692 34.0697 0.0000 0.0000 0.0000
# 3 48.5830 34.0697 82.1417 0.0000 0.0000 0.0000
# 4 0.0000 0.0000 0.0000 27.4598 0.0000 0.0000
# 5 0.0000 0.0000 0.0000 0.0000 10.1155 0.0000
# 6 0.0000 0.0000 0.0000 0.0000 0.0000 32.6274
#
#
#
# Elastic Compliance Matrix: (Units=1/GPa)
#
#
# Indices 1 2 3 4 5 6 
#
# 1 0.012514 -0.009099 -0.003628 0.000000 0.000000 0.000000
# 2 -0.009099 0.026325 -0.005537 0.000000 0.000000 0.000000
# 3 -0.003628 -0.005537 0.016616 0.000000 0.000000 0.000000
# 4 0.000000 0.000000 0.000000 0.036417 0.000000 0.000000
# 5 0.000000 0.000000 0.000000 0.000000 0.098859 0.000000
# 6 0.000000 0.000000 0.000000 0.000000 0.000000 0.030649
#
#
# Mechanical properties :
#
#
# Convention : Reuss Voigt Hill
#
# Bulk Modulus (GPa) = 52.83183 62.42961 57.63072
# Shear Modulus (GPa) = 18.92391 23.55944 21.24167
#
# Velocity S-wave (km/s) = 3.14198 3.50574 3.32883
# Velocity P-wave (km/s) = 6.38149 6.99676 6.69619
#
# Compressibility (1/GPa) = 0.01892798
#
# Stress axis : x y z
#
# Youngs Moduli (GPa) = 79.90938 37.98715 60.18208
#
# Poissons Ratio (x) = 0.34564 0.21832
# Poissons Ratio (y) = 0.72709 0.33323
# Poissons Ratio (z) = 0.28988 0.21034
#
# Static dielectric constant tensor:
#      x y z
#    x 3.566600 0.000000 0.000000 
#    y 0.000000 3.580370 0.000000 
#    z 0.000000 0.000000 3.392560 
# 
# 
# High freq. dielectric constant tensor:
#      x y z
#    x 1.735010 0.000000 0.000000 
#    y 0.000000 1.749070 0.000000 
#    z 0.000000 0.000000 1.736700 
# 
# From -- ./inp_files/7827.got.cif
#   From: 2010.03.12/outbox.cif.g09.slc.cpg/sg47_4_cif.got.tgz:7827.got - 2010.04.14 03:12:58.
