data_PCOD8195896
_publ_section_title
;
Structure prediction by ZEFSAII (Michael W. Deem and Ramdas Pophale) SiO2 
 PCOD8195896
Probable space group: P M M M
;
_chemical_formula_sum "Si O2"
_cell_formula_units_Z 56
_cell_length_a 19.614058
_cell_length_b 9.158651
_cell_length_c 15.783571
_cell_angle_alpha 90.000000
_cell_angle_beta 90.000000
_cell_angle_gamma 90.000000
_cell_volume 2835.334050
_symmetry_space_group_name_H-M "P M M M"
_symmetry_group_IT_number 47
_symmetry_cell_setting 'orthorhombic'
loop_
_space_group_symop_operation_xyz
x,y,z
-x,-y,z
x,-y,-z
-x,y,-z
-x,-y,-z
x,y,-z
-x,y,z
x,-y,z
loop_
_atom_site_type_symbol
_atom_site_label
_atom_site_fract_x
_atom_site_fract_y
_atom_site_fract_z
Si Si1 0.572825 0.166331 0.099796
Si Si2 0.424837 0.328021 0.404011
Si Si3 0.856284 0.827222 0.904381
Si Si4 0.920132 0.667978 0.747015
Si Si5 0.286384 0.165402 0.846892
Si Si6 0.298072 0.163349 0.655317
Si Si7 0.844723 0.171233 0.404900
O O1 0.500000 0.239685 0.128514
O O2 0.640771 0.246846 0.136264
O O3 0.571348 0.000000 0.132772
O O4 0.578055 0.172049 0.000000
O O5 0.414915 0.273811 0.500000
O O6 0.500000 0.278616 0.371312
O O7 0.418747 0.500000 0.398921
O O8 0.365144 0.261430 0.348020
O O9 0.902618 0.746774 0.835471
O O10 0.778234 0.767808 0.896650
O O11 0.858948 0.000000 0.885325
O O12 0.882358 0.793258 0.000000
O O13 0.896749 0.500000 0.753348
O O14 0.885605 0.738442 0.664640
O O15 0.000000 0.682259 0.732582
O O16 0.267122 0.172956 0.748919
O O17 0.295915 0.000000 0.879347
O O18 0.235661 0.214845 0.596104
O O19 0.321011 0.000000 0.631697
O O20 0.871935 0.205920 0.500000
O O21 0.852589 0.000000 0.383441
#
# Coordination Sequence:
#
# PCOD8195896 Si02
#       7
#     8   8   8   8   8   8   8
#     4   8  13  21  35  60  97 139 179 218 264 319
#     4   9  19  35  51  69 100 144 192 239 285 337
#     4  10  20  37  63  90 117 154 198 242 290 344
#     4  11  25  43  62  87 121 156 190 235 288 345
#     4   9  16  28  47  74 108 142 181 230 280 331
#     4  10  19  32  53  81 112 142 179 235 293 341
#     4  10  21  39  63  90 120 153 191 238 293 350
#
# _framework density 19.750758999999999
#
# number of rings (size 3 to 8) (size 9 to 14) (size 15 to 20)
#    0.000    2.429    1.429    2.143    0.000    6.286 
#    0.000    5.000    0.000    0.000    0.000    0.000 
#    0.000    0.000    0.000    7.571    0.000    6.571 
#
# Total GULP energy -693911.487491 kJ/mol
# GULP energy per Si atom -12391.276562 kJ/mol
# Density = 1.970580 g / cm^3
# Si number density = 19.750759 Si / 1000 Ang^3
#
#
#
# Elastic Constant Matrix: (Units=GPa)
#
#
# Indices 1 2 3 4 5 6 
#
# 1 102.9695 43.2575 45.5737 0.0000 0.0000 0.0000
# 2 43.2575 59.3451 42.4927 0.0000 0.0000 0.0000
# 3 45.5737 42.4927 103.2881 0.0000 0.0000 0.0000
# 4 0.0000 0.0000 0.0000 14.4592 0.0000 0.0000
# 5 0.0000 0.0000 0.0000 0.0000 28.3022 0.0000
# 6 0.0000 0.0000 0.0000 0.0000 0.0000 26.0353
#
#
#
# Elastic Compliance Matrix: (Units=1/GPa)
#
#
# Indices 1 2 3 4 5 6 
#
# 1 0.014596 -0.008545 -0.002925 0.000000 0.000000 0.000000
# 2 -0.008545 0.028890 -0.008115 0.000000 0.000000 0.000000
# 3 -0.002925 -0.008115 0.014311 0.000000 0.000000 0.000000
# 4 0.000000 0.000000 0.000000 0.069160 0.000000 0.000000
# 5 0.000000 0.000000 0.000000 0.000000 0.035333 0.000000
# 6 0.000000 0.000000 0.000000 0.000000 0.000000 0.038409
#
#
# Mechanical properties :
#
#
# Convention : Reuss Voigt Hill
#
# Bulk Modulus (GPa) = 53.68577 58.69452 56.19015
# Shear Modulus (GPa) = 20.31887 22.71125 21.51506
#
# Velocity S-wave (km/s) = 3.21091 3.39469 3.30408
# Velocity P-wave (km/s) = 6.40213 6.71917 6.56257
#
# Compressibility (1/GPa) = 0.01862691
#
# Stress axis : x y z
#
# Youngs Moduli (GPa) = 68.51283 34.61457 69.87834
#
# Poissons Ratio (x) = 0.29578 0.20437
# Poissons Ratio (y) = 0.58544 0.56705
# Poissons Ratio (z) = 0.20038 0.28089
#
# Static dielectric constant tensor:
#      x y z
#    x 3.829250 0.000000 0.000000 
#    y 0.000000 3.195760 0.000000 
#    z 0.000000 0.000000 3.581040 
# 
# 
# High freq. dielectric constant tensor:
#      x y z
#    x 1.784490 0.000000 0.000000 
#    y 0.000000 1.716890 0.000000 
#    z 0.000000 0.000000 1.772200 
# 
# From -- ./inp_files/25138.got.cif
#   From: 2010.03.12/outbox.cif.g09.slc.cpg/sg47_13_cif.got.tgz:25138.got - 2010.04.14 03:12:58.
