data_PCOD8195298
_publ_section_title
;
Structure prediction by ZEFSAII (Michael W. Deem and Ramdas Pophale) SiO2 
 PCOD8195298
Probable space group: P M M M
;
_chemical_formula_sum "Si O2"
_cell_formula_units_Z 56
_cell_length_a 18.308203
_cell_length_b 13.793778
_cell_length_c 14.141313
_cell_angle_alpha 90.000000
_cell_angle_beta 90.000000
_cell_angle_gamma 90.000000
_cell_volume 3571.237113
_symmetry_space_group_name_H-M "P M M M"
_symmetry_group_IT_number 47
_symmetry_cell_setting 'orthorhombic'
loop_
_space_group_symop_operation_xyz
x,y,z
-x,-y,z
x,-y,-z
-x,y,-z
-x,-y,-z
x,y,-z
-x,y,z
x,-y,z
loop_
_atom_site_type_symbol
_atom_site_label
_atom_site_fract_x
_atom_site_fract_y
_atom_site_fract_z
Si Si1 0.218345 0.388539 0.205272
Si Si2 0.082872 0.297415 0.110488
Si Si3 0.415560 0.110123 0.220787
Si Si4 0.417473 0.239561 0.393094
Si Si5 0.296723 0.781100 0.888383
Si Si6 0.156159 0.894150 0.888906
Si Si7 0.292432 0.389150 0.394120
O O1 0.233011 0.500000 0.179511
O O2 0.135979 0.361854 0.174815
O O3 0.278838 0.326153 0.149724
O O4 0.227881 0.369944 0.318190
O O5 0.093024 0.183469 0.136054
O O6 0.000000 0.327881 0.132610
O O7 0.102324 0.314617 0.000000
O O8 0.500000 0.116363 0.192187
O O9 0.401986 0.146983 0.327288
O O10 0.373481 0.179459 0.148346
O O11 0.387032 0.000000 0.213736
O O12 0.405328 0.203482 0.500000
O O13 0.500000 0.278411 0.378016
O O14 0.363020 0.326248 0.366932
O O15 0.233311 0.853316 0.851261
O O16 0.299660 0.775495 0.000000
O O17 0.139589 0.000000 0.842718
O O18 0.161638 0.907241 0.000000
O O19 0.263430 0.363805 0.500000
O O20 0.318602 0.500000 0.389236
#
# Coordination Sequence:
#
# PCOD8195298 Si02
#       7
#     8   8   8   8   8   8   8
#     4  10  19  32  50  70  92 121 152 187 235 283
#     4   9  18  30  44  67  97 125 156 192 226 268
#     4  10  20  32  46  66  92 123 159 195 234 279
#     4   9  17  30  48  70  96 122 149 188 239 287
#     4  10  19  31  46  65  91 123 161 199 229 265
#     4   8  14  25  42  63  87 117 150 186 229 268
#     4   9  17  30  50  74  95 117 149 189 235 284
#
# _framework density 15.68084
#
# number of rings (size 3 to 8) (size 9 to 14) (size 15 to 20)
#    0.000    2.714    1.429    1.714    0.000    3.429 
#    0.000    5.714    0.000    0.857    0.000    3.000 
#    0.000    0.000    0.000    3.714    0.000    0.286 
#
# Total GULP energy -694124.046709 kJ/mol
# GULP energy per Si atom -12395.072263 kJ/mol
# Density = 1.564515 g / cm^3
# Si number density = 15.680840 Si / 1000 Ang^3
#
#
#
# Elastic Constant Matrix: (Units=GPa)
#
#
# Indices 1 2 3 4 5 6 
#
# 1 85.9440 49.1879 50.6983 0.0000 0.0000 0.0000
# 2 49.1879 106.3247 46.9947 0.0000 0.0000 0.0000
# 3 50.6983 46.9947 80.2932 0.0000 0.0000 0.0000
# 4 0.0000 0.0000 0.0000 19.4856 0.0000 0.0000
# 5 0.0000 0.0000 0.0000 0.0000 22.4568 0.0000
# 6 0.0000 0.0000 0.0000 0.0000 0.0000 18.3297
#
#
#
# Elastic Compliance Matrix: (Units=1/GPa)
#
#
# Indices 1 2 3 4 5 6 
#
# 1 0.020366 -0.005042 -0.009908 0.000000 0.000000 0.000000
# 2 -0.005042 0.013936 -0.004973 0.000000 0.000000 0.000000
# 3 -0.009908 -0.004973 0.021621 0.000000 0.000000 0.000000
# 4 0.000000 0.000000 0.000000 0.051320 0.000000 0.000000
# 5 0.000000 0.000000 0.000000 0.000000 0.044530 0.000000
# 6 0.000000 0.000000 0.000000 0.000000 0.000000 0.054556
#
#
# Mechanical properties :
#
#
# Convention : Reuss Voigt Hill
#
# Bulk Modulus (GPa) = 62.20292 62.92485 62.56389
# Shear Modulus (GPa) = 19.87800 20.43316 20.15558
#
# Velocity S-wave (km/s) = 3.56429 3.61372 3.58909
# Velocity P-wave (km/s) = 7.52948 7.59128 7.56044
#
# Compressibility (1/GPa) = 0.01607642
#
# Stress axis : x y z
#
# Youngs Moduli (GPa) = 49.10073 71.75807 46.25152
#
# Poissons Ratio (x) = 0.36184 0.45827
# Poissons Ratio (y) = 0.24759 0.22999
# Poissons Ratio (z) = 0.48650 0.35682
#
# Static dielectric constant tensor:
#      x y z
#    x 2.911090 0.000000 0.000000 
#    y 0.000000 3.136750 0.000000 
#    z 0.000000 0.000000 2.941540 
# 
# 
# High freq. dielectric constant tensor:
#      x y z
#    x 1.588140 0.000000 0.000000 
#    y 0.000000 1.607570 0.000000 
#    z 0.000000 0.000000 1.584010 
# 
# From -- ./inp_files/23979.got.cif
#   From: 2010.03.12/outbox.cif.g09.slc.cpg/sg47_12_cif.got.tgz:23979.got - 2010.04.14 03:12:58.
