data_PCOD8195908
_publ_section_title
;
Structure prediction by ZEFSAII (Michael W. Deem and Ramdas Pophale) SiO2 
 PCOD8195908
Probable space group: P M M M
;
_chemical_formula_sum "Si O2"
_cell_formula_units_Z 56
_cell_length_a 20.845890
_cell_length_b 14.585410
_cell_length_c 9.831053
_cell_angle_alpha 90.000000
_cell_angle_beta 90.000000
_cell_angle_gamma 90.000000
_cell_volume 2989.090890
_symmetry_space_group_name_H-M "P M M M"
_symmetry_group_IT_number 47
_symmetry_cell_setting 'orthorhombic'
loop_
_space_group_symop_operation_xyz
x,y,z
-x,-y,z
x,-y,-z
-x,y,-z
-x,-y,-z
x,y,-z
-x,y,z
x,-y,z
loop_
_atom_site_type_symbol
_atom_site_label
_atom_site_fract_x
_atom_site_fract_y
_atom_site_fract_z
Si Si1 0.572779 0.842976 0.151723
Si Si2 0.820768 0.102400 0.661111
Si Si3 0.373045 0.644256 0.851330
Si Si4 0.318540 0.104487 0.353181
Si Si5 0.575308 0.500000 0.650721
Si Si6 0.769763 0.607578 0.845748
Si Si7 0.128017 0.706801 0.338369
Si Si8 0.000000 0.395550 0.339237
O O1 0.500000 0.859892 0.202651
O O2 0.587339 0.736539 0.149129
O O3 0.621993 0.890217 0.252549
O O4 0.581293 0.884163 0.000000
O O5 0.820129 0.094089 0.500000
O O6 0.749814 0.138093 0.709391
O O7 0.869617 0.184570 0.704324
O O8 0.839207 0.000000 0.720968
O O9 0.401840 0.588612 0.728709
O O10 0.297698 0.660092 0.825474
O O11 0.381724 0.596284 0.000000
O O12 0.333840 0.153047 0.500000
O O13 0.305059 0.000000 0.384674
O O14 0.500000 0.500000 0.641406
O O15 0.605633 0.500000 0.500000
O O16 0.759251 0.500000 0.815487
O O17 0.817889 0.649160 0.737248
O O18 0.795303 0.622187 0.000000
O O19 0.138279 0.695910 0.500000
O O20 0.061204 0.662576 0.289596
O O21 0.000000 0.500000 0.278723
O O22 0.000000 0.402994 0.500000
#
# Coordination Sequence:
#
# PCOD8195908 Si02
#       8
#     8   8   8   8   4   8   8   4
#     4  10  21  34  49  71  96 126 167 211 254 305
#     4   8  15  30  52  78 105 130 165 216 265 307
#     4  10  20  37  55  70  95 133 170 206 259 319
#     4   9  18  33  52  72  96 128 163 204 261 320
#     4  11  23  35  49  73 101 128 165 212 255 299
#     4  10  20  34  52  77 105 131 168 221 270 308
#     4  10  19  32  54  79 104 142 181 210 254 310
#     4   9  18  32  48  74 114 149 179 215 252 301
#
# _framework density 18.734794000000001
#
# number of rings (size 3 to 8) (size 9 to 14) (size 15 to 20)
#    0.000    2.429    0.714    2.786    0.000    4.000 
#    0.000    2.143    0.000    4.714    0.000    0.000 
#    0.000    1.143    0.000    0.000    0.000    0.000 
#
# Total GULP energy -693815.486405 kJ/mol
# GULP energy per Si atom -12389.562257 kJ/mol
# Density = 1.869215 g / cm^3
# Si number density = 18.734794 Si / 1000 Ang^3
#
#
#
# Elastic Constant Matrix: (Units=GPa)
#
#
# Indices 1 2 3 4 5 6 
#
# 1 109.1295 47.5393 38.4721 0.0000 0.0000 0.0000
# 2 47.5393 82.1121 22.7200 0.0000 0.0000 0.0000
# 3 38.4721 22.7200 71.7282 0.0000 0.0000 0.0000
# 4 0.0000 0.0000 0.0000 19.2848 0.0000 0.0000
# 5 0.0000 0.0000 0.0000 0.0000 12.2617 0.0000
# 6 0.0000 0.0000 0.0000 0.0000 0.0000 36.2376
#
#
#
# Elastic Compliance Matrix: (Units=1/GPa)
#
#
# Indices 1 2 3 4 5 6 
#
# 1 0.013925 -0.006572 -0.005388 0.000000 0.000000 0.000000
# 2 -0.006572 0.016450 -0.001686 0.000000 0.000000 0.000000
# 3 -0.005388 -0.001686 0.017365 0.000000 0.000000 0.000000
# 4 0.000000 0.000000 0.000000 0.051854 0.000000 0.000000
# 5 0.000000 0.000000 0.000000 0.000000 0.081555 0.000000
# 6 0.000000 0.000000 0.000000 0.000000 0.000000 0.027596
#
#
# Mechanical properties :
#
#
# Convention : Reuss Voigt Hill
#
# Bulk Modulus (GPa) = 48.89831 53.38140 51.13985
# Shear Modulus (GPa) = 20.58873 23.83936 22.21405
#
# Velocity S-wave (km/s) = 3.31865 3.57103 3.44715
# Velocity P-wave (km/s) = 6.39074 6.74967 6.57265
#
# Compressibility (1/GPa) = 0.02045060
#
# Stress axis : x y z
#
# Youngs Moduli (GPa) = 71.81111 60.79207 57.58669
#
# Poissons Ratio (x) = 0.39950 0.31025
# Poissons Ratio (y) = 0.47191 0.09707
# Poissons Ratio (z) = 0.38688 0.10248
#
# Static dielectric constant tensor:
#      x y z
#    x 3.500710 0.000000 0.000000 
#    y 0.000000 3.593160 0.000000 
#    z 0.000000 0.000000 3.430740 
# 
# 
# High freq. dielectric constant tensor:
#      x y z
#    x 1.719800 0.000000 0.000000 
#    y 0.000000 1.730700 0.000000 
#    z 0.000000 0.000000 1.705180 
# 
# From -- ./inp_files/11315.got.cif
#   From: 2010.03.12/outbox.cif.g09.slc.cpg/sg47_6_cif.got.tgz:11315.got - 2010.04.14 03:12:58.
