data_PCOD8195454
_publ_section_title
;
Structure prediction by ZEFSAII (Michael W. Deem and Ramdas Pophale) SiO2 
 PCOD8195454
Probable space group: P M M M
;
_chemical_formula_sum "Si O2"
_cell_formula_units_Z 52
_cell_length_a 22.525518
_cell_length_b 15.348583
_cell_length_c 8.846085
_cell_angle_alpha 90.000000
_cell_angle_beta 90.000000
_cell_angle_gamma 90.000000
_cell_volume 3058.399275
_symmetry_space_group_name_H-M "P M M M"
_symmetry_group_IT_number 47
_symmetry_cell_setting 'orthorhombic'
loop_
_space_group_symop_operation_xyz
x,y,z
-x,-y,z
x,-y,-z
-x,y,-z
-x,-y,-z
x,y,-z
-x,y,z
x,-y,z
loop_
_atom_site_type_symbol
_atom_site_label
_atom_site_fract_x
_atom_site_fract_y
_atom_site_fract_z
Si Si1 0.649170 0.591284 0.830893
Si Si2 0.785672 0.771645 0.678531
Si Si3 0.000000 0.103311 0.670125
Si Si4 0.120626 0.897666 0.823578
Si Si5 0.658226 0.224027 0.179275
Si Si6 0.432763 0.898095 0.672115
Si Si7 0.209830 0.595466 0.830444
O O1 0.629096 0.500000 0.747019
O O2 0.629542 0.683767 0.758461
O O3 0.719726 0.594887 0.834419
O O4 0.623694 0.586100 0.000000
O O5 0.782916 0.774978 0.500000
O O6 0.827779 0.847336 0.738011
O O7 0.720823 0.793723 0.742643
O O8 0.810900 0.676386 0.727170
O O9 0.942051 0.136235 0.758780
O O10 0.000000 0.141555 0.500000
O O11 0.000000 0.000000 0.665690
O O12 0.129496 0.000000 0.792693
O O13 0.122992 0.875991 0.000000
O O14 0.612161 0.148567 0.215426
O O15 0.668923 0.229755 0.000000
O O16 0.419055 0.870756 0.500000
O O17 0.500000 0.872217 0.714904
O O18 0.423276 0.000000 0.693713
O O19 0.187577 0.500000 0.769789
O O20 0.185171 0.610155 0.000000
#
# Coordination Sequence:
#
# PCOD8195454 Si02
#       7
#     8   8   4   8   8   8   8
#     4   7  11  22  41  64  89 117 147 179 219 268
#     4  11  21  31  46  71 103 133 161 197 243 291
#     4   9  17  31  51  73  96 123 158 199 243 289
#     4  10  20  34  51  70  95 129 168 205 239 281
#     4  10  19  31  49  72  96 122 155 195 238 283
#     4   9  19  36  54  69  88 118 155 194 239 290
#     4   8  14  27  46  66  92 126 161 197 236 280
#
# _framework density 17.002358999999998
#
# number of rings (size 3 to 8) (size 9 to 14) (size 15 to 20)
#    0.000    2.846    0.000    4.846    0.000    3.385 
#    0.000    0.769    0.000    1.846    0.000    3.769 
#    0.000    4.308    0.000    0.000    0.000    0.000 
#
# Total GULP energy -644194.181769 kJ/mol
# GULP energy per Si atom -12388.349649 kJ/mol
# Density = 1.696366 g / cm^3
# Si number density = 17.002359 Si / 1000 Ang^3
#
#
#
# Elastic Constant Matrix: (Units=GPa)
#
#
# Indices 1 2 3 4 5 6 
#
# 1 76.9189 54.3128 43.8143 0.0000 0.0000 0.0000
# 2 54.3128 89.7614 49.3361 0.0000 0.0000 0.0000
# 3 43.8143 49.3361 101.5133 0.0000 0.0000 0.0000
# 4 0.0000 0.0000 0.0000 21.9106 0.0000 0.0000
# 5 0.0000 0.0000 0.0000 0.0000 24.9909 0.0000
# 6 0.0000 0.0000 0.0000 0.0000 0.0000 -1.8040
#
#
#
# Elastic Compliance Matrix: (Units=1/GPa)
#
#
# Indices 1 2 3 4 5 6 
#
# 1 0.024134 -0.012114 -0.004529 0.000000 0.000000 0.000000
# 2 -0.012114 0.021281 -0.005115 0.000000 0.000000 0.000000
# 3 -0.004529 -0.005115 0.014292 0.000000 0.000000 0.000000
# 4 0.000000 0.000000 0.000000 0.045640 0.000000 0.000000
# 5 0.000000 0.000000 0.000000 0.000000 0.040015 0.000000
# 6 0.000000 0.000000 0.000000 0.000000 0.000000 -0.554336
#
#
# Mechanical properties :
#
#
# Convention : Reuss Voigt Hill
#
# Bulk Modulus (GPa) = 61.75797 62.56888 62.16343
# Shear Modulus (GPa) = -13.88650 17.06821 1.59085
#
# Velocity S-wave (km/s) = -2.86097 3.17183 0.96835
# Velocity P-wave (km/s) = 5.04862 7.09183 6.15559
#
# Compressibility (1/GPa) = 0.01619224
#
# Stress axis : x y z
#
# Youngs Moduli (GPa) = 41.43505 46.98921 69.97157
#
# Poissons Ratio (x) = 0.56921 0.31692
# Poissons Ratio (y) = 0.50193 0.35787
# Poissons Ratio (z) = 0.18767 0.24033
#
# Static dielectric constant tensor:
#      x y z
#    x 2.883560 0.000000 0.000000 
#    y 0.000000 3.744360 0.000000 
#    z 0.000000 0.000000 3.127240 
# 
# 
# High freq. dielectric constant tensor:
#      x y z
#    x 1.616160 0.000000 0.000000 
#    y 0.000000 1.665730 0.000000 
#    z 0.000000 0.000000 1.646230 
# 
# From -- ./inp_files/10938.got.cif
#   From: 2010.03.12/outbox.cif.g09.slc.cpg/sg47_6_cif.got.tgz:10938.got - 2010.04.14 03:12:58.
