data_PCOD8195044
_publ_section_title
;
Structure prediction by ZEFSAII (Michael W. Deem and Ramdas Pophale) SiO2 
 PCOD8195044
Probable space group: P M M M
;
_chemical_formula_sum "Si O2"
_cell_formula_units_Z 46
_cell_length_a 8.886235
_cell_length_b 25.033963
_cell_length_c 11.739530
_cell_angle_alpha 90.000000
_cell_angle_beta 90.000000
_cell_angle_gamma 90.000000
_cell_volume 2611.548587
_symmetry_space_group_name_H-M "P M M M"
_symmetry_group_IT_number 47
_symmetry_cell_setting 'orthorhombic'
loop_
_space_group_symop_operation_xyz
x,y,z
-x,-y,z
x,-y,-z
-x,y,-z
-x,-y,-z
x,y,-z
-x,y,z
x,-y,z
loop_
_atom_site_type_symbol
_atom_site_label
_atom_site_fract_x
_atom_site_fract_y
_atom_site_fract_z
Si Si1 0.830743 0.394119 0.364610
Si Si2 0.319429 0.114787 0.500000
Si Si3 0.339166 0.000000 0.243823
Si Si4 0.669934 0.500000 0.635960
Si Si5 0.292035 0.000000 0.500000
Si Si6 0.675056 0.286062 0.633957
Si Si7 0.827123 0.904760 0.127264
Si Si8 0.173550 0.181227 0.304601
O O1 0.832734 0.396580 0.500000
O O2 0.753781 0.447634 0.315941
O O3 0.734954 0.343251 0.323788
O O4 0.000000 0.389948 0.316518
O O5 0.500000 0.101690 0.500000
O O6 0.217116 0.059560 0.500000
O O7 0.279191 0.148996 0.390356
O O8 0.251856 0.947169 0.208389
O O9 0.500000 0.000000 0.180912
O O10 0.376080 0.000000 0.378629
O O11 0.500000 0.500000 0.682141
O O12 0.671313 0.500000 0.500000
O O13 0.704822 0.277737 0.500000
O O14 0.500000 0.281817 0.663394
O O15 0.767014 0.241551 0.703412
O O16 0.809449 0.845755 0.180642
O O17 0.000000 0.921820 0.121660
O O18 0.757492 0.904595 0.000000
O O19 0.000000 0.180582 0.345864
#
# Coordination Sequence:
#
# PCOD8195044 Si02
#       8
#     8   4   4   4   2   8   8   8
#     4   9  16  25  38  57  84 120 163 207 243 284
#     4  12  22  37  54  73 102 132 155 193 249 300
#     4  12  23  38  58  81 104 129 161 197 241 294
#     4   9  15  23  35  53  81 119 164 207 246 289
#     4  12  25  38  55  80 111 134 153 196 253 298
#     4  10  19  30  45  66  94 127 158 197 249 297
#     4  10  23  42  58  74  99 130 162 200 247 294
#     4  11  22  35  53  75  96 125 163 203 242 295
#
# _framework density 17.614069000000001
#
# number of rings (size 3 to 8) (size 9 to 14) (size 15 to 20)
#    0.000    1.652    2.609    3.391    0.000    5.913 
#    0.000    1.739    0.000    0.000    0.000    0.000 
#    0.000    0.000    0.000    0.783    0.000   16.261 
#
# Total GULP energy -570083.353112 kJ/mol
# GULP energy per Si atom -12393.116372 kJ/mol
# Density = 1.757398 g / cm^3
# Si number density = 17.614069 Si / 1000 Ang^3
#
#
#
# Elastic Constant Matrix: (Units=GPa)
#
#
# Indices 1 2 3 4 5 6 
#
# 1 100.1335 53.5701 29.2084 0.0000 0.0000 0.0000
# 2 53.5701 155.1309 32.4377 0.0000 0.0000 0.0000
# 3 29.2084 32.4377 67.2874 0.0000 0.0000 0.0000
# 4 0.0000 0.0000 0.0000 5.1212 0.0000 0.0000
# 5 0.0000 0.0000 0.0000 0.0000 -2.5058 0.0000
# 6 0.0000 0.0000 0.0000 0.0000 0.0000 10.5149
#
#
#
# Elastic Compliance Matrix: (Units=1/GPa)
#
#
# Indices 1 2 3 4 5 6 
#
# 1 0.013110 -0.003711 -0.003902 0.000000 0.000000 0.000000
# 2 -0.003711 0.008219 -0.002351 0.000000 0.000000 0.000000
# 3 -0.003902 -0.002351 0.017689 0.000000 0.000000 0.000000
# 4 0.000000 0.000000 0.000000 0.195267 0.000000 0.000000
# 5 0.000000 0.000000 0.000000 0.000000 -0.399073 0.000000
# 6 0.000000 0.000000 0.000000 0.000000 0.000000 0.095104
#
#
# Mechanical properties :
#
#
# Convention : Reuss Voigt Hill
#
# Bulk Modulus (GPa) = 52.38470 61.44267 56.91369
# Shear Modulus (GPa) = -115.23151 16.44843 -49.39154
#
# Velocity S-wave (km/s) = -8.09705 3.05917 -5.30112
# Velocity P-wave (km/s) = 7.59022 6.88741 2.25554
#
# Compressibility (1/GPa) = 0.01908954
#
# Stress axis : x y z
#
# Youngs Moduli (GPa) = 76.27550 121.66239 56.53278
#
# Poissons Ratio (x) = 0.45154 0.22058
# Poissons Ratio (y) = 0.28309 0.13293
# Poissons Ratio (z) = 0.29761 0.28607
#
# Static dielectric constant tensor:
#      x y z
#    x 3.324820 0.000000 0.000000 
#    y 0.000000 3.485330 0.000000 
#    z 0.000000 0.000000 2.909640 
# 
# 
# High freq. dielectric constant tensor:
#      x y z
#    x 1.688780 0.000000 0.000000 
#    y 0.000000 1.695450 0.000000 
#    z 0.000000 0.000000 1.618030 
# 
# From -- ./inp_files/15351.got.cif
#   From: 2010.03.12/outbox.cif.g09.slc.cpg/sg47_8_cif.got.tgz:15351.got - 2010.04.14 03:12:58.
