data_PCOD8195673
_publ_section_title
;
Structure prediction by ZEFSAII (Michael W. Deem and Ramdas Pophale) SiO2 
 PCOD8195673
Probable space group: P M M M
;
_chemical_formula_sum "Si O2"
_cell_formula_units_Z 64
_cell_length_a 20.182882
_cell_length_b 20.269680
_cell_length_c 8.798536
_cell_angle_alpha 90.000000
_cell_angle_beta 90.000000
_cell_angle_gamma 90.000000
_cell_volume 3599.486001
_symmetry_space_group_name_H-M "P M M M"
_symmetry_group_IT_number 47
_symmetry_cell_setting 'orthorhombic'
loop_
_space_group_symop_operation_xyz
x,y,z
-x,-y,z
x,-y,-z
-x,y,-z
-x,-y,-z
x,y,-z
-x,y,z
x,-y,z
loop_
_atom_site_type_symbol
_atom_site_label
_atom_site_fract_x
_atom_site_fract_y
_atom_site_fract_z
Si Si1 0.167898 0.688237 0.821222
Si Si2 0.074145 0.426322 0.180708
Si Si3 0.872566 0.927938 0.327468
Si Si4 0.287629 0.252010 0.320963
Si Si5 0.253918 0.882608 0.824163
Si Si6 0.428790 0.211410 0.679333
Si Si7 0.926157 0.790039 0.325130
Si Si8 0.620367 0.928180 0.325177
O O1 0.128064 0.625160 0.753765
O O2 0.242466 0.690323 0.752440
O O3 0.126970 0.753839 0.780423
O O4 0.175258 0.683094 0.000000
O O5 0.093498 0.500000 0.235574
O O6 0.000000 0.408452 0.239819
O O7 0.074062 0.423054 0.000000
O O8 0.845701 0.922463 0.500000
O O9 0.811868 0.923089 0.211285
O O10 0.923877 0.868784 0.295697
O O11 0.906570 0.000000 0.302114
O O12 0.287034 0.261955 0.500000
O O13 0.254150 0.182938 0.278608
O O14 0.364288 0.251320 0.257703
O O15 0.315481 0.928648 0.781532
O O16 0.256644 0.862223 0.000000
O O17 0.428715 0.219850 0.500000
O O18 0.500000 0.237733 0.744548
O O19 0.425751 0.133451 0.721853
O O20 0.909789 0.773133 0.500000
O O21 0.000000 0.766191 0.282109
O O22 0.642778 0.918788 0.500000
O O23 0.584814 0.000000 0.303977
#
# Coordination Sequence:
#
# PCOD8195673 Si02
#       8
#     8   8   8   8   8   8   8   8
#     4  11  20  31  52  79 102 129 164 201 236 276
#     4   8  15  29  49  75 108 142 171 197 228 270
#     4  10  20  33  48  63  84 117 155 197 248 302
#     4  10  19  32  50  70  95 124 155 196 243 289
#     4  11  20  30  45  65  87 114 151 197 244 290
#     4   8  15  28  46  67  89 116 154 199 242 287
#     4  10  21  35  50  68  92 124 160 200 247 294
#     4   9  17  28  43  63  87 115 146 184 238 302
#
# _framework density 17.780317
#
# number of rings (size 3 to 8) (size 9 to 14) (size 15 to 20)
#    0.000    2.375    1.250    3.750    0.000    3.250 
#    0.000    2.500    0.000   10.875    0.000    9.625 
#    0.000    0.500    0.000    6.250    0.000    0.000 
#
# Total GULP energy -793016.929973 kJ/mol
# GULP energy per Si atom -12390.889531 kJ/mol
# Density = 1.773985 g / cm^3
# Si number density = 17.780317 Si / 1000 Ang^3
#
#
#
# Elastic Constant Matrix: (Units=GPa)
#
#
# Indices 1 2 3 4 5 6 
#
# 1 127.1163 53.3032 24.7218 0.0000 0.0000 0.0000
# 2 53.3032 87.6527 12.9204 0.0000 0.0000 0.0000
# 3 24.7218 12.9204 43.7079 0.0000 0.0000 0.0000
# 4 0.0000 0.0000 0.0000 12.4764 0.0000 0.0000
# 5 0.0000 0.0000 0.0000 0.0000 12.6730 0.0000
# 6 0.0000 0.0000 0.0000 0.0000 0.0000 19.7555
#
#
#
# Elastic Compliance Matrix: (Units=1/GPa)
#
#
# Indices 1 2 3 4 5 6 
#
# 1 0.011377 -0.006242 -0.004590 0.000000 0.000000 0.000000
# 2 -0.006242 0.015353 -0.001008 0.000000 0.000000 0.000000
# 3 -0.004590 -0.001008 0.025773 0.000000 0.000000 0.000000
# 4 0.000000 0.000000 0.000000 0.080151 0.000000 0.000000
# 5 0.000000 0.000000 0.000000 0.000000 0.078908 0.000000
# 6 0.000000 0.000000 0.000000 0.000000 0.000000 0.050619
#
#
# Mechanical properties :
#
#
# Convention : Reuss Voigt Hill
#
# Bulk Modulus (GPa) = 34.69352 48.92972 41.81162
# Shear Modulus (GPa) = 16.92231 20.14976 18.53603
#
# Velocity S-wave (km/s) = 3.08838 3.37005 3.23228
# Velocity P-wave (km/s) = 5.68086 6.53619 6.12347
#
# Compressibility (1/GPa) = 0.02882383
#
# Stress axis : x y z
#
# Youngs Moduli (GPa) = 87.89795 65.13360 38.80004
#
# Poissons Ratio (x) = 0.40656 0.17808
# Poissons Ratio (y) = 0.54865 0.03911
# Poissons Ratio (z) = 0.40343 0.06565
#
# Static dielectric constant tensor:
#      x y z
#    x 3.562980 0.000000 0.000000 
#    y 0.000000 3.223550 0.000000 
#    z 0.000000 0.000000 3.036710 
# 
# 
# High freq. dielectric constant tensor:
#      x y z
#    x 1.681710 0.000000 0.000000 
#    y 0.000000 1.651810 0.000000 
#    z 0.000000 0.000000 1.661940 
# 
# From -- ./inp_files/11874.got.cif
#   From: 2010.03.12/outbox.cif.g09.slc.cpg/sg47_6_cif.got.tgz:11874.got - 2010.04.14 03:12:58.
