data_PCOD8195244
_publ_section_title
;
Structure prediction by ZEFSAII (Michael W. Deem and Ramdas Pophale) SiO2 
 PCOD8195244
Probable space group: P M M M
;
_chemical_formula_sum "Si O2"
_cell_formula_units_Z 40
_cell_length_a 28.607686
_cell_length_b 9.371584
_cell_length_c 7.831448
_cell_angle_alpha 90.000000
_cell_angle_beta 90.000000
_cell_angle_gamma 90.000000
_cell_volume 2099.605980
_symmetry_space_group_name_H-M "P M M M"
_symmetry_group_IT_number 47
_symmetry_cell_setting 'orthorhombic'
loop_
_space_group_symop_operation_xyz
x,y,z
-x,-y,z
x,-y,-z
-x,y,-z
-x,-y,-z
x,y,-z
-x,y,z
x,-y,z
loop_
_atom_site_type_symbol
_atom_site_label
_atom_site_fract_x
_atom_site_fract_y
_atom_site_fract_z
Si Si1 0.052890 0.337928 0.299545
Si Si2 0.777333 0.662869 0.690199
Si Si3 0.861880 0.839036 0.805937
Si Si4 0.615189 0.170451 0.000000
Si Si5 0.711833 0.332125 0.000000
Si Si6 0.552301 0.169326 0.689686
O O1 0.060684 0.321603 0.500000
O O2 0.063300 0.500000 0.242556
O O3 0.087346 0.232290 0.202516
O O4 0.000000 0.296220 0.249507
O O5 0.755427 0.678585 0.500000
O O6 0.791702 0.500000 0.728613
O O7 0.824374 0.754735 0.693912
O O8 0.740032 0.714054 0.830440
O O9 0.865475 0.000000 0.736046
O O10 0.844372 0.836746 0.000000
O O11 0.587750 0.227040 0.167378
O O12 0.665264 0.241416 0.000000
O O13 0.620519 0.000000 0.000000
O O14 0.700350 0.500000 0.000000
O O15 0.568579 0.219271 0.500000
O O16 0.500000 0.227495 0.727211
O O17 0.551113 0.000000 0.698024
#
# Coordination Sequence:
#
# PCOD8195244 Si02
#       6
#     8   8   8   4   4   8
#     4   9  19  36  56  78 105 139 180 220 258 310
#     4  10  21  39  62  81  99 134 183 226 267 321
#     4  11  23  36  53  80 112 140 170 215 271 326
#     4  10  19  30  50  78 106 137 177 222 265 314
#     4  10  22  39  55  77 109 141 174 220 273 325
#     4   8  14  26  46  74 107 141 179 222 264 307
#
# _framework density 19.051193999999999
#
# number of rings (size 3 to 8) (size 9 to 14) (size 15 to 20)
#    0.000    2.400    1.000    2.700    0.000    8.000 
#    0.000    3.000    0.000    1.200    0.000    1.400 
#    0.000    0.000    0.000    0.000    0.000    0.000 
#
# Total GULP energy -495970.160615 kJ/mol
# GULP energy per Si atom -12399.254015 kJ/mol
# Density = 1.900783 g / cm^3
# Si number density = 19.051194 Si / 1000 Ang^3
#
#
#
# Elastic Constant Matrix: (Units=GPa)
#
#
# Indices 1 2 3 4 5 6 
#
# 1 135.6963 55.3619 69.8369 0.0000 0.0000 0.0000
# 2 55.3619 70.3433 36.5237 0.0000 0.0000 0.0000
# 3 69.8369 36.5237 124.8151 0.0000 0.0000 0.0000
# 4 0.0000 0.0000 0.0000 15.6142 0.0000 0.0000
# 5 0.0000 0.0000 0.0000 0.0000 24.9438 0.0000
# 6 0.0000 0.0000 0.0000 0.0000 0.0000 157.0476
#
#
#
# Elastic Compliance Matrix: (Units=1/GPa)
#
#
# Indices 1 2 3 4 5 6 
#
# 1 0.013128 -0.007686 -0.005096 0.000000 0.000000 0.000000
# 2 -0.007686 0.021263 -0.001921 0.000000 0.000000 0.000000
# 3 -0.005096 -0.001921 0.011426 0.000000 0.000000 0.000000
# 4 0.000000 0.000000 0.000000 0.064044 0.000000 0.000000
# 5 0.000000 0.000000 0.000000 0.000000 0.040090 0.000000
# 6 0.000000 0.000000 0.000000 0.000000 0.000000 0.006367
#
#
# Mechanical properties :
#
#
# Convention : Reuss Voigt Hill
#
# Bulk Modulus (GPa) = 60.94287 72.69996 66.82142
# Shear Modulus (GPa) = 26.15128 50.79660 38.47394
#
# Velocity S-wave (km/s) = 3.70900 5.16925 4.49876
# Velocity P-wave (km/s) = 7.09934 8.59484 7.88264
#
# Compressibility (1/GPa) = 0.01640881
#
# Stress axis : x y z
#
# Youngs Moduli (GPa) = 76.17309 47.03080 87.52242
#
# Poissons Ratio (x) = 0.36147 0.44604
# Poissons Ratio (y) = 0.58546 0.16817
# Poissons Ratio (z) = 0.38820 0.09037
#
# Static dielectric constant tensor:
#      x y z
#    x 3.385810 0.000000 0.000000 
#    y 0.000000 3.234050 0.000000 
#    z 0.000000 0.000000 3.710840 
# 
# 
# High freq. dielectric constant tensor:
#      x y z
#    x 1.732210 0.000000 0.000000 
#    y 0.000000 1.710640 0.000000 
#    z 0.000000 0.000000 1.753710 
# 
# From -- ./inp_files/1859.got.cif
#   From: 2010.03.12/outbox.cif.g09.slc.cpg/sg47_1_cif.got.tgz:1859.got - 2010.04.14 03:12:58.
