data_PCOD8195176
_publ_section_title
;
Structure prediction by ZEFSAII (Michael W. Deem and Ramdas Pophale) SiO2 
 PCOD8195176
Probable space group: P M M M
;
_chemical_formula_sum "Si O2"
_cell_formula_units_Z 64
_cell_length_a 20.274484
_cell_length_b 18.650211
_cell_length_c 9.185749
_cell_angle_alpha 90.000000
_cell_angle_beta 90.000000
_cell_angle_gamma 90.000000
_cell_volume 3473.346685
_symmetry_space_group_name_H-M "P M M M"
_symmetry_group_IT_number 47
_symmetry_cell_setting 'orthorhombic'
loop_
_space_group_symop_operation_xyz
x,y,z
-x,-y,z
x,-y,-z
-x,y,-z
-x,-y,-z
x,y,-z
-x,y,z
x,-y,z
loop_
_atom_site_type_symbol
_atom_site_label
_atom_site_fract_x
_atom_site_fract_y
_atom_site_fract_z
Si Si1 0.687030 0.334771 0.327033
Si Si2 0.426964 0.080470 0.326782
Si Si3 0.424079 0.417951 0.831714
Si Si4 0.923752 0.833521 0.169524
Si Si5 0.306958 0.172521 0.673124
Si Si6 0.182179 0.917280 0.668869
Si Si7 0.924535 0.311366 0.330326
Si Si8 0.814182 0.419860 0.672881
O O1 0.683272 0.336831 0.500000
O O2 0.619403 0.366053 0.266183
O O3 0.695987 0.253783 0.269750
O O4 0.748678 0.380841 0.267894
O O5 0.424099 0.081071 0.500000
O O6 0.500000 0.104733 0.274339
O O7 0.372462 0.134564 0.261979
O O8 0.411886 0.000000 0.270876
O O9 0.500000 0.399040 0.800722
O O10 0.409607 0.500000 0.787823
O O11 0.406873 0.405564 0.000000
O O12 0.882716 0.897957 0.239930
O O13 0.902962 0.758892 0.243228
O O14 0.000000 0.850623 0.199599
O O15 0.907995 0.827886 0.000000
O O16 0.309034 0.170047 0.500000
O O17 0.242809 0.130044 0.728637
O O18 0.167974 0.901246 0.500000
O O19 0.200048 0.000000 0.694123
O O20 0.912948 0.294817 0.500000
O O21 0.879020 0.376744 0.276246
O O22 0.000000 0.332971 0.298036
O O23 0.811800 0.423286 0.500000
O O24 0.817548 0.500000 0.738827
#
# Coordination Sequence:
#
# PCOD8195176 Si02
#       8
#     8   8   8   8   8   8   8   8
#     4  10  19  30  48  73 100 130 161 197 242 291
#     4   8  13  22  38  61  91 127 161 191 229 280
#     4   9  19  36  54  70  93 127 164 204 250 295
#     4  10  21  36  53  73 100 133 164 199 248 300
#     4   9  17  29  45  69 101 130 158 197 243 285
#     4  10  20  34  54  77 100 130 168 207 244 286
#     4   9  17  31  53  77  99 127 165 205 241 285
#     4   9  17  29  46  71 103 133 161 200 250 296
#
# _framework density 18.426033
#
# number of rings (size 3 to 8) (size 9 to 14) (size 15 to 20)
#    0.000    2.750    0.000    2.625    0.000    6.500 
#    0.000    6.875    0.000    1.125    0.000    1.750 
#    0.000    0.000    0.000    6.625    0.000    5.750 
#
# Total GULP energy -793601.416949 kJ/mol
# GULP energy per Si atom -12400.022140 kJ/mol
# Density = 1.838409 g / cm^3
# Si number density = 18.426033 Si / 1000 Ang^3
#
#
#
# Elastic Constant Matrix: (Units=GPa)
#
#
# Indices 1 2 3 4 5 6 
#
# 1 120.2874 77.6970 33.2462 0.0000 0.0000 0.0000
# 2 77.6970 136.5272 34.4388 0.0000 0.0000 0.0000
# 3 33.2462 34.4388 33.5994 0.0000 0.0000 0.0000
# 4 0.0000 0.0000 0.0000 9.9338 0.0000 0.0000
# 5 0.0000 0.0000 0.0000 0.0000 16.3927 0.0000
# 6 0.0000 0.0000 0.0000 0.0000 0.0000 42.1350
#
#
#
# Elastic Compliance Matrix: (Units=1/GPa)
#
#
# Indices 1 2 3 4 5 6 
#
# 1 0.014578 -0.006282 -0.007986 0.000000 0.000000 0.000000
# 2 -0.006282 0.012586 -0.006684 0.000000 0.000000 0.000000
# 3 -0.007986 -0.006684 0.044516 0.000000 0.000000 0.000000
# 4 0.000000 0.000000 0.000000 0.100666 0.000000 0.000000
# 5 0.000000 0.000000 0.000000 0.000000 0.061003 0.000000
# 6 0.000000 0.000000 0.000000 0.000000 0.000000 0.023733
#
#
# Mechanical properties :
#
#
# Convention : Reuss Voigt Hill
#
# Bulk Modulus (GPa) = 33.58496 64.57532 49.08014
# Shear Modulus (GPa) = 16.18583 23.36110 19.77346
#
# Velocity S-wave (km/s) = 2.96703 3.56452 3.27941
# Velocity P-wave (km/s) = 5.47761 7.21546 6.40574
#
# Compressibility (1/GPa) = 0.02977523
#
# Stress axis : x y z
#
# Youngs Moduli (GPa) = 68.59423 79.45540 22.46387
#
# Poissons Ratio (x) = 0.49914 0.17940
# Poissons Ratio (y) = 0.43091 0.15015
# Poissons Ratio (z) = 0.54781 0.53109
#
# Static dielectric constant tensor:
#      x y z
#    x 3.560660 0.000000 0.000000 
#    y 0.000000 3.533700 0.000000 
#    z 0.000000 0.000000 2.922020 
# 
# 
# High freq. dielectric constant tensor:
#      x y z
#    x 1.728030 0.000000 0.000000 
#    y 0.000000 1.719590 0.000000 
#    z 0.000000 0.000000 1.663340 
# 
# From -- ./inp_files/11554.got.cif
#   From: 2010.03.12/outbox.cif.g09.slc.cpg/sg47_6_cif.got.tgz:11554.got - 2010.04.14 03:12:58.
