data_PCOD8195440
_publ_section_title
;
Structure prediction by ZEFSAII (Michael W. Deem and Ramdas Pophale) SiO2 
 PCOD8195440
Probable space group: P M M M
;
_chemical_formula_sum "Si O2"
_cell_formula_units_Z 56
_cell_length_a 9.128934
_cell_length_b 14.314001
_cell_length_c 22.764992
_cell_angle_alpha 90.000000
_cell_angle_beta 90.000000
_cell_angle_gamma 90.000000
_cell_volume 2974.737255
_symmetry_space_group_name_H-M "P M M M"
_symmetry_group_IT_number 47
_symmetry_cell_setting 'orthorhombic'
loop_
_space_group_symop_operation_xyz
x,y,z
-x,-y,z
x,-y,-z
-x,y,-z
-x,-y,-z
x,y,-z
-x,y,z
x,-y,z
loop_
_atom_site_type_symbol
_atom_site_label
_atom_site_fract_x
_atom_site_fract_y
_atom_site_fract_z
Si Si1 0.174868 0.606949 0.000000
Si Si2 0.825993 0.217861 0.386557
Si Si3 0.830753 0.292308 0.885191
Si Si4 0.333248 0.607266 0.783893
Si Si5 0.167431 0.103747 0.166370
Si Si6 0.826086 0.105344 0.500000
Si Si7 0.668840 0.107588 0.714375
Si Si8 0.671396 0.394127 0.351101
O O1 0.240326 0.660319 0.942930
O O2 0.230161 0.500000 0.000000
O O3 0.000000 0.611743 0.000000
O O4 0.769460 0.159979 0.442728
O O5 0.764084 0.169804 0.328679
O O6 0.764239 0.323287 0.391239
O O7 0.000000 0.220858 0.383504
O O8 0.767046 0.331104 0.825057
O O9 0.804864 0.180003 0.885046
O O10 0.000000 0.318370 0.885040
O O11 0.500000 0.638616 0.792945
O O12 0.312534 0.500000 0.801618
O O13 0.286179 0.623388 0.716713
O O14 0.275387 0.125035 0.219974
O O15 0.000000 0.111138 0.189232
O O16 0.198038 0.000000 0.140564
O O17 0.000000 0.101221 0.500000
O O18 0.761514 0.000000 0.500000
O O19 0.500000 0.139008 0.710988
O O20 0.688671 0.000000 0.696262
O O21 0.500000 0.376337 0.360923
O O22 0.712154 0.500000 0.369281
#
# Coordination Sequence:
#
# PCOD8195440 Si02
#       8
#     4   8   8   8   8   4   8   8
#     4   9  18  32  48  68  96 127 161 205 252 295
#     4  11  21  34  55  79 103 135 174 215 256 298
#     4  10  19  31  49  71  95 129 169 204 244 295
#     4   9  18  32  50  73 101 131 161 198 247 297
#     4   9  18  32  49  72 101 129 162 207 253 297
#     4   9  20  38  56  75 102 136 171 207 252 303
#     4  10  20  33  51  77 107 137 168 204 252 310
#     4   9  19  36  55  76 106 140 170 206 256 310
#
# _framework density 18.825191
#
# number of rings (size 3 to 8) (size 9 to 14) (size 15 to 20)
#    0.000    2.429    0.000    3.429    0.000    6.000 
#    0.000    3.929    0.000    8.143    0.000    0.000 
#    0.000    3.429    0.000    0.000    0.000    0.000 
#
# Total GULP energy -694343.131394 kJ/mol
# GULP energy per Si atom -12398.984489 kJ/mol
# Density = 1.878234 g / cm^3
# Si number density = 18.825191 Si / 1000 Ang^3
#
#
#
# Elastic Constant Matrix: (Units=GPa)
#
#
# Indices 1 2 3 4 5 6 
#
# 1 53.8727 45.6563 27.5963 0.0000 0.0000 0.0000
# 2 45.6563 152.2638 77.0859 0.0000 0.0000 0.0000
# 3 27.5963 77.0859 69.6840 0.0000 0.0000 0.0000
# 4 0.0000 0.0000 0.0000 34.0334 0.0000 0.0000
# 5 0.0000 0.0000 0.0000 0.0000 9.1992 0.0000
# 6 0.0000 0.0000 0.0000 0.0000 0.0000 29.1850
#
#
#
# Elastic Compliance Matrix: (Units=1/GPa)
#
#
# Indices 1 2 3 4 5 6 
#
# 1 0.025299 -0.005713 -0.003699 0.000000 0.000000 0.000000
# 2 -0.005713 0.016218 -0.015678 0.000000 0.000000 0.000000
# 3 -0.003699 -0.015678 0.033159 0.000000 0.000000 0.000000
# 4 0.000000 0.000000 0.000000 0.029383 0.000000 0.000000
# 5 0.000000 0.000000 0.000000 0.000000 0.108705 0.000000
# 6 0.000000 0.000000 0.000000 0.000000 0.000000 0.034264
#
#
# Mechanical properties :
#
#
# Convention : Reuss Voigt Hill
#
# Bulk Modulus (GPa) = 40.82401 64.05529 52.43965
# Shear Modulus (GPa) = 16.37345 22.84900 19.61123
#
# Velocity S-wave (km/s) = 2.95237 3.48767 3.23112
# Velocity P-wave (km/s) = 5.77537 7.09356 6.46814
#
# Compressibility (1/GPa) = 0.02449539
#
# Stress axis : x y z
#
# Youngs Moduli (GPa) = 39.52744 61.66006 30.15813
#
# Poissons Ratio (x) = 0.35229 0.11154
# Poissons Ratio (y) = 0.22584 0.47282
# Poissons Ratio (z) = 0.14620 0.96671
#
# Static dielectric constant tensor:
#      x y z
#    x 3.254810 0.000000 0.000000 
#    y 0.000000 3.826540 0.000000 
#    z 0.000000 0.000000 3.330350 
# 
# 
# High freq. dielectric constant tensor:
#      x y z
#    x 1.712650 0.000000 0.000000 
#    y 0.000000 1.752440 0.000000 
#    z 0.000000 0.000000 1.706830 
# 
# From -- ./inp_files/29803.got.cif
#   From: 2010.03.12/outbox.cif.g09.slc.cpg/sg47_15_cif.got.tgz:29803.got - 2010.04.14 03:12:58.
