data_PCOD8195870
_publ_section_title
;
Structure prediction by ZEFSAII (Michael W. Deem and Ramdas Pophale) SiO2 
 PCOD8195870
Probable space group: P M M M
;
_chemical_formula_sum "Si O2"
_cell_formula_units_Z 56
_cell_length_a 8.904466
_cell_length_b 23.411980
_cell_length_c 13.935361
_cell_angle_alpha 90.000000
_cell_angle_beta 90.000000
_cell_angle_gamma 90.000000
_cell_volume 2905.121150
_symmetry_space_group_name_H-M "P M M M"
_symmetry_group_IT_number 47
_symmetry_cell_setting 'orthorhombic'
loop_
_space_group_symop_operation_xyz
x,y,z
-x,-y,z
x,-y,-z
-x,y,-z
-x,-y,-z
x,y,-z
-x,y,z
x,-y,z
loop_
_atom_site_type_symbol
_atom_site_label
_atom_site_fract_x
_atom_site_fract_y
_atom_site_fract_z
Si Si1 0.829763 0.284563 0.113408
Si Si2 0.675325 0.833175 0.889267
Si Si3 0.178495 0.000000 0.391333
Si Si4 0.674059 0.607948 0.796394
Si Si5 0.821738 0.889663 0.275511
Si Si6 0.822768 0.219700 0.607824
Si Si7 0.326493 0.334274 0.607528
Si Si8 0.822420 0.500000 0.109059
O O1 0.762188 0.223766 0.144459
O O2 0.725884 0.334263 0.153536
O O3 0.000000 0.288883 0.153626
O O4 0.829194 0.290750 0.000000
O O5 0.500000 0.824409 0.869938
O O6 0.740959 0.886370 0.828133
O O7 0.707707 0.847208 0.000000
O O8 0.235948 0.055370 0.333870
O O9 0.243741 0.000000 0.500000
O O10 0.000000 0.000000 0.397168
O O11 0.500000 0.597460 0.820070
O O12 0.701180 0.613535 0.681295
O O13 0.768450 0.555445 0.835033
O O14 0.764858 0.834096 0.332593
O O15 0.000000 0.891690 0.261406
O O16 0.761849 0.212205 0.500000
O O17 0.760470 0.279206 0.649498
O O18 0.000000 0.222290 0.610203
O O19 0.270468 0.351416 0.500000
O O20 0.500000 0.317527 0.605164
O O21 0.000000 0.500000 0.107928
O O22 0.760032 0.500000 0.000000
#
# Coordination Sequence:
#
# PCOD8195870 Si02
#       8
#     8   8   4   8   8   8   8   4
#     4  10  20  34  54  81 112 143 174 214 266 320
#     4  10  21  36  53  75 105 140 177 219 267 318
#     4   9  18  34  56  81 108 138 175 219 266 319
#     4  11  22  36  57  82 108 142 181 220 263 311
#     4  10  19  32  53  78 104 138 178 220 266 315
#     4   9  17  29  48  77 109 138 170 210 258 311
#     4   9  19  35  53  76 107 140 173 210 256 310
#     4  11  25  43  60  79 106 140 177 219 266 315
#
# _framework density 19.276305000000001
#
# number of rings (size 3 to 8) (size 9 to 14) (size 15 to 20)
#    0.000    2.143    0.000    3.214    0.000    9.714 
#    0.000    1.071    0.000    6.000    0.000    0.000 
#    0.000    0.000    0.000    0.000    0.000    0.000 
#
# Total GULP energy -694437.858978 kJ/mol
# GULP energy per Si atom -12400.676053 kJ/mol
# Density = 1.923243 g / cm^3
# Si number density = 19.276305 Si / 1000 Ang^3
#
#
#
# Elastic Constant Matrix: (Units=GPa)
#
#
# Indices 1 2 3 4 5 6 
#
# 1 51.5188 28.0295 34.5166 0.0000 0.0000 0.0000
# 2 28.0295 104.9685 79.8055 0.0000 0.0000 0.0000
# 3 34.5166 79.8055 95.8658 0.0000 0.0000 0.0000
# 4 0.0000 0.0000 0.0000 31.5162 0.0000 0.0000
# 5 0.0000 0.0000 0.0000 0.0000 27.4699 0.0000
# 6 0.0000 0.0000 0.0000 0.0000 0.0000 -15.1179
#
#
#
# Elastic Compliance Matrix: (Units=1/GPa)
#
#
# Indices 1 2 3 4 5 6 
#
# 1 0.025590 0.000468 -0.009603 0.000000 0.000000 0.000000
# 2 0.000468 0.025960 -0.021780 0.000000 0.000000 0.000000
# 3 -0.009603 -0.021780 0.032020 0.000000 0.000000 0.000000
# 4 0.000000 0.000000 0.000000 0.031730 0.000000 0.000000
# 5 0.000000 0.000000 0.000000 0.000000 0.036403 0.000000
# 6 0.000000 0.000000 0.000000 0.000000 0.000000 -0.066147
#
#
# Mechanical properties :
#
#
# Convention : Reuss Voigt Hill
#
# Bulk Modulus (GPa) = 45.99806 59.67294 52.83550
# Shear Modulus (GPa) = 32.33454 16.10708 24.22081
#
# Velocity S-wave (km/s) = 4.10008 2.89379 3.54857
# Velocity P-wave (km/s) = 6.80650 6.49532 6.65273
#
# Compressibility (1/GPa) = 0.02174005
#
# Stress axis : x y z
#
# Youngs Moduli (GPa) = 39.07819 38.52007 31.23051
#
# Poissons Ratio (x) = -0.01802 0.29991
# Poissons Ratio (y) = -0.01829 0.68020
# Poissons Ratio (z) = 0.37527 0.83896
#
# Static dielectric constant tensor:
#      x y z
#    x 3.425930 0.000000 0.000000 
#    y 0.000000 3.566000 0.000000 
#    z 0.000000 0.000000 3.888990 
# 
# 
# High freq. dielectric constant tensor:
#      x y z
#    x 1.741790 0.000000 0.000000 
#    y 0.000000 1.731210 0.000000 
#    z 0.000000 0.000000 1.767750 
# 
# From -- ./inp_files/7445.got.cif
#   From: 2010.03.12/outbox.cif.g09.slc.cpg/sg47_4_cif.got.tgz:7445.got - 2010.04.14 03:12:58.
