data_PCOD8195999
_publ_section_title
;
Structure prediction by ZEFSAII (Michael W. Deem and Ramdas Pophale) SiO2 
 PCOD8195999
Probable space group: P M M M
;
_chemical_formula_sum "Si O2"
_cell_formula_units_Z 40
_cell_length_a 8.938776
_cell_length_b 19.577936
_cell_length_c 12.818109
_cell_angle_alpha 90.000000
_cell_angle_beta 90.000000
_cell_angle_gamma 90.000000
_cell_volume 2243.204766
_symmetry_space_group_name_H-M "P M M M"
_symmetry_group_IT_number 47
_symmetry_cell_setting 'orthorhombic'
loop_
_space_group_symop_operation_xyz
x,y,z
-x,-y,z
x,-y,-z
-x,y,-z
-x,-y,-z
x,y,-z
-x,y,z
x,-y,z
loop_
_atom_site_type_symbol
_atom_site_label
_atom_site_fract_x
_atom_site_fract_y
_atom_site_fract_z
Si Si1 0.673245 0.159720 0.818162
Si Si2 0.174888 0.358760 0.306521
Si Si3 0.170531 0.080746 0.000000
Si Si4 0.332243 0.311718 0.117238
Si Si5 0.176846 0.213099 0.618434
Si Si6 0.834002 0.500000 0.621460
O O1 0.500000 0.140065 0.805686
O O2 0.696713 0.231311 0.875782
O O3 0.745329 0.162392 0.701716
O O4 0.750943 0.104812 0.893032
O O5 0.212248 0.352905 0.184651
O O6 0.237138 0.291047 0.365181
O O7 0.250353 0.429782 0.345419
O O8 0.000000 0.362698 0.327901
O O9 0.000000 0.107338 0.000000
O O10 0.178392 0.000000 0.000000
O O11 0.500000 0.328337 0.156454
O O12 0.308650 0.336472 0.000000
O O13 0.216626 0.190392 0.500000
O O14 0.000000 0.210221 0.638369
O O15 0.848245 0.500000 0.500000
O O16 0.000000 0.500000 0.672805
#
# Coordination Sequence:
#
# PCOD8195999 Si02
#       6
#     8   8   4   8   8   4
#     4  10  19  33  53  77 104 135 171 208 248 294
#     4   9  17  28  45  70  93 123 166 208 252 299
#     4  11  23  37  55  81 111 138 165 198 241 295
#     4   9  17  31  48  67  94 126 159 199 247 295
#     4   9  17  30  49  75 105 134 169 214 260 305
#     4   9  16  28  46  65  90 122 157 203 254 301
#
# _framework density 17.831631000000002
#
# number of rings (size 3 to 8) (size 9 to 14) (size 15 to 20)
#    0.000    2.600    1.000    1.500    0.000    4.800 
#    0.000    1.000    0.000    6.000    0.000    4.200 
#    0.000    0.000    0.000    0.000    0.000    0.000 
#
# Total GULP energy -495749.234052 kJ/mol
# GULP energy per Si atom -12393.730851 kJ/mol
# Density = 1.779105 g / cm^3
# Si number density = 17.831631 Si / 1000 Ang^3
#
#
#
# Elastic Constant Matrix: (Units=GPa)
#
#
# Indices 1 2 3 4 5 6 
#
# 1 59.9883 29.6560 43.5347 0.0000 0.0000 0.0000
# 2 29.6560 65.5668 42.9583 0.0000 0.0000 0.0000
# 3 43.5347 42.9583 125.5569 0.0000 0.0000 0.0000
# 4 0.0000 0.0000 0.0000 23.0629 0.0000 0.0000
# 5 0.0000 0.0000 0.0000 0.0000 13.3299 0.0000
# 6 0.0000 0.0000 0.0000 0.0000 0.0000 6.8793
#
#
#
# Elastic Compliance Matrix: (Units=1/GPa)
#
#
# Indices 1 2 3 4 5 6 
#
# 1 0.024624 -0.007145 -0.006093 0.000000 0.000000 0.000000
# 2 -0.007145 0.021732 -0.004958 0.000000 0.000000 0.000000
# 3 -0.006093 -0.004958 0.011774 0.000000 0.000000 0.000000
# 4 0.000000 0.000000 0.000000 0.043360 0.000000 0.000000
# 5 0.000000 0.000000 0.000000 0.000000 0.075020 0.000000
# 6 0.000000 0.000000 0.000000 0.000000 0.000000 0.145365
#
#
# Mechanical properties :
#
#
# Convention : Reuss Voigt Hill
#
# Bulk Modulus (GPa) = 46.00533 53.71224 49.85878
# Shear Modulus (GPa) = 13.67943 17.65193 15.66568
#
# Velocity S-wave (km/s) = 2.77274 3.14972 2.96722
# Velocity P-wave (km/s) = 6.00888 6.58900 6.30561
#
# Compressibility (1/GPa) = 0.02173661
#
# Stress axis : x y z
#
# Youngs Moduli (GPa) = 40.61017 46.01556 84.93606
#
# Poissons Ratio (x) = 0.32880 0.51754
# Poissons Ratio (y) = 0.29018 0.42110
# Poissons Ratio (z) = 0.24745 0.22814
#
# Static dielectric constant tensor:
#      x y z
#    x 3.250740 0.000000 0.000000 
#    y 0.000000 3.200360 0.000000 
#    z 0.000000 0.000000 3.338590 
# 
# 
# High freq. dielectric constant tensor:
#      x y z
#    x 1.673320 0.000000 0.000000 
#    y 0.000000 1.663590 0.000000 
#    z 0.000000 0.000000 1.694940 
# 
# From -- ./inp_files/15104.got.cif
#   From: 2010.03.12/outbox.cif.g09.slc.cpg/sg47_8_cif.got.tgz:15104.got - 2010.04.14 03:12:58.
