data_PCOD8195205
_publ_section_title
;
Structure prediction by ZEFSAII (Michael W. Deem and Ramdas Pophale) SiO2 
 PCOD8195205
Probable space group: P M M M
;
_chemical_formula_sum "Si O2"
_cell_formula_units_Z 52
_cell_length_a 11.880113
_cell_length_b 8.066701
_cell_length_c 29.371221
_cell_angle_alpha 90.000000
_cell_angle_beta 90.000000
_cell_angle_gamma 90.000000
_cell_volume 2814.741604
_symmetry_space_group_name_H-M "P M M M"
_symmetry_group_IT_number 47
_symmetry_cell_setting 'orthorhombic'
loop_
_space_group_symop_operation_xyz
x,y,z
-x,-y,z
x,-y,-z
-x,y,-z
-x,-y,-z
x,y,-z
-x,y,z
x,-y,z
loop_
_atom_site_type_symbol
_atom_site_label
_atom_site_fract_x
_atom_site_fract_y
_atom_site_fract_z
Si Si1 0.264765 0.312609 0.133126
Si Si2 0.282481 0.805334 0.702631
Si Si3 0.368704 0.311311 0.388809
Si Si4 0.500000 0.197253 0.245431
Si Si5 0.500000 0.190755 0.853832
Si Si6 0.131298 0.190577 0.949213
Si Si7 0.632795 0.000000 0.550573
Si Si8 0.127883 0.303012 0.219340
O O1 0.285737 0.500000 0.146339
O O2 0.385479 0.235133 0.120023
O O3 0.190587 0.303777 0.087900
O O4 0.202122 0.229552 0.176992
O O5 0.286814 0.709964 0.654642
O O6 0.389038 0.736342 0.730224
O O7 0.172058 0.763954 0.732143
O O8 0.289842 0.000000 0.692718
O O9 0.500000 0.280888 0.375442
O O10 0.353230 0.500000 0.407947
O O11 0.329166 0.170978 0.424770
O O12 0.500000 0.278745 0.195414
O O13 0.500000 0.000000 0.244758
O O14 0.500000 0.000000 0.844575
O O15 0.000000 0.226468 0.946231
O O16 0.158235 0.000000 0.938169
O O17 0.174577 0.235670 0.000000
O O18 0.500000 0.000000 0.546899
O O19 0.686531 0.000000 0.500000
O O20 0.130809 0.500000 0.219157
O O21 0.000000 0.239226 0.213172
#
# Coordination Sequence:
#
# PCOD8195205 Si02
#       8
#     8   8   8   4   4   8   4   8
#     4  11  22  36  55  80 109 139 174 218 267 320
#     4  11  19  32  52  75 105 137 181 230 265 314
#     4  10  19  30  48  74 104 142 184 225 274 328
#     4   9  18  29  49  74 100 135 175 222 265 298
#     4  11  21  37  54  76 105 139 180 219 262 315
#     4   9  19  37  60  83 105 133 173 218 264 318
#     4   9  18  32  48  70 105 145 185 231 275 321
#     4  10  22  37  50  71 107 145 178 215 263 319
#
# _framework density 18.474166
#
# number of rings (size 3 to 8) (size 9 to 14) (size 15 to 20)
#    0.000    1.923    3.077    2.077    0.000    2.462 
#    0.000    2.692    0.000    2.308    0.000    0.000 
#    0.000    1.231    0.000    3.231    0.000    0.154 
#
# Total GULP energy -644599.046528 kJ/mol
# GULP energy per Si atom -12396.135510 kJ/mol
# Density = 1.843212 g / cm^3
# Si number density = 18.474166 Si / 1000 Ang^3
#
#
#
# Elastic Constant Matrix: (Units=GPa)
#
#
# Indices 1 2 3 4 5 6 
#
# 1 81.9017 24.3593 34.2743 0.0000 0.0000 0.0000
# 2 24.3593 72.6408 35.7306 0.0000 0.0000 0.0000
# 3 34.2743 35.7306 115.4273 0.0000 0.0000 0.0000
# 4 0.0000 0.0000 0.0000 25.2986 0.0000 0.0000
# 5 0.0000 0.0000 0.0000 0.0000 13.0077 0.0000
# 6 0.0000 0.0000 0.0000 0.0000 0.0000 20.5113
#
#
#
# Elastic Compliance Matrix: (Units=1/GPa)
#
#
# Indices 1 2 3 4 5 6 
#
# 1 0.014566 -0.003252 -0.003318 0.000000 0.000000 0.000000
# 2 -0.003252 0.016965 -0.004286 0.000000 0.000000 0.000000
# 3 -0.003318 -0.004286 0.010975 0.000000 0.000000 0.000000
# 4 0.000000 0.000000 0.000000 0.039528 0.000000 0.000000
# 5 0.000000 0.000000 0.000000 0.000000 0.076877 0.000000
# 6 0.000000 0.000000 0.000000 0.000000 0.000000 0.048754
#
#
# Mechanical properties :
#
#
# Convention : Reuss Voigt Hill
#
# Bulk Modulus (GPa) = 48.09209 50.96648 49.52929
# Shear Modulus (GPa) = 21.15873 23.47056 22.31464
#
# Velocity S-wave (km/s) = 3.38792 3.56821 3.47923
# Velocity P-wave (km/s) = 6.43371 6.68012 6.55807
#
# Compressibility (1/GPa) = 0.02079344
#
# Stress axis : x y z
#
# Youngs Moduli (GPa) = 68.65446 58.94452 91.11218
#
# Poissons Ratio (x) = 0.19170 0.30234
# Poissons Ratio (y) = 0.22328 0.39049
# Poissons Ratio (z) = 0.22782 0.25263
#
# Static dielectric constant tensor:
#      x y z
#    x 3.474870 0.000000 0.000000 
#    y 0.000000 3.302610 0.000000 
#    z 0.000000 0.000000 3.396140 
# 
# 
# High freq. dielectric constant tensor:
#      x y z
#    x 1.686530 0.000000 0.000000 
#    y 0.000000 1.716200 0.000000 
#    z 0.000000 0.000000 1.705010 
# 
# From -- ./inp_files/13303.got.cif
#   From: 2010.03.12/outbox.cif.g09.slc.cpg/sg47_7_cif.got.tgz:13303.got - 2010.04.14 03:12:58.
