data_PCOD8195718
_publ_section_title
;
Structure prediction by ZEFSAII (Michael W. Deem and Ramdas Pophale) SiO2 
 PCOD8195718
Probable space group: P M M M
;
_chemical_formula_sum "Si O2"
_cell_formula_units_Z 64
_cell_length_a 14.172336
_cell_length_b 9.114816
_cell_length_c 31.634587
_cell_angle_alpha 90.000000
_cell_angle_beta 90.000000
_cell_angle_gamma 90.000000
_cell_volume 4086.500111
_symmetry_space_group_name_H-M "P M M M"
_symmetry_group_IT_number 47
_symmetry_cell_setting 'orthorhombic'
loop_
_space_group_symop_operation_xyz
x,y,z
-x,-y,z
x,-y,-z
-x,y,-z
-x,-y,-z
x,y,-z
-x,y,z
x,-y,z
loop_
_atom_site_type_symbol
_atom_site_label
_atom_site_fract_x
_atom_site_fract_y
_atom_site_fract_z
Si Si1 0.391050 0.829442 0.381123
Si Si2 0.723912 0.827351 0.297510
Si Si3 0.106674 0.828844 0.419057
Si Si4 0.606982 0.827121 0.783182
Si Si5 0.278429 0.331114 0.452433
Si Si6 0.106669 0.330054 0.330673
Si Si7 0.605922 0.674504 0.044773
Si Si8 0.387176 0.665205 0.134964
O O1 0.500000 0.791285 0.373515
O O2 0.335214 0.784252 0.339038
O O3 0.353981 0.738137 0.420818
O O4 0.376491 0.000000 0.391402
O O5 0.666768 0.772534 0.256725
O O6 0.822455 0.739390 0.296548
O O7 0.744062 0.000000 0.295680
O O8 0.178103 0.752269 0.451218
O O9 0.122531 0.758084 0.373604
O O10 0.000000 0.803891 0.435393
O O11 0.130940 0.000000 0.415309
O O12 0.500000 0.771167 0.776648
O O13 0.651137 0.762533 0.826355
O O14 0.609874 0.000000 0.786952
O O15 0.318211 0.316012 0.500000
O O16 0.262259 0.500000 0.440122
O O17 0.130112 0.500000 0.338679
O O18 0.000000 0.310011 0.313927
O O19 0.500000 0.736683 0.042634
O O20 0.602524 0.500000 0.047390
O O21 0.652869 0.727126 0.089395
O O22 0.657005 0.722515 0.000000
O O23 0.500000 0.671212 0.132676
O O24 0.351875 0.500000 0.142974
#
# Coordination Sequence:
#
# PCOD8195718 Si02
#       8
#     8   8   8   8   8   8   8   8
#     4  10  21  37  56  75  93 117 152 190 222 254
#     4  10  19  32  51  72  92 117 149 182 215 256
#     4  10  20  35  56  79 100 122 148 177 210 253
#     4   9  17  28  41  59  86 118 148 180 221 262
#     4  11  24  39  54  74 100 126 150 179 218 262
#     4  10  20  33  51  75 100 121 140 169 213 261
#     4   7   9  14  26  44  65  92 131 180 227 263
#     4   8  13  21  33  50  73 102 140 184 224 262
#
# _framework density 15.661322999999999
#
# number of rings (size 3 to 8) (size 9 to 14) (size 15 to 20)
#    0.000    2.625    1.250    2.625    0.000    5.250 
#    0.000    2.500    0.000    2.625    0.000    2.625 
#    0.000    0.000    0.000    0.000    0.000    0.625 
#
# Total GULP energy -793126.816375 kJ/mol
# GULP energy per Si atom -12392.606506 kJ/mol
# Density = 1.562568 g / cm^3
# Si number density = 15.661323 Si / 1000 Ang^3
#
#
#
# Elastic Constant Matrix: (Units=GPa)
#
#
# Indices 1 2 3 4 5 6 
#
# 1 67.1167 31.3633 41.7537 0.0000 0.0000 0.0000
# 2 31.3633 57.8269 42.3083 0.0000 0.0000 0.0000
# 3 41.7537 42.3083 130.8736 0.0000 0.0000 0.0000
# 4 0.0000 0.0000 0.0000 18.4659 0.0000 0.0000
# 5 0.0000 0.0000 0.0000 0.0000 6.7277 0.0000
# 6 0.0000 0.0000 0.0000 0.0000 0.0000 19.0580
#
#
#
# Elastic Compliance Matrix: (Units=1/GPa)
#
#
# Indices 1 2 3 4 5 6 
#
# 1 0.021475 -0.008690 -0.004042 0.000000 0.000000 0.000000
# 2 -0.008690 0.026167 -0.005687 0.000000 0.000000 0.000000
# 3 -0.004042 -0.005687 0.010769 0.000000 0.000000 0.000000
# 4 0.000000 0.000000 0.000000 0.054154 0.000000 0.000000
# 5 0.000000 0.000000 0.000000 0.000000 0.148639 0.000000
# 6 0.000000 0.000000 0.000000 0.000000 0.000000 0.052471
#
#
# Mechanical properties :
#
#
# Convention : Reuss Voigt Hill
#
# Bulk Modulus (GPa) = 46.35388 54.07420 50.21404
# Shear Modulus (GPa) = 13.97811 18.20979 16.09395
#
# Velocity S-wave (km/s) = 2.99076 3.41357 3.20914
# Velocity P-wave (km/s) = 6.44888 7.08088 6.77226
#
# Compressibility (1/GPa) = 0.02157317
#
# Stress axis : x y z
#
# Youngs Moduli (GPa) = 46.56646 38.21664 92.86007
#
# Poissons Ratio (x) = 0.33210 0.37534
# Poissons Ratio (y) = 0.40465 0.52806
# Poissons Ratio (z) = 0.18822 0.21733
#
# Static dielectric constant tensor:
#      x y z
#    x 2.814400 0.000000 0.000000 
#    y 0.000000 2.922120 0.000000 
#    z 0.000000 0.000000 3.249210 
# 
# 
# High freq. dielectric constant tensor:
#      x y z
#    x 1.560760 0.000000 0.000000 
#    y 0.000000 1.594970 0.000000 
#    z 0.000000 0.000000 1.601050 
# 
# From -- ./inp_files/8266.got.cif
#   From: 2010.03.12/outbox.cif.g09.slc.cpg/sg47_5_cif.got.tgz:8266.got - 2010.04.14 03:12:58.
