data_PCOD8195672
_publ_section_title
;
Structure prediction by ZEFSAII (Michael W. Deem and Ramdas Pophale) SiO2 
 PCOD8195672
Probable space group: P M M M
;
_chemical_formula_sum "Si O2"
_cell_formula_units_Z 40
_cell_length_a 27.518156
_cell_length_b 9.121043
_cell_length_c 7.968698
_cell_angle_alpha 90.000000
_cell_angle_beta 90.000000
_cell_angle_gamma 90.000000
_cell_volume 2000.097650
_symmetry_space_group_name_H-M "P M M M"
_symmetry_group_IT_number 47
_symmetry_cell_setting 'orthorhombic'
loop_
_space_group_symop_operation_xyz
x,y,z
-x,-y,z
x,-y,-z
-x,y,-z
-x,-y,-z
x,y,-z
-x,y,z
x,-y,z
loop_
_atom_site_type_symbol
_atom_site_label
_atom_site_fract_x
_atom_site_fract_y
_atom_site_fract_z
Si Si1 0.782299 0.664045 0.807465
Si Si2 0.310525 0.168817 0.697125
Si Si3 0.500000 0.165738 0.299771
Si Si4 0.944989 0.675127 0.000000
Si Si5 0.884538 0.674182 0.314847
Si Si6 0.594337 0.665593 0.699933
O O1 0.768234 0.500000 0.744474
O O2 0.737304 0.771530 0.785563
O O3 0.828835 0.726783 0.707752
O O4 0.798111 0.658399 0.000000
O O5 0.304799 0.192269 0.500000
O O6 0.357189 0.255663 0.767145
O O7 0.317545 0.000000 0.744872
O O8 0.500000 0.166145 0.500000
O O9 0.547524 0.248464 0.229887
O O10 0.500000 0.000000 0.231051
O O11 0.918980 0.738311 0.831960
O O12 0.943532 0.500000 0.000000
O O13 0.000000 0.733407 0.000000
O O14 0.902670 0.725792 0.500000
O O15 0.885384 0.500000 0.301561
O O16 0.593568 0.667462 0.500000
O O17 0.593235 0.500000 0.768981
#
# Coordination Sequence:
#
# PCOD8195672 Si02
#       6
#     8   8   4   4   8   8
#     4  10  19  32  50  70  94 127 169 214 259 314
#     4  10  20  32  46  68  98 128 161 206 260 317
#     4   9  15  23  37  59  90 127 164 207 262 315
#     4   9  16  26  40  64 101 139 177 220 263 314
#     4   9  16  27  44  66  95 133 175 218 265 316
#     4   9  16  26  41  62  90 125 166 209 255 312
#
# _framework density 19.999023000000001
#
# number of rings (size 3 to 8) (size 9 to 14) (size 15 to 20)
#    0.000    2.600    1.000    2.100    0.000    6.400 
#    0.000    2.000    0.000    0.000    0.000    0.700 
#    0.000    7.200    0.000    4.200    0.000    4.000 
#
# Total GULP energy -495937.306194 kJ/mol
# GULP energy per Si atom -12398.432655 kJ/mol
# Density = 1.995350 g / cm^3
# Si number density = 19.999023 Si / 1000 Ang^3
#
#
#
# Elastic Constant Matrix: (Units=GPa)
#
#
# Indices 1 2 3 4 5 6 
#
# 1 161.8994 48.4823 56.0143 0.0000 0.0000 0.0000
# 2 48.4823 93.4125 22.7721 0.0000 0.0000 0.0000
# 3 56.0143 22.7721 84.1394 0.0000 0.0000 0.0000
# 4 0.0000 0.0000 0.0000 9.8792 0.0000 0.0000
# 5 0.0000 0.0000 0.0000 0.0000 19.2372 0.0000
# 6 0.0000 0.0000 0.0000 0.0000 0.0000 7.1089
#
#
#
# Elastic Compliance Matrix: (Units=1/GPa)
#
#
# Indices 1 2 3 4 5 6 
#
# 1 0.008938 -0.003414 -0.005026 0.000000 0.000000 0.000000
# 2 -0.003414 0.012765 -0.001182 0.000000 0.000000 0.000000
# 3 -0.005026 -0.001182 0.015551 0.000000 0.000000 0.000000
# 4 0.000000 0.000000 0.000000 0.101223 0.000000 0.000000
# 5 0.000000 0.000000 0.000000 0.000000 0.051983 0.000000
# 6 0.000000 0.000000 0.000000 0.000000 0.000000 0.140669
#
#
# Mechanical properties :
#
#
# Convention : Reuss Voigt Hill
#
# Bulk Modulus (GPa) = 55.52552 65.99876 60.76214
# Shear Modulus (GPa) = 14.03010 21.39055 17.71033
#
# Velocity S-wave (km/s) = 2.65153 3.27399 2.97906
# Velocity P-wave (km/s) = 6.09906 6.88220 6.50243
#
# Compressibility (1/GPa) = 0.01800974
#
# Stress axis : x y z
#
# Youngs Moduli (GPa) = 111.88249 78.33846 64.30344
#
# Poissons Ratio (x) = 0.26741 0.32322
# Poissons Ratio (y) = 0.38192 0.07603
# Poissons Ratio (z) = 0.56237 0.09262
#
# Static dielectric constant tensor:
#      x y z
#    x 3.701830 0.000000 0.000000 
#    y 0.000000 3.332580 0.000000 
#    z 0.000000 0.000000 3.431560 
# 
# 
# High freq. dielectric constant tensor:
#      x y z
#    x 1.786750 0.000000 0.000000 
#    y 0.000000 1.741860 0.000000 
#    z 0.000000 0.000000 1.760620 
# 
# From -- ./inp_files/13064.got.cif
#   From: 2010.03.12/outbox.cif.g09.slc.cpg/sg47_7_cif.got.tgz:13064.got - 2010.04.14 03:12:58.
