data_PCOD8195072
_publ_section_title
;
Structure prediction by ZEFSAII (Michael W. Deem and Ramdas Pophale) SiO2 
 PCOD8195072
Probable space group: P M M M
;
_chemical_formula_sum "Si O2"
_cell_formula_units_Z 52
_cell_length_a 7.996314
_cell_length_b 28.061751
_cell_length_c 13.889676
_cell_angle_alpha 90.000000
_cell_angle_beta 90.000000
_cell_angle_gamma 90.000000
_cell_volume 3116.712348
_symmetry_space_group_name_H-M "P M M M"
_symmetry_group_IT_number 47
_symmetry_cell_setting 'orthorhombic'
loop_
_space_group_symop_operation_xyz
x,y,z
-x,-y,z
x,-y,-z
-x,y,-z
-x,-y,-z
x,y,-z
-x,y,z
x,-y,z
loop_
_atom_site_type_symbol
_atom_site_label
_atom_site_fract_x
_atom_site_fract_y
_atom_site_fract_z
Si Si1 0.500000 0.446893 0.386090
Si Si2 0.696887 0.946266 0.108406
Si Si3 0.191268 0.713972 0.287754
Si Si4 0.800531 0.767035 0.106391
Si Si5 0.192016 0.857554 0.779832
Si Si6 0.194861 0.618811 0.613418
Si Si7 0.308943 0.804322 0.392953
O O1 0.500000 0.500000 0.341455
O O2 0.500000 0.449368 0.500000
O O3 0.326085 0.421785 0.352944
O O4 0.500000 0.939426 0.113639
O O5 0.782799 0.910975 0.183382
O O6 0.747238 0.000000 0.137502
O O7 0.760160 0.935511 0.000000
O O8 0.270343 0.728149 0.183233
O O9 0.266403 0.666015 0.333260
O O10 0.204807 0.758518 0.359525
O O11 0.000000 0.702417 0.270868
O O12 0.741892 0.819630 0.140860
O O13 0.000000 0.765039 0.103073
O O14 0.725642 0.757081 0.000000
O O15 0.284616 0.849310 0.678177
O O16 0.000000 0.847683 0.758938
O O17 0.207669 0.628367 0.500000
O O18 0.000000 0.605766 0.639625
O O19 0.250610 0.819448 0.500000
O O20 0.500000 0.788307 0.392701
#
# Coordination Sequence:
#
# PCOD8195072 Si02
#       7
#     4   8   8   8   8   8   8
#     4   9  18  30  44  64  89 121 159 193 231 278
#     4   9  18  32  49  69  93 119 146 180 223 269
#     4   9  17  28  43  65  91 119 151 186 226 270
#     4   8  14  25  41  62  89 118 145 175 214 262
#     4  10  19  30  46  67  91 119 149 183 224 267
#     4   9  17  28  43  64  91 122 154 191 233 275
#     4  10  20  31  45  65  88 118 154 188 222 266
#
# _framework density 16.684246999999999
#
# number of rings (size 3 to 8) (size 9 to 14) (size 15 to 20)
#    0.000    2.846    0.000    3.231    1.077    3.385 
#    0.000    2.308    0.000    4.615    0.000    3.231 
#    0.000    1.231    0.000    6.000    0.000    0.154 
#
# Total GULP energy -644378.023172 kJ/mol
# GULP energy per Si atom -12391.885061 kJ/mol
# Density = 1.664627 g / cm^3
# Si number density = 16.684247 Si / 1000 Ang^3
#
#
#
# Elastic Constant Matrix: (Units=GPa)
#
#
# Indices 1 2 3 4 5 6 
#
# 1 44.1975 29.3309 22.8927 0.0000 0.0000 0.0000
# 2 29.3309 117.2458 54.5403 0.0000 0.0000 0.0000
# 3 22.8927 54.5403 115.2899 0.0000 0.0000 0.0000
# 4 0.0000 0.0000 0.0000 21.1145 0.0000 0.0000
# 5 0.0000 0.0000 0.0000 0.0000 13.9269 0.0000
# 6 0.0000 0.0000 0.0000 0.0000 0.0000 24.4600
#
#
#
# Elastic Compliance Matrix: (Units=1/GPa)
#
#
# Indices 1 2 3 4 5 6 
#
# 1 0.027848 -0.005634 -0.002864 0.000000 0.000000 0.000000
# 2 -0.005634 0.012076 -0.004594 0.000000 0.000000 0.000000
# 3 -0.002864 -0.004594 0.011416 0.000000 0.000000 0.000000
# 4 0.000000 0.000000 0.000000 0.047361 0.000000 0.000000
# 5 0.000000 0.000000 0.000000 0.000000 0.071804 0.000000
# 6 0.000000 0.000000 0.000000 0.000000 0.000000 0.040883
#
#
# Mechanical properties :
#
#
# Convention : Reuss Voigt Hill
#
# Bulk Modulus (GPa) = 39.75378 54.47344 47.11361
# Shear Modulus (GPa) = 20.32878 23.23158 21.78018
#
# Velocity S-wave (km/s) = 3.49440 3.73557 3.61700
# Velocity P-wave (km/s) = 6.33719 7.16425 6.76338
#
# Compressibility (1/GPa) = 0.02515484
#
# Stress axis : x y z
#
# Youngs Moduli (GPa) = 35.90869 82.81202 87.59830
#
# Poissons Ratio (x) = 0.46659 0.25091
# Poissons Ratio (y) = 0.20232 0.40241
# Poissons Ratio (z) = 0.10285 0.38042
#
# Static dielectric constant tensor:
#      x y z
#    x 3.061520 0.000000 0.000000 
#    y 0.000000 3.178370 0.000000 
#    z 0.000000 0.000000 3.274640 
# 
# 
# High freq. dielectric constant tensor:
#      x y z
#    x 1.638880 0.000000 0.000000 
#    y 0.000000 1.621010 0.000000 
#    z 0.000000 0.000000 1.623880 
# 
# From -- ./inp_files/21810.got.cif
#   From: 2010.03.12/outbox.cif.g09.slc.cpg/sg47_11_cif.got.tgz:21810.got - 2010.04.14 03:12:58.
