data_PCOD8195074
_publ_section_title
;
Structure prediction by ZEFSAII (Michael W. Deem and Ramdas Pophale) SiO2 
 PCOD8195074
Probable space group: P M M M
;
_chemical_formula_sum "Si O2"
_cell_formula_units_Z 36
_cell_length_a 9.122317
_cell_length_b 9.441327
_cell_length_c 24.863094
_cell_angle_alpha 90.000000
_cell_angle_beta 90.000000
_cell_angle_gamma 90.000000
_cell_volume 2141.378172
_symmetry_space_group_name_H-M "P M M M"
_symmetry_group_IT_number 47
_symmetry_cell_setting 'orthorhombic'
loop_
_space_group_symop_operation_xyz
x,y,z
-x,-y,z
x,-y,-z
-x,y,-z
-x,-y,-z
x,y,-z
-x,y,z
x,-y,z
loop_
_atom_site_type_symbol
_atom_site_label
_atom_site_fract_x
_atom_site_fract_y
_atom_site_fract_z
Si Si1 0.167320 0.667871 0.766448
Si Si2 0.666350 0.156037 0.853353
Si Si3 0.164763 0.668451 0.559228
Si Si4 0.335624 0.331227 0.338750
Si Si5 0.173061 0.000000 0.062356
O O1 0.177663 0.500000 0.770710
O O2 0.253605 0.730395 0.816651
O O3 0.239869 0.723118 0.711303
O O4 0.000000 0.720424 0.767429
O O5 0.500000 0.207079 0.864391
O O6 0.754574 0.140186 0.910034
O O7 0.666308 0.000000 0.825131
O O8 0.220784 0.717269 0.500000
O O9 0.164743 0.500000 0.562155
O O10 0.268721 0.730954 0.605810
O O11 0.000000 0.724465 0.568892
O O12 0.500000 0.272390 0.332380
O O13 0.335195 0.500000 0.340445
O O14 0.000000 0.000000 0.072437
O O15 0.213397 0.000000 0.000000
#
# Coordination Sequence:
#
# PCOD8195074 Si02
#       5
#     8   8   8   8   4
#     4  10  19  30  46  67  93 126 160 193 232 279
#     4   9  19  32  49  73  98 125 155 191 231 272
#     4   8  13  21  32  46  68 101 141 183 225 271
#     4   9  16  24  35  53  79 111 146 185 229 277
#     4   9  17  31  53  77  99 125 156 189 224 265
#
# _framework density 16.811603000000002
#
# number of rings (size 3 to 8) (size 9 to 14) (size 15 to 20)
#    0.667    2.333    0.000    2.667    0.000    5.333 
#    0.000    2.222    0.000    0.667    0.000    4.667 
#    0.000    0.889    0.000    9.333    0.000   12.889 
#
# Total GULP energy -446096.110134 kJ/mol
# GULP energy per Si atom -12391.558615 kJ/mol
# Density = 1.677334 g / cm^3
# Si number density = 16.811603 Si / 1000 Ang^3
#
#
#
# Elastic Constant Matrix: (Units=GPa)
#
#
# Indices 1 2 3 4 5 6 
#
# 1 155.7179 18.9655 88.1060 0.0000 0.0000 0.0000
# 2 18.9655 11.1878 19.5202 0.0000 0.0000 0.0000
# 3 88.1060 19.5202 152.4840 0.0000 0.0000 0.0000
# 4 0.0000 0.0000 0.0000 1.6086 0.0000 0.0000
# 5 0.0000 0.0000 0.0000 0.0000 24.8220 0.0000
# 6 0.0000 0.0000 0.0000 0.0000 0.0000 17.9504
#
#
#
# Elastic Compliance Matrix: (Units=1/GPa)
#
#
# Indices 1 2 3 4 5 6 
#
# 1 0.010203 -0.009026 -0.004740 0.000000 0.000000 0.000000
# 2 -0.009026 0.123074 -0.010540 0.000000 0.000000 0.000000
# 3 -0.004740 -0.010540 0.010646 0.000000 0.000000 0.000000
# 4 0.000000 0.000000 0.000000 0.621643 0.000000 0.000000
# 5 0.000000 0.000000 0.000000 0.000000 0.040287 0.000000
# 6 0.000000 0.000000 0.000000 0.000000 0.000000 0.055709
#
#
# Mechanical properties :
#
#
# Convention : Reuss Voigt Hill
#
# Bulk Modulus (GPa) = 10.49195 63.61923 37.05559
# Shear Modulus (GPa) = 5.30817 21.72941 13.51879
#
# Velocity S-wave (km/s) = 1.77885 3.59907 2.83880
# Velocity P-wave (km/s) = 3.23628 7.42938 5.73015
#
# Compressibility (1/GPa) = 0.09531116
#
# Stress axis : x y z
#
# Youngs Moduli (GPa) = 98.00988 8.12520 93.93151
#
# Poissons Ratio (x) = 0.07334 0.44523
# Poissons Ratio (y) = 0.88465 0.99003
# Poissons Ratio (z) = 0.46456 0.08564
#
# Static dielectric constant tensor:
#      x y z
#    x 3.379120 0.000000 0.000000 
#    y 0.000000 2.541960 0.000000 
#    z 0.000000 0.000000 3.208640 
# 
# 
# High freq. dielectric constant tensor:
#      x y z
#    x 1.665690 0.000000 0.000000 
#    y 0.000000 1.577340 0.000000 
#    z 0.000000 0.000000 1.649660 
# 
# From -- ./inp_files/12251.got.cif
#   From: 2010.03.12/outbox.cif.g09.slc.cpg/sg47_7_cif.got.tgz:12251.got - 2010.04.14 03:12:58.
