data_PCOD8195985
_publ_section_title
;
Structure prediction by ZEFSAII (Michael W. Deem and Ramdas Pophale) SiO2 
 PCOD8195985
Probable space group: P M M M
;
_chemical_formula_sum "Si O2"
_cell_formula_units_Z 52
_cell_length_a 23.410342
_cell_length_b 14.161220
_cell_length_c 8.894379
_cell_angle_alpha 90.000000
_cell_angle_beta 90.000000
_cell_angle_gamma 90.000000
_cell_volume 2948.655661
_symmetry_space_group_name_H-M "P M M M"
_symmetry_group_IT_number 47
_symmetry_cell_setting 'orthorhombic'
loop_
_space_group_symop_operation_xyz
x,y,z
-x,-y,z
x,-y,-z
-x,y,-z
-x,-y,-z
x,y,-z
-x,y,z
x,-y,z
loop_
_atom_site_type_symbol
_atom_site_label
_atom_site_fract_x
_atom_site_fract_y
_atom_site_fract_z
Si Si1 0.834456 0.104971 0.171997
Si Si2 0.884064 0.299352 0.175293
Si Si3 0.562906 0.394133 0.821341
Si Si4 0.670904 0.281697 0.178181
Si Si5 0.224696 0.389711 0.675140
Si Si6 0.715941 0.106938 0.325137
Si Si7 0.000000 0.393047 0.178511
O O1 0.881792 0.185675 0.201829
O O2 0.780850 0.127136 0.277240
O O3 0.859767 0.000000 0.206688
O O4 0.812901 0.110169 0.000000
O O5 0.835461 0.351721 0.267500
O O6 0.944443 0.337145 0.237202
O O7 0.876064 0.323948 0.000000
O O8 0.500000 0.359302 0.767373
O O9 0.574156 0.500000 0.760924
O O10 0.612194 0.326161 0.757413
O O11 0.565030 0.394824 0.000000
O O12 0.724515 0.339542 0.237645
O O13 0.672914 0.174219 0.235325
O O14 0.672557 0.283746 0.000000
O O15 0.230684 0.366800 0.500000
O O16 0.228287 0.500000 0.709450
O O17 0.710966 0.129249 0.500000
O O18 0.698377 0.000000 0.286746
O O19 0.000000 0.500000 0.242272
O O20 0.000000 0.394781 0.000000
#
# Coordination Sequence:
#
# PCOD8195985 Si02
#       7
#     8   8   8   8   8   8   4
#     4   9  17  30  49  74 101 128 163 208 255 304
#     4  10  19  33  53  74  97 132 172 212 257 306
#     4   8  15  29  49  74 104 136 170 208 250 299
#     4  11  20  31  52  80 105 132 168 211 258 306
#     4  11  23  35  48  71 104 136 167 210 259 305
#     4  10  20  33  50  73 103 138 171 205 252 308
#     4   9  18  32  50  72  98 131 175 219 255 302
#
# _framework density 17.635154
#
# number of rings (size 3 to 8) (size 9 to 14) (size 15 to 20)
#    0.000    2.231    1.538    2.769    0.000    3.385 
#    0.000    0.769    0.000    6.000    0.000    8.615 
#    0.000    3.692    0.000    0.000    0.000    0.000 
#
# Total GULP energy -644710.824779 kJ/mol
# GULP energy per Si atom -12398.285092 kJ/mol
# Density = 1.759502 g / cm^3
# Si number density = 17.635154 Si / 1000 Ang^3
#
#
#
# Elastic Constant Matrix: (Units=GPa)
#
#
# Indices 1 2 3 4 5 6 
#
# 1 139.5434 82.2176 34.6079 0.0000 0.0000 0.0000
# 2 82.2176 138.9199 41.2148 0.0000 0.0000 0.0000
# 3 34.6079 41.2148 53.2491 0.0000 0.0000 0.0000
# 4 0.0000 0.0000 0.0000 24.8886 0.0000 0.0000
# 5 0.0000 0.0000 0.0000 0.0000 -2.7790 0.0000
# 6 0.0000 0.0000 0.0000 0.0000 0.0000 31.8739
#
#
#
# Elastic Compliance Matrix: (Units=1/GPa)
#
#
# Indices 1 2 3 4 5 6 
#
# 1 0.011320 -0.005863 -0.002819 0.000000 0.000000 0.000000
# 2 -0.005863 0.012381 -0.005772 0.000000 0.000000 0.000000
# 3 -0.002819 -0.005772 0.025079 0.000000 0.000000 0.000000
# 4 0.000000 0.000000 0.000000 0.040179 0.000000 0.000000
# 5 0.000000 0.000000 0.000000 0.000000 -0.359846 0.000000
# 6 0.000000 0.000000 0.000000 0.000000 0.000000 0.031374
#
#
# Mechanical properties :
#
#
# Convention : Reuss Voigt Hill
#
# Bulk Modulus (GPa) = 50.32318 71.97699 61.15008
# Shear Modulus (GPa) = -24.51218 22.37486 -1.06866
#
# Velocity S-wave (km/s) = -3.73226 3.56584 -0.77929
# Velocity P-wave (km/s) = 3.16617 7.60636 5.82586
#
# Compressibility (1/GPa) = 0.01987156
#
# Stress axis : x y z
#
# Youngs Moduli (GPa) = 88.34019 80.76949 39.87328
#
# Poissons Ratio (x) = 0.47356 0.11240
# Poissons Ratio (y) = 0.51795 0.23016
# Poissons Ratio (z) = 0.24903 0.46622
#
# Static dielectric constant tensor:
#      x y z
#    x 3.352970 0.000000 0.000000 
#    y 0.000000 3.626940 0.000000 
#    z 0.000000 0.000000 3.118330 
# 
# 
# High freq. dielectric constant tensor:
#      x y z
#    x 1.663410 0.000000 0.000000 
#    y 0.000000 1.695640 0.000000 
#    z 0.000000 0.000000 1.664860 
# 
# From -- ./inp_files/11092.got.cif
#   From: 2010.03.12/outbox.cif.g09.slc.cpg/sg47_6_cif.got.tgz:11092.got - 2010.04.14 03:12:58.
