data_PCOD8195356
_publ_section_title
;
Structure prediction by ZEFSAII (Michael W. Deem and Ramdas Pophale) SiO2 
 PCOD8195356
Probable space group: P M M M
;
_chemical_formula_sum "Si O2"
_cell_formula_units_Z 48
_cell_length_a 23.564826
_cell_length_b 18.306680
_cell_length_c 8.101645
_cell_angle_alpha 90.000000
_cell_angle_beta 90.000000
_cell_angle_gamma 90.000000
_cell_volume 3494.998846
_symmetry_space_group_name_H-M "P M M M"
_symmetry_group_IT_number 47
_symmetry_cell_setting 'orthorhombic'
loop_
_space_group_symop_operation_xyz
x,y,z
-x,-y,z
x,-y,-z
-x,y,-z
-x,-y,-z
x,y,-z
-x,y,z
x,-y,z
loop_
_atom_site_type_symbol
_atom_site_label
_atom_site_fract_x
_atom_site_fract_y
_atom_site_fract_z
Si Si1 0.060939 0.583677 0.306127
Si Si2 0.500000 0.580929 0.196130
Si Si3 0.432784 0.081586 0.000000
Si Si4 0.295158 0.416208 0.311492
Si Si5 0.566326 0.824033 0.313035
Si Si6 0.604344 0.324335 0.809908
Si Si7 0.177318 0.585020 0.186669
O O1 0.067754 0.588817 0.500000
O O2 0.058967 0.500000 0.247289
O O3 0.116598 0.623352 0.228707
O O4 0.000000 0.619761 0.252071
O O5 0.500000 0.500000 0.273630
O O6 0.555927 0.622016 0.259918
O O7 0.500000 0.576232 0.000000
O O8 0.412331 0.120429 0.829794
O O9 0.500000 0.078032 0.000000
O O10 0.406935 0.000000 0.000000
O O11 0.314216 0.411600 0.500000
O O12 0.299391 0.500000 0.245843
O O13 0.335381 0.364148 0.205277
O O14 0.230455 0.386676 0.294287
O O15 0.576368 0.855189 0.500000
O O16 0.500000 0.806177 0.285432
O O17 0.602389 0.749915 0.294957
O O18 0.592770 0.304181 0.000000
O O19 0.169155 0.500000 0.225290
O O20 0.193699 0.601420 0.000000
#
# Coordination Sequence:
#
# PCOD8195356 Si02
#       7
#     8   4   4   8   8   8   8
#     4   8  13  21  33  48  65  85 108 137 181 236
#     4   9  18  28  41  59  75  97 129 166 207 246
#     4   9  18  32  50  70  90 108 126 150 185 230
#     4  10  20  31  40  52  72  98 131 170 207 244
#     4  10  19  31  48  67  87 109 131 155 191 236
#     4  11  19  30  46  59  78 103 131 164 203 244
#     4   9  16  25  36  49  65  87 116 152 195 237
#
# _framework density 13.733911000000001
#
# number of rings (size 3 to 8) (size 9 to 14) (size 15 to 20)
#    0.000    2.500    1.667    2.500    0.000    4.333 
#    0.000    3.333    0.000    2.000    0.000    0.000 
#    0.000    0.000    0.000    0.000    0.000    0.000 
#
# Total GULP energy -594820.937602 kJ/mol
# GULP energy per Si atom -12392.102867 kJ/mol
# Density = 1.370265 g / cm^3
# Si number density = 13.733911 Si / 1000 Ang^3
#
#
#
# Elastic Constant Matrix: (Units=GPa)
#
#
# Indices 1 2 3 4 5 6 
#
# 1 81.4840 22.9446 21.5598 0.0000 0.0000 0.0000
# 2 22.9446 59.9626 25.1143 0.0000 0.0000 0.0000
# 3 21.5598 25.1143 58.9755 0.0000 0.0000 0.0000
# 4 0.0000 0.0000 0.0000 11.5389 0.0000 0.0000
# 5 0.0000 0.0000 0.0000 0.0000 19.0885 0.0000
# 6 0.0000 0.0000 0.0000 0.0000 0.0000 2.5880
#
#
#
# Elastic Compliance Matrix: (Units=1/GPa)
#
#
# Indices 1 2 3 4 5 6 
#
# 1 0.014335 -0.004005 -0.003535 0.000000 0.000000 0.000000
# 2 -0.004005 0.021416 -0.007656 0.000000 0.000000 0.000000
# 3 -0.003535 -0.007656 0.021509 0.000000 0.000000 0.000000
# 4 0.000000 0.000000 0.000000 0.086663 0.000000 0.000000
# 5 0.000000 0.000000 0.000000 0.000000 0.052388 0.000000
# 6 0.000000 0.000000 0.000000 0.000000 0.000000 0.386395
#
#
# Mechanical properties :
#
#
# Convention : Reuss Voigt Hill
#
# Bulk Modulus (GPa) = 37.21824 37.73994 37.47909
# Shear Modulus (GPa) = 8.03789 15.36332 11.70060
#
# Velocity S-wave (km/s) = 2.42184 3.34824 2.92198
# Velocity P-wave (km/s) = 5.91428 6.51818 6.22356
#
# Compressibility (1/GPa) = 0.02686854
#
# Stress axis : x y z
#
# Youngs Moduli (GPa) = 69.75738 46.69419 46.49271
#
# Poissons Ratio (x) = 0.18700 0.16436
# Poissons Ratio (y) = 0.27936 0.35594
# Poissons Ratio (z) = 0.24661 0.35748
#
# Static dielectric constant tensor:
#      x y z
#    x 2.826390 0.000000 0.000000 
#    y 0.000000 2.359580 0.000000 
#    z 0.000000 0.000000 2.732420 
# 
# 
# High freq. dielectric constant tensor:
#      x y z
#    x 1.514500 0.000000 0.000000 
#    y 0.000000 1.454740 0.000000 
#    z 0.000000 0.000000 1.534070 
# 
# From -- ./inp_files/11402.got.cif
#   From: 2010.03.12/outbox.cif.g09.slc.cpg/sg47_6_cif.got.tgz:11402.got - 2010.04.14 03:12:58.
