data_PCOD8195767
_publ_section_title
;
Structure prediction by ZEFSAII (Michael W. Deem and Ramdas Pophale) SiO2 
 PCOD8195767
Probable space group: P M M M
;
_chemical_formula_sum "Si O2"
_cell_formula_units_Z 64
_cell_length_a 9.297551
_cell_length_b 15.151208
_cell_length_c 25.258479
_cell_angle_alpha 90.000000
_cell_angle_beta 90.000000
_cell_angle_gamma 90.000000
_cell_volume 3558.139939
_symmetry_space_group_name_H-M "P M M M"
_symmetry_group_IT_number 47
_symmetry_cell_setting 'orthorhombic'
loop_
_space_group_symop_operation_xyz
x,y,z
-x,-y,z
x,-y,-z
-x,y,-z
-x,-y,-z
x,y,-z
-x,y,z
x,-y,z
loop_
_atom_site_type_symbol
_atom_site_label
_atom_site_fract_x
_atom_site_fract_y
_atom_site_fract_z
Si Si1 0.337937 0.367315 0.286148
Si Si2 0.667524 0.401616 0.596735
Si Si3 0.829121 0.785426 0.844862
Si Si4 0.166322 0.762618 0.559175
Si Si5 0.166154 0.595048 0.814930
Si Si6 0.664665 0.167363 0.258695
Si Si7 0.165176 0.099105 0.353653
Si Si8 0.170757 0.098811 0.941372
O O1 0.500000 0.400267 0.276990
O O2 0.279208 0.399249 0.342548
O O3 0.243212 0.410958 0.241092
O O4 0.327642 0.262523 0.285098
O O5 0.500000 0.376935 0.593976
O O6 0.695883 0.500000 0.573934
O O7 0.752431 0.330355 0.562735
O O8 0.783756 0.681262 0.848253
O O9 0.750012 0.833850 0.796618
O O10 0.771641 0.830932 0.898577
O O11 0.000000 0.797366 0.837741
O O12 0.190224 0.800456 0.500000
O O13 0.224901 0.834498 0.601235
O O14 0.000000 0.743691 0.570198
O O15 0.194521 0.500000 0.844447
O O16 0.000000 0.606931 0.802109
O O17 0.500000 0.137433 0.248789
O O18 0.741256 0.102820 0.300165
O O19 0.000000 0.121995 0.339513
O O20 0.177735 0.000000 0.376356
O O21 0.000000 0.100132 0.941634
O O22 0.224392 0.000000 0.926787
O O23 0.227755 0.125186 0.000000
#
# Coordination Sequence:
#
# PCOD8195767 Si02
#       8
#     8   8   8   8   8   8   8   8
#     4   9  17  30  48  69  95 127 162 199 237 282
#     4  10  20  34  53  76 101 131 166 202 244 296
#     4   9  17  29  47  71 100 132 165 203 245 291
#     4  10  22  39  57  76  99 127 162 208 254 296
#     4   9  17  27  40  63  96 131 163 195 235 284
#     4  10  19  32  51  75 104 133 161 198 245 295
#     4  10  21  37  57  78 100 129 164 201 246 302
#     4   8  14  26  46  71  95 122 163 211 250 285
#
# _framework density 17.986926
#
# number of rings (size 3 to 8) (size 9 to 14) (size 15 to 20)
#    0.000    2.625    1.250    1.125    0.000    3.500 
#    0.000    3.750    0.000    0.750    0.000    5.250 
#    0.000    0.000    0.000    6.250    0.000    6.500 
#
# Total GULP energy -793274.203832 kJ/mol
# GULP energy per Si atom -12394.909435 kJ/mol
# Density = 1.794599 g / cm^3
# Si number density = 17.986926 Si / 1000 Ang^3
#
#
#
# Elastic Constant Matrix: (Units=GPa)
#
#
# Indices 1 2 3 4 5 6 
#
# 1 43.0870 29.3826 34.1272 0.0000 0.0000 0.0000
# 2 29.3826 103.4637 63.1643 0.0000 0.0000 0.0000
# 3 34.1272 63.1643 112.4944 0.0000 0.0000 0.0000
# 4 0.0000 0.0000 0.0000 17.3258 0.0000 0.0000
# 5 0.0000 0.0000 0.0000 0.0000 11.1693 0.0000
# 6 0.0000 0.0000 0.0000 0.0000 0.0000 16.4140
#
#
#
# Elastic Compliance Matrix: (Units=1/GPa)
#
#
# Indices 1 2 3 4 5 6 
#
# 1 0.032054 -0.004818 -0.007019 0.000000 0.000000 0.000000
# 2 -0.004818 0.015431 -0.007202 0.000000 0.000000 0.000000
# 3 -0.007019 -0.007202 0.015063 0.000000 0.000000 0.000000
# 4 0.000000 0.000000 0.000000 0.057717 0.000000 0.000000
# 5 0.000000 0.000000 0.000000 0.000000 0.089531 0.000000
# 6 0.000000 0.000000 0.000000 0.000000 0.000000 0.060924
#
#
# Mechanical properties :
#
#
# Convention : Reuss Voigt Hill
#
# Bulk Modulus (GPa) = 40.86890 56.93259 48.90074
# Shear Modulus (GPa) = 15.77517 17.80656 16.79087
#
# Velocity S-wave (km/s) = 2.96469 3.14980 3.05864
# Velocity P-wave (km/s) = 5.87282 6.70442 6.30235
#
# Compressibility (1/GPa) = 0.02446848
#
# Stress axis : x y z
#
# Youngs Moduli (GPa) = 31.19764 64.80649 66.38898
#
# Poissons Ratio (x) = 0.31223 0.46598
# Poissons Ratio (y) = 0.15031 0.47817
# Poissons Ratio (z) = 0.21897 0.46677
#
# Static dielectric constant tensor:
#      x y z
#    x 3.191610 0.000000 0.000000 
#    y 0.000000 3.515700 0.000000 
#    z 0.000000 0.000000 3.279310 
# 
# 
# High freq. dielectric constant tensor:
#      x y z
#    x 1.675980 0.000000 0.000000 
#    y 0.000000 1.703770 0.000000 
#    z 0.000000 0.000000 1.675460 
# 
# From -- ./inp_files/32149.got.cif
#   From: 2010.03.12/outbox.cif.g09.slc.cpg/sg47_17_cif.got.tgz:32149.got - 2010.04.14 03:12:58.
