data_PCOD8195495
_publ_section_title
;
Structure prediction by ZEFSAII (Michael W. Deem and Ramdas Pophale) SiO2 
 PCOD8195495
Probable space group: P M M M
;
_chemical_formula_sum "Si O2"
_cell_formula_units_Z 56
_cell_length_a 8.832847
_cell_length_b 23.097587
_cell_length_c 16.319431
_cell_angle_alpha 90.000000
_cell_angle_beta 90.000000
_cell_angle_gamma 90.000000
_cell_volume 3329.448731
_symmetry_space_group_name_H-M "P M M M"
_symmetry_group_IT_number 47
_symmetry_cell_setting 'orthorhombic'
loop_
_space_group_symop_operation_xyz
x,y,z
-x,-y,z
x,-y,-z
-x,y,-z
-x,-y,-z
x,y,-z
-x,y,z
x,-y,z
loop_
_atom_site_type_symbol
_atom_site_label
_atom_site_fract_x
_atom_site_fract_y
_atom_site_fract_z
Si Si1 0.176220 0.273239 0.335620
Si Si2 0.178357 0.882249 0.500000
Si Si3 0.824165 0.841901 0.235241
Si Si4 0.324227 0.665009 0.191589
Si Si5 0.326063 0.933158 0.342609
Si Si6 0.825552 0.433252 0.906508
Si Si7 0.678818 0.243878 0.500000
Si Si8 0.323540 0.221518 0.906380
O O1 0.211168 0.210629 0.296884
O O2 0.232995 0.323487 0.275079
O O3 0.265297 0.278728 0.420570
O O4 0.000000 0.281923 0.352432
O O5 0.224486 0.918530 0.420790
O O6 0.255759 0.820309 0.500000
O O7 0.000000 0.871998 0.500000
O O8 0.729510 0.897190 0.264302
O O9 0.771086 0.825694 0.144075
O O10 0.000000 0.857684 0.234017
O O11 0.500000 0.664126 0.213629
O O12 0.276861 0.603701 0.154507
O O13 0.285243 0.714223 0.125087
O O14 0.500000 0.918019 0.362651
O O15 0.305837 0.000000 0.320016
O O16 0.801511 0.500000 0.883155
O O17 0.000000 0.415343 0.895678
O O18 0.774114 0.422256 0.000000
O O19 0.500000 0.240438 0.500000
O O20 0.500000 0.207714 0.895699
O O21 0.271074 0.217336 0.000000
#
# Coordination Sequence:
#
# PCOD8195495 Si02
#       8
#     8   4   8   8   8   8   4   8
#     4  10  20  34  51  73 101 134 169 206 249 302
#     4  12  23  35  52  75 102 133 165 201 244 295
#     4  10  20  33  51  73  98 127 162 204 248 298
#     4  10  19  31  49  75 105 135 171 212 252 298
#     4  11  23  37  53  73  98 130 166 203 246 299
#     4   9  18  32  49  71 103 143 181 215 255 302
#     4  12  22  33  53  76 103 136 166 205 252 297
#     4   9  18  32  50  72 100 132 164 202 250 302
#
# _framework density 16.819600000000001
#
# number of rings (size 3 to 8) (size 9 to 14) (size 15 to 20)
#    0.000    1.857    1.429    4.071    0.000    5.143 
#    0.000    0.714    0.000    0.429    0.000    3.500 
#    0.000    4.000    0.000    0.000    0.000    0.000 
#
# Total GULP energy -694672.585672 kJ/mol
# GULP energy per Si atom -12404.867601 kJ/mol
# Density = 1.678132 g / cm^3
# Si number density = 16.819600 Si / 1000 Ang^3
#
#
#
# Elastic Constant Matrix: (Units=GPa)
#
#
# Indices 1 2 3 4 5 6 
#
# 1 97.6173 39.8894 53.8604 0.0000 0.0000 0.0000
# 2 39.8894 75.6499 44.2984 0.0000 0.0000 0.0000
# 3 53.8604 44.2984 116.1340 0.0000 0.0000 0.0000
# 4 0.0000 0.0000 0.0000 25.9200 0.0000 0.0000
# 5 0.0000 0.0000 0.0000 0.0000 31.0825 0.0000
# 6 0.0000 0.0000 0.0000 0.0000 0.0000 26.8028
#
#
#
# Elastic Compliance Matrix: (Units=1/GPa)
#
#
# Indices 1 2 3 4 5 6 
#
# 1 0.015090 -0.004969 -0.005103 0.000000 0.000000 0.000000
# 2 -0.004969 0.018656 -0.004812 0.000000 0.000000 0.000000
# 3 -0.005103 -0.004812 0.012813 0.000000 0.000000 0.000000
# 4 0.000000 0.000000 0.000000 0.038580 0.000000 0.000000
# 5 0.000000 0.000000 0.000000 0.000000 0.032172 0.000000
# 6 0.000000 0.000000 0.000000 0.000000 0.000000 0.037309
#
#
# Mechanical properties :
#
#
# Convention : Reuss Voigt Hill
#
# Bulk Modulus (GPa) = 59.55249 62.83305 61.19277
# Shear Modulus (GPa) = 26.31763 26.85127 26.58445
#
# Velocity S-wave (km/s) = 3.95992 3.99987 3.97994
# Velocity P-wave (km/s) = 7.50942 7.66616 7.58820
#
# Compressibility (1/GPa) = 0.01679191
#
# Stress axis : x y z
#
# Youngs Moduli (GPa) = 66.26862 53.60080 78.04548
#
# Poissons Ratio (x) = 0.26632 0.39829
# Poissons Ratio (y) = 0.32926 0.37556
# Poissons Ratio (z) = 0.33819 0.25793
#
# Static dielectric constant tensor:
#      x y z
#    x 3.248830 0.000000 0.000000 
#    y 0.000000 2.961030 0.000000 
#    z 0.000000 0.000000 3.178610 
# 
# 
# High freq. dielectric constant tensor:
#      x y z
#    x 1.662050 0.000000 0.000000 
#    y 0.000000 1.624090 0.000000 
#    z 0.000000 0.000000 1.643830 
# 
# From -- ./inp_files/21639.got.cif
#   From: 2010.03.12/outbox.cif.g09.slc.cpg/sg47_11_cif.got.tgz:21639.got - 2010.04.14 03:12:58.
