data_PCOD8195617
_publ_section_title
;
Structure prediction by ZEFSAII (Michael W. Deem and Ramdas Pophale) SiO2 
 PCOD8195617
Probable space group: P M M M
;
_chemical_formula_sum "Si O2"
_cell_formula_units_Z 48
_cell_length_a 9.403394
_cell_length_b 23.190208
_cell_length_c 16.675290
_cell_angle_alpha 90.000000
_cell_angle_beta 90.000000
_cell_angle_gamma 90.000000
_cell_volume 3636.324841
_symmetry_space_group_name_H-M "P M M M"
_symmetry_group_IT_number 47
_symmetry_cell_setting 'orthorhombic'
loop_
_space_group_symop_operation_xyz
x,y,z
-x,-y,z
x,-y,-z
-x,y,-z
-x,-y,-z
x,y,-z
-x,y,z
x,-y,z
loop_
_atom_site_type_symbol
_atom_site_label
_atom_site_fract_x
_atom_site_fract_y
_atom_site_fract_z
Si Si1 0.160021 0.830401 0.095585
Si Si2 0.335162 0.602131 0.825621
Si Si3 0.335896 0.278997 0.907439
Si Si4 0.340359 0.063809 0.904631
Si Si5 0.839043 0.431312 0.500000
Si Si6 0.834899 0.500000 0.905453
Si Si7 0.662493 0.566685 0.650088
O O1 0.242928 0.773901 0.125803
O O2 0.235482 0.887676 0.130976
O O3 0.000000 0.828388 0.128975
O O4 0.162187 0.832266 0.000000
O O5 0.500000 0.587028 0.843621
O O6 0.294179 0.665167 0.856587
O O7 0.237322 0.556704 0.870451
O O8 0.305040 0.601832 0.730758
O O9 0.500000 0.262029 0.896224
O O10 0.301484 0.292380 0.000000
O O11 0.500000 0.075733 0.873207
O O12 0.289470 0.000000 0.876781
O O13 0.339908 0.066891 0.000000
O O14 0.830488 0.500000 0.500000
O O15 0.761072 0.407938 0.420433
O O16 0.000000 0.408575 0.500000
O O17 0.000000 0.500000 0.881055
O O18 0.813688 0.500000 0.000000
O O19 0.500000 0.574107 0.622364
O O20 0.696977 0.500000 0.668145
#
# Coordination Sequence:
#
# PCOD8195617 Si02
#       7
#     8   8   8   8   4   4   8
#     4   9  16  24  34  48  67  90 115 146 183 221
#     4  10  19  32  47  60  72  93 125 157 188 225
#     4   9  17  28  41  54  68  91 124 158 188 219
#     4   8  13  21  33  48  65  85 110 142 180 219
#     4   9  17  27  41  61  81  99 115 131 164 219
#     4  11  23  33  41  56  77  98 119 151 196 235
#     4   9  16  28  44  61  78  94 114 144 181 219
#
# _framework density 13.200139999999999
#
# number of rings (size 3 to 8) (size 9 to 14) (size 15 to 20)
#    0.000    2.833    0.833    2.000    0.000    6.000 
#    0.000    3.333    0.000    0.000    0.000    0.000 
#    0.000    0.000    0.000    0.000    0.000    0.000 
#
# Total GULP energy -595111.660047 kJ/mol
# GULP energy per Si atom -12398.159584 kJ/mol
# Density = 1.317010 g / cm^3
# Si number density = 13.200140 Si / 1000 Ang^3
#
#
#
# Elastic Constant Matrix: (Units=GPa)
#
#
# Indices 1 2 3 4 5 6 
#
# 1 96.7466 65.2684 38.6390 0.0000 0.0000 0.0000
# 2 65.2684 105.2668 37.2137 0.0000 0.0000 0.0000
# 3 38.6390 37.2137 52.9365 0.0000 0.0000 0.0000
# 4 0.0000 0.0000 0.0000 -0.8487 0.0000 0.0000
# 5 0.0000 0.0000 0.0000 0.0000 12.8704 0.0000
# 6 0.0000 0.0000 0.0000 0.0000 0.0000 12.2854
#
#
#
# Elastic Compliance Matrix: (Units=1/GPa)
#
#
# Indices 1 2 3 4 5 6 
#
# 1 0.019925 -0.009598 -0.007796 0.000000 0.000000 0.000000
# 2 -0.009598 0.017265 -0.005131 0.000000 0.000000 0.000000
# 3 -0.007796 -0.005131 0.028188 0.000000 0.000000 0.000000
# 4 0.000000 0.000000 0.000000 -1.178216 0.000000 0.000000
# 5 0.000000 0.000000 0.000000 0.000000 0.077698 0.000000
# 6 0.000000 0.000000 0.000000 0.000000 0.000000 0.081398
#
#
# Mechanical properties :
#
#
# Convention : Reuss Voigt Hill
#
# Bulk Modulus (GPa) = 49.19524 59.68803 54.44163
# Shear Modulus (GPa) = -5.54376 12.44998 3.45311
#
# Velocity S-wave (km/s) = -2.05156 3.07444 1.61915
# Velocity P-wave (km/s) = 5.63363 7.61044 6.69539
#
# Compressibility (1/GPa) = 0.02032717
#
# Stress axis : x y z
#
# Youngs Moduli (GPa) = 50.18779 57.92179 35.47570
#
# Poissons Ratio (x) = 0.55593 0.27658
# Poissons Ratio (y) = 0.48170 0.18203
# Poissons Ratio (z) = 0.39128 0.29720
#
# Static dielectric constant tensor:
#      x y z
#    x 2.796090 0.000000 0.000000 
#    y 0.000000 2.672580 0.000000 
#    z 0.000000 0.000000 2.357780 
# 
# 
# High freq. dielectric constant tensor:
#      x y z
#    x 1.511830 0.000000 0.000000 
#    y 0.000000 1.487900 0.000000 
#    z 0.000000 0.000000 1.453240 
# 
# From -- ./inp_files/26913.got.cif
#   From: 2010.03.12/outbox.cif.g09.slc.cpg/sg47_14_cif.got.tgz:26913.got - 2010.04.14 03:12:58.
