data_PCOD8195851
_publ_section_title
;
Structure prediction by ZEFSAII (Michael W. Deem and Ramdas Pophale) SiO2 
 PCOD8195851
Probable space group: P M M M
;
_chemical_formula_sum "Si O2"
_cell_formula_units_Z 40
_cell_length_a 26.025247
_cell_length_b 11.105145
_cell_length_c 7.614362
_cell_angle_alpha 90.000000
_cell_angle_beta 90.000000
_cell_angle_gamma 90.000000
_cell_volume 2200.658297
_symmetry_space_group_name_H-M "P M M M"
_symmetry_group_IT_number 47
_symmetry_cell_setting 'orthorhombic'
loop_
_space_group_symop_operation_xyz
x,y,z
-x,-y,z
x,-y,-z
-x,y,-z
-x,-y,-z
x,y,-z
-x,y,z
x,-y,z
loop_
_atom_site_type_symbol
_atom_site_label
_atom_site_fract_x
_atom_site_fract_y
_atom_site_fract_z
Si Si1 0.366989 0.854133 0.500000
Si Si2 0.203099 0.638056 0.199853
Si Si3 0.899277 0.752527 0.200118
Si Si4 0.284256 0.640242 0.500000
Si Si5 0.058971 0.000000 0.707807
Si Si6 0.443317 0.142206 0.194498
Si Si7 0.000000 0.364109 0.791648
O O1 0.322214 0.754872 0.500000
O O2 0.400191 0.817960 0.669348
O O3 0.351340 0.000000 0.500000
O O4 0.185707 0.500000 0.202749
O O5 0.155207 0.713064 0.282133
O O6 0.251711 0.659158 0.323481
O O7 0.217270 0.678439 0.000000
O O8 0.948862 0.692977 0.294288
O O9 0.907373 0.893323 0.215012
O O10 0.897027 0.707841 0.000000
O O11 0.306554 0.500000 0.500000
O O12 0.058730 0.000000 0.500000
O O13 0.000000 0.000000 0.779267
O O14 0.500000 0.192930 0.246706
O O15 0.446900 0.000000 0.193806
O O16 0.428041 0.189429 0.000000
O O17 0.000000 0.500000 0.735960
O O18 0.000000 0.341151 0.000000
#
# Coordination Sequence:
#
# PCOD8195851 Si02
#       7
#     4   8   8   4   4   8   4
#     4  10  19  32  52  80 109 141 182 227 267 305
#     4   9  19  37  58  77  97 126 170 220 264 310
#     4  10  19  33  54  74  94 123 159 199 248 307
#     4  10  22  39  57  76 103 142 183 221 270 319
#     4  11  23  35  47  69 105 137 157 185 237 313
#     4   8  14  26  48  80 115 148 181 219 263 309
#     4   9  16  27  49  78  98 113 144 195 250 304
#
# _framework density 18.176379000000001
#
# number of rings (size 3 to 8) (size 9 to 14) (size 15 to 20)
#    0.000    2.600    1.000    1.800    1.400    4.800 
#    1.800    0.000    0.000    1.800    0.000    1.400 
#    0.000    0.000    0.000    0.000    0.000    0.000 
#
# Total GULP energy -495535.697527 kJ/mol
# GULP energy per Si atom -12388.392438 kJ/mol
# Density = 1.813501 g / cm^3
# Si number density = 18.176379 Si / 1000 Ang^3
#
#
#
# Elastic Constant Matrix: (Units=GPa)
#
#
# Indices 1 2 3 4 5 6 
#
# 1 123.0287 67.8941 53.4938 0.0000 0.0000 0.0000
# 2 67.8941 103.4625 24.6316 0.0000 0.0000 0.0000
# 3 53.4938 24.6316 81.4524 0.0000 0.0000 0.0000
# 4 0.0000 0.0000 0.0000 11.9604 0.0000 0.0000
# 5 0.0000 0.0000 0.0000 0.0000 2.0013 0.0000
# 6 0.0000 0.0000 0.0000 0.0000 0.0000 27.3338
#
#
#
# Elastic Compliance Matrix: (Units=1/GPa)
#
#
# Indices 1 2 3 4 5 6 
#
# 1 0.016656 -0.008972 -0.008226 0.000000 0.000000 0.000000
# 2 -0.008972 0.015248 0.001281 0.000000 0.000000 0.000000
# 3 -0.008226 0.001281 0.017292 0.000000 0.000000 0.000000
# 4 0.000000 0.000000 0.000000 0.083609 0.000000 0.000000
# 5 0.000000 0.000000 0.000000 0.000000 0.499676 0.000000
# 6 0.000000 0.000000 0.000000 0.000000 0.000000 0.036585
#
#
# Mechanical properties :
#
#
# Convention : Reuss Voigt Hill
#
# Bulk Modulus (GPa) = 57.59327 66.66474 62.12900
# Shear Modulus (GPa) = 7.07529 19.05405 13.06467
#
# Velocity S-wave (km/s) = 1.97510 3.24124 2.68390
# Velocity P-wave (km/s) = 6.07914 7.12486 6.62267
#
# Compressibility (1/GPa) = 0.01736314
#
# Stress axis : x y z
#
# Youngs Moduli (GPa) = 60.03944 65.58391 57.83069
#
# Poissons Ratio (x) = 0.58839 0.47569
# Poissons Ratio (y) = 0.53865 -0.07409
# Poissons Ratio (z) = 0.49386 -0.08402
#
# Static dielectric constant tensor:
#      x y z
#    x 3.371510 0.000000 0.000000 
#    y 0.000000 3.165700 0.000000 
#    z 0.000000 0.000000 3.566170 
# 
# 
# High freq. dielectric constant tensor:
#      x y z
#    x 1.689970 0.000000 0.000000 
#    y 0.000000 1.680810 0.000000 
#    z 0.000000 0.000000 1.707600 
# 
# From -- ./inp_files/10745.got.cif
#   From: 2010.03.12/outbox.cif.g09.slc.cpg/sg47_6_cif.got.tgz:10745.got - 2010.04.14 03:12:58.
