data_PCOD8195579
_publ_section_title
;
Structure prediction by ZEFSAII (Michael W. Deem and Ramdas Pophale) SiO2 
 PCOD8195579
Probable space group: P M M M
;
_chemical_formula_sum "Si O2"
_cell_formula_units_Z 64
_cell_length_a 9.378388
_cell_length_b 14.833205
_cell_length_c 25.134961
_cell_angle_alpha 90.000000
_cell_angle_beta 90.000000
_cell_angle_gamma 90.000000
_cell_volume 3496.563428
_symmetry_space_group_name_H-M "P M M M"
_symmetry_group_IT_number 47
_symmetry_cell_setting 'orthorhombic'
loop_
_space_group_symop_operation_xyz
x,y,z
-x,-y,z
x,-y,-z
-x,y,-z
-x,-y,-z
x,y,-z
-x,y,z
x,-y,z
loop_
_atom_site_type_symbol
_atom_site_label
_atom_site_fract_x
_atom_site_fract_y
_atom_site_fract_z
Si Si1 0.160713 0.362302 0.305251
Si Si2 0.662721 0.403653 0.596998
Si Si3 0.669425 0.770620 0.847984
Si Si4 0.333122 0.787742 0.440490
Si Si5 0.166909 0.602412 0.813622
Si Si6 0.338434 0.099910 0.246828
Si Si7 0.162560 0.159339 0.341356
Si Si8 0.330765 0.100551 0.940561
O O1 0.253431 0.413886 0.348194
O O2 0.219225 0.386333 0.247048
O O3 0.171888 0.256751 0.315315
O O4 0.000000 0.397522 0.310920
O O5 0.500000 0.388370 0.613010
O O6 0.682718 0.500000 0.566189
O O7 0.712445 0.318292 0.562016
O O8 0.500000 0.757086 0.849939
O O9 0.744498 0.672978 0.849202
O O10 0.716344 0.827175 0.795879
O O11 0.727610 0.825979 0.898912
O O12 0.297702 0.821857 0.500000
O O13 0.500000 0.800543 0.427782
O O14 0.241325 0.844819 0.398503
O O15 0.198063 0.500000 0.832824
O O16 0.000000 0.625572 0.818519
O O17 0.500000 0.123950 0.263822
O O18 0.241720 0.095488 0.299576
O O19 0.332541 0.000000 0.220773
O O20 0.000000 0.127368 0.349686
O O21 0.500000 0.098065 0.936950
O O22 0.272424 0.000000 0.927104
O O23 0.281779 0.128693 0.000000
#
# Coordination Sequence:
#
# PCOD8195579 Si02
#       8
#     8   8   8   8   8   8   8   8
#     4   9  17  30  46  63  88 125 166 203 243 292
#     4   9  17  27  41  64  91 118 153 199 247 294
#     4  10  19  31  51  79 109 137 171 216 255 294
#     4   9  18  32  49  67  90 124 162 200 249 306
#     4  10  20  33  48  67  98 141 182 216 255 303
#     4  10  20  33  51  77 108 137 161 192 245 311
#     4  10  19  32  51  72  96 126 162 204 246 293
#     4   8  14  27  50  80 111 141 173 210 257 312
#
# _framework density 18.303687
#
# number of rings (size 3 to 8) (size 9 to 14) (size 15 to 20)
#    0.000    2.625    1.250    1.500    0.000    4.250 
#    0.000    1.250    0.000    2.250    0.000    9.625 
#    0.000    0.000    0.000    0.000    0.000    0.000 
#
# Total GULP energy -793261.633499 kJ/mol
# GULP energy per Si atom -12394.713023 kJ/mol
# Density = 1.826203 g / cm^3
# Si number density = 18.303687 Si / 1000 Ang^3
#
#
#
# Elastic Constant Matrix: (Units=GPa)
#
#
# Indices 1 2 3 4 5 6 
#
# 1 55.9832 28.8284 42.2497 0.0000 0.0000 0.0000
# 2 28.8284 83.8429 44.5644 0.0000 0.0000 0.0000
# 3 42.2497 44.5644 110.9840 0.0000 0.0000 0.0000
# 4 0.0000 0.0000 0.0000 16.7478 0.0000 0.0000
# 5 0.0000 0.0000 0.0000 0.0000 13.6820 0.0000
# 6 0.0000 0.0000 0.0000 0.0000 0.0000 16.4792
#
#
#
# Elastic Compliance Matrix: (Units=1/GPa)
#
#
# Indices 1 2 3 4 5 6 
#
# 1 0.026479 -0.004763 -0.008168 0.000000 0.000000 0.000000
# 2 -0.004763 0.016020 -0.004619 0.000000 0.000000 0.000000
# 3 -0.008168 -0.004619 0.013974 0.000000 0.000000 0.000000
# 4 0.000000 0.000000 0.000000 0.059709 0.000000 0.000000
# 5 0.000000 0.000000 0.000000 0.000000 0.073089 0.000000
# 6 0.000000 0.000000 0.000000 0.000000 0.000000 0.060683
#
#
# Mechanical properties :
#
#
# Convention : Reuss Voigt Hill
#
# Bulk Modulus (GPa) = 46.78734 53.56614 50.17674
# Shear Modulus (GPa) = 17.11276 18.39297 17.75286
#
# Velocity S-wave (km/s) = 3.06099 3.17342 3.11771
# Velocity P-wave (km/s) = 6.17333 6.53882 6.35871
#
# Compressibility (1/GPa) = 0.02137330
#
# Stress axis : x y z
#
# Youngs Moduli (GPa) = 37.76539 62.42110 71.55936
#
# Poissons Ratio (x) = 0.29733 0.58446
# Poissons Ratio (y) = 0.17989 0.33056
# Poissons Ratio (z) = 0.30845 0.28835
#
# Static dielectric constant tensor:
#      x y z
#    x 3.204810 0.000000 0.000000 
#    y 0.000000 3.349660 0.000000 
#    z 0.000000 0.000000 3.282830 
# 
# 
# High freq. dielectric constant tensor:
#      x y z
#    x 1.687780 0.000000 0.000000 
#    y 0.000000 1.706140 0.000000 
#    z 0.000000 0.000000 1.688250 
# 
# From -- ./inp_files/32150.got.cif
#   From: 2010.03.12/outbox.cif.g09.slc.cpg/sg47_17_cif.got.tgz:32150.got - 2010.04.14 03:12:58.
