data_PCOD8195438
_publ_section_title
;
Structure prediction by ZEFSAII (Michael W. Deem and Ramdas Pophale) SiO2 
 PCOD8195438
Probable space group: P M M M
;
_chemical_formula_sum "Si O2"
_cell_formula_units_Z 64
_cell_length_a 20.436975
_cell_length_b 18.714885
_cell_length_c 8.989611
_cell_angle_alpha 90.000000
_cell_angle_beta 90.000000
_cell_angle_gamma 90.000000
_cell_volume 3438.307192
_symmetry_space_group_name_H-M "P M M M"
_symmetry_group_IT_number 47
_symmetry_cell_setting 'orthorhombic'
loop_
_space_group_symop_operation_xyz
x,y,z
-x,-y,z
x,-y,-z
-x,y,-z
-x,-y,-z
x,y,-z
-x,y,z
x,-y,z
loop_
_atom_site_type_symbol
_atom_site_label
_atom_site_fract_x
_atom_site_fract_y
_atom_site_fract_z
Si Si1 0.185615 0.829927 0.823868
Si Si2 0.690392 0.079783 0.176783
Si Si3 0.308851 0.420471 0.323631
Si Si4 0.924406 0.917876 0.328052
Si Si5 0.072678 0.420368 0.323309
Si Si6 0.189500 0.323316 0.322834
Si Si7 0.573693 0.177317 0.824500
Si Si8 0.573777 0.675240 0.325789
O O1 0.246160 0.877667 0.766393
O O2 0.118318 0.866584 0.774561
O O3 0.193373 0.753178 0.751301
O O4 0.185803 0.821696 0.000000
O O5 0.624018 0.117568 0.234300
O O6 0.692413 0.000000 0.244099
O O7 0.690451 0.076645 0.000000
O O8 0.305460 0.425596 0.500000
O O9 0.302225 0.500000 0.254905
O O10 0.250529 0.370272 0.266204
O O11 0.378104 0.387484 0.271856
O O12 0.908053 0.902844 0.500000
O O13 0.000000 0.900511 0.295460
O O14 0.909058 0.000000 0.287844
O O15 0.075603 0.421949 0.500000
O O16 0.089877 0.500000 0.263917
O O17 0.124365 0.362927 0.263083
O O18 0.000000 0.397980 0.269328
O O19 0.189392 0.314293 0.500000
O O20 0.500000 0.155433 0.776142
O O21 0.594544 0.252274 0.754657
O O22 0.578825 0.186043 0.000000
O O23 0.581168 0.689417 0.500000
O O24 0.500000 0.652317 0.283460
#
# Coordination Sequence:
#
# PCOD8195438 Si02
#       8
#     8   8   8   8   8   8   8   8
#     4  11  22  34  50  73 103 137 168 200 242 295
#     4   9  18  32  49  70  96 125 160 203 246 286
#     4   9  17  29  47  71  95 121 161 211 253 290
#     4   9  19  37  59  80 102 129 163 205 249 290
#     4   8  14  26  46  71  94 116 148 191 236 280
#     4  10  19  31  49  71  95 125 161 202 245 286
#     4   9  17  30  50  73  95 123 160 201 244 291
#     4   9  17  29  46  68  95 126 156 191 241 298
#
# _framework density 18.613810000000001
#
# number of rings (size 3 to 8) (size 9 to 14) (size 15 to 20)
#    0.000    2.750    0.000    2.625    0.000    3.500 
#    0.000    5.000    0.000    4.500    0.000    4.375 
#    0.000    0.000    0.000    0.000    0.000    0.000 
#
# Total GULP energy -793502.936558 kJ/mol
# GULP energy per Si atom -12398.483384 kJ/mol
# Density = 1.857144 g / cm^3
# Si number density = 18.613810 Si / 1000 Ang^3
#
#
#
# Elastic Constant Matrix: (Units=GPa)
#
#
# Indices 1 2 3 4 5 6 
#
# 1 143.6610 102.0827 26.6486 0.0000 0.0000 0.0000
# 2 102.0827 174.2561 31.8607 0.0000 0.0000 0.0000
# 3 26.6486 31.8607 25.1769 0.0000 0.0000 0.0000
# 4 0.0000 0.0000 0.0000 16.5515 0.0000 0.0000
# 5 0.0000 0.0000 0.0000 0.0000 17.4938 0.0000
# 6 0.0000 0.0000 0.0000 0.0000 0.0000 39.9891
#
#
#
# Elastic Compliance Matrix: (Units=1/GPa)
#
#
# Indices 1 2 3 4 5 6 
#
# 1 0.012412 -0.006335 -0.005121 0.000000 0.000000 0.000000
# 2 -0.006335 0.010700 -0.006835 0.000000 0.000000 0.000000
# 3 -0.005121 -0.006835 0.053788 0.000000 0.000000 0.000000
# 4 0.000000 0.000000 0.000000 0.060417 0.000000 0.000000
# 5 0.000000 0.000000 0.000000 0.000000 0.057163 0.000000
# 6 0.000000 0.000000 0.000000 0.000000 0.000000 0.025007
#
#
# Mechanical properties :
#
#
# Convention : Reuss Voigt Hill
#
# Bulk Modulus (GPa) = 24.80235 73.80867 49.30551
# Shear Modulus (GPa) = 18.55231 26.97370 22.76300
#
# Velocity S-wave (km/s) = 3.16047 3.81086 3.50081
# Velocity P-wave (km/s) = 5.16447 7.68780 6.54882
#
# Compressibility (1/GPa) = 0.04031876
#
# Stress axis : x y z
#
# Youngs Moduli (GPa) = 80.56498 93.46225 18.59144
#
# Poissons Ratio (x) = 0.59209 0.09521
# Poissons Ratio (y) = 0.51039 0.12706
# Poissons Ratio (z) = 0.41258 0.63877
#
# Static dielectric constant tensor:
#      x y z
#    x 3.725560 0.000000 0.000000 
#    y 0.000000 3.595340 0.000000 
#    z 0.000000 0.000000 2.975300 
# 
# 
# High freq. dielectric constant tensor:
#      x y z
#    x 1.739350 0.000000 0.000000 
#    y 0.000000 1.727520 0.000000 
#    z 0.000000 0.000000 1.674870 
# 
# From -- ./inp_files/9907.got.cif
#   From: 2010.03.12/outbox.cif.g09.slc.cpg/sg47_5_cif.got.tgz:9907.got - 2010.04.14 03:12:58.
