data_PCOD8195855
_publ_section_title
;
Structure prediction by ZEFSAII (Michael W. Deem and Ramdas Pophale) SiO2 
 PCOD8195855
Probable space group: P M M M
;
_chemical_formula_sum "Si O2"
_cell_formula_units_Z 48
_cell_length_a 7.814250
_cell_length_b 8.886004
_cell_length_c 34.597924
_cell_angle_alpha 90.000000
_cell_angle_beta 90.000000
_cell_angle_gamma 90.000000
_cell_volume 2402.391852
_symmetry_space_group_name_H-M "P M M M"
_symmetry_group_IT_number 47
_symmetry_cell_setting 'orthorhombic'
loop_
_space_group_symop_operation_xyz
x,y,z
-x,-y,z
x,-y,-z
-x,y,-z
-x,-y,-z
x,y,-z
-x,y,z
x,-y,z
loop_
_atom_site_type_symbol
_atom_site_label
_atom_site_fract_x
_atom_site_fract_y
_atom_site_fract_z
Si Si1 0.194193 0.169576 0.622619
Si Si2 0.304869 0.663518 0.696009
Si Si3 0.000000 0.678867 0.179409
Si Si4 0.000000 0.820119 0.096020
Si Si5 0.690092 0.821571 0.956858
Si Si6 0.698215 0.823575 0.458532
Si Si7 0.299102 0.176609 0.772156
O O1 0.295392 0.266445 0.653517
O O2 0.208990 0.242820 0.579542
O O3 0.000000 0.168708 0.636108
O O4 0.270163 0.000000 0.622158
O O5 0.500000 0.636226 0.705749
O O6 0.210778 0.500000 0.696997
O O7 0.234633 0.773315 0.729391
O O8 0.824086 0.740065 0.197871
O O9 0.000000 0.500000 0.182569
O O10 0.000000 0.732065 0.135677
O O11 0.167338 0.763444 0.072825
O O12 0.000000 0.000000 0.102716
O O13 0.500000 0.769074 0.943344
O O14 0.697862 0.000000 0.958336
O O15 0.728228 0.758922 0.000000
O O16 0.764443 0.755763 0.500000
O O17 0.500000 0.786664 0.454061
O O18 0.733775 0.000000 0.459910
O O19 0.500000 0.215699 0.780091
O O20 0.268464 0.000000 0.775800
#
# Coordination Sequence:
#
# PCOD8195855 Si02
#       7
#     8   8   4   4   8   8   8
#     4  10  20  31  47  75 107 138 171 211 260 317
#     4  10  21  37  57  80 106 137 173 216 271 333
#     4  12  26  41  59  85 122 164 199 239 294 358
#     4  10  19  32  52  80 112 150 198 247 293 344
#     4   8  14  26  48  80 114 147 189 246 305 349
#     4   8  14  26  45  68  95 130 172 216 260 306
#     4  10  22  42  67  90 112 144 191 246 297 347
#
# _framework density 19.980087999999999
#
# number of rings (size 3 to 8) (size 9 to 14) (size 15 to 20)
#    0.000    2.500    0.000    3.500    1.167    5.000 
#    0.000    3.333    0.000    1.500    0.000    4.667 
#    0.000    0.000    0.000    0.000    0.000    0.000 
#
# Total GULP energy -594758.676663 kJ/mol
# GULP energy per Si atom -12390.805764 kJ/mol
# Density = 1.993461 g / cm^3
# Si number density = 19.980088 Si / 1000 Ang^3
#
#
#
# Elastic Constant Matrix: (Units=GPa)
#
#
# Indices 1 2 3 4 5 6 
#
# 1 93.5026 38.5094 69.8385 0.0000 0.0000 0.0000
# 2 38.5094 87.5702 57.2386 0.0000 0.0000 0.0000
# 3 69.8385 57.2386 165.7660 0.0000 0.0000 0.0000
# 4 0.0000 0.0000 0.0000 -1.1409 0.0000 0.0000
# 5 0.0000 0.0000 0.0000 0.0000 21.6643 0.0000
# 6 0.0000 0.0000 0.0000 0.0000 0.0000 14.5442
#
#
#
# Elastic Compliance Matrix: (Units=1/GPa)
#
#
# Indices 1 2 3 4 5 6 
#
# 1 0.016387 -0.003479 -0.005703 0.000000 0.000000 0.000000
# 2 -0.003479 0.015486 -0.003882 0.000000 0.000000 0.000000
# 3 -0.005703 -0.003882 0.009776 0.000000 0.000000 0.000000
# 4 0.000000 0.000000 0.000000 -0.876508 0.000000 0.000000
# 5 0.000000 0.000000 0.000000 0.000000 0.046159 0.000000
# 6 0.000000 0.000000 0.000000 0.000000 0.000000 0.068756
#
#
# Mechanical properties :
#
#
# Convention : Reuss Voigt Hill
#
# Bulk Modulus (GPa) = 64.42286 75.33465 69.87876
# Shear Modulus (GPa) = -7.26066 19.09699 5.91817
#
# Velocity S-wave (km/s) = -1.90836 3.09496 1.72292
# Velocity P-wave (km/s) = 5.24001 7.11044 6.24564
#
# Compressibility (1/GPa) = 0.01552244
#
# Stress axis : x y z
#
# Youngs Moduli (GPa) = 61.02329 64.57244 102.29523
#
# Poissons Ratio (x) = 0.22463 0.58337
# Poissons Ratio (y) = 0.21229 0.39709
# Poissons Ratio (z) = 0.34801 0.25066
#
# Static dielectric constant tensor:
#      x y z
#    x 3.724370 0.000000 0.000000 
#    y 0.000000 3.344970 0.000000 
#    z 0.000000 0.000000 3.795310 
# 
# 
# High freq. dielectric constant tensor:
#      x y z
#    x 1.779220 0.000000 0.000000 
#    y 0.000000 1.734310 0.000000 
#    z 0.000000 0.000000 1.789430 
# 
# From -- ./inp_files/34198.got.cif
#   From: 2010.03.12/outbox.cif.g09.slc.cpg/sg47_18_cif.got.tgz:34198.got - 2010.04.14 03:12:58.
