data_PCOD8195714
_publ_section_title
;
Structure prediction by ZEFSAII (Michael W. Deem and Ramdas Pophale) SiO2 
 PCOD8195714
Probable space group: P M M M
;
_chemical_formula_sum "Si O2"
_cell_formula_units_Z 52
_cell_length_a 17.771607
_cell_length_b 9.067679
_cell_length_c 17.710568
_cell_angle_alpha 90.000000
_cell_angle_beta 90.000000
_cell_angle_gamma 90.000000
_cell_volume 2854.008932
_symmetry_space_group_name_H-M "P M M M"
_symmetry_group_IT_number 47
_symmetry_cell_setting 'orthorhombic'
loop_
_space_group_symop_operation_xyz
x,y,z
-x,-y,z
x,-y,-z
-x,y,-z
-x,-y,-z
x,y,-z
-x,y,z
x,-y,z
loop_
_atom_site_type_symbol
_atom_site_label
_atom_site_fract_x
_atom_site_fract_y
_atom_site_fract_z
Si Si1 0.881888 0.167474 0.500000
Si Si2 0.582841 0.675199 0.915485
Si Si3 0.000000 0.173949 0.914936
Si Si4 0.297817 0.661773 0.358874
Si Si5 0.297875 0.162827 0.500000
Si Si6 0.119742 0.334154 0.647420
Si Si7 0.129869 0.175858 0.801640
Si Si8 0.712127 0.323838 0.806582
O O1 0.791865 0.168581 0.500000
O O2 0.913824 0.249750 0.425547
O O3 0.911900 0.000000 0.500000
O O4 0.500000 0.728364 0.887694
O O5 0.585409 0.500000 0.913757
O O6 0.649164 0.737594 0.863429
O O7 0.597273 0.733341 0.000000
O O8 0.926085 0.223836 0.868857
O O9 0.000000 0.000000 0.922067
O O10 0.000000 0.243113 0.000000
O O11 0.331842 0.500000 0.372324
O O12 0.331159 0.763165 0.424625
O O13 0.208350 0.656101 0.362589
O O14 0.319582 0.720522 0.275981
O O15 0.329961 0.000000 0.500000
O O16 0.085989 0.500000 0.652075
O O17 0.099303 0.244893 0.723358
O O18 0.210652 0.240580 0.824734
O O19 0.134596 0.000000 0.791551
O O20 0.726287 0.500000 0.811311
#
# Coordination Sequence:
#
# PCOD8195714 Si02
#       8
#     4   8   4   8   4   8   8   8
#     4   9  15  23  39  66  96 126 162 196 228 277
#     4   8  14  26  46  72 100 128 156 187 228 282
#     4   9  20  38  55  70  91 122 161 203 248 301
#     4   8  14  23  35  54  85 121 150 180 223 271
#     4   9  15  21  33  55  83 113 149 193 227 256
#     4   9  16  27  43  65  95 127 157 194 242 287
#     4  10  19  32  51  71  92 123 163 204 245 290
#     4   9  17  29  46  71 100 126 155 193 236 282
#
# _framework density 18.219985000000001
#
# number of rings (size 3 to 8) (size 9 to 14) (size 15 to 20)
#    0.000    3.154    0.000    2.769    0.000    6.154 
#    0.000    1.538    0.000    4.154    0.000    4.846 
#    0.000    4.308    0.000    0.000    0.000    0.000 
#
# Total GULP energy -644433.405068 kJ/mol
# GULP energy per Si atom -12392.950097 kJ/mol
# Density = 1.817852 g / cm^3
# Si number density = 18.219985 Si / 1000 Ang^3
#
#
#
# Elastic Constant Matrix: (Units=GPa)
#
#
# Indices 1 2 3 4 5 6 
#
# 1 76.8281 34.7314 73.0120 0.0000 0.0000 0.0000
# 2 34.7314 88.4763 61.0742 0.0000 0.0000 0.0000
# 3 73.0120 61.0742 174.8791 0.0000 0.0000 0.0000
# 4 0.0000 0.0000 0.0000 21.9135 0.0000 0.0000
# 5 0.0000 0.0000 0.0000 0.0000 -6.3982 0.0000
# 6 0.0000 0.0000 0.0000 0.0000 0.0000 10.3318
#
#
#
# Elastic Compliance Matrix: (Units=1/GPa)
#
#
# Indices 1 2 3 4 5 6 
#
# 1 0.022185 -0.003050 -0.008197 0.000000 0.000000 0.000000
# 2 -0.003050 0.015312 -0.004074 0.000000 0.000000 0.000000
# 3 -0.008197 -0.004074 0.010563 0.000000 0.000000 0.000000
# 4 0.000000 0.000000 0.000000 0.045634 0.000000 0.000000
# 5 0.000000 0.000000 0.000000 0.000000 -0.156294 0.000000
# 6 0.000000 0.000000 0.000000 0.000000 0.000000 0.096788
#
#
# Mechanical properties :
#
#
# Convention : Reuss Voigt Hill
#
# Bulk Modulus (GPa) = 57.41329 75.31319 66.36324
# Shear Modulus (GPa) = 70.78480 16.59381 43.68930
#
# Velocity S-wave (km/s) = 6.23975 3.02113 4.90213
# Velocity P-wave (km/s) = 9.13740 7.32085 8.27910
#
# Compressibility (1/GPa) = 0.01741757
#
# Stress axis : x y z
#
# Youngs Moduli (GPa) = 45.07604 65.30755 94.66834
#
# Poissons Ratio (x) = 0.19922 0.77598
# Poissons Ratio (y) = 0.13750 0.38568
# Poissons Ratio (z) = 0.36948 0.26606
#
# Static dielectric constant tensor:
#      x y z
#    x 3.048530 0.000000 0.000000 
#    y 0.000000 3.287980 0.000000 
#    z 0.000000 0.000000 3.747280 
# 
# 
# High freq. dielectric constant tensor:
#      x y z
#    x 1.662460 0.000000 0.000000 
#    y 0.000000 1.687900 0.000000 
#    z 0.000000 0.000000 1.717720 
# 
# From -- ./inp_files/25084.got.cif
#   From: 2010.03.12/outbox.cif.g09.slc.cpg/sg47_13_cif.got.tgz:25084.got - 2010.04.14 03:12:58.
