data_PCOD8195144
_publ_section_title
;
Structure prediction by ZEFSAII (Michael W. Deem and Ramdas Pophale) SiO2 
 PCOD8195144
Probable space group: P M M M
;
_chemical_formula_sum "Si O2"
_cell_formula_units_Z 56
_cell_length_a 9.193497
_cell_length_b 18.668712
_cell_length_c 18.932459
_cell_angle_alpha 90.000000
_cell_angle_beta 90.000000
_cell_angle_gamma 90.000000
_cell_volume 3249.392095
_symmetry_space_group_name_H-M "P M M M"
_symmetry_group_IT_number 47
_symmetry_cell_setting 'orthorhombic'
loop_
_space_group_symop_operation_xyz
x,y,z
-x,-y,z
x,-y,-z
-x,y,-z
-x,-y,-z
x,y,-z
-x,y,z
x,-y,z
loop_
_atom_site_type_symbol
_atom_site_label
_atom_site_fract_x
_atom_site_fract_y
_atom_site_fract_z
Si Si1 0.329320 0.704777 0.300979
Si Si2 0.827617 0.359615 0.076215
Si Si3 0.167051 0.080408 0.329360
Si Si4 0.169876 0.215157 0.419132
Si Si5 0.330383 0.843792 0.788675
Si Si6 0.168540 0.803245 0.920454
Si Si7 0.169936 0.581846 0.777502
O O1 0.500000 0.693855 0.311234
O O2 0.260201 0.726014 0.375951
O O3 0.293335 0.765931 0.243729
O O4 0.259127 0.630517 0.276350
O O5 0.775254 0.278169 0.085960
O O6 0.771810 0.406619 0.142115
O O7 0.000000 0.361396 0.073361
O O8 0.768323 0.388880 0.000000
O O9 0.207420 0.135147 0.392061
O O10 0.263895 0.094880 0.260609
O O11 0.000000 0.090277 0.306699
O O12 0.197864 0.000000 0.356802
O O13 0.219236 0.220006 0.500000
O O14 0.000000 0.232151 0.409933
O O15 0.500000 0.857610 0.794762
O O16 0.260818 0.850863 0.866227
O O17 0.000000 0.808601 0.899538
O O18 0.194179 0.831892 0.000000
O O19 0.197540 0.500000 0.756036
O O20 0.000000 0.602187 0.772547
#
# Coordination Sequence:
#
# PCOD8195144 Si02
#       7
#     8   8   8   8   8   8   8
#     4  10  20  33  49  70  98 132 167 202 239 286
#     4   8  14  25  42  66  95 125 159 202 250 295
#     4   9  18  32  51  76 105 135 162 189 228 282
#     4   9  18  33  55  81 105 129 157 193 235 279
#     4  10  19  30  47  70  96 130 169 206 243 283
#     4   9  16  27  46  69  92 123 164 210 256 296
#     4  10  19  30  48  72  97 129 168 210 253 294
#
# _framework density 17.233993000000002
#
# number of rings (size 3 to 8) (size 9 to 14) (size 15 to 20)
#    0.000    2.714    1.429    1.714    0.000    2.857 
#    0.000    2.857    0.000    1.286    0.000   11.000 
#    0.000    0.000    0.000    0.000    0.000    0.000 
#
# Total GULP energy -694296.937041 kJ/mol
# GULP energy per Si atom -12398.159590 kJ/mol
# Density = 1.719477 g / cm^3
# Si number density = 17.233993 Si / 1000 Ang^3
#
#
#
# Elastic Constant Matrix: (Units=GPa)
#
#
# Indices 1 2 3 4 5 6 
#
# 1 65.6584 36.2073 57.3366 0.0000 0.0000 0.0000
# 2 36.2073 79.1537 56.2336 0.0000 0.0000 0.0000
# 3 57.3366 56.2336 136.1508 0.0000 0.0000 0.0000
# 4 0.0000 0.0000 0.0000 20.4693 0.0000 0.0000
# 5 0.0000 0.0000 0.0000 0.0000 16.0981 0.0000
# 6 0.0000 0.0000 0.0000 0.0000 0.0000 18.2525
#
#
#
# Elastic Compliance Matrix: (Units=1/GPa)
#
#
# Indices 1 2 3 4 5 6 
#
# 1 0.025835 -0.005786 -0.008490 0.000000 0.000000 0.000000
# 2 -0.005786 0.019176 -0.005483 0.000000 0.000000 0.000000
# 3 -0.008490 -0.005483 0.013185 0.000000 0.000000 0.000000
# 4 0.000000 0.000000 0.000000 0.048854 0.000000 0.000000
# 5 0.000000 0.000000 0.000000 0.000000 0.062119 0.000000
# 6 0.000000 0.000000 0.000000 0.000000 0.000000 0.054787
#
#
# Mechanical properties :
#
#
# Convention : Reuss Voigt Hill
#
# Bulk Modulus (GPa) = 53.54225 64.50198 59.02211
# Shear Modulus (GPa) = 18.53908 19.70968 19.12438
#
# Velocity S-wave (km/s) = 3.28339 3.38546 3.33481
# Velocity P-wave (km/s) = 6.74607 7.26569 7.01069
#
# Compressibility (1/GPa) = 0.01867684
#
# Stress axis : x y z
#
# Youngs Moduli (GPa) = 38.70717 52.14835 75.84402
#
# Poissons Ratio (x) = 0.30174 0.64391
# Poissons Ratio (y) = 0.22396 0.41589
# Poissons Ratio (z) = 0.32862 0.28595
#
# Static dielectric constant tensor:
#      x y z
#    x 3.008950 0.000000 0.000000 
#    y 0.000000 3.000480 0.000000 
#    z 0.000000 0.000000 3.303730 
# 
# 
# High freq. dielectric constant tensor:
#      x y z
#    x 1.648130 0.000000 0.000000 
#    y 0.000000 1.640060 0.000000 
#    z 0.000000 0.000000 1.663260 
# 
# From -- ./inp_files/11488.got.cif
#   From: 2010.03.12/outbox.cif.g09.slc.cpg/sg47_6_cif.got.tgz:11488.got - 2010.04.14 03:12:58.
