data_PCOD8195598
_publ_section_title
;
Structure prediction by ZEFSAII (Michael W. Deem and Ramdas Pophale) SiO2 
 PCOD8195598
Probable space group: P M M M
;
_chemical_formula_sum "Si O2"
_cell_formula_units_Z 64
_cell_length_a 27.811535
_cell_length_b 8.806491
_cell_length_c 14.155999
_cell_angle_alpha 90.000000
_cell_angle_beta 90.000000
_cell_angle_gamma 90.000000
_cell_volume 3467.116050
_symmetry_space_group_name_H-M "P M M M"
_symmetry_group_IT_number 47
_symmetry_cell_setting 'orthorhombic'
loop_
_space_group_symop_operation_xyz
x,y,z
-x,-y,z
x,-y,-z
-x,y,-z
-x,-y,-z
x,y,-z
-x,y,z
x,-y,z
loop_
_atom_site_type_symbol
_atom_site_label
_atom_site_fract_x
_atom_site_fract_y
_atom_site_fract_z
Si Si1 0.946128 0.176850 0.608673
Si Si2 0.779651 0.820841 0.779258
Si Si3 0.634196 0.179390 0.270863
Si Si4 0.306558 0.320700 0.109565
Si Si5 0.055830 0.831457 0.105225
Si Si6 0.119966 0.674581 0.244437
Si Si7 0.721563 0.179024 0.396569
Si Si8 0.444057 0.676515 0.393446
O O1 0.944004 0.223108 0.500000
O O2 0.903583 0.268980 0.658345
O O3 0.000000 0.215243 0.648136
O O4 0.935671 0.000000 0.622744
O O5 0.744665 0.744276 0.855774
O O6 0.833988 0.768040 0.790263
O O7 0.764591 0.772425 0.672868
O O8 0.775356 0.000000 0.794616
O O9 0.648956 0.253758 0.170615
O O10 0.671893 0.234032 0.350350
O O11 0.582853 0.232248 0.310468
O O12 0.634601 0.000000 0.255622
O O13 0.305702 0.500000 0.122788
O O14 0.314208 0.275477 0.000000
O O15 0.080500 0.699409 0.164159
O O16 0.000000 0.795392 0.103920
O O17 0.065221 0.000000 0.149198
O O18 0.076914 0.827234 0.000000
O O19 0.134145 0.500000 0.254099
O O20 0.728353 0.255381 0.500000
O O21 0.720504 0.000000 0.408147
O O22 0.429695 0.730539 0.500000
O O23 0.500000 0.707758 0.377076
O O24 0.431932 0.500000 0.382374
#
# Coordination Sequence:
#
# PCOD8195598 Si02
#       8
#     8   8   8   8   8   8   8   8
#     4   9  19  37  59  79 100 133 178 220 255 299
#     4  10  21  36  54  76 102 135 174 213 254 304
#     4  10  19  31  52  81 110 142 181 223 267 318
#     4  10  21  38  59  80 104 136 175 222 275 327
#     4   9  19  37  59  79  98 124 161 203 247 300
#     4  12  24  35  51  77 109 140 167 203 256 313
#     4   8  15  29  49  73  99 127 163 207 251 295
#     4   9  18  32  50  76 114 157 194 228 270 318
#
# _framework density 18.459144999999999
#
# number of rings (size 3 to 8) (size 9 to 14) (size 15 to 20)
#    0.000    2.375    0.000    4.875    0.000    5.500 
#    0.000    3.125    0.000    7.500    0.000    2.625 
#    0.000    0.000    0.000    0.000    0.000    0.000 
#
# Total GULP energy -793386.850132 kJ/mol
# GULP energy per Si atom -12396.669533 kJ/mol
# Density = 1.841713 g / cm^3
# Si number density = 18.459145 Si / 1000 Ang^3
#
#
#
# Elastic Constant Matrix: (Units=GPa)
#
#
# Indices 1 2 3 4 5 6 
#
# 1 79.8800 38.0564 47.3246 0.0000 0.0000 0.0000
# 2 38.0564 76.8033 47.4627 0.0000 0.0000 0.0000
# 3 47.3246 47.4627 129.6866 0.0000 0.0000 0.0000
# 4 0.0000 0.0000 0.0000 15.5636 0.0000 0.0000
# 5 0.0000 0.0000 0.0000 0.0000 -46.7772 0.0000
# 6 0.0000 0.0000 0.0000 0.0000 0.0000 29.5926
#
#
#
# Elastic Compliance Matrix: (Units=1/GPa)
#
#
# Indices 1 2 3 4 5 6 
#
# 1 0.018059 -0.006301 -0.004284 0.000000 0.000000 0.000000
# 2 -0.006301 0.019024 -0.004663 0.000000 0.000000 0.000000
# 3 -0.004284 -0.004663 0.010981 0.000000 0.000000 0.000000
# 4 0.000000 0.000000 0.000000 0.064252 0.000000 0.000000
# 5 0.000000 0.000000 0.000000 0.000000 -0.021378 0.000000
# 6 0.000000 0.000000 0.000000 0.000000 0.000000 0.033792
#
#
# Mechanical properties :
#
#
# Convention : Reuss Voigt Hill
#
# Bulk Modulus (GPa) = 56.92250 61.33970 59.13110
# Shear Modulus (GPa) = 31.04016 9.91089 20.47552
#
# Velocity S-wave (km/s) = 4.10513 2.31964 3.33413
# Velocity P-wave (km/s) = 7.30571 6.36211 6.85018
#
# Compressibility (1/GPa) = 0.01756775
#
# Stress axis : x y z
#
# Youngs Moduli (GPa) = 55.37541 52.56493 91.06812
#
# Poissons Ratio (x) = 0.33120 0.39013
# Poissons Ratio (y) = 0.34891 0.42467
# Poissons Ratio (z) = 0.23722 0.24512
#
# Static dielectric constant tensor:
#      x y z
#    x 3.315990 0.000000 0.000000 
#    y 0.000000 3.225410 0.000000 
#    z 0.000000 0.000000 3.563980 
# 
# 
# High freq. dielectric constant tensor:
#      x y z
#    x 1.706540 0.000000 0.000000 
#    y 0.000000 1.704580 0.000000 
#    z 0.000000 0.000000 1.718490 
# 
# From -- ./inp_files/25853.got.cif
#   From: 2010.03.12/outbox.cif.g09.slc.cpg/sg47_13_cif.got.tgz:25853.got - 2010.04.14 03:12:58.
