data_PCOD8195094
_publ_section_title
;
Structure prediction by ZEFSAII (Michael W. Deem and Ramdas Pophale) SiO2 
 PCOD8195094
Probable space group: P M M M
;
_chemical_formula_sum "Si O2"
_cell_formula_units_Z 40
_cell_length_a 7.846935
_cell_length_b 12.540124
_cell_length_c 21.917005
_cell_angle_alpha 90.000000
_cell_angle_beta 90.000000
_cell_angle_gamma 90.000000
_cell_volume 2156.666999
_symmetry_space_group_name_H-M "P M M M"
_symmetry_group_IT_number 47
_symmetry_cell_setting 'orthorhombic'
loop_
_space_group_symop_operation_xyz
x,y,z
-x,-y,z
x,-y,-z
-x,y,-z
-x,-y,-z
x,y,-z
-x,y,z
x,-y,z
loop_
_atom_site_type_symbol
_atom_site_label
_atom_site_fract_x
_atom_site_fract_y
_atom_site_fract_z
Si Si1 0.500000 0.122499 0.120918
Si Si2 0.186230 0.250166 0.266524
Si Si3 0.304536 0.500000 0.927992
Si Si4 0.804832 0.278384 0.127690
Si Si5 0.500000 0.884776 0.265104
Si Si6 0.307271 0.622947 0.372281
Si Si7 0.200360 0.378832 0.500000
O O1 0.670390 0.189806 0.101173
O O2 0.500000 0.110290 0.192646
O O3 0.500000 0.000000 0.093090
O O4 0.230412 0.296130 0.199616
O O5 0.327796 0.167972 0.289125
O O6 0.184024 0.341589 0.317512
O O7 0.000000 0.195164 0.264587
O O8 0.500000 0.500000 0.907165
O O9 0.216889 0.393232 0.903135
O O10 0.283803 0.500000 0.000000
O O11 0.000000 0.238941 0.115811
O O12 0.500000 0.000000 0.294941
O O13 0.500000 0.646703 0.352074
O O14 0.267817 0.500000 0.381162
O O15 0.268874 0.678402 0.438075
O O16 0.268654 0.500000 0.500000
O O17 0.000000 0.372708 0.500000
#
# Coordination Sequence:
#
# PCOD8195094 Si02
#       7
#     4   8   4   8   4   8   4
#     4   9  18  35  57  82 112 144 179 227 278 327
#     4  10  20  33  51  79 107 135 174 213 262 313
#     4  11  23  39  61  84 113 154 190 224 269 322
#     4  10  21  36  56  83 113 146 184 227 272 326
#     4   9  18  34  52  73 104 136 170 214 267 315
#     4  10  19  30  46  69 101 140 174 208 254 307
#     4   9  17  29  43  63  95 134 175 213 249 301
#
# _framework density 18.547136999999999
#
# number of rings (size 3 to 8) (size 9 to 14) (size 15 to 20)
#    0.000    2.200    2.000    1.200    1.400    4.000 
#    0.000    4.000    0.000    1.200    0.000    2.800 
#    0.000    2.400    0.000    0.000    0.000    0.000 
#
# Total GULP energy -495659.126391 kJ/mol
# GULP energy per Si atom -12391.478160 kJ/mol
# Density = 1.850492 g / cm^3
# Si number density = 18.547137 Si / 1000 Ang^3
#
#
#
# Elastic Constant Matrix: (Units=GPa)
#
#
# Indices 1 2 3 4 5 6 
#
# 1 129.8594 55.9696 29.6266 0.0000 0.0000 0.0000
# 2 55.9696 93.4614 27.1139 0.0000 0.0000 0.0000
# 3 29.6266 27.1139 61.8946 0.0000 0.0000 0.0000
# 4 0.0000 0.0000 0.0000 0.6708 0.0000 0.0000
# 5 0.0000 0.0000 0.0000 0.0000 22.3371 0.0000
# 6 0.0000 0.0000 0.0000 0.0000 0.0000 13.4998
#
#
#
# Elastic Compliance Matrix: (Units=1/GPa)
#
#
# Indices 1 2 3 4 5 6 
#
# 1 0.010750 -0.005665 -0.002664 0.000000 0.000000 0.000000
# 2 -0.005665 0.015242 -0.003966 0.000000 0.000000 0.000000
# 3 -0.002664 -0.003966 0.019169 0.000000 0.000000 0.000000
# 4 0.000000 0.000000 0.000000 1.490790 0.000000 0.000000
# 5 0.000000 0.000000 0.000000 0.000000 0.044769 0.000000
# 6 0.000000 0.000000 0.000000 0.000000 0.000000 0.074075
#
#
# Mechanical properties :
#
#
# Convention : Reuss Voigt Hill
#
# Bulk Modulus (GPa) = 48.60908 56.73729 52.67318
# Shear Modulus (GPa) = 2.96517 18.80189 10.88353
#
# Velocity S-wave (km/s) = 1.26578 3.18738 2.42503
# Velocity P-wave (km/s) = 5.32931 6.64854 6.02514
#
# Compressibility (1/GPa) = 0.02057229
#
# Stress axis : x y z
#
# Youngs Moduli (GPa) = 93.02377 65.60624 52.16783
#
# Poissons Ratio (x) = 0.37164 0.13898
# Poissons Ratio (y) = 0.52696 0.20688
# Poissons Ratio (z) = 0.24782 0.26017
#
# Static dielectric constant tensor:
#      x y z
#    x 3.627600 0.000000 0.000000 
#    y 0.000000 3.292010 0.000000 
#    z 0.000000 0.000000 3.352910 
# 
# 
# High freq. dielectric constant tensor:
#      x y z
#    x 1.740060 0.000000 0.000000 
#    y 0.000000 1.677670 0.000000 
#    z 0.000000 0.000000 1.709660 
# 
# From -- ./inp_files/29390.got.cif
#   From: 2010.03.12/outbox.cif.g09.slc.cpg/sg47_15_cif.got.tgz:29390.got - 2010.04.14 03:12:58.
