data_PCOD8195497
_publ_section_title
;
Structure prediction by ZEFSAII (Michael W. Deem and Ramdas Pophale) SiO2 
 PCOD8195497
Probable space group: P M M M
;
_chemical_formula_sum "Si O2"
_cell_formula_units_Z 46
_cell_length_a 12.070800
_cell_length_b 12.426761
_cell_length_c 17.441197
_cell_angle_alpha 90.000000
_cell_angle_beta 90.000000
_cell_angle_gamma 90.000000
_cell_volume 2616.196061
_symmetry_space_group_name_H-M "P M M M"
_symmetry_group_IT_number 47
_symmetry_cell_setting 'orthorhombic'
loop_
_space_group_symop_operation_xyz
x,y,z
-x,-y,z
x,-y,-z
-x,y,-z
-x,-y,-z
x,y,-z
-x,y,z
x,-y,z
loop_
_atom_site_type_symbol
_atom_site_label
_atom_site_fract_x
_atom_site_fract_y
_atom_site_fract_z
Si Si1 0.500000 0.000000 0.184660
Si Si2 0.273505 0.000000 0.088777
Si Si3 0.122848 0.122848 0.686898
Si Si4 0.500000 0.373637 0.821680
Si Si5 0.500000 0.801667 0.299900
Si Si6 0.130868 0.803996 0.851458
Si Si7 0.279639 0.623976 0.910921
Si Si8 0.322670 0.125053 0.586616
O O1 0.388694 0.000000 0.134771
O O2 0.500000 0.105215 0.237025
O O3 0.200051 0.104085 0.106412
O O4 0.305746 0.000000 0.000000
O O5 0.154784 0.194184 0.760370
O O6 0.196970 0.144774 0.612571
O O7 0.000000 0.149081 0.658410
O O8 0.134804 0.000000 0.715522
O O9 0.500000 0.500000 0.805190
O O10 0.500000 0.313649 0.740525
O O11 0.608403 0.338090 0.868879
O O12 0.394625 0.806792 0.354877
O O13 0.173240 0.689515 0.881736
O O14 0.000000 0.818062 0.868809
O O15 0.253406 0.500000 0.893652
O O16 0.299834 0.645022 0.000000
O O17 0.337860 0.167104 0.500000
O O18 0.356755 0.000000 0.591831
#
# Coordination Sequence:
#
# PCOD8195497 Si02
#       8
#     2   4   8   4   4   8   8   8
#     4  12  23  36  55  76 102 138 178 218 263 308
#     4  12  24  36  51  74 104 138 178 221 260 304
#     4   9  17  31  50  71  99 136 174 210 250 297
#     4  10  21  37  58  80 101 134 179 220 262 313
#     4  12  21  33  53  76 105 138 166 208 257 312
#     4  11  22  36  54  76 105 141 178 212 257 318
#     4  10  21  37  56  77 103 134 173 225 275 312
#     4  10  19  31  49  76 107 135 167 206 251 306
#
# _framework density 17.58278
#
# number of rings (size 3 to 8) (size 9 to 14) (size 15 to 20)
#    0.000    1.565    1.739    4.565    0.000    4.174 
#    0.000    5.217    0.000    1.043    0.000    0.000 
#    0.000    0.000    0.000   14.957    0.000    0.348 
#
# Total GULP energy -570462.846970 kJ/mol
# GULP energy per Si atom -12401.366238 kJ/mol
# Density = 1.754276 g / cm^3
# Si number density = 17.582780 Si / 1000 Ang^3
#
#
#
# Elastic Constant Matrix: (Units=GPa)
#
#
# Indices 1 2 3 4 5 6 
#
# 1 116.8517 41.6525 66.4247 0.0000 0.0000 0.0000
# 2 41.6525 63.9065 43.7217 0.0000 0.0000 0.0000
# 3 66.4247 43.7217 130.2758 0.0000 0.0000 0.0000
# 4 0.0000 0.0000 0.0000 25.0963 0.0000 0.0000
# 5 0.0000 0.0000 0.0000 0.0000 30.4961 0.0000
# 6 0.0000 0.0000 0.0000 0.0000 0.0000 16.5307
#
#
#
# Elastic Compliance Matrix: (Units=1/GPa)
#
#
# Indices 1 2 3 4 5 6 
#
# 1 0.013268 -0.005217 -0.005014 0.000000 0.000000 0.000000
# 2 -0.005217 0.022363 -0.004845 0.000000 0.000000 0.000000
# 3 -0.005014 -0.004845 0.011859 0.000000 0.000000 0.000000
# 4 0.000000 0.000000 0.000000 0.039846 0.000000 0.000000
# 5 0.000000 0.000000 0.000000 0.000000 0.032791 0.000000
# 6 0.000000 0.000000 0.000000 0.000000 0.000000 0.060494
#
#
# Mechanical properties :
#
#
# Convention : Reuss Voigt Hill
#
# Bulk Modulus (GPa) = 57.68071 68.29243 62.98657
# Shear Modulus (GPa) = 23.08912 25.04029 24.06471
#
# Velocity S-wave (km/s) = 3.62770 3.77787 3.70354
# Velocity P-wave (km/s) = 7.10094 7.61279 7.36131
#
# Compressibility (1/GPa) = 0.01733682
#
# Stress axis : x y z
#
# Youngs Moduli (GPa) = 75.37050 44.71647 84.32693
#
# Poissons Ratio (x) = 0.23330 0.42281
# Poissons Ratio (y) = 0.39323 0.40857
# Poissons Ratio (z) = 0.37791 0.21666
#
# Static dielectric constant tensor:
#      x y z
#    x 3.451950 0.000000 0.000000 
#    y 0.000000 3.089360 0.000000 
#    z 0.000000 0.000000 3.297570 
# 
# 
# High freq. dielectric constant tensor:
#      x y z
#    x 1.696590 0.000000 0.000000 
#    y 0.000000 1.647930 0.000000 
#    z 0.000000 0.000000 1.683600 
# 
# From -- ./inp_files/27484.got.cif
#   From: 2010.03.12/outbox.cif.g09.slc.cpg/sg47_14_cif.got.tgz:27484.got - 2010.04.14 03:12:58.
