data_PCOD8195425
_publ_section_title
;
Structure prediction by ZEFSAII (Michael W. Deem and Ramdas Pophale) SiO2 
 PCOD8195425
Probable space group: P M M M
;
_chemical_formula_sum "Si O2"
_cell_formula_units_Z 64
_cell_length_a 18.961594
_cell_length_b 20.805840
_cell_length_c 9.041557
_cell_angle_alpha 90.000000
_cell_angle_beta 90.000000
_cell_angle_gamma 90.000000
_cell_volume 3567.001749
_symmetry_space_group_name_H-M "P M M M"
_symmetry_group_IT_number 47
_symmetry_cell_setting 'orthorhombic'
loop_
_space_group_symop_operation_xyz
x,y,z
-x,-y,z
x,-y,-z
-x,y,-z
-x,-y,-z
x,y,-z
-x,y,z
x,-y,z
loop_
_atom_site_type_symbol
_atom_site_label
_atom_site_fract_x
_atom_site_fract_y
_atom_site_fract_z
Si Si1 0.664165 0.429461 0.172549
Si Si2 0.340233 0.697640 0.675170
Si Si3 0.179252 0.705593 0.671188
Si Si4 0.191174 0.568091 0.668399
Si Si5 0.680911 0.072449 0.173101
Si Si6 0.176157 0.927643 0.326494
Si Si7 0.418355 0.187216 0.828136
Si Si8 0.078637 0.814127 0.323999
O O1 0.629251 0.500000 0.207131
O O2 0.629188 0.370226 0.261887
O O3 0.745559 0.433745 0.216965
O O4 0.658017 0.413843 0.000000
O O5 0.344580 0.695047 0.500000
O O6 0.259584 0.708704 0.732002
O O7 0.388438 0.754661 0.732993
O O8 0.182161 0.723418 0.500000
O O9 0.146855 0.633418 0.698731
O O10 0.127001 0.757207 0.746351
O O11 0.221399 0.573518 0.500000
O O12 0.148090 0.500000 0.684820
O O13 0.752130 0.096170 0.251153
O O14 0.618584 0.120529 0.219171
O O15 0.660578 0.000000 0.224154
O O16 0.695151 0.074367 0.000000
O O17 0.189025 0.922709 0.500000
O O18 0.112181 0.882078 0.276114
O O19 0.156656 0.000000 0.277448
O O20 0.500000 0.178553 0.791153
O O21 0.405307 0.202437 0.000000
O O22 0.074667 0.808266 0.500000
O O23 0.000000 0.809493 0.256629
#
# Coordination Sequence:
#
# PCOD8195425 Si02
#       8
#     8   8   8   8   8   8   8   8
#     4   9  16  26  43  69  98 123 151 193 241 283
#     4  10  19  31  49  70  94 126 161 196 234 280
#     4   8  14  24  39  60  84 113 149 186 225 268
#     4   8  13  22  37  58  85 115 147 186 232 279
#     4   9  18  33  53  75  97 123 155 189 229 280
#     4   9  17  29  46  68  92 117 148 189 233 274
#     4  10  21  35  50  70  97 126 155 191 233 275
#     4   9  16  25  39  61  89 119 151 189 231 274
#
# _framework density 17.942239000000001
#
# number of rings (size 3 to 8) (size 9 to 14) (size 15 to 20)
#    0.000    3.000    0.000    2.250    0.000    3.000 
#    0.000    2.500    0.000    1.125    0.000    9.625 
#    0.000    0.000    0.000   31.500    0.000   29.000 
#
# Total GULP energy -792919.442071 kJ/mol
# GULP energy per Si atom -12389.366282 kJ/mol
# Density = 1.790140 g / cm^3
# Si number density = 17.942239 Si / 1000 Ang^3
#
#
#
# Elastic Constant Matrix: (Units=GPa)
#
#
# Indices 1 2 3 4 5 6 
#
# 1 82.7149 59.6887 21.9909 0.0000 0.0000 0.0000
# 2 59.6887 142.3812 33.4585 0.0000 0.0000 0.0000
# 3 21.9909 33.4585 37.2352 0.0000 0.0000 0.0000
# 4 0.0000 0.0000 0.0000 20.9725 0.0000 0.0000
# 5 0.0000 0.0000 0.0000 0.0000 13.6313 0.0000
# 6 0.0000 0.0000 0.0000 0.0000 0.0000 5.8224
#
#
#
# Elastic Compliance Matrix: (Units=1/GPa)
#
#
# Indices 1 2 3 4 5 6 
#
# 1 0.018007 -0.006402 -0.004883 0.000000 0.000000 0.000000
# 2 -0.006402 0.011179 -0.006265 0.000000 0.000000 0.000000
# 3 -0.004883 -0.006265 0.035369 0.000000 0.000000 0.000000
# 4 0.000000 0.000000 0.000000 0.047682 0.000000 0.000000
# 5 0.000000 0.000000 0.000000 0.000000 0.073360 0.000000
# 6 0.000000 0.000000 0.000000 0.000000 0.000000 0.171749
#
#
# Mechanical properties :
#
#
# Convention : Reuss Voigt Hill
#
# Bulk Modulus (GPa) = 33.94671 54.73417 44.34044
# Shear Modulus (GPa) = 12.42964 17.89813 15.16389
#
# Velocity S-wave (km/s) = 2.63489 3.16181 2.91030
# Velocity P-wave (km/s) = 5.31205 6.62581 6.00497
#
# Compressibility (1/GPa) = 0.02945793
#
# Stress axis : x y z
#
# Youngs Moduli (GPa) = 55.53278 89.45198 28.27318
#
# Poissons Ratio (x) = 0.57264 0.13805
# Poissons Ratio (y) = 0.35550 0.17712
# Poissons Ratio (z) = 0.27115 0.56038
#
# Static dielectric constant tensor:
#      x y z
#    x 3.111170 0.000000 0.000000 
#    y 0.000000 3.899510 0.000000 
#    z 0.000000 0.000000 3.057460 
# 
# 
# High freq. dielectric constant tensor:
#      x y z
#    x 1.648820 0.000000 0.000000 
#    y 0.000000 1.723410 0.000000 
#    z 0.000000 0.000000 1.666310 
# 
# From -- ./inp_files/10051.got.cif
#   From: 2010.03.12/outbox.cif.g09.slc.cpg/sg47_6_cif.got.tgz:10051.got - 2010.04.14 03:12:58.
