data_PCOD8195979
_publ_section_title
;
Structure prediction by ZEFSAII (Michael W. Deem and Ramdas Pophale) SiO2 
 PCOD8195979
Probable space group: P M M M
;
_chemical_formula_sum "Si O2"
_cell_formula_units_Z 52
_cell_length_a 8.885606
_cell_length_b 26.436303
_cell_length_c 12.653723
_cell_angle_alpha 90.000000
_cell_angle_beta 90.000000
_cell_angle_gamma 90.000000
_cell_volume 2972.392085
_symmetry_space_group_name_H-M "P M M M"
_symmetry_group_IT_number 47
_symmetry_cell_setting 'orthorhombic'
loop_
_space_group_symop_operation_xyz
x,y,z
-x,-y,z
x,-y,-z
-x,y,-z
-x,-y,-z
x,y,-z
-x,y,z
x,-y,z
loop_
_atom_site_type_symbol
_atom_site_label
_atom_site_fract_x
_atom_site_fract_y
_atom_site_fract_z
Si Si1 0.674837 0.221305 0.622430
Si Si2 0.178566 0.500000 0.119284
Si Si3 0.176263 0.607764 0.187826
Si Si4 0.178534 0.160216 0.801266
Si Si5 0.676770 0.785306 0.000000
Si Si6 0.178397 0.054942 0.118615
Si Si7 0.675433 0.667421 0.000000
Si Si8 0.173741 0.325283 0.380613
O O1 0.709348 0.210517 0.500000
O O2 0.500000 0.216681 0.649601
O O3 0.765825 0.180081 0.688701
O O4 0.727233 0.277443 0.653930
O O5 0.237266 0.550208 0.179169
O O6 0.000000 0.500000 0.117185
O O7 0.242349 0.500000 0.000000
O O8 0.213084 0.627599 0.305345
O O9 0.000000 0.609635 0.162678
O O10 0.256118 0.643419 0.104462
O O11 0.250954 0.191716 0.895482
O O12 0.232246 0.101515 0.808655
O O13 0.000000 0.165462 0.809805
O O14 0.500000 0.796291 0.000000
O O15 0.713826 0.726283 0.000000
O O16 0.000000 0.054470 0.114268
O O17 0.235810 0.000000 0.161881
O O18 0.240983 0.063493 0.000000
O O19 0.500000 0.656673 0.000000
O O20 0.211799 0.342301 0.500000
O O21 0.000000 0.309192 0.369415
#
# Coordination Sequence:
#
# PCOD8195979 Si02
#       8
#     8   4   8   8   4   8   4   8
#     4  10  21  36  53  73 101 139 175 207 254 311
#     4   9  16  30  51  73  97 128 167 200 237 297
#     4  10  19  33  53  73  96 130 164 199 246 299
#     4  11  20  32  53  79 104 132 171 215 256 298
#     4  11  23  35  47  71 109 143 165 200 257 314
#     4   8  14  27  48  74 103 133 166 206 252 299
#     4  11  23  34  46  68  99 130 165 204 243 290
#     4   9  18  33  53  77 101 126 164 211 250 292
#
# _framework density 17.494326999999998
#
# number of rings (size 3 to 8) (size 9 to 14) (size 15 to 20)
#    0.000    2.231    1.538    2.769    0.000    5.231 
#    0.000    1.154    0.000    5.077    0.000    3.231 
#    0.000    3.692    0.000    0.000    0.000    0.000 
#
# Total GULP energy -644707.933178 kJ/mol
# GULP energy per Si atom -12398.229484 kJ/mol
# Density = 1.745451 g / cm^3
# Si number density = 17.494327 Si / 1000 Ang^3
#
#
#
# Elastic Constant Matrix: (Units=GPa)
#
#
# Indices 1 2 3 4 5 6 
#
# 1 54.2760 55.6619 33.9598 0.0000 0.0000 0.0000
# 2 55.6619 167.2436 84.9874 0.0000 0.0000 0.0000
# 3 33.9598 84.9874 101.3224 0.0000 0.0000 0.0000
# 4 0.0000 0.0000 0.0000 -158.5286 0.0000 0.0000
# 5 0.0000 0.0000 0.0000 0.0000 17.6771 0.0000
# 6 0.0000 0.0000 0.0000 0.0000 0.0000 3.5928
#
#
#
# Elastic Compliance Matrix: (Units=1/GPa)
#
#
# Indices 1 2 3 4 5 6 
#
# 1 0.028412 -0.008047 -0.002773 0.000000 0.000000 0.000000
# 2 -0.008047 0.012700 -0.007956 0.000000 0.000000 0.000000
# 3 -0.002773 -0.007956 0.017472 0.000000 0.000000 0.000000
# 4 0.000000 0.000000 0.000000 -0.006308 0.000000 0.000000
# 5 0.000000 0.000000 0.000000 0.000000 0.056570 0.000000
# 6 0.000000 0.000000 0.000000 0.000000 0.000000 0.278332
#
#
# Mechanical properties :
#
#
# Convention : Reuss Voigt Hill
#
# Bulk Modulus (GPa) = 47.54500 74.67337 61.10919
# Shear Modulus (GPa) = 11.58102 -17.56955 -2.99427
#
# Velocity S-wave (km/s) = 2.57570 -3.17251 -1.30969
# Velocity P-wave (km/s) = 6.00683 5.41823 5.72011
#
# Compressibility (1/GPa) = 0.02103271
#
# Stress axis : x y z
#
# Youngs Moduli (GPa) = 35.19681 78.73867 57.23415
#
# Poissons Ratio (x) = 0.63359 0.15872
# Poissons Ratio (y) = 0.28322 0.45534
# Poissons Ratio (z) = 0.09761 0.62642
#
# Static dielectric constant tensor:
#      x y z
#    x 3.122620 0.000000 0.000000 
#    y 0.000000 3.625540 0.000000 
#    z 0.000000 0.000000 3.331590 
# 
# 
# High freq. dielectric constant tensor:
#      x y z
#    x 1.659960 0.000000 0.000000 
#    y 0.000000 1.682710 0.000000 
#    z 0.000000 0.000000 1.667370 
# 
# From -- ./inp_files/15571.got.cif
#   From: 2010.03.12/outbox.cif.g09.slc.cpg/sg47_8_cif.got.tgz:15571.got - 2010.04.14 03:12:58.
