data_PCOD8195926
_publ_section_title
;
Structure prediction by ZEFSAII (Michael W. Deem and Ramdas Pophale) SiO2 
 PCOD8195926
Probable space group: P M M M
;
_chemical_formula_sum "Si O2"
_cell_formula_units_Z 48
_cell_length_a 15.369278
_cell_length_b 17.706632
_cell_length_c 8.933760
_cell_angle_alpha 90.000000
_cell_angle_beta 90.000000
_cell_angle_gamma 90.000000
_cell_volume 2431.216916
_symmetry_space_group_name_H-M "P M M M"
_symmetry_group_IT_number 47
_symmetry_cell_setting 'orthorhombic'
loop_
_space_group_symop_operation_xyz
x,y,z
-x,-y,z
x,-y,-z
-x,y,-z
-x,-y,-z
x,y,-z
-x,y,z
x,-y,z
loop_
_atom_site_type_symbol
_atom_site_label
_atom_site_fract_x
_atom_site_fract_y
_atom_site_fract_z
Si Si1 0.140209 0.800563 0.825988
Si Si2 0.000000 0.082472 0.176569
Si Si3 0.401759 0.000000 0.822339
Si Si4 0.264168 0.413976 0.827780
Si Si5 0.598362 0.304496 0.327005
Si Si6 0.098309 0.354133 0.324818
Si Si7 0.662057 0.160446 0.174616
O O1 0.108989 0.731439 0.726981
O O2 0.239409 0.818045 0.792735
O O3 0.086040 0.873156 0.772996
O O4 0.123261 0.781579 0.000000
O O5 0.000000 0.000000 0.253597
O O6 0.000000 0.072673 0.000000
O O7 0.354915 0.924057 0.762667
O O8 0.500000 0.000000 0.762720
O O9 0.398050 0.000000 0.000000
O O10 0.295499 0.500000 0.809394
O O11 0.334898 0.360531 0.752420
O O12 0.168276 0.406608 0.757718
O O13 0.257674 0.389413 0.000000
O O14 0.624201 0.301239 0.500000
O O15 0.500000 0.334787 0.304724
O O16 0.602251 0.220344 0.260282
O O17 0.116834 0.359006 0.500000
O O18 0.000000 0.381919 0.287839
O O19 0.638541 0.164825 0.000000
#
# Coordination Sequence:
#
# PCOD8195926 Si02
#       7
#     8   4   4   8   8   8   8
#     4  10  19  32  54  83 113 152 200 248 294 347
#     4   9  18  30  49  81 120 157 198 249 301 352
#     4   9  18  32  51  80 118 155 196 251 304 350
#     4  11  25  44  66  93 123 156 198 250 304 359
#     4  11  24  41  63  91 123 161 203 247 300 364
#     4  11  23  39  62  90 122 160 199 241 293 357
#     4  10  20  34  57  86 117 156 204 253 300 352
#
# _framework density 19.743199000000001
#
# number of rings (size 3 to 8) (size 9 to 14) (size 15 to 20)
#    0.000    1.667    2.500    2.000    1.167    5.000 
#    0.000    3.750    0.000    2.500    0.000    0.000 
#    0.000    0.000    0.000    0.000    0.000    0.000 
#
# Total GULP energy -595259.768590 kJ/mol
# GULP energy per Si atom -12401.245179 kJ/mol
# Density = 1.969826 g / cm^3
# Si number density = 19.743199 Si / 1000 Ang^3
#
#
#
# Elastic Constant Matrix: (Units=GPa)
#
#
# Indices 1 2 3 4 5 6 
#
# 1 113.6656 40.0528 55.9640 0.0000 0.0000 0.0000
# 2 40.0528 112.1952 44.8666 0.0000 0.0000 0.0000
# 3 55.9640 44.8666 92.3885 0.0000 0.0000 0.0000
# 4 0.0000 0.0000 0.0000 -9.8870 0.0000 0.0000
# 5 0.0000 0.0000 0.0000 0.0000 27.3077 0.0000
# 6 0.0000 0.0000 0.0000 0.0000 0.0000 25.7223
#
#
#
# Elastic Compliance Matrix: (Units=1/GPa)
#
#
# Indices 1 2 3 4 5 6 
#
# 1 0.012832 -0.001827 -0.006885 0.000000 0.000000 0.000000
# 2 -0.001827 0.011321 -0.004391 0.000000 0.000000 0.000000
# 3 -0.006885 -0.004391 0.017127 0.000000 0.000000 0.000000
# 4 0.000000 0.000000 0.000000 -0.101143 0.000000 0.000000
# 5 0.000000 0.000000 0.000000 0.000000 0.036620 0.000000
# 6 0.000000 0.000000 0.000000 0.000000 0.000000 0.038877
#
#
# Mechanical properties :
#
#
# Convention : Reuss Voigt Hill
#
# Bulk Modulus (GPa) = 66.34569 66.66848 66.50708
# Shear Modulus (GPa) = 106.68929 20.45300 63.57114
#
# Velocity S-wave (km/s) = 7.35906 3.22211 5.68057
# Velocity P-wave (km/s) = 10.29005 6.90535 8.76267
#
# Compressibility (1/GPa) = 0.01507257
#
# Stress axis : x y z
#
# Youngs Moduli (GPa) = 77.93196 88.32849 58.38715
#
# Poissons Ratio (x) = 0.16141 0.40201
# Poissons Ratio (y) = 0.14241 0.25638
# Poissons Ratio (z) = 0.53659 0.38786
#
# Static dielectric constant tensor:
#      x y z
#    x 3.817330 0.000000 0.000000 
#    y 0.000000 3.771710 0.000000 
#    z 0.000000 0.000000 3.447260 
# 
# 
# High freq. dielectric constant tensor:
#      x y z
#    x 1.783700 0.000000 0.000000 
#    y 0.000000 1.775920 0.000000 
#    z 0.000000 0.000000 1.750040 
# 
# From -- ./inp_files/6409.got.cif
#   From: 2010.03.12/outbox.cif.g09.slc.cpg/sg47_4_cif.got.tgz:6409.got - 2010.04.14 03:12:58.
