data_PCOD8195160
_publ_section_title
;
Structure prediction by ZEFSAII (Michael W. Deem and Ramdas Pophale) SiO2 
 PCOD8195160
Probable space group: P M M M
;
_chemical_formula_sum "Si O2"
_cell_formula_units_Z 40
_cell_length_a 7.897524
_cell_length_b 9.476570
_cell_length_c 29.144780
_cell_angle_alpha 90.000000
_cell_angle_beta 90.000000
_cell_angle_gamma 90.000000
_cell_volume 2181.237275
_symmetry_space_group_name_H-M "P M M M"
_symmetry_group_IT_number 47
_symmetry_cell_setting 'orthorhombic'
loop_
_space_group_symop_operation_xyz
x,y,z
-x,-y,z
x,-y,-z
-x,y,-z
-x,-y,-z
x,y,-z
-x,y,z
x,-y,z
loop_
_atom_site_type_symbol
_atom_site_label
_atom_site_fract_x
_atom_site_fract_y
_atom_site_fract_z
Si Si1 0.693913 0.837993 0.194277
Si Si2 0.686841 0.832085 0.611042
Si Si3 0.190391 0.832362 0.292186
Si Si4 0.810955 0.337230 0.887803
Si Si5 0.000000 0.168440 0.448227
Si Si6 0.500000 0.332332 0.051260
O O1 0.500000 0.821825 0.179767
O O2 0.717584 0.779748 0.245975
O O3 0.805873 0.747286 0.159690
O O4 0.754655 0.000000 0.191238
O O5 0.500000 0.782937 0.594297
O O6 0.715643 0.773407 0.662622
O O7 0.831751 0.772794 0.577118
O O8 0.697996 0.000000 0.611503
O O9 0.000000 0.774212 0.292259
O O10 0.193006 0.000000 0.293832
O O11 0.772546 0.500000 0.876603
O O12 0.670153 0.278376 0.923207
O O13 0.000000 0.319187 0.908972
O O14 0.000000 0.226626 0.500000
O O15 0.000000 0.000000 0.447662
O O16 0.500000 0.500000 0.048700
O O17 0.500000 0.268099 0.000000
#
# Coordination Sequence:
#
# PCOD8195160 Si02
#       6
#     8   8   8   8   4   4
#     4  10  19  30  47  72  99 128 163 201 239 284
#     4   9  15  23  34  47  67  96 132 177 224 270
#     4   9  15  24  38  57  82 110 143 185 229 272
#     4  10  20  34  53  76 102 131 161 196 241 289
#     4   9  16  24  32  44  64  94 135 181 228 273
#     4   9  18  34  55  77 101 129 163 203 240 279
#
# _framework density 18.338218000000001
#
# number of rings (size 3 to 8) (size 9 to 14) (size 15 to 20)
#    0.000    2.600    2.000    1.200    0.000    4.400 
#    0.000    4.000    0.000    1.200    0.000    1.400 
#    0.000    0.000    0.000    0.000    0.000    2.000 
#
# Total GULP energy -495825.263547 kJ/mol
# GULP energy per Si atom -12395.631589 kJ/mol
# Density = 1.829648 g / cm^3
# Si number density = 18.338218 Si / 1000 Ang^3
#
#
#
# Elastic Constant Matrix: (Units=GPa)
#
#
# Indices 1 2 3 4 5 6 
#
# 1 148.8878 18.0011 72.5313 0.0000 0.0000 0.0000
# 2 18.0011 17.0142 21.3891 0.0000 0.0000 0.0000
# 3 72.5313 21.3891 149.3941 0.0000 0.0000 0.0000
# 4 0.0000 0.0000 0.0000 -0.1981 0.0000 0.0000
# 5 0.0000 0.0000 0.0000 0.0000 30.4097 0.0000
# 6 0.0000 0.0000 0.0000 0.0000 0.0000 11.4621
#
#
#
# Elastic Compliance Matrix: (Units=1/GPa)
#
#
# Indices 1 2 3 4 5 6 
#
# 1 0.009131 -0.004985 -0.003719 0.000000 0.000000 0.000000
# 2 -0.004985 0.074396 -0.008231 0.000000 0.000000 0.000000
# 3 -0.003719 -0.008231 0.009678 0.000000 0.000000 0.000000
# 4 0.000000 0.000000 0.000000 -5.047668 0.000000 0.000000
# 5 0.000000 0.000000 0.000000 0.000000 0.032884 0.000000
# 6 0.000000 0.000000 0.000000 0.000000 0.000000 0.087244
#
#
# Mechanical properties :
#
#
# Convention : Reuss Voigt Hill
#
# Bulk Modulus (GPa) = 16.85377 59.90436 38.37906
# Shear Modulus (GPa) = -1.04588 21.89303 10.42358
#
# Velocity S-wave (km/s) = -0.75602 3.45896 2.38672
# Velocity P-wave (km/s) = 2.90661 6.97781 5.34501
#
# Compressibility (1/GPa) = 0.05933392
#
# Stress axis : x y z
#
# Youngs Moduli (GPa) = 109.51552 13.44156 103.32680
#
# Poissons Ratio (x) = 0.06700 0.38432
# Poissons Ratio (y) = 0.54592 0.85052
# Poissons Ratio (z) = 0.40734 0.11064
#
# Static dielectric constant tensor:
#      x y z
#    x 3.620260 0.000000 0.000000 
#    y 0.000000 2.660770 0.000000 
#    z 0.000000 0.000000 3.531530 
# 
# 
# High freq. dielectric constant tensor:
#      x y z
#    x 1.730890 0.000000 0.000000 
#    y 0.000000 1.624520 0.000000 
#    z 0.000000 0.000000 1.712490 
# 
# From -- ./inp_files/33018.got.cif
#   From: 2010.03.12/outbox.cif.g09.slc.cpg/sg47_17_cif.got.tgz:33018.got - 2010.04.14 03:12:58.
