data_PCOD8195630
_publ_section_title
;
Structure prediction by ZEFSAII (Michael W. Deem and Ramdas Pophale) SiO2 
 PCOD8195630
Probable space group: P M M M
;
_chemical_formula_sum "Si O2"
_cell_formula_units_Z 64
_cell_length_a 8.805138
_cell_length_b 23.932229
_cell_length_c 19.287153
_cell_angle_alpha 90.000000
_cell_angle_beta 90.000000
_cell_angle_gamma 90.000000
_cell_volume 4064.315770
_symmetry_space_group_name_H-M "P M M M"
_symmetry_group_IT_number 47
_symmetry_cell_setting 'orthorhombic'
loop_
_space_group_symop_operation_xyz
x,y,z
-x,-y,z
x,-y,-z
-x,y,-z
-x,-y,-z
x,y,-z
-x,y,z
x,-y,z
loop_
_atom_site_type_symbol
_atom_site_label
_atom_site_fract_x
_atom_site_fract_y
_atom_site_fract_z
Si Si1 0.820542 0.840748 0.699610
Si Si2 0.677850 0.936537 0.785494
Si Si3 0.179457 0.242542 0.925428
Si Si4 0.674012 0.874998 0.923034
Si Si5 0.819048 0.328271 0.647856
Si Si6 0.323222 0.222338 0.579908
Si Si7 0.179851 0.731949 0.219952
Si Si8 0.180513 0.561187 0.421933
O O1 0.765097 0.899706 0.728944
O O2 0.748058 0.828130 0.624569
O O3 0.764819 0.791968 0.751750
O O4 0.000000 0.841524 0.690864
O O5 0.500000 0.929579 0.772110
O O6 0.719688 0.919658 0.864472
O O7 0.731227 0.000000 0.774859
O O8 0.218704 0.178134 0.913990
O O9 0.243776 0.277140 0.858694
O O10 0.000000 0.247998 0.927622
O O11 0.246583 0.263950 0.000000
O O12 0.500000 0.855468 0.913601
O O13 0.697360 0.901516 0.000000
O O14 0.753804 0.281647 0.596785
O O15 0.765048 0.316447 0.727262
O O16 0.755571 0.389392 0.626860
O O17 0.000000 0.325307 0.641648
O O18 0.293086 0.207840 0.500000
O O19 0.500000 0.227389 0.596988
O O20 0.000000 0.732253 0.217120
O O21 0.239949 0.571180 0.500000
O O22 0.236514 0.500000 0.395336
O O23 0.000000 0.562577 0.421622
#
# Coordination Sequence:
#
# PCOD8195630 Si02
#       8
#     8   8   8   8   8   8   8   8
#     4  10  19  32  49  66  85 109 140 177 214 255
#     4  10  20  32  46  64  87 115 144 175 213 257
#     4   9  15  24  39  56  78 108 138 170 211 256
#     4   9  17  28  42  61  84 111 144 177 207 245
#     4   9  16  26  42  63  88 115 145 182 216 250
#     4  10  20  32  47  68  92 114 136 168 212 262
#     4   8  14  24  38  59  81 102 133 173 213 250
#     4   8  13  21  35  57  84 114 148 183 217 252
#
# _framework density 15.746808
#
# number of rings (size 3 to 8) (size 9 to 14) (size 15 to 20)
#    0.000    2.875    1.250    2.250    0.000    2.000 
#    0.000    1.250    0.000    0.750    0.000    7.000 
#    0.000    0.500    0.000    7.000    0.000    0.000 
#
# Total GULP energy -793004.304729 kJ/mol
# GULP energy per Si atom -12390.692261 kJ/mol
# Density = 1.571097 g / cm^3
# Si number density = 15.746808 Si / 1000 Ang^3
#
#
#
# Elastic Constant Matrix: (Units=GPa)
#
#
# Indices 1 2 3 4 5 6 
#
# 1 27.0144 17.0848 28.8649 0.0000 0.0000 0.0000
# 2 17.0848 103.1788 73.1514 0.0000 0.0000 0.0000
# 3 28.8649 73.1514 141.6391 0.0000 0.0000 0.0000
# 4 0.0000 0.0000 0.0000 25.7283 0.0000 0.0000
# 5 0.0000 0.0000 0.0000 0.0000 16.1576 0.0000
# 6 0.0000 0.0000 0.0000 0.0000 0.0000 9.7407
#
#
#
# Elastic Compliance Matrix: (Units=1/GPa)
#
#
# Indices 1 2 3 4 5 6 
#
# 1 0.047485 -0.001581 -0.008861 0.000000 0.000000 0.000000
# 2 -0.001581 0.015343 -0.007602 0.000000 0.000000 0.000000
# 3 -0.008861 -0.007602 0.012792 0.000000 0.000000 0.000000
# 4 0.000000 0.000000 0.000000 0.038868 0.000000 0.000000
# 5 0.000000 0.000000 0.000000 0.000000 0.061891 0.000000
# 6 0.000000 0.000000 0.000000 0.000000 0.000000 0.102662
#
#
# Mechanical properties :
#
#
# Convention : Reuss Voigt Hill
#
# Bulk Modulus (GPa) = 25.29524 56.67050 40.98287
# Shear Modulus (GPa) = 15.22976 20.50740 17.86858
#
# Velocity S-wave (km/s) = 3.11330 3.61268 3.37225
# Velocity P-wave (km/s) = 5.38722 7.31223 6.42226
#
# Compressibility (1/GPa) = 0.03953313
#
# Stress axis : x y z
#
# Youngs Moduli (GPa) = 21.05950 65.17446 78.17294
#
# Poissons Ratio (x) = 0.10302 0.69266
# Poissons Ratio (y) = 0.03329 0.59428
# Poissons Ratio (z) = 0.18660 0.49547
#
# Static dielectric constant tensor:
#      x y z
#    x 2.799250 0.000000 0.000000 
#    y 0.000000 2.945060 0.000000 
#    z 0.000000 0.000000 3.467680 
# 
# 
# High freq. dielectric constant tensor:
#      x y z
#    x 1.585340 0.000000 0.000000 
#    y 0.000000 1.568900 0.000000 
#    z 0.000000 0.000000 1.611670 
# 
# From -- ./inp_files/11932.got.cif
#   From: 2010.03.12/outbox.cif.g09.slc.cpg/sg47_6_cif.got.tgz:11932.got - 2010.04.14 03:12:58.
