data_PCOD8195237
_publ_section_title
;
Structure prediction by ZEFSAII (Michael W. Deem and Ramdas Pophale) SiO2 
 PCOD8195237
Probable space group: P M M M
;
_chemical_formula_sum "Si O2"
_cell_formula_units_Z 64
_cell_length_a 14.308578
_cell_length_b 8.949979
_cell_length_c 26.136973
_cell_angle_alpha 90.000000
_cell_angle_beta 90.000000
_cell_angle_gamma 90.000000
_cell_volume 3347.139252
_symmetry_space_group_name_H-M "P M M M"
_symmetry_group_IT_number 47
_symmetry_cell_setting 'orthorhombic'
loop_
_space_group_symop_operation_xyz
x,y,z
-x,-y,z
x,-y,-z
-x,y,-z
-x,-y,-z
x,y,-z
-x,y,z
x,-y,z
loop_
_atom_site_type_symbol
_atom_site_label
_atom_site_fract_x
_atom_site_fract_y
_atom_site_fract_z
Si Si1 0.892702 0.175877 0.095884
Si Si2 0.391553 0.324806 0.749397
Si Si3 0.394730 0.177451 0.443864
Si Si4 0.889265 0.666480 0.802293
Si Si5 0.291504 0.173318 0.654801
Si Si6 0.104285 0.828632 0.298533
Si Si7 0.721929 0.671983 0.057314
Si Si8 0.609472 0.173968 0.146676
O O1 0.856205 0.227406 0.151723
O O2 0.826735 0.259740 0.055690
O O3 0.000000 0.223280 0.085858
O O4 0.880095 0.000000 0.090876
O O5 0.500000 0.283576 0.742840
O O6 0.374516 0.500000 0.752875
O O7 0.338110 0.261497 0.700800
O O8 0.351829 0.252393 0.801781
O O9 0.362821 0.237354 0.500000
O O10 0.500000 0.232324 0.432233
O O11 0.326985 0.239611 0.399407
O O12 0.391454 0.000000 0.444551
O O13 0.847361 0.500000 0.809077
O O14 0.855222 0.733647 0.748704
O O15 0.000000 0.661507 0.801673
O O16 0.178649 0.193602 0.655689
O O17 0.319667 0.000000 0.660503
O O18 0.000000 0.776735 0.315999
O O19 0.100615 0.000000 0.280546
O O20 0.726688 0.500000 0.074153
O O21 0.657120 0.760951 0.096266
O O22 0.680657 0.688024 0.000000
O O23 0.500000 0.205592 0.141084
O O24 0.632921 0.000000 0.150491
#
# Coordination Sequence:
#
# PCOD8195237 Si02
#       8
#     8   8   8   8   8   8   8   8
#     4  10  21  37  58  82 109 142 179 222 271 322
#     4  10  21  36  54  79 112 143 169 207 265 328
#     4   8  14  26  46  73 103 134 174 227 279 324
#     4   9  17  30  49  72  98 131 172 215 260 314
#     4  10  19  30  50  77 104 140 183 225 266 315
#     4   9  18  31  45  66 101 141 178 217 264 315
#     4  11  25  42  60  83 110 142 180 223 271 325
#     4  10  22  41  64  86 109 140 178 221 269 324
#
# _framework density 19.120806000000002
#
# number of rings (size 3 to 8) (size 9 to 14) (size 15 to 20)
#    0.000    2.375    0.000    2.625    1.750    6.250 
#    0.000    2.500    0.000    0.750    0.000    4.375 
#    0.000    0.000    0.000    4.250    0.000    4.625 
#
# Total GULP energy -793478.478218 kJ/mol
# GULP energy per Si atom -12398.101222 kJ/mol
# Density = 1.907729 g / cm^3
# Si number density = 19.120806 Si / 1000 Ang^3
#
#
#
# Elastic Constant Matrix: (Units=GPa)
#
#
# Indices 1 2 3 4 5 6 
#
# 1 67.9518 35.8696 63.7748 0.0000 0.0000 0.0000
# 2 35.8696 75.9867 40.9819 0.0000 0.0000 0.0000
# 3 63.7748 40.9819 137.4112 0.0000 0.0000 0.0000
# 4 0.0000 0.0000 0.0000 11.5236 0.0000 0.0000
# 5 0.0000 0.0000 0.0000 0.0000 31.3424 0.0000
# 6 0.0000 0.0000 0.0000 0.0000 0.0000 22.3842
#
#
#
# Elastic Compliance Matrix: (Units=1/GPa)
#
#
# Indices 1 2 3 4 5 6 
#
# 1 0.029498 -0.007795 -0.011366 0.000000 0.000000 0.000000
# 2 -0.007795 0.017742 -0.001674 0.000000 0.000000 0.000000
# 3 -0.011366 -0.001674 0.013052 0.000000 0.000000 0.000000
# 4 0.000000 0.000000 0.000000 0.086779 0.000000 0.000000
# 5 0.000000 0.000000 0.000000 0.000000 0.031906 0.000000
# 6 0.000000 0.000000 0.000000 0.000000 0.000000 0.044674
#
#
# Mechanical properties :
#
#
# Convention : Reuss Voigt Hill
#
# Bulk Modulus (GPa) = 53.69584 62.51136 58.10360
# Shear Modulus (GPa) = 18.41434 22.43159 20.42297
#
# Velocity S-wave (km/s) = 3.10668 3.42885 3.27173
# Velocity P-wave (km/s) = 6.40406 6.95987 6.68774
#
# Compressibility (1/GPa) = 0.01862342
#
# Stress axis : x y z
#
# Youngs Moduli (GPa) = 33.90050 56.36191 76.61809
#
# Poissons Ratio (x) = 0.43932 0.87083
# Poissons Ratio (y) = 0.26424 0.12825
# Poissons Ratio (z) = 0.38531 0.09435
#
# Static dielectric constant tensor:
#      x y z
#    x 3.619150 0.000000 0.000000 
#    y 0.000000 3.456560 0.000000 
#    z 0.000000 0.000000 3.609330 
# 
# 
# High freq. dielectric constant tensor:
#      x y z
#    x 1.744740 0.000000 0.000000 
#    y 0.000000 1.734920 0.000000 
#    z 0.000000 0.000000 1.729120 
# 
# From -- ./inp_files/21877.got.cif
#   From: 2010.03.12/outbox.cif.g09.slc.cpg/sg47_11_cif.got.tgz:21877.got - 2010.04.14 03:12:58.
