data_PCOD8195702
_publ_section_title
;
Structure prediction by ZEFSAII (Michael W. Deem and Ramdas Pophale) SiO2 
 PCOD8195702
Probable space group: P M M M
;
_chemical_formula_sum "Si O2"
_cell_formula_units_Z 36
_cell_length_a 9.872603
_cell_length_b 13.591517
_cell_length_c 16.342903
_cell_angle_alpha 90.000000
_cell_angle_beta 90.000000
_cell_angle_gamma 90.000000
_cell_volume 2192.950401
_symmetry_space_group_name_H-M "P M M M"
_symmetry_group_IT_number 47
_symmetry_cell_setting 'orthorhombic'
loop_
_space_group_symop_operation_xyz
x,y,z
-x,-y,z
x,-y,-z
-x,y,-z
-x,-y,-z
x,y,-z
-x,y,z
x,-y,z
loop_
_atom_site_type_symbol
_atom_site_label
_atom_site_fract_x
_atom_site_fract_y
_atom_site_fract_z
Si Si1 0.000000 0.886283 0.412525
Si Si2 0.500000 0.116639 0.405745
Si Si3 0.242948 0.202230 0.680292
Si Si4 0.655325 0.884437 0.000000
Si Si5 0.158960 0.388193 0.593332
Si Si6 0.159902 0.115686 0.152945
O O1 0.869903 0.859539 0.363556
O O2 0.000000 0.830362 0.500000
O O3 0.000000 0.000000 0.428792
O O4 0.500000 0.154796 0.500000
O O5 0.621349 0.157478 0.353205
O O6 0.500000 0.000000 0.405367
O O7 0.236391 0.317715 0.656954
O O8 0.220489 0.184926 0.776204
O O9 0.745886 0.852130 0.077308
O O10 0.500000 0.839538 0.000000
O O11 0.638970 0.000000 0.000000
O O12 0.205880 0.367806 0.500000
O O13 0.193688 0.500000 0.617738
O O14 0.000000 0.367627 0.601549
O O15 0.000000 0.137909 0.136372
O O16 0.177592 0.000000 0.174030
#
# Coordination Sequence:
#
# PCOD8195702 Si02
#       6
#     4   4   8   4   8   8
#     4  11  20  30  47  70  98 134 176 212 243 297
#     4  11  24  36  45  66 106 148 178 210 255 307
#     4  12  21  33  51  73 101 137 179 217 260 305
#     4   9  19  33  51  73 100 135 166 198 250 316
#     4   9  17  31  52  76 100 130 174 226 270 303
#     4  10  19  32  50  74 102 131 168 214 259 307
#
# _framework density 16.416239000000001
#
# number of rings (size 3 to 8) (size 9 to 14) (size 15 to 20)
#    0.000    1.667    2.222    5.000    1.556    3.111 
#    0.000    0.556    0.000    2.000    0.000    0.778 
#    0.000    4.444    0.000    0.000    0.000    0.000 
#
# Total GULP energy -446164.986985 kJ/mol
# GULP energy per Si atom -12393.471861 kJ/mol
# Density = 1.637888 g / cm^3
# Si number density = 16.416239 Si / 1000 Ang^3
#
#
#
# Elastic Constant Matrix: (Units=GPa)
#
#
# Indices 1 2 3 4 5 6 
#
# 1 129.9339 31.7302 64.8454 0.0000 0.0000 0.0000
# 2 31.7302 79.0460 45.6211 0.0000 0.0000 0.0000
# 3 64.8454 45.6211 140.9694 0.0000 0.0000 0.0000
# 4 0.0000 0.0000 0.0000 21.7437 0.0000 0.0000
# 5 0.0000 0.0000 0.0000 0.0000 39.0408 0.0000
# 6 0.0000 0.0000 0.0000 0.0000 0.0000 15.4895
#
#
#
# Elastic Compliance Matrix: (Units=1/GPa)
#
#
# Indices 1 2 3 4 5 6 
#
# 1 0.010172 -0.001700 -0.004129 0.000000 0.000000 0.000000
# 2 -0.001700 0.015841 -0.004344 0.000000 0.000000 0.000000
# 3 -0.004129 -0.004344 0.010399 0.000000 0.000000 0.000000
# 4 0.000000 0.000000 0.000000 0.045990 0.000000 0.000000
# 5 0.000000 0.000000 0.000000 0.000000 0.025614 0.000000
# 6 0.000000 0.000000 0.000000 0.000000 0.000000 0.064560
#
#
# Mechanical properties :
#
#
# Convention : Reuss Voigt Hill
#
# Bulk Modulus (GPa) = 62.24800 70.48253 66.36527
# Shear Modulus (GPa) = 25.21713 29.10496 27.16105
#
# Velocity S-wave (km/s) = 3.92357 4.21519 4.07200
# Velocity P-wave (km/s) = 7.65028 8.16813 7.91344
#
# Compressibility (1/GPa) = 0.01606477
#
# Stress axis : x y z
#
# Youngs Moduli (GPa) = 98.30936 63.12862 96.16393
#
# Poissons Ratio (x) = 0.10733 0.39704
# Poissons Ratio (y) = 0.16715 0.41777
# Poissons Ratio (z) = 0.40590 0.27425
#
# Static dielectric constant tensor:
#      x y z
#    x 3.160920 0.000000 0.000000 
#    y 0.000000 3.026050 0.000000 
#    z 0.000000 0.000000 3.953260 
# 
# 
# High freq. dielectric constant tensor:
#      x y z
#    x 1.636560 0.000000 0.000000 
#    y 0.000000 1.604900 0.000000 
#    z 0.000000 0.000000 1.627510 
# 
# From -- ./inp_files/5615.got.cif
#   From: 2010.03.12/outbox.cif.g09.slc.cpg/sg47_3_cif.got.tgz:5615.got - 2010.04.14 03:12:58.
