data_PCOD8195772
_publ_section_title
;
Structure prediction by ZEFSAII (Michael W. Deem and Ramdas Pophale) SiO2 
 PCOD8195772
Probable space group: P M M M
;
_chemical_formula_sum "Si O2"
_cell_formula_units_Z 48
_cell_length_a 9.109692
_cell_length_b 18.526324
_cell_length_c 16.156263
_cell_angle_alpha 90.000000
_cell_angle_beta 90.000000
_cell_angle_gamma 90.000000
_cell_volume 2726.678055
_symmetry_space_group_name_H-M "P M M M"
_symmetry_group_IT_number 47
_symmetry_cell_setting 'orthorhombic'
loop_
_space_group_symop_operation_xyz
x,y,z
-x,-y,z
x,-y,-z
-x,y,-z
-x,-y,-z
x,y,-z
-x,y,z
x,-y,z
loop_
_atom_site_type_symbol
_atom_site_label
_atom_site_fract_x
_atom_site_fract_y
_atom_site_fract_z
Si Si1 0.329135 0.082592 0.174948
Si Si2 0.169013 0.210798 0.904027
Si Si3 0.328474 0.701226 0.769752
Si Si4 0.826798 0.813137 0.500000
Si Si5 0.828079 0.583700 0.328977
Si Si6 0.174100 0.350725 0.500000
Si Si7 0.332064 0.161485 0.338859
O O1 0.500000 0.098487 0.157476
O O2 0.234905 0.131660 0.113513
O O3 0.293509 0.101363 0.270347
O O4 0.287554 0.000000 0.157726
O O5 0.255019 0.272712 0.854741
O O6 0.000000 0.210845 0.876143
O O7 0.186516 0.228908 0.000000
O O8 0.500000 0.690769 0.786115
O O9 0.257406 0.625872 0.742754
O O10 0.297573 0.759792 0.698417
O O11 0.766886 0.731072 0.500000
O O12 0.768354 0.853291 0.418393
O O13 0.000000 0.816882 0.500000
O O14 0.794121 0.500000 0.316570
O O15 0.767528 0.607971 0.418816
O O16 0.000000 0.600974 0.321078
O O17 0.000000 0.351742 0.500000
O O18 0.500000 0.155705 0.367142
#
# Coordination Sequence:
#
# PCOD8195772 Si02
#       7
#     8   8   8   4   8   4   8
#     4   9  19  36  56  78 105 137 171 207 252 306
#     4  10  21  36  56  82 108 133 165 206 253 307
#     4  10  20  34  53  75 102 136 174 214 255 304
#     4  11  19  28  48  72  96 132 177 222 259 296
#     4  10  19  32  51  75 106 142 177 214 258 306
#     4   9  17  29  46  72 104 138 176 216 255 299
#     4   9  18  32  49  70  97 132 173 215 256 299
#
# _framework density 17.603836999999999
#
# number of rings (size 3 to 8) (size 9 to 14) (size 15 to 20)
#    0.000    2.333    1.667    2.500    0.000    6.000 
#    0.000    2.500    0.000    4.000    0.000    3.500 
#    0.000    0.000    0.000    0.000    0.000    0.000 
#
# Total GULP energy -595323.345363 kJ/mol
# GULP energy per Si atom -12402.569695 kJ/mol
# Density = 1.756377 g / cm^3
# Si number density = 17.603837 Si / 1000 Ang^3
#
#
#
# Elastic Constant Matrix: (Units=GPa)
#
#
# Indices 1 2 3 4 5 6 
#
# 1 83.5462 38.3343 52.8514 0.0000 0.0000 0.0000
# 2 38.3343 83.2186 39.1964 0.0000 0.0000 0.0000
# 3 52.8514 39.1964 96.2532 0.0000 0.0000 0.0000
# 4 0.0000 0.0000 0.0000 18.3832 0.0000 0.0000
# 5 0.0000 0.0000 0.0000 0.0000 29.1308 0.0000
# 6 0.0000 0.0000 0.0000 0.0000 0.0000 27.3986
#
#
#
# Elastic Compliance Matrix: (Units=1/GPa)
#
#
# Indices 1 2 3 4 5 6 
#
# 1 0.019871 -0.004967 -0.008888 0.000000 0.000000 0.000000
# 2 -0.004967 0.016110 -0.003833 0.000000 0.000000 0.000000
# 3 -0.008888 -0.003833 0.016831 0.000000 0.000000 0.000000
# 4 0.000000 0.000000 0.000000 0.054397 0.000000 0.000000
# 5 0.000000 0.000000 0.000000 0.000000 0.034328 0.000000
# 6 0.000000 0.000000 0.000000 0.000000 0.000000 0.036498
#
#
# Mechanical properties :
#
#
# Convention : Reuss Voigt Hill
#
# Bulk Modulus (GPa) = 57.35589 58.19803 57.77696
# Shear Modulus (GPa) = 22.80770 23.82491 23.31631
#
# Velocity S-wave (km/s) = 3.60336 3.68284 3.64332
# Velocity P-wave (km/s) = 7.06856 7.15654 7.11268
#
# Compressibility (1/GPa) = 0.01743500
#
# Stress axis : x y z
#
# Youngs Moduli (GPa) = 50.32372 62.07329 59.41555
#
# Poissons Ratio (x) = 0.30833 0.52811
# Poissons Ratio (y) = 0.24997 0.22774
# Poissons Ratio (z) = 0.44730 0.23792
#
# Static dielectric constant tensor:
#      x y z
#    x 3.204350 0.000000 0.000000 
#    y 0.000000 3.170620 0.000000 
#    z 0.000000 0.000000 3.150110 
# 
# 
# High freq. dielectric constant tensor:
#      x y z
#    x 1.677820 0.000000 0.000000 
#    y 0.000000 1.665470 0.000000 
#    z 0.000000 0.000000 1.674860 
# 
# From -- ./inp_files/6387.got.cif
#   From: 2010.03.12/outbox.cif.g09.slc.cpg/sg47_4_cif.got.tgz:6387.got - 2010.04.14 03:12:58.
