data_PCOD8195021
_publ_section_title
;
Structure prediction by ZEFSAII (Michael W. Deem and Ramdas Pophale) SiO2 
 PCOD8195021
Probable space group: P M M M
;
_chemical_formula_sum "Si O2"
_cell_formula_units_Z 52
_cell_length_a 26.299555
_cell_length_b 13.687866
_cell_length_c 9.408887
_cell_angle_alpha 90.000000
_cell_angle_beta 90.000000
_cell_angle_gamma 90.000000
_cell_volume 3387.056161
_symmetry_space_group_name_H-M "P M M M"
_symmetry_group_IT_number 47
_symmetry_cell_setting 'orthorhombic'
loop_
_space_group_symop_operation_xyz
x,y,z
-x,-y,z
x,-y,-z
-x,y,-z
-x,-y,-z
x,y,-z
-x,y,z
x,-y,z
loop_
_atom_site_type_symbol
_atom_site_label
_atom_site_fract_x
_atom_site_fract_y
_atom_site_fract_z
Si Si1 0.708384 0.224814 0.333395
Si Si2 0.206968 0.886841 0.166353
Si Si3 0.393262 0.110657 0.335146
Si Si4 0.907527 0.884231 0.156784
Si Si5 0.655096 0.612533 0.834205
Si Si6 0.000000 0.883228 0.341133
Si Si7 0.556644 0.727899 0.163450
O O1 0.717547 0.242297 0.500000
O O2 0.758616 0.181354 0.263427
O O3 0.663266 0.148809 0.303963
O O4 0.695390 0.327768 0.259464
O O5 0.149301 0.855949 0.204986
O O6 0.216644 0.000000 0.204843
O O7 0.218189 0.868987 0.000000
O O8 0.406651 0.118503 0.500000
O O9 0.434645 0.173787 0.252095
O O10 0.396460 0.000000 0.280239
O O11 0.949478 0.841734 0.264517
O O12 0.911803 0.000000 0.149741
O O13 0.918734 0.841314 0.000000
O O14 0.660833 0.500000 0.792756
O O15 0.597497 0.644944 0.795394
O O16 0.666599 0.630801 0.000000
O O17 0.000000 0.841660 0.500000
O O18 0.000000 0.000000 0.340274
O O19 0.500000 0.687357 0.195767
O O20 0.562599 0.757442 0.000000
#
# Coordination Sequence:
#
# PCOD8195021 Si02
#       7
#     8   8   8   8   8   4   8
#     4  10  19  30  45  64  86 110 137 173 214 254
#     4   9  17  28  42  61  85 114 148 182 214 250
#     4   9  18  31  44  59  82 113 144 168 196 240
#     4   8  14  24  36  50  72 106 145 180 213 248
#     4   9  18  33  51  67  83 106 135 166 205 255
#     4   9  15  21  31  49  73 103 142 185 220 247
#     4   9  18  31  46  66  88 106 130 167 207 245
#
# _framework density 15.352565
#
# number of rings (size 3 to 8) (size 9 to 14) (size 15 to 20)
#    0.000    3.000    0.000    2.077    0.000    4.615 
#    0.000    4.615    0.000    0.000    0.000    4.308 
#    0.000    0.000    0.000    0.692    0.000   13.462 
#
# Total GULP energy -644688.052130 kJ/mol
# GULP energy per Si atom -12397.847156 kJ/mol
# Density = 1.531762 g / cm^3
# Si number density = 15.352565 Si / 1000 Ang^3
#
#
#
# Elastic Constant Matrix: (Units=GPa)
#
#
# Indices 1 2 3 4 5 6 
#
# 1 112.3179 42.2163 63.4090 0.0000 0.0000 0.0000
# 2 42.2163 82.2380 45.5371 0.0000 0.0000 0.0000
# 3 63.4090 45.5371 82.6032 0.0000 0.0000 0.0000
# 4 0.0000 0.0000 0.0000 18.7978 0.0000 0.0000
# 5 0.0000 0.0000 0.0000 0.0000 23.4488 0.0000
# 6 0.0000 0.0000 0.0000 0.0000 0.0000 11.8642
#
#
#
# Elastic Compliance Matrix: (Units=1/GPa)
#
#
# Indices 1 2 3 4 5 6 
#
# 1 0.015944 -0.002026 -0.011122 0.000000 0.000000 0.000000
# 2 -0.002026 0.017760 -0.008235 0.000000 0.000000 0.000000
# 3 -0.011122 -0.008235 0.025184 0.000000 0.000000 0.000000
# 4 0.000000 0.000000 0.000000 0.053198 0.000000 0.000000
# 5 0.000000 0.000000 0.000000 0.000000 0.042646 0.000000
# 6 0.000000 0.000000 0.000000 0.000000 0.000000 0.084287
#
#
# Mechanical properties :
#
#
# Convention : Reuss Voigt Hill
#
# Bulk Modulus (GPa) = 62.03294 64.38712 63.21003
# Shear Modulus (GPa) = 17.41194 19.22193 18.31694
#
# Velocity S-wave (km/s) = 3.37135 3.54225 3.45786
# Velocity P-wave (km/s) = 7.45976 7.66551 7.56333
#
# Compressibility (1/GPa) = 0.01612047
#
# Stress axis : x y z
#
# Youngs Moduli (GPa) = 62.72047 56.30619 39.70828
#
# Poissons Ratio (x) = 0.11408 0.44164
# Poissons Ratio (y) = 0.12708 0.32701
# Poissons Ratio (z) = 0.69758 0.46370
#
# Static dielectric constant tensor:
#      x y z
#    x 3.011960 0.000000 0.000000 
#    y 0.000000 2.646300 0.000000 
#    z 0.000000 0.000000 3.037200 
# 
# 
# High freq. dielectric constant tensor:
#      x y z
#    x 1.588160 0.000000 0.000000 
#    y 0.000000 1.543510 0.000000 
#    z 0.000000 0.000000 1.593660 
# 
# From -- ./inp_files/8029.got.cif
#   From: 2010.03.12/outbox.cif.g09.slc.cpg/sg47_5_cif.got.tgz:8029.got - 2010.04.14 03:12:58.
