data_PCOD8195015
_publ_section_title
;
Structure prediction by ZEFSAII (Michael W. Deem and Ramdas Pophale) SiO2 
 PCOD8195015
Probable space group: P M M M
;
_chemical_formula_sum "Si O2"
_cell_formula_units_Z 52
_cell_length_a 9.120207
_cell_length_b 13.780326
_cell_length_c 26.665239
_cell_angle_alpha 90.000000
_cell_angle_beta 90.000000
_cell_angle_gamma 90.000000
_cell_volume 3351.271922
_symmetry_space_group_name_H-M "P M M M"
_symmetry_group_IT_number 47
_symmetry_cell_setting 'orthorhombic'
loop_
_space_group_symop_operation_xyz
x,y,z
-x,-y,z
x,-y,-z
-x,y,-z
-x,-y,-z
x,y,-z
-x,y,z
x,-y,z
loop_
_atom_site_type_symbol
_atom_site_label
_atom_site_fract_x
_atom_site_fract_y
_atom_site_fract_z
Si Si1 0.169430 0.109331 0.616799
Si Si2 0.665588 0.115816 0.000000
Si Si3 0.329525 0.888878 0.804410
Si Si4 0.828414 0.709754 0.554662
Si Si5 0.173580 0.610312 0.654161
Si Si6 0.165174 0.115474 0.902989
Si Si7 0.672455 0.216494 0.297270
O O1 0.206836 0.179331 0.570186
O O2 0.267686 0.136716 0.664247
O O3 0.000000 0.122058 0.632725
O O4 0.204902 0.000000 0.599911
O O5 0.747323 0.156810 0.049174
O O6 0.500000 0.155358 0.000000
O O7 0.667308 0.000000 0.000000
O O8 0.500000 0.882603 0.817838
O O9 0.240883 0.848266 0.851981
O O10 0.288152 0.820484 0.758033
O O11 0.285993 0.000000 0.791631
O O12 0.754970 0.688828 0.500000
O O13 0.769491 0.637707 0.598047
O O14 0.000000 0.693304 0.549270
O O15 0.217446 0.500000 0.665849
O O16 0.251855 0.679026 0.694629
O O17 0.000000 0.627326 0.657865
O O18 0.000000 0.155744 0.904904
O O19 0.167230 0.000000 0.904599
O O20 0.500000 0.227300 0.305221
#
# Coordination Sequence:
#
# PCOD8195015 Si02
#       7
#     8   4   8   8   8   8   8
#     4   9  17  28  42  61  85 112 140 169 203 244
#     4   9  15  23  35  49  71 107 146 181 214 245
#     4   9  17  28  40  56  80 109 140 172 207 246
#     4   8  14  25  42  65  88 106 130 167 207 246
#     4   9  18  32  48  65  84 105 131 166 210 258
#     4   9  16  24  35  53  76 104 141 181 214 243
#     4  10  19  30  45  63  83 108 139 174 209 250
#
# _framework density 15.516496
#
# number of rings (size 3 to 8) (size 9 to 14) (size 15 to 20)
#    0.000    3.000    0.000    2.538    0.000    5.846 
#    0.000    4.615    0.000    7.385    0.000    8.615 
#    0.000    0.000    0.000    0.692    0.000   13.000 
#
# Total GULP energy -644594.575954 kJ/mol
# GULP energy per Si atom -12396.049538 kJ/mol
# Density = 1.548118 g / cm^3
# Si number density = 15.516496 Si / 1000 Ang^3
#
#
#
# Elastic Constant Matrix: (Units=GPa)
#
#
# Indices 1 2 3 4 5 6 
#
# 1 68.5957 28.0977 57.0674 0.0000 0.0000 0.0000
# 2 28.0977 78.2315 38.7163 0.0000 0.0000 0.0000
# 3 57.0674 38.7163 128.4970 0.0000 0.0000 0.0000
# 4 0.0000 0.0000 0.0000 10.8563 0.0000 0.0000
# 5 0.0000 0.0000 0.0000 0.0000 21.2568 0.0000
# 6 0.0000 0.0000 0.0000 0.0000 0.0000 15.7088
#
#
#
# Elastic Compliance Matrix: (Units=1/GPa)
#
#
# Indices 1 2 3 4 5 6 
#
# 1 0.024117 -0.003950 -0.009520 0.000000 0.000000 0.000000
# 2 -0.003950 0.015670 -0.002967 0.000000 0.000000 0.000000
# 3 -0.009520 -0.002967 0.012904 0.000000 0.000000 0.000000
# 4 0.000000 0.000000 0.000000 0.092113 0.000000 0.000000
# 5 0.000000 0.000000 0.000000 0.000000 0.047044 0.000000
# 6 0.000000 0.000000 0.000000 0.000000 0.000000 0.063659
#
#
# Mechanical properties :
#
#
# Convention : Reuss Voigt Hill
#
# Bulk Modulus (GPa) = 50.46518 58.12078 54.29298
# Shear Modulus (GPa) = 16.94999 19.66056 18.30528
#
# Velocity S-wave (km/s) = 3.30871 3.56346 3.43845
# Velocity P-wave (km/s) = 6.86957 7.38036 7.12954
#
# Compressibility (1/GPa) = 0.01981564
#
# Stress axis : x y z
#
# Youngs Moduli (GPa) = 41.46533 63.81761 77.49325
#
# Poissons Ratio (x) = 0.25209 0.73776
# Poissons Ratio (y) = 0.16379 0.22992
# Poissons Ratio (z) = 0.39476 0.18934
#
# Static dielectric constant tensor:
#      x y z
#    x 2.910390 0.000000 0.000000 
#    y 0.000000 2.722490 0.000000 
#    z 0.000000 0.000000 3.075710 
# 
# 
# High freq. dielectric constant tensor:
#      x y z
#    x 1.587450 0.000000 0.000000 
#    y 0.000000 1.553120 0.000000 
#    z 0.000000 0.000000 1.594910 
# 
# From -- ./inp_files/8026.got.cif
#   From: 2010.03.12/outbox.cif.g09.slc.cpg/sg47_5_cif.got.tgz:8026.got - 2010.04.14 03:12:58.
