data_PCOD8195944
_publ_section_title
;
Structure prediction by ZEFSAII (Michael W. Deem and Ramdas Pophale) SiO2 
 PCOD8195944
Probable space group: P M M M
;
_chemical_formula_sum "Si O2"
_cell_formula_units_Z 44
_cell_length_a 15.571614
_cell_length_b 17.359454
_cell_length_c 9.236791
_cell_angle_alpha 90.000000
_cell_angle_beta 90.000000
_cell_angle_gamma 90.000000
_cell_volume 2496.840545
_symmetry_space_group_name_H-M "P M M M"
_symmetry_group_IT_number 47
_symmetry_cell_setting 'orthorhombic'
loop_
_space_group_symop_operation_xyz
x,y,z
-x,-y,z
x,-y,-z
-x,y,-z
-x,-y,-z
x,y,-z
-x,y,z
x,-y,z
loop_
_atom_site_type_symbol
_atom_site_label
_atom_site_fract_x
_atom_site_fract_y
_atom_site_fract_z
Si Si1 0.097882 0.000000 0.157887
Si Si2 0.095926 0.414035 0.171776
Si Si3 0.822083 0.131257 0.335005
Si Si4 0.629183 0.914595 0.663184
Si Si5 0.222748 0.717529 0.828001
Si Si6 0.407117 0.234833 0.832207
O O1 0.114213 0.076170 0.250516
O O2 0.000000 0.000000 0.119403
O O3 0.146854 0.000000 0.000000
O O4 0.115117 0.500000 0.231308
O O5 0.171877 0.358037 0.227983
O O6 0.000000 0.387610 0.223319
O O7 0.097341 0.415153 0.000000
O O8 0.853132 0.144116 0.500000
O O9 0.731118 0.089728 0.330986
O O10 0.821688 0.212058 0.252370
O O11 0.596369 0.901808 0.500000
O O12 0.587845 0.848740 0.759960
O O13 0.601553 0.000000 0.717722
O O14 0.324614 0.714079 0.781641
O O15 0.212903 0.727862 0.000000
O O16 0.500000 0.276229 0.800579
O O17 0.395862 0.218265 0.000000
#
# Coordination Sequence:
#
# PCOD8195944 Si02
#       6
#     4   8   8   8   8   8
#     4  11  23  35  47  65  90 123 164 205 241 280
#     4   8  14  26  47  75 101 121 147 190 240 287
#     4  10  19  33  49  66  91 123 159 198 242 288
#     4   9  17  30  46  63  84 113 151 196 243 285
#     4   9  17  30  49  71  94 125 159 193 237 286
#     4   9  18  30  42  61  90 123 158 193 232 280
#
# _framework density 17.62227
#
# number of rings (size 3 to 8) (size 9 to 14) (size 15 to 20)
#    0.000    2.818    0.909    1.364    0.000    3.273 
#    0.000    3.636    0.000    1.091    0.000    5.091 
#    0.000    0.000    0.000    9.091    0.000    9.455 
#
# Total GULP energy -545122.951417 kJ/mol
# GULP energy per Si atom -12389.157987 kJ/mol
# Density = 1.758216 g / cm^3
# Si number density = 17.622270 Si / 1000 Ang^3
#
#
#
# Elastic Constant Matrix: (Units=GPa)
#
#
# Indices 1 2 3 4 5 6 
#
# 1 118.3261 74.3860 28.3223 0.0000 0.0000 0.0000
# 2 74.3860 113.6617 28.5617 0.0000 0.0000 0.0000
# 3 28.3223 28.5617 48.8785 0.0000 0.0000 0.0000
# 4 0.0000 0.0000 0.0000 -6.2606 0.0000 0.0000
# 5 0.0000 0.0000 0.0000 0.0000 9.1224 0.0000
# 6 0.0000 0.0000 0.0000 0.0000 0.0000 9.7256
#
#
#
# Elastic Compliance Matrix: (Units=1/GPa)
#
#
# Indices 1 2 3 4 5 6 
#
# 1 0.014832 -0.008846 -0.003425 0.000000 0.000000 0.000000
# 2 -0.008846 0.015588 -0.003983 0.000000 0.000000 0.000000
# 3 -0.003425 -0.003983 0.024771 0.000000 0.000000 0.000000
# 4 0.000000 0.000000 0.000000 -0.159730 0.000000 0.000000
# 5 0.000000 0.000000 0.000000 0.000000 0.109620 0.000000
# 6 0.000000 0.000000 0.000000 0.000000 0.000000 0.102821
#
#
# Mechanical properties :
#
#
# Convention : Reuss Voigt Hill
#
# Bulk Modulus (GPa) = 44.08650 60.37849 52.23250
# Shear Modulus (GPa) = 33.78996 12.49058 23.14027
#
# Velocity S-wave (km/s) = 4.38363 2.66521 3.62764
# Velocity P-wave (km/s) = 7.11993 6.61877 6.87392
#
# Compressibility (1/GPa) = 0.02268268
#
# Stress axis : x y z
#
# Youngs Moduli (GPa) = 67.42028 64.15028 40.36971
#
# Poissons Ratio (x) = 0.56749 0.13828
# Poissons Ratio (y) = 0.59642 0.16079
# Poissons Ratio (z) = 0.23093 0.25551
#
# Static dielectric constant tensor:
#      x y z
#    x 3.536490 0.000000 0.000000 
#    y 0.000000 3.249200 0.000000 
#    z 0.000000 0.000000 3.169120 
# 
# 
# High freq. dielectric constant tensor:
#      x y z
#    x 1.687800 0.000000 0.000000 
#    y 0.000000 1.653730 0.000000 
#    z 0.000000 0.000000 1.664020 
# 
# From -- ./inp_files/6139.got.cif
#   From: 2010.03.12/outbox.cif.g09.slc.cpg/sg47_4_cif.got.tgz:6139.got - 2010.04.14 03:12:58.
