data_PCOD8195368
_publ_section_title
;
Structure prediction by ZEFSAII (Michael W. Deem and Ramdas Pophale) SiO2 
 PCOD8195368
Probable space group: P M M M
;
_chemical_formula_sum "Si O2"
_cell_formula_units_Z 52
_cell_length_a 12.671436
_cell_length_b 9.229184
_cell_length_c 27.604309
_cell_angle_alpha 90.000000
_cell_angle_beta 90.000000
_cell_angle_gamma 90.000000
_cell_volume 3228.241522
_symmetry_space_group_name_H-M "P M M M"
_symmetry_group_IT_number 47
_symmetry_cell_setting 'orthorhombic'
loop_
_space_group_symop_operation_xyz
x,y,z
-x,-y,z
x,-y,-z
-x,y,-z
-x,-y,-z
x,y,-z
-x,y,z
x,-y,z
loop_
_atom_site_type_symbol
_atom_site_label
_atom_site_fract_x
_atom_site_fract_y
_atom_site_fract_z
Si Si1 0.230480 0.833293 0.872897
Si Si2 0.000000 0.669098 0.229966
Si Si3 0.376510 0.832181 0.301626
Si Si4 0.626138 0.338482 0.500000
Si Si5 0.228103 0.326950 0.771059
Si Si6 0.625247 0.839611 0.590226
Si Si7 0.000000 0.161388 0.864543
Si Si8 0.621210 0.665470 0.943866
O O1 0.245275 0.744858 0.823312
O O2 0.109864 0.820666 0.893997
O O3 0.307274 0.772955 0.913447
O O4 0.260082 0.000000 0.862541
O O5 0.112920 0.722007 0.251625
O O6 0.000000 0.500000 0.232851
O O7 0.000000 0.712992 0.174390
O O8 0.500000 0.807252 0.293458
O O9 0.316790 0.728280 0.265014
O O10 0.343000 0.785385 0.356144
O O11 0.347251 0.000000 0.292624
O O12 0.670409 0.500000 0.500000
O O13 0.500000 0.334761 0.500000
O O14 0.671703 0.263338 0.451559
O O15 0.236868 0.500000 0.776688
O O16 0.500000 0.845279 0.586696
O O17 0.671091 0.000000 0.581210
O O18 0.000000 0.000000 0.840279
O O19 0.500000 0.690554 0.929037
O O20 0.653866 0.500000 0.933139
O O21 0.637932 0.702167 0.000000
#
# Coordination Sequence:
#
# PCOD8195368 Si02
#       8
#     8   4   8   4   8   8   4   8
#     4  10  19  32  51  72  93 117 147 182 219 263
#     4   8  16  30  46  65  87 113 147 185 222 259
#     4   9  18  31  44  61  89 122 153 185 221 262
#     4   9  15  21  33  55  79 104 141 186 221 253
#     4  10  19  31  48  68  91 119 150 184 222 265
#     4   8  14  25  39  53  75 111 148 179 215 259
#     4   8  16  30  47  69  94 117 141 175 220 261
#     4   9  19  36  54  70  91 119 150 185 222 258
#
# _framework density 16.107839999999999
#
# number of rings (size 3 to 8) (size 9 to 14) (size 15 to 20)
#    0.000    3.000    0.000    2.538    0.000    4.308 
#    0.000    2.692    0.000    2.308    0.000    0.000 
#    0.000    0.615    0.000    6.923    0.000    5.231 
#
# Total GULP energy -644203.559677 kJ/mol
# GULP energy per Si atom -12388.529994 kJ/mol
# Density = 1.607118 g / cm^3
# Si number density = 16.107840 Si / 1000 Ang^3
#
#
#
# Elastic Constant Matrix: (Units=GPa)
#
#
# Indices 1 2 3 4 5 6 
#
# 1 71.3002 42.3674 50.3037 0.0000 0.0000 0.0000
# 2 42.3674 74.1424 56.2636 0.0000 0.0000 0.0000
# 3 50.3037 56.2636 88.6145 0.0000 0.0000 0.0000
# 4 0.0000 0.0000 0.0000 26.7177 0.0000 0.0000
# 5 0.0000 0.0000 0.0000 0.0000 -2.9977 0.0000
# 6 0.0000 0.0000 0.0000 0.0000 0.0000 19.9479
#
#
#
# Elastic Compliance Matrix: (Units=1/GPa)
#
#
# Indices 1 2 3 4 5 6 
#
# 1 0.025054 -0.006801 -0.009905 0.000000 0.000000 0.000000
# 2 -0.006801 0.027874 -0.013838 0.000000 0.000000 0.000000
# 3 -0.009905 -0.013838 0.025693 0.000000 0.000000 0.000000
# 4 0.000000 0.000000 0.000000 0.037428 0.000000 0.000000
# 5 0.000000 0.000000 0.000000 0.000000 -0.333589 0.000000
# 6 0.000000 0.000000 0.000000 0.000000 0.000000 0.050131
#
#
# Mechanical properties :
#
#
# Convention : Reuss Voigt Hill
#
# Bulk Modulus (GPa) = 57.02524 59.10294 58.06409
# Shear Modulus (GPa) = -49.76275 14.40841 -17.67717
#
# Velocity S-wave (km/s) = -5.56422 2.99406 -3.31634
# Velocity P-wave (km/s) = 2.40868 6.98027 4.63263
#
# Compressibility (1/GPa) = 0.01753609
#
# Stress axis : x y z
#
# Youngs Moduli (GPa) = 39.91368 35.87511 38.92065
#
# Poissons Ratio (x) = 0.24397 0.38549
# Poissons Ratio (y) = 0.27143 0.53857
# Poissons Ratio (z) = 0.39533 0.49643
#
# Static dielectric constant tensor:
#      x y z
#    x 3.098590 0.000000 0.000000 
#    y 0.000000 3.163390 0.000000 
#    z 0.000000 0.000000 2.934840 
# 
# 
# High freq. dielectric constant tensor:
#      x y z
#    x 1.596830 0.000000 0.000000 
#    y 0.000000 1.627890 0.000000 
#    z 0.000000 0.000000 1.600370 
# 
# From -- ./inp_files/34571.got.cif
#   From: 2010.03.12/outbox.cif.g09.slc.cpg/sg47_18_cif.got.tgz:34571.got - 2010.04.14 03:12:58.
