data_PCOD8195830
_publ_section_title
;
Structure prediction by ZEFSAII (Michael W. Deem and Ramdas Pophale) SiO2 
 PCOD8195830
Probable space group: P M M M
;
_chemical_formula_sum "Si O2"
_cell_formula_units_Z 52
_cell_length_a 14.416942
_cell_length_b 24.931886
_cell_length_c 7.956878
_cell_angle_alpha 90.000000
_cell_angle_beta 90.000000
_cell_angle_gamma 90.000000
_cell_volume 2860.032597
_symmetry_space_group_name_H-M "P M M M"
_symmetry_group_IT_number 47
_symmetry_cell_setting 'orthorhombic'
loop_
_space_group_symop_operation_xyz
x,y,z
-x,-y,z
x,-y,-z
-x,y,-z
-x,-y,-z
x,y,-z
-x,y,z
x,-y,z
loop_
_atom_site_type_symbol
_atom_site_label
_atom_site_fract_x
_atom_site_fract_y
_atom_site_fract_z
Si Si1 0.212145 0.261652 0.808359
Si Si2 0.397356 0.904050 0.307526
Si Si3 0.791639 0.059637 0.808943
Si Si4 0.602510 0.214676 0.802659
Si Si5 0.890873 0.634318 0.804412
Si Si6 0.890222 0.440230 0.500000
Si Si7 0.895637 0.160754 0.308805
O O1 0.316933 0.254677 0.735138
O O2 0.158455 0.312130 0.729826
O O3 0.156567 0.206103 0.795705
O O4 0.221541 0.277147 0.000000
O O5 0.385970 0.921431 0.500000
O O6 0.500000 0.920123 0.240397
O O7 0.319583 0.934296 0.200910
O O8 0.384464 0.840341 0.296201
O O9 0.844105 0.103678 0.698847
O O10 0.819107 0.000000 0.746034
O O11 0.822954 0.067676 0.000000
O O12 0.500000 0.239353 0.767576
O O13 0.616269 0.202603 0.000000
O O14 0.858194 0.588210 0.674311
O O15 0.000000 0.644933 0.791447
O O16 0.865179 0.619868 0.000000
O O17 0.847200 0.500000 0.500000
O O18 0.000000 0.443056 0.500000
O O19 0.896312 0.180123 0.500000
O O20 0.000000 0.154396 0.238886
#
# Coordination Sequence:
#
# PCOD8195830 Si02
#       7
#     8   8   8   8   8   4   8
#     4  10  19  32  52  77 106 138 170 208 254 304
#     4  10  20  34  53  76 100 125 156 198 250 307
#     4  11  24  40  56  73  94 124 164 208 253 307
#     4   9  17  30  50  75 103 134 165 199 245 304
#     4   9  18  31  48  74 107 143 182 222 261 302
#     4   9  18  32  50  74 107 147 186 222 260 303
#     4  11  24  38  54  76  98 126 163 205 258 313
#
# _framework density 18.181611
#
# number of rings (size 3 to 8) (size 9 to 14) (size 15 to 20)
#    0.000    2.077    1.538    1.846    1.077    4.923 
#    0.000    4.615    0.000    0.000    0.000    0.000 
#    0.000    1.231    0.000    6.000    0.000    0.154 
#
# Total GULP energy -644521.848485 kJ/mol
# GULP energy per Si atom -12394.650932 kJ/mol
# Density = 1.814023 g / cm^3
# Si number density = 18.181611 Si / 1000 Ang^3
#
#
#
# Elastic Constant Matrix: (Units=GPa)
#
#
# Indices 1 2 3 4 5 6 
#
# 1 97.3170 43.2772 15.1751 0.0000 0.0000 0.0000
# 2 43.2772 115.2203 26.8716 0.0000 0.0000 0.0000
# 3 15.1751 26.8716 50.4935 0.0000 0.0000 0.0000
# 4 0.0000 0.0000 0.0000 22.7369 0.0000 0.0000
# 5 0.0000 0.0000 0.0000 0.0000 18.5006 0.0000
# 6 0.0000 0.0000 0.0000 0.0000 0.0000 18.2742
#
#
#
# Elastic Compliance Matrix: (Units=1/GPa)
#
#
# Indices 1 2 3 4 5 6 
#
# 1 0.012426 -0.004334 -0.001428 0.000000 0.000000 0.000000
# 2 -0.004334 0.011421 -0.004775 0.000000 0.000000 0.000000
# 3 -0.001428 -0.004775 0.022775 0.000000 0.000000 0.000000
# 4 0.000000 0.000000 0.000000 0.043981 0.000000 0.000000
# 5 0.000000 0.000000 0.000000 0.000000 0.054052 0.000000
# 6 0.000000 0.000000 0.000000 0.000000 0.000000 0.054722
#
#
# Mechanical properties :
#
#
# Convention : Reuss Voigt Hill
#
# Bulk Modulus (GPa) = 39.14382 48.18651 43.66517
# Shear Modulus (GPa) = 21.83721 23.74948 22.79334
#
# Velocity S-wave (km/s) = 3.46939 3.61811 3.54453
# Velocity P-wave (km/s) = 6.13392 6.63436 6.38904
#
# Compressibility (1/GPa) = 0.02554682
#
# Stress axis : x y z
#
# Youngs Moduli (GPa) = 80.47795 87.56085 43.90794
#
# Poissons Ratio (x) = 0.37950 0.06269
# Poissons Ratio (y) = 0.34880 0.20967
# Poissons Ratio (z) = 0.11491 0.41812
#
# Static dielectric constant tensor:
#      x y z
#    x 3.595080 0.000000 0.000000 
#    y 0.000000 3.267150 0.000000 
#    z 0.000000 0.000000 3.292970 
# 
# 
# High freq. dielectric constant tensor:
#      x y z
#    x 1.697480 0.000000 0.000000 
#    y 0.000000 1.670500 0.000000 
#    z 0.000000 0.000000 1.705710 
# 
# From -- ./inp_files/6964.got.cif
#   From: 2010.03.12/outbox.cif.g09.slc.cpg/sg47_4_cif.got.tgz:6964.got - 2010.04.14 03:12:58.
