data_PCOD8195203
_publ_section_title
;
Structure prediction by ZEFSAII (Michael W. Deem and Ramdas Pophale) SiO2 
 PCOD8195203
Probable space group: P M M M
;
_chemical_formula_sum "Si O2"
_cell_formula_units_Z 60
_cell_length_a 18.809775
_cell_length_b 20.747389
_cell_length_c 8.869725
_cell_angle_alpha 90.000000
_cell_angle_beta 90.000000
_cell_angle_gamma 90.000000
_cell_volume 3461.443167
_symmetry_space_group_name_H-M "P M M M"
_symmetry_group_IT_number 47
_symmetry_cell_setting 'orthorhombic'
loop_
_space_group_symop_operation_xyz
x,y,z
-x,-y,z
x,-y,-z
-x,y,-z
-x,-y,-z
x,y,-z
-x,y,z
x,-y,z
loop_
_atom_site_type_symbol
_atom_site_label
_atom_site_fract_x
_atom_site_fract_y
_atom_site_fract_z
Si Si1 0.581314 0.245202 0.674409
Si Si2 0.920046 0.861221 0.172430
Si Si3 0.706138 0.819870 0.174590
Si Si4 0.919853 0.724843 0.676229
Si Si5 0.204666 0.926701 0.325988
Si Si6 0.581291 0.500000 0.821426
Si Si7 0.783074 0.686686 0.175568
Si Si8 0.654992 0.621599 0.675741
O O1 0.594216 0.228838 0.500000
O O2 0.500000 0.236771 0.721981
O O3 0.626172 0.195549 0.774257
O O4 0.604133 0.318084 0.709139
O O5 0.910190 0.797906 0.271566
O O6 0.867772 0.915916 0.233207
O O7 0.000000 0.888286 0.184625
O O8 0.900479 0.843688 0.000000
O O9 0.732834 0.880974 0.267576
O O10 0.756671 0.759122 0.209619
O O11 0.706439 0.837809 0.000000
O O12 0.903500 0.721320 0.500000
O O13 0.863610 0.679676 0.763384
O O14 0.000000 0.700779 0.712892
O O15 0.189531 0.911766 0.500000
O O16 0.229433 0.000000 0.301219
O O17 0.500000 0.500000 0.762591
O O18 0.621562 0.562189 0.761970
O O19 0.583816 0.500000 0.000000
O O20 0.733881 0.635535 0.262102
O O21 0.780557 0.670172 0.000000
O O22 0.660237 0.605440 0.500000
#
# Coordination Sequence:
#
# PCOD8195203 Si02
#       8
#     8   8   8   8   8   4   8   8
#     4   9  18  33  54  79 105 133 166 206 251 300
#     4  10  20  33  49  70  97 130 167 208 256 308
#     4  10  20  33  51  74  99 129 163 206 257 307
#     4  10  19  30  48  74 103 136 172 213 261 309
#     4  11  23  36  51  70  94 128 169 211 256 310
#     4  11  23  37  53  77 114 153 184 217 257 301
#     4  10  19  32  51  76 105 136 173 216 262 308
#     4  10  20  34  54  79 108 144 182 216 250 297
#
# _framework density 17.333811000000001
#
# number of rings (size 3 to 8) (size 9 to 14) (size 15 to 20)
#    0.000    1.933    1.333    3.000    0.000    5.867 
#    0.000    1.333    0.000    0.400    0.000    3.267 
#    0.000    3.733    0.000    0.000    0.000    0.000 
#
# Total GULP energy -744193.908436 kJ/mol
# GULP energy per Si atom -12403.231807 kJ/mol
# Density = 1.729436 g / cm^3
# Si number density = 17.333811 Si / 1000 Ang^3
#
#
#
# Elastic Constant Matrix: (Units=GPa)
#
#
# Indices 1 2 3 4 5 6 
#
# 1 126.9973 48.4453 47.4926 0.0000 0.0000 0.0000
# 2 48.4453 71.1611 34.3919 0.0000 0.0000 0.0000
# 3 47.4926 34.3919 71.1295 0.0000 0.0000 0.0000
# 4 0.0000 0.0000 0.0000 24.9111 0.0000 0.0000
# 5 0.0000 0.0000 0.0000 0.0000 32.7937 0.0000
# 6 0.0000 0.0000 0.0000 0.0000 0.0000 14.4690
#
#
#
# Elastic Compliance Matrix: (Units=1/GPa)
#
#
# Indices 1 2 3 4 5 6 
#
# 1 0.011993 -0.005604 -0.005298 0.000000 0.000000 0.000000
# 2 -0.005604 0.020957 -0.006391 0.000000 0.000000 0.000000
# 3 -0.005298 -0.006391 0.020686 0.000000 0.000000 0.000000
# 4 0.000000 0.000000 0.000000 0.040143 0.000000 0.000000
# 5 0.000000 0.000000 0.000000 0.000000 0.030494 0.000000
# 6 0.000000 0.000000 0.000000 0.000000 0.000000 0.069113
#
#
# Mechanical properties :
#
#
# Convention : Reuss Voigt Hill
#
# Bulk Modulus (GPa) = 52.49369 58.88304 55.68837
# Shear Modulus (GPa) = 21.33812 23.69862 22.51837
#
# Velocity S-wave (km/s) = 3.51238 3.70157 3.60821
# Velocity P-wave (km/s) = 6.84097 7.23274 7.03958
#
# Compressibility (1/GPa) = 0.01904991
#
# Stress axis : x y z
#
# Youngs Moduli (GPa) = 83.37937 47.71766 48.34095
#
# Poissons Ratio (x) = 0.26743 0.25612
# Poissons Ratio (y) = 0.46729 0.30894
# Poissons Ratio (z) = 0.44175 0.30495
#
# Static dielectric constant tensor:
#      x y z
#    x 3.401310 0.000000 0.000000 
#    y 0.000000 2.911030 0.000000 
#    z 0.000000 0.000000 3.348920 
# 
# 
# High freq. dielectric constant tensor:
#      x y z
#    x 1.675620 0.000000 0.000000 
#    y 0.000000 1.631970 0.000000 
#    z 0.000000 0.000000 1.686770 
# 
# From -- ./inp_files/10066.got.cif
#   From: 2010.03.12/outbox.cif.g09.slc.cpg/sg47_6_cif.got.tgz:10066.got - 2010.04.14 03:12:58.
