data_PCOD8195265
_publ_section_title
;
Structure prediction by ZEFSAII (Michael W. Deem and Ramdas Pophale) SiO2 
 PCOD8195265
Probable space group: P M M M
;
_chemical_formula_sum "Si O2"
_cell_formula_units_Z 44
_cell_length_a 18.954312
_cell_length_b 20.853645
_cell_length_c 8.232810
_cell_angle_alpha 90.000000
_cell_angle_beta 90.000000
_cell_angle_gamma 90.000000
_cell_volume 3254.153942
_symmetry_space_group_name_H-M "P M M M"
_symmetry_group_IT_number 47
_symmetry_cell_setting 'orthorhombic'
loop_
_space_group_symop_operation_xyz
x,y,z
-x,-y,z
x,-y,-z
-x,y,-z
-x,-y,-z
x,y,-z
-x,y,z
x,-y,z
loop_
_atom_site_type_symbol
_atom_site_label
_atom_site_fract_x
_atom_site_fract_y
_atom_site_fract_z
Si Si1 0.419334 0.423713 0.000000
Si Si2 0.081479 0.069041 0.309882
Si Si3 0.082643 0.199797 0.816574
Si Si4 0.808500 0.427745 0.814151
Si Si5 0.338993 0.576006 0.318969
Si Si6 0.919068 0.668029 0.313832
O O1 0.384664 0.395853 0.832434
O O2 0.411742 0.500000 0.000000
O O3 0.500000 0.401282 0.000000
O O4 0.089849 0.077873 0.500000
O O5 0.118724 0.131228 0.228310
O O6 0.000000 0.066745 0.258867
O O7 0.115410 0.000000 0.255746
O O8 0.110587 0.259497 0.710055
O O9 0.000000 0.191806 0.783633
O O10 0.100887 0.217136 0.000000
O O11 0.831124 0.500000 0.766047
O O12 0.742709 0.404411 0.705544
O O13 0.875054 0.381950 0.791010
O O14 0.783266 0.425494 0.000000
O O15 0.362864 0.601059 0.500000
O O16 0.346541 0.500000 0.314944
O O17 0.912345 0.648364 0.500000
O O18 0.000000 0.664522 0.253091
#
# Coordination Sequence:
#
# PCOD8195265 Si02
#       6
#     4   8   8   8   8   8
#     4   9  16  26  40  60  83 101 119 143 173 212
#     4   8  13  21  33  48  65  85 107 130 162 209
#     4   9  16  25  36  49  66  86 108 139 180 222
#     4  10  19  31  45  57  71  92 120 155 194 235
#     4   9  16  27  42  58  77 100 123 146 177 218
#     4  10  20  31  41  53  69  90 119 156 197 238
#
# _framework density 13.521179
#
# number of rings (size 3 to 8) (size 9 to 14) (size 15 to 20)
#    0.000    2.818    0.909    2.182    0.000    5.455 
#    0.000    5.455    0.000    0.000    0.000    0.000 
#    0.000    0.000    0.000    0.000    0.000    0.000 
#
# Total GULP energy -545132.204511 kJ/mol
# GULP energy per Si atom -12389.368284 kJ/mol
# Density = 1.349040 g / cm^3
# Si number density = 13.521179 Si / 1000 Ang^3
#
#
#
# Elastic Constant Matrix: (Units=GPa)
#
#
# Indices 1 2 3 4 5 6 
#
# 1 42.5550 25.8906 26.4687 0.0000 0.0000 0.0000
# 2 25.8906 65.6000 24.8573 0.0000 0.0000 0.0000
# 3 26.4687 24.8573 66.9283 0.0000 0.0000 0.0000
# 4 0.0000 0.0000 0.0000 18.4140 0.0000 0.0000
# 5 0.0000 0.0000 0.0000 0.0000 14.2886 0.0000
# 6 0.0000 0.0000 0.0000 0.0000 0.0000 0.0857
#
#
#
# Elastic Compliance Matrix: (Units=1/GPa)
#
#
# Indices 1 2 3 4 5 6 
#
# 1 0.036348 -0.010356 -0.010529 0.000000 0.000000 0.000000
# 2 -0.010356 0.020691 -0.003589 0.000000 0.000000 0.000000
# 3 -0.010529 -0.003589 0.020438 0.000000 0.000000 0.000000
# 4 0.000000 0.000000 0.000000 0.054307 0.000000 0.000000
# 5 0.000000 0.000000 0.000000 0.000000 0.069986 0.000000
# 6 0.000000 0.000000 0.000000 0.000000 0.000000 11.661974
#
#
# Mechanical properties :
#
#
# Convention : Reuss Voigt Hill
#
# Bulk Modulus (GPa) = 35.05100 36.61295 35.83198
# Shear Modulus (GPa) = 0.41939 13.08212 6.75075
#
# Velocity S-wave (km/s) = 0.55753 3.11389 2.23686
# Velocity P-wave (km/s) = 5.13749 6.32972 5.76451
#
# Compressibility (1/GPa) = 0.02852986
#
# Stress axis : x y z
#
# Youngs Moduli (GPa) = 27.51149 48.32968 48.92797
#
# Poissons Ratio (x) = 0.50051 0.51515
# Poissons Ratio (y) = 0.28492 0.17561
# Poissons Ratio (z) = 0.28966 0.17346
#
# Static dielectric constant tensor:
#      x y z
#    x 2.300670 0.000000 0.000000 
#    y 0.000000 2.689040 0.000000 
#    z 0.000000 0.000000 2.846130 
# 
# 
# High freq. dielectric constant tensor:
#      x y z
#    x 1.452100 0.000000 0.000000 
#    y 0.000000 1.491420 0.000000 
#    z 0.000000 0.000000 1.532920 
# 
# From -- ./inp_files/6842.got.cif
#   From: 2010.03.12/outbox.cif.g09.slc.cpg/sg47_4_cif.got.tgz:6842.got - 2010.04.14 03:12:58.
