data_PCOD8195291
_publ_section_title
;
Structure prediction by ZEFSAII (Michael W. Deem and Ramdas Pophale) SiO2 
 PCOD8195291
Probable space group: P M M M
;
_chemical_formula_sum "Si O2"
_cell_formula_units_Z 40
_cell_length_a 8.988969
_cell_length_b 16.721580
_cell_length_c 18.275478
_cell_angle_alpha 90.000000
_cell_angle_beta 90.000000
_cell_angle_gamma 90.000000
_cell_volume 2746.982790
_symmetry_space_group_name_H-M "P M M M"
_symmetry_group_IT_number 47
_symmetry_cell_setting 'orthorhombic'
loop_
_space_group_symop_operation_xyz
x,y,z
-x,-y,z
x,-y,-z
-x,y,-z
-x,-y,-z
x,y,-z
-x,y,z
x,-y,z
loop_
_atom_site_type_symbol
_atom_site_label
_atom_site_fract_x
_atom_site_fract_y
_atom_site_fract_z
Si Si1 0.176837 0.318719 0.632717
Si Si2 0.670042 0.405342 0.500000
Si Si3 0.832258 0.000000 0.586816
Si Si4 0.673349 0.839395 0.413826
Si Si5 0.174840 0.590312 0.777606
Si Si6 0.668339 0.594985 0.079629
O O1 0.246436 0.374437 0.571105
O O2 0.242433 0.230078 0.629276
O O3 0.226061 0.355202 0.710243
O O4 0.000000 0.316347 0.622471
O O5 0.675197 0.500000 0.500000
O O6 0.500000 0.373370 0.500000
O O7 0.743972 0.922175 0.614243
O O8 0.836670 0.000000 0.500000
O O9 0.000000 0.000000 0.618611
O O10 0.699076 0.826388 0.500000
O O11 0.500000 0.839261 0.394106
O O12 0.235996 0.500000 0.765438
O O13 0.236533 0.629183 0.852778
O O14 0.000000 0.588631 0.784331
O O15 0.500000 0.624101 0.090369
O O16 0.677945 0.500000 0.080391
O O17 0.727739 0.625627 0.000000
#
# Coordination Sequence:
#
# PCOD8195291 Si02
#       6
#     8   4   4   8   8   8
#     4  11  21  32  46  61  82 111 145 182 218 255
#     4  11  23  35  45  58  77 106 147 189 225 257
#     4   9  17  29  47  67  85 105 134 167 209 260
#     4  10  19  31  46  64  86 108 137 175 215 257
#     4   9  18  30  42  59  82 109 143 180 217 254
#     4   8  14  25  41  60  80 103 133 169 210 256
#
# _framework density 14.56143
#
# number of rings (size 3 to 8) (size 9 to 14) (size 15 to 20)
#    0.000    2.400    1.000    3.000    0.000    5.600 
#    0.000    4.000    0.000    0.000    0.000    0.000 
#    0.000    0.000    0.000    0.900    0.000   16.800 
#
# Total GULP energy -495903.407917 kJ/mol
# GULP energy per Si atom -12397.585198 kJ/mol
# Density = 1.452829 g / cm^3
# Si number density = 14.561430 Si / 1000 Ang^3
#
#
#
# Elastic Constant Matrix: (Units=GPa)
#
#
# Indices 1 2 3 4 5 6 
#
# 1 76.5443 41.5707 48.7221 0.0000 0.0000 0.0000
# 2 41.5707 84.8565 47.1151 0.0000 0.0000 0.0000
# 3 48.7221 47.1151 117.1800 0.0000 0.0000 0.0000
# 4 0.0000 0.0000 0.0000 -31.1953 0.0000 0.0000
# 5 0.0000 0.0000 0.0000 0.0000 18.9586 0.0000
# 6 0.0000 0.0000 0.0000 0.0000 0.0000 23.7220
#
#
#
# Elastic Compliance Matrix: (Units=1/GPa)
#
#
# Indices 1 2 3 4 5 6 
#
# 1 0.020427 -0.006812 -0.005754 0.000000 0.000000 0.000000
# 2 -0.006812 0.017443 -0.004181 0.000000 0.000000 0.000000
# 3 -0.005754 -0.004181 0.012608 0.000000 0.000000 0.000000
# 4 0.000000 0.000000 0.000000 -0.032056 0.000000 0.000000
# 5 0.000000 0.000000 0.000000 0.000000 0.052746 0.000000
# 6 0.000000 0.000000 0.000000 0.000000 0.000000 0.042155
#
#
# Mechanical properties :
#
#
# Convention : Reuss Voigt Hill
#
# Bulk Modulus (GPa) = 58.88337 61.48852 60.18595
# Shear Modulus (GPa) = 32.79162 11.70861 22.25011
#
# Velocity S-wave (km/s) = 4.75062 2.83871 3.91323
# Velocity P-wave (km/s) = 8.40339 7.28444 7.86384
#
# Compressibility (1/GPa) = 0.01698272
#
# Stress axis : x y z
#
# Youngs Moduli (GPa) = 48.95598 57.32885 79.31751
#
# Poissons Ratio (x) = 0.39052 0.45641
# Poissons Ratio (y) = 0.33348 0.33164
# Poissons Ratio (z) = 0.28170 0.23970
#
# Static dielectric constant tensor:
#      x y z
#    x 2.971960 0.000000 0.000000 
#    y 0.000000 2.728850 0.000000 
#    z 0.000000 0.000000 2.978680 
# 
# 
# High freq. dielectric constant tensor:
#      x y z
#    x 1.569730 0.000000 0.000000 
#    y 0.000000 1.529090 0.000000 
#    z 0.000000 0.000000 1.536180 
# 
# From -- ./inp_files/26637.got.cif
#   From: 2010.03.12/outbox.cif.g09.slc.cpg/sg47_14_cif.got.tgz:26637.got - 2010.04.14 03:12:58.
