data_PCOD8195214
_publ_section_title
;
Structure prediction by ZEFSAII (Michael W. Deem and Ramdas Pophale) SiO2 
 PCOD8195214
Probable space group: P M M M
;
_chemical_formula_sum "Si O2"
_cell_formula_units_Z 48
_cell_length_a 9.793904
_cell_length_b 34.157049
_cell_length_c 7.690119
_cell_angle_alpha 90.000000
_cell_angle_beta 90.000000
_cell_angle_gamma 90.000000
_cell_volume 2572.582114
_symmetry_space_group_name_H-M "P M M M"
_symmetry_group_IT_number 47
_symmetry_cell_setting 'orthorhombic'
loop_
_space_group_symop_operation_xyz
x,y,z
-x,-y,z
x,-y,-z
-x,y,-z
-x,-y,-z
x,y,-z
-x,y,z
x,-y,z
loop_
_atom_site_type_symbol
_atom_site_label
_atom_site_fract_x
_atom_site_fract_y
_atom_site_fract_z
Si Si1 0.838029 0.456419 0.306725
Si Si2 0.656790 0.264105 0.299609
Si Si3 0.343259 0.324909 0.000000
Si Si4 0.347632 0.043434 0.793235
Si Si5 0.151224 0.109176 0.797649
Si Si6 0.847120 0.194183 0.704965
Si Si7 0.163193 0.401188 0.000000
O O1 0.788792 0.443968 0.500000
O O2 0.782397 0.500000 0.261807
O O3 0.784365 0.425033 0.168327
O O4 0.000000 0.457684 0.299082
O O5 0.692306 0.275390 0.500000
O O6 0.500000 0.250767 0.283628
O O7 0.686629 0.300708 0.175445
O O8 0.748306 0.228406 0.228214
O O9 0.237511 0.360052 0.000000
O O10 0.500000 0.339699 0.000000
O O11 0.500000 0.050906 0.720996
O O12 0.247830 0.076216 0.710932
O O13 0.297528 0.000000 0.737087
O O14 0.349794 0.046609 0.000000
O O15 0.212606 0.152436 0.766658
O O16 0.000000 0.106676 0.712362
O O17 0.140673 0.100470 0.000000
O O18 0.851347 0.194978 0.500000
O O19 0.000000 0.200531 0.781683
O O20 0.000000 0.394863 0.000000
#
# Coordination Sequence:
#
# PCOD8195214 Si02
#       7
#     8   8   4   8   8   8   4
#     4   8  14  26  46  73 104 135 167 208 255 295
#     4   9  19  36  54  70  91 123 163 201 238 288
#     4  10  22  37  51  71 100 134 167 201 248 298
#     4   8  14  25  40  59  85 115 146 181 219 259
#     4   9  17  27  41  65  91 113 140 177 222 272
#     4   9  18  32  49  69  93 119 146 184 236 285
#     4  10  19  30  48  76 102 128 168 211 247 290
#
# _framework density 18.658297000000001
#
# number of rings (size 3 to 8) (size 9 to 14) (size 15 to 20)
#    0.000    3.167    0.000    1.250    1.167    3.333 
#    0.000    1.667    0.000    1.500    0.000    4.667 
#    0.000    0.000    0.000    0.000    0.000    0.000 
#
# Total GULP energy -594918.257856 kJ/mol
# GULP energy per Si atom -12394.130372 kJ/mol
# Density = 1.861583 g / cm^3
# Si number density = 18.658297 Si / 1000 Ang^3
#
#
#
# Elastic Constant Matrix: (Units=GPa)
#
#
# Indices 1 2 3 4 5 6 
#
# 1 73.5846 78.7348 31.0479 0.0000 0.0000 0.0000
# 2 78.7348 160.6691 56.1295 0.0000 0.0000 0.0000
# 3 31.0479 56.1295 69.1238 0.0000 0.0000 0.0000
# 4 0.0000 0.0000 0.0000 -62.0728 0.0000 0.0000
# 5 0.0000 0.0000 0.0000 0.0000 11.9128 0.0000
# 6 0.0000 0.0000 0.0000 0.0000 0.0000 17.8204
#
#
#
# Elastic Compliance Matrix: (Units=1/GPa)
#
#
# Indices 1 2 3 4 5 6 
#
# 1 0.028779 -0.013384 -0.002059 0.000000 0.000000 0.000000
# 2 -0.013384 0.014913 -0.006098 0.000000 0.000000 0.000000
# 3 -0.002059 -0.006098 0.020343 0.000000 0.000000 0.000000
# 4 0.000000 0.000000 0.000000 -0.016110 0.000000 0.000000
# 5 0.000000 0.000000 0.000000 0.000000 0.083943 0.000000
# 6 0.000000 0.000000 0.000000 0.000000 0.000000 0.056115
#
#
# Mechanical properties :
#
#
# Convention : Reuss Voigt Hill
#
# Bulk Modulus (GPa) = 47.72325 70.57798 59.15061
# Shear Modulus (GPa) = 21.00410 2.69645 11.85028
#
# Velocity S-wave (km/s) = 3.35882 1.20346 2.52289
# Velocity P-wave (km/s) = 6.37772 6.31188 6.34488
#
# Compressibility (1/GPa) = 0.02095415
#
# Stress axis : x y z
#
# Youngs Moduli (GPa) = 34.74776 67.05618 49.15664
#
# Poissons Ratio (x) = 0.89746 0.10120
# Poissons Ratio (y) = 0.46505 0.29976
# Poissons Ratio (z) = 0.07153 0.40891
#
# Static dielectric constant tensor:
#      x y z
#    x 3.518610 0.000000 0.000000 
#    y 0.000000 3.469150 0.000000 
#    z 0.000000 0.000000 3.436290 
# 
# 
# High freq. dielectric constant tensor:
#      x y z
#    x 1.698090 0.000000 0.000000 
#    y 0.000000 1.719760 0.000000 
#    z 0.000000 0.000000 1.718780 
# 
# From -- ./inp_files/2798.got.cif
#   From: 2010.03.12/outbox.cif.g09.slc.cpg/sg47_2_cif.got.tgz:2798.got - 2010.04.14 03:12:58.
