data_PCOD8195779
_publ_section_title
;
Structure prediction by ZEFSAII (Michael W. Deem and Ramdas Pophale) SiO2 
 PCOD8195779
Probable space group: P M M M
;
_chemical_formula_sum "Si O2"
_cell_formula_units_Z 52
_cell_length_a 11.666277
_cell_length_b 31.092729
_cell_length_c 9.084407
_cell_angle_alpha 90.000000
_cell_angle_beta 90.000000
_cell_angle_gamma 90.000000
_cell_volume 3295.244993
_symmetry_space_group_name_H-M "P M M M"
_symmetry_group_IT_number 47
_symmetry_cell_setting 'orthorhombic'
loop_
_space_group_symop_operation_xyz
x,y,z
-x,-y,z
x,-y,-z
-x,y,-z
-x,-y,-z
x,y,-z
-x,y,z
x,-y,z
loop_
_atom_site_type_symbol
_atom_site_label
_atom_site_fract_x
_atom_site_fract_y
_atom_site_fract_z
Si Si1 0.500000 0.549920 0.174740
Si Si2 0.136325 0.251526 0.834369
Si Si3 0.863341 0.000000 0.666390
Si Si4 0.136736 0.168120 0.666253
Si Si5 0.274965 0.420259 0.326425
Si Si6 0.868665 0.336738 0.671605
Si Si7 0.873484 0.500000 0.325530
Si Si8 0.136637 0.915951 0.166344
O O1 0.500000 0.500000 0.227391
O O2 0.607928 0.575507 0.238066
O O3 0.500000 0.552793 0.000000
O O4 0.185463 0.210654 0.745858
O O5 0.177987 0.295355 0.758253
O O6 0.000000 0.249741 0.833408
O O7 0.184439 0.249952 0.000000
O O8 0.816241 0.042112 0.749520
O O9 0.816270 0.000000 0.500000
O O10 0.000000 0.000000 0.666401
O O11 0.183636 0.167050 0.500000
O O12 0.183544 0.126370 0.751705
O O13 0.000000 0.168372 0.667048
O O14 0.299878 0.423781 0.500000
O O15 0.213356 0.375892 0.284762
O O16 0.192173 0.457972 0.270374
O O17 0.861140 0.326052 0.500000
O O18 0.000000 0.348154 0.714629
O O19 0.882913 0.500000 0.500000
O O20 0.000000 0.500000 0.255077
O O21 0.000000 0.916028 0.166357
O O22 0.183771 0.916259 0.000000
#
# Coordination Sequence:
#
# PCOD8195779 Si02
#       8
#     4   8   4   8   8   8   4   8
#     4  11  23  37  51  67  91 119 147 179 211 242
#     4   9  16  25  37  53  74 101 128 153 187 236
#     4   9  15  21  27  35  49  71 101 139 185 234
#     4   9  15  22  32  45  61  83 113 150 189 230
#     4  10  19  32  52  72  90 114 145 176 206 245
#     4   9  17  29  45  67  91 111 133 166 208 251
#     4   9  16  27  47  74  96 113 138 173 208 243
#     4   9  15  21  28  38  53  74 103 141 186 236
#
# _framework density 15.780314000000001
#
# number of rings (size 3 to 8) (size 9 to 14) (size 15 to 20)
#    0.000    2.692    0.769    2.308    0.000    9.231 
#    0.000    0.000    0.000    1.846    0.000    0.000 
#    0.000    0.000    0.000    0.000    0.000    0.000 
#
# Total GULP energy -644742.397576 kJ/mol
# GULP energy per Si atom -12398.892261 kJ/mol
# Density = 1.574440 g / cm^3
# Si number density = 15.780314 Si / 1000 Ang^3
#
#
#
# Elastic Constant Matrix: (Units=GPa)
#
#
# Indices 1 2 3 4 5 6 
#
# 1 52.3297 36.4049 26.0755 0.0000 0.0000 0.0000
# 2 36.4049 166.3534 81.6630 0.0000 0.0000 0.0000
# 3 26.0755 81.6630 115.0115 0.0000 0.0000 0.0000
# 4 0.0000 0.0000 0.0000 28.5251 0.0000 0.0000
# 5 0.0000 0.0000 0.0000 0.0000 7.3065 0.0000
# 6 0.0000 0.0000 0.0000 0.0000 0.0000 -9.7943
#
#
#
# Elastic Compliance Matrix: (Units=1/GPa)
#
#
# Indices 1 2 3 4 5 6 
#
# 1 0.023007 -0.003798 -0.002519 0.000000 0.000000 0.000000
# 2 -0.003798 0.009855 -0.006136 0.000000 0.000000 0.000000
# 3 -0.002519 -0.006136 0.013623 0.000000 0.000000 0.000000
# 4 0.000000 0.000000 0.000000 0.035057 0.000000 0.000000
# 5 0.000000 0.000000 0.000000 0.000000 0.136865 0.000000
# 6 0.000000 0.000000 0.000000 0.000000 0.000000 -0.102101
#
#
# Mechanical properties :
#
#
# Convention : Reuss Voigt Hill
#
# Bulk Modulus (GPa) = 46.34442 69.10904 57.72673
# Shear Modulus (GPa) = 33.69127 17.84421 25.76774
#
# Velocity S-wave (km/s) = 4.62564 3.36637 4.04530
# Velocity P-wave (km/s) = 7.61321 7.68111 7.64724
#
# Compressibility (1/GPa) = 0.02157757
#
# Stress axis : x y z
#
# Youngs Moduli (GPa) = 43.46439 101.47410 73.40585
#
# Poissons Ratio (x) = 0.38542 0.18494
# Poissons Ratio (y) = 0.16509 0.45043
# Poissons Ratio (z) = 0.10950 0.62266
#
# Static dielectric constant tensor:
#      x y z
#    x 2.432760 0.000000 0.000000 
#    y 0.000000 3.191260 0.000000 
#    z 0.000000 0.000000 3.076760 
# 
# 
# High freq. dielectric constant tensor:
#      x y z
#    x 1.523270 0.000000 0.000000 
#    y 0.000000 1.622230 0.000000 
#    z 0.000000 0.000000 1.612000 
# 
# From -- ./inp_files/4866.got.cif
#   From: 2010.03.12/outbox.cif.g09.slc.cpg/sg47_3_cif.got.tgz:4866.got - 2010.04.14 03:12:58.
