data_PCOD8195034
_publ_section_title
;
Structure prediction by ZEFSAII (Michael W. Deem and Ramdas Pophale) SiO2 
 PCOD8195034
Probable space group: P M M M
;
_chemical_formula_sum "Si O2"
_cell_formula_units_Z 36
_cell_length_a 8.811238
_cell_length_b 20.511996
_cell_length_c 11.692727
_cell_angle_alpha 90.000000
_cell_angle_beta 90.000000
_cell_angle_gamma 90.000000
_cell_volume 2113.297626
_symmetry_space_group_name_H-M "P M M M"
_symmetry_group_IT_number 47
_symmetry_cell_setting 'orthorhombic'
loop_
_space_group_symop_operation_xyz
x,y,z
-x,-y,z
x,-y,-z
-x,y,-z
-x,-y,-z
x,y,-z
-x,y,z
x,-y,z
loop_
_atom_site_type_symbol
_atom_site_label
_atom_site_fract_x
_atom_site_fract_y
_atom_site_fract_z
Si Si1 0.665222 0.072606 0.500000
Si Si2 0.831124 0.629008 0.364767
Si Si3 0.326855 0.000000 0.864796
Si Si4 0.322083 0.236654 0.366606
Si Si5 0.820401 0.886768 0.725790
Si Si6 0.329304 0.500000 0.363366
O O1 0.500000 0.112265 0.500000
O O2 0.772199 0.083484 0.393535
O O3 0.609854 0.000000 0.500000
O O4 0.838437 0.622523 0.500000
O O5 0.735718 0.692343 0.330868
O O6 0.753009 0.564271 0.314015
O O7 0.000000 0.635149 0.313445
O O8 0.246551 0.933316 0.824061
O O9 0.500000 0.000000 0.819401
O O10 0.319796 0.000000 0.000000
O O11 0.279151 0.219104 0.500000
O O12 0.500000 0.235888 0.348660
O O13 0.246681 0.186590 0.276283
O O14 0.000000 0.884077 0.740250
O O15 0.500000 0.500000 0.316821
O O16 0.327202 0.500000 0.500000
#
# Coordination Sequence:
#
# PCOD8195034 Si02
#       6
#     4   8   4   8   8   4
#     4  11  21  33  51  73 100 127 156 191 236 292
#     4   9  16  25  37  55  82 115 156 200 238 276
#     4  11  25  44  61  74  93 125 163 199 240 293
#     4  10  19  30  45  65  94 127 158 195 240 291
#     4  12  23  34  53  76 100 125 156 200 247 291
#     4   9  15  23  35  51  75 113 160 197 232 277
#
# _framework density 17.034987999999998
#
# number of rings (size 3 to 8) (size 9 to 14) (size 15 to 20)
#    0.000    1.667    2.222    4.333    0.000    6.222 
#    0.000    0.000    0.000    0.000    0.000    0.000 
#    0.000    0.000    0.000    1.000    0.000   18.556 
#
# Total GULP energy -446180.932994 kJ/mol
# GULP energy per Si atom -12393.914805 kJ/mol
# Density = 1.699622 g / cm^3
# Si number density = 17.034988 Si / 1000 Ang^3
#
#
#
# Elastic Constant Matrix: (Units=GPa)
#
#
# Indices 1 2 3 4 5 6 
#
# 1 161.0091 76.5796 24.0701 0.0000 0.0000 0.0000
# 2 76.5796 157.1334 25.7615 0.0000 0.0000 0.0000
# 3 24.0701 25.7615 34.3426 0.0000 0.0000 0.0000
# 4 0.0000 0.0000 0.0000 -3.7180 0.0000 0.0000
# 5 0.0000 0.0000 0.0000 0.0000 15.6748 0.0000
# 6 0.0000 0.0000 0.0000 0.0000 0.0000 36.0293
#
#
#
# Elastic Compliance Matrix: (Units=1/GPa)
#
#
# Indices 1 2 3 4 5 6 
#
# 1 0.008383 -0.003560 -0.003205 0.000000 0.000000 0.000000
# 2 -0.003560 0.008768 -0.004082 0.000000 0.000000 0.000000
# 3 -0.003205 -0.004082 0.034427 0.000000 0.000000 0.000000
# 4 0.000000 0.000000 0.000000 -0.268961 0.000000 0.000000
# 5 0.000000 0.000000 0.000000 0.000000 0.063797 0.000000
# 6 0.000000 0.000000 0.000000 0.000000 0.000000 0.027755
#
#
# Mechanical properties :
#
#
# Convention : Reuss Voigt Hill
#
# Bulk Modulus (GPa) = 33.46308 67.25639 50.35974
# Shear Modulus (GPa) = -53.09298 24.66881 -14.21208
#
# Velocity S-wave (km/s) = -5.58880 3.80955 -2.89154
# Velocity P-wave (km/s) = 4.68613 7.67576 4.29869
#
# Compressibility (1/GPa) = 0.02988368
#
# Stress axis : x y z
#
# Youngs Moduli (GPa) = 119.28530 114.04677 29.04706
#
# Poissons Ratio (x) = 0.40602 0.09310
# Poissons Ratio (y) = 0.42467 0.11858
# Poissons Ratio (z) = 0.38232 0.46556
#
# Static dielectric constant tensor:
#      x y z
#    x 3.392550 0.000000 0.000000 
#    y 0.000000 3.556690 0.000000 
#    z 0.000000 0.000000 2.550970 
# 
# 
# High freq. dielectric constant tensor:
#      x y z
#    x 1.682300 0.000000 0.000000 
#    y 0.000000 1.679250 0.000000 
#    z 0.000000 0.000000 1.570220 
# 
# From -- ./inp_files/15054.got.cif
#   From: 2010.03.12/outbox.cif.g09.slc.cpg/sg47_8_cif.got.tgz:15054.got - 2010.04.14 03:12:58.
