data_PCOD8195432
_publ_section_title
;
Structure prediction by ZEFSAII (Michael W. Deem and Ramdas Pophale) SiO2 
 PCOD8195432
Probable space group: P M M M
;
_chemical_formula_sum "Si O2"
_cell_formula_units_Z 64
_cell_length_a 14.016203
_cell_length_b 9.356246
_cell_length_c 29.085351
_cell_angle_alpha 90.000000
_cell_angle_beta 90.000000
_cell_angle_gamma 90.000000
_cell_volume 3814.225103
_symmetry_space_group_name_H-M "P M M M"
_symmetry_group_IT_number 47
_symmetry_cell_setting 'orthorhombic'
loop_
_space_group_symop_operation_xyz
x,y,z
-x,-y,z
x,-y,-z
-x,y,-z
-x,-y,-z
x,y,-z
-x,y,z
x,-y,z
loop_
_atom_site_type_symbol
_atom_site_label
_atom_site_fract_x
_atom_site_fract_y
_atom_site_fract_z
Si Si1 0.219281 0.668307 0.551279
Si Si2 0.286433 0.333805 0.949947
Si Si3 0.891194 0.664925 0.892136
Si Si4 0.112053 0.659990 0.638878
Si Si5 0.603775 0.841824 0.445546
Si Si6 0.389621 0.669640 0.140516
Si Si7 0.220341 0.168959 0.182938
Si Si8 0.108790 0.834014 0.274512
O O1 0.194118 0.728826 0.500000
O O2 0.227069 0.500000 0.548260
O O3 0.141691 0.718871 0.588584
O O4 0.319125 0.727310 0.570761
O O5 0.305854 0.500000 0.955265
O O6 0.176417 0.305078 0.935924
O O7 0.358405 0.276559 0.910556
O O8 0.305317 0.260521 0.000000
O O9 0.879982 0.500000 0.876076
O O10 0.858628 0.768172 0.851361
O O11 0.000000 0.699801 0.905934
O O12 0.152344 0.500000 0.645759
O O13 0.150975 0.755599 0.680579
O O14 0.000000 0.662516 0.639898
O O15 0.598058 0.842415 0.500000
O O16 0.500000 0.798814 0.425371
O O17 0.632411 0.000000 0.427898
O O18 0.500000 0.709597 0.149009
O O19 0.372121 0.500000 0.145813
O O20 0.322913 0.753110 0.176927
O O21 0.180541 0.202868 0.233387
O O22 0.231892 0.000000 0.174294
O O23 0.000000 0.784488 0.262645
O O24 0.109116 0.000000 0.285840
#
# Coordination Sequence:
#
# PCOD8195432 Si02
#       8
#     8   8   8   8   8   8   8   8
#     4   9  17  28  43  65  92 121 152 185 220 258
#     4   8  14  25  42  66  94 122 155 194 232 269
#     4   9  17  28  43  66  95 124 154 189 229 273
#     4   9  18  31  46  66  92 122 154 184 216 258
#     4   8  14  25  41  61  84 110 142 180 220 259
#     4   9  18  32  49  70  95 121 152 192 235 276
#     4  10  19  31  49  71  93 117 148 187 231 280
#     4   9  18  32  49  69  92 117 145 180 224 270
#
# _framework density 16.779292999999999
#
# number of rings (size 3 to 8) (size 9 to 14) (size 15 to 20)
#    0.000    3.125    0.000    1.875    0.000    3.500 
#    0.000    6.250    0.000    6.750    0.000   10.500 
#    0.000    0.000    0.000    0.000    0.000    0.000 
#
# Total GULP energy -793048.375369 kJ/mol
# GULP energy per Si atom -12391.380865 kJ/mol
# Density = 1.674110 g / cm^3
# Si number density = 16.779293 Si / 1000 Ang^3
#
#
#
# Elastic Constant Matrix: (Units=GPa)
#
#
# Indices 1 2 3 4 5 6 
#
# 1 87.9947 31.3801 48.3743 0.0000 0.0000 0.0000
# 2 31.3801 40.2001 44.1452 0.0000 0.0000 0.0000
# 3 48.3743 44.1452 114.1380 0.0000 0.0000 0.0000
# 4 0.0000 0.0000 0.0000 14.8857 0.0000 0.0000
# 5 0.0000 0.0000 0.0000 0.0000 18.1877 0.0000
# 6 0.0000 0.0000 0.0000 0.0000 0.0000 22.5079
#
#
#
# Elastic Compliance Matrix: (Units=1/GPa)
#
#
# Indices 1 2 3 4 5 6 
#
# 1 0.016515 -0.009048 -0.003500 0.000000 0.000000 0.000000
# 2 -0.009048 0.048199 -0.014807 0.000000 0.000000 0.000000
# 3 -0.003500 -0.014807 0.015972 0.000000 0.000000 0.000000
# 4 0.000000 0.000000 0.000000 0.067178 0.000000 0.000000
# 5 0.000000 0.000000 0.000000 0.000000 0.054982 0.000000
# 6 0.000000 0.000000 0.000000 0.000000 0.000000 0.044429
#
#
# Mechanical properties :
#
#
# Convention : Reuss Voigt Hill
#
# Bulk Modulus (GPa) = 38.49842 54.45910 46.47876
# Shear Modulus (GPa) = 16.09563 19.01181 17.55372
#
# Velocity S-wave (km/s) = 3.10055 3.36974 3.23794
# Velocity P-wave (km/s) = 5.98428 6.90411 6.46059
#
# Compressibility (1/GPa) = 0.02597509
#
# Stress axis : x y z
#
# Youngs Moduli (GPa) = 60.55071 20.74745 62.61135
#
# Poissons Ratio (x) = 0.18773 0.21913
# Poissons Ratio (y) = 0.54788 0.92708
# Poissons Ratio (z) = 0.21192 0.30721
#
# Static dielectric constant tensor:
#      x y z
#    x 3.281470 0.000000 0.000000 
#    y 0.000000 3.101180 0.000000 
#    z 0.000000 0.000000 3.219870 
# 
# 
# High freq. dielectric constant tensor:
#      x y z
#    x 1.641030 0.000000 0.000000 
#    y 0.000000 1.630320 0.000000 
#    z 0.000000 0.000000 1.629840 
# 
# From -- ./inp_files/34696.got.cif
#   From: 2010.03.12/outbox.cif.g09.slc.cpg/sg47_18_cif.got.tgz:34696.got - 2010.04.14 03:12:58.
