data_PCOD8195118
_publ_section_title
;
Structure prediction by ZEFSAII (Michael W. Deem and Ramdas Pophale) SiO2 
 PCOD8195118
Probable space group: P M M M
;
_chemical_formula_sum "Si O2"
_cell_formula_units_Z 44
_cell_length_a 31.764173
_cell_length_b 7.822321
_cell_length_c 9.252253
_cell_angle_alpha 90.000000
_cell_angle_beta 90.000000
_cell_angle_gamma 90.000000
_cell_volume 2298.903209
_symmetry_space_group_name_H-M "P M M M"
_symmetry_group_IT_number 47
_symmetry_cell_setting 'orthorhombic'
loop_
_space_group_symop_operation_xyz
x,y,z
-x,-y,z
x,-y,-z
-x,y,-z
-x,-y,-z
x,y,-z
-x,y,z
x,-y,z
loop_
_atom_site_type_symbol
_atom_site_label
_atom_site_fract_x
_atom_site_fract_y
_atom_site_fract_z
Si Si1 0.156065 0.299836 0.837748
Si Si2 0.000000 0.204531 0.837785
Si Si3 0.395963 0.000000 0.672618
Si Si4 0.078074 0.803448 0.340989
Si Si5 0.692605 0.000000 0.827614
Si Si6 0.547064 0.689885 0.671457
Si Si7 0.250050 0.689309 0.171679
O O1 0.147385 0.500000 0.839198
O O2 0.123414 0.210374 0.732474
O O3 0.202959 0.261435 0.777221
O O4 0.150765 0.225425 0.000000
O O5 0.958654 0.279028 0.757105
O O6 0.000000 0.000000 0.842253
O O7 0.000000 0.278340 0.000000
O O8 0.351558 0.000000 0.749263
O O9 0.420856 0.167362 0.729192
O O10 0.390433 0.000000 0.500000
O O11 0.078914 0.715897 0.500000
O O12 0.066831 0.000000 0.360525
O O13 0.717329 0.831499 0.773032
O O14 0.686804 0.000000 0.000000
O O15 0.545793 0.698036 0.500000
O O16 0.500000 0.727771 0.730775
O O17 0.561703 0.500000 0.722161
O O18 0.262845 0.500000 0.230825
O O19 0.249492 0.683396 0.000000
#
# Coordination Sequence:
#
# PCOD8195118 Si02
#       7
#     8   4   4   8   4   8   8
#     4   9  18  33  53  75  95 118 157 207 249 286
#     4   9  17  31  50  71  96 129 168 204 236 277
#     4  10  19  30  46  72 102 128 159 209 256 293
#     4  10  20  32  48  73 103 132 158 191 240 298
#     4  10  20  33  51  73  98 135 173 202 248 307
#     4   8  14  26  46  71  97 128 168 210 251 296
#     4   8  16  32  52  73  96 124 165 213 250 289
#
# _framework density 19.139562000000002
#
# number of rings (size 3 to 8) (size 9 to 14) (size 15 to 20)
#    0.000    3.000    0.000    2.727    1.273    4.364 
#    0.000    1.364    0.000    4.909    0.000    1.273 
#    0.000    0.000    0.000    0.000    0.000    0.000 
#
# Total GULP energy -545356.750682 kJ/mol
# GULP energy per Si atom -12394.471606 kJ/mol
# Density = 1.909600 g / cm^3
# Si number density = 19.139562 Si / 1000 Ang^3
#
#
#
# Elastic Constant Matrix: (Units=GPa)
#
#
# Indices 1 2 3 4 5 6 
#
# 1 164.1671 78.1618 51.6704 0.0000 0.0000 0.0000
# 2 78.1618 101.0178 29.5161 0.0000 0.0000 0.0000
# 3 51.6704 29.5161 76.5666 0.0000 0.0000 0.0000
# 4 0.0000 0.0000 0.0000 9.9993 0.0000 0.0000
# 5 0.0000 0.0000 0.0000 0.0000 15.7083 0.0000
# 6 0.0000 0.0000 0.0000 0.0000 0.0000 -24.9551
#
#
#
# Elastic Compliance Matrix: (Units=1/GPa)
#
#
# Indices 1 2 3 4 5 6 
#
# 1 0.010934 -0.007105 -0.004640 0.000000 0.000000 0.000000
# 2 -0.007105 0.015772 -0.001286 0.000000 0.000000 0.000000
# 3 -0.004640 -0.001286 0.016688 0.000000 0.000000 0.000000
# 4 0.000000 0.000000 0.000000 0.100007 0.000000 0.000000
# 5 0.000000 0.000000 0.000000 0.000000 0.063661 0.000000
# 6 0.000000 0.000000 0.000000 0.000000 0.000000 -0.040072
#
#
# Mechanical properties :
#
#
# Convention : Reuss Voigt Hill
#
# Bulk Modulus (GPa) = 57.69275 73.38312 65.53794
# Shear Modulus (GPa) = 25.14737 12.31072 18.72904
#
# Velocity S-wave (km/s) = 3.62870 2.53891 3.13157
# Velocity P-wave (km/s) = 6.91124 6.85704 6.88420
#
# Compressibility (1/GPa) = 0.01733320
#
# Stress axis : x y z
#
# Youngs Moduli (GPa) = 91.45434 63.40343 59.92506
#
# Poissons Ratio (x) = 0.45046 0.27807
# Poissons Ratio (y) = 0.64975 0.07704
# Poissons Ratio (z) = 0.42437 0.08151
#
# Static dielectric constant tensor:
#      x y z
#    x 3.551920 0.000000 0.000000 
#    y 0.000000 3.700730 0.000000 
#    z 0.000000 0.000000 3.220100 
# 
# 
# High freq. dielectric constant tensor:
#      x y z
#    x 1.745290 0.000000 0.000000 
#    y 0.000000 1.741660 0.000000 
#    z 0.000000 0.000000 1.700800 
# 
# From -- ./inp_files/13717.got.cif
#   From: 2010.03.12/outbox.cif.g09.slc.cpg/sg47_7_cif.got.tgz:13717.got - 2010.04.14 03:12:58.
