data_PCOD8195102
_publ_section_title
;
Structure prediction by ZEFSAII (Michael W. Deem and Ramdas Pophale) SiO2 
 PCOD8195102
Probable space group: P M M M
;
_chemical_formula_sum "Si O2"
_cell_formula_units_Z 32
_cell_length_a 22.257330
_cell_length_b 9.520828
_cell_length_c 9.010954
_cell_angle_alpha 90.000000
_cell_angle_beta 90.000000
_cell_angle_gamma 90.000000
_cell_volume 1909.495139
_symmetry_space_group_name_H-M "P M M M"
_symmetry_group_IT_number 47
_symmetry_cell_setting 'orthorhombic'
loop_
_space_group_symop_operation_xyz
x,y,z
-x,-y,z
x,-y,-z
-x,y,-z
-x,-y,-z
x,y,-z
-x,y,z
x,-y,z
loop_
_atom_site_type_symbol
_atom_site_label
_atom_site_fract_x
_atom_site_fract_y
_atom_site_fract_z
Si Si1 0.500000 0.832398 0.667624
Si Si2 0.262614 0.166057 0.329698
Si Si3 0.834925 0.345174 0.168252
Si Si4 0.617895 0.167216 0.167390
Si Si5 0.930721 0.500000 0.324531
O O1 0.500000 0.775207 0.500000
O O2 0.558911 0.773655 0.750502
O O3 0.500000 0.000000 0.668710
O O4 0.264738 0.213392 0.500000
O O5 0.205389 0.232750 0.251475
O O6 0.323157 0.221846 0.252098
O O7 0.256683 0.000000 0.313515
O O8 0.803452 0.500000 0.169122
O O9 0.898985 0.360884 0.254068
O O10 0.846137 0.293691 0.000000
O O11 0.616365 0.000000 0.167905
O O12 0.619009 0.225592 0.000000
O O13 0.921554 0.500000 0.500000
O O14 0.000000 0.500000 0.278742
#
# Coordination Sequence:
#
# PCOD8195102 Si02
#       5
#     4   8   8   8   4
#     4   9  15  23  35  53  80 113 152 195 236 281
#     4  10  19  30  46  69  97 128 160 196 240 285
#     4   9  19  32  49  73  98 126 159 193 232 277
#     4   9  16  25  38  57  84 118 154 193 238 284
#     4   9  17  31  53  77  99 124 155 192 231 271
#
# _framework density 16.758355999999999
#
# number of rings (size 3 to 8) (size 9 to 14) (size 15 to 20)
#    0.750    2.000    0.000    2.625    0.000    7.000 
#    0.000    0.000    0.000    0.750    0.000    6.125 
#    0.000    7.000    0.000    0.000    0.000    0.000 
#
# Total GULP energy -396620.338861 kJ/mol
# GULP energy per Si atom -12394.385589 kJ/mol
# Density = 1.672021 g / cm^3
# Si number density = 16.758356 Si / 1000 Ang^3
#
#
#
# Elastic Constant Matrix: (Units=GPa)
#
#
# Indices 1 2 3 4 5 6 
#
# 1 161.0202 24.1390 92.4599 0.0000 0.0000 0.0000
# 2 24.1390 13.5144 24.4970 0.0000 0.0000 0.0000
# 3 92.4599 24.4970 175.5972 0.0000 0.0000 0.0000
# 4 0.0000 0.0000 0.0000 20.0564 0.0000 0.0000
# 5 0.0000 0.0000 0.0000 0.0000 30.7406 0.0000
# 6 0.0000 0.0000 0.0000 0.0000 0.0000 3.8344
#
#
#
# Elastic Compliance Matrix: (Units=1/GPa)
#
#
# Indices 1 2 3 4 5 6 
#
# 1 0.010018 -0.011152 -0.003719 0.000000 0.000000 0.000000
# 2 -0.011152 0.111455 -0.009677 0.000000 0.000000 0.000000
# 3 -0.003719 -0.009677 0.009003 0.000000 0.000000 0.000000
# 4 0.000000 0.000000 0.000000 0.049860 0.000000 0.000000
# 5 0.000000 0.000000 0.000000 0.000000 0.032530 0.000000
# 6 0.000000 0.000000 0.000000 0.000000 0.000000 0.260797
#
#
# Mechanical properties :
#
#
# Convention : Reuss Voigt Hill
#
# Bulk Modulus (GPa) = 12.28796 70.25820 41.27308
# Shear Modulus (GPa) = 9.09280 24.86200 16.97740
#
# Velocity S-wave (km/s) = 2.33187 3.85588 3.18633
# Velocity P-wave (km/s) = 3.82080 7.86378 6.18213
#
# Compressibility (1/GPa) = 0.08138050
#
# Stress axis : x y z
#
# Youngs Moduli (GPa) = 99.82271 8.97220 111.07355
#
# Poissons Ratio (x) = 0.10006 0.41308
# Poissons Ratio (y) = 1.11324 1.07482
# Poissons Ratio (z) = 0.37124 0.08682
#
# Static dielectric constant tensor:
#      x y z
#    x 3.123040 0.000000 0.000000 
#    y 0.000000 2.587360 0.000000 
#    z 0.000000 0.000000 3.377260 
# 
# 
# High freq. dielectric constant tensor:
#      x y z
#    x 1.644630 0.000000 0.000000 
#    y 0.000000 1.582310 0.000000 
#    z 0.000000 0.000000 1.671160 
# 
# From -- ./inp_files/10544.got.cif
#   From: 2010.03.12/outbox.cif.g09.slc.cpg/sg47_6_cif.got.tgz:10544.got - 2010.04.14 03:12:58.
