data_PCOD8195281
_publ_section_title
;
Structure prediction by ZEFSAII (Michael W. Deem and Ramdas Pophale) SiO2 
 PCOD8195281
Probable space group: P M M M
;
_chemical_formula_sum "Si O2"
_cell_formula_units_Z 52
_cell_length_a 8.257618
_cell_length_b 27.503301
_cell_length_c 16.961237
_cell_angle_alpha 90.000000
_cell_angle_beta 90.000000
_cell_angle_gamma 90.000000
_cell_volume 3852.096275
_symmetry_space_group_name_H-M "P M M M"
_symmetry_group_IT_number 47
_symmetry_cell_setting 'orthorhombic'
loop_
_space_group_symop_operation_xyz
x,y,z
-x,-y,z
x,-y,-z
-x,y,-z
-x,-y,-z
x,y,-z
-x,y,z
x,-y,z
loop_
_atom_site_type_symbol
_atom_site_label
_atom_site_fract_x
_atom_site_fract_y
_atom_site_fract_z
Si Si1 0.319053 0.388310 0.593818
Si Si2 0.682842 0.942305 0.000000
Si Si3 0.000000 0.555451 0.593752
Si Si4 0.812198 0.000000 0.413659
Si Si5 0.312013 0.092061 0.321935
Si Si6 0.188878 0.055648 0.835031
Si Si7 0.817989 0.288171 0.406477
Si Si8 0.308436 0.186432 0.589530
O O1 0.315057 0.390996 0.500000
O O2 0.500000 0.405431 0.623076
O O3 0.293061 0.332796 0.623083
O O4 0.167580 0.420385 0.626633
O O5 0.772036 0.922928 0.078381
O O6 0.500000 0.923035 0.000000
O O7 0.691826 0.000000 0.000000
O O8 0.000000 0.500000 0.622324
O O9 0.000000 0.560080 0.500000
O O10 0.769710 0.047340 0.364900
O O11 0.725943 0.000000 0.500000
O O12 0.000000 0.000000 0.427506
O O13 0.500000 0.089216 0.339775
O O14 0.278924 0.089187 0.228641
O O15 0.241485 0.142370 0.356862
O O16 0.000000 0.058207 0.818682
O O17 0.251639 0.000000 0.827607
O O18 0.808776 0.285430 0.500000
O O19 0.756955 0.236636 0.372777
O O20 0.000000 0.298131 0.377470
O O21 0.245415 0.178673 0.500000
O O22 0.500000 0.188794 0.590807
#
# Coordination Sequence:
#
# PCOD8195281 Si02
#       8
#     8   4   4   4   8   8   8   8
#     4   9  15  23  35  48  64  87 113 142 179 221
#     4   9  17  29  47  67  83  97 119 143 168 206
#     4   9  16  24  32  46  68  88 112 143 175 220
#     4  11  23  35  45  56  73  98 127 155 185 227
#     4  11  21  32  46  60  77  99 125 153 185 225
#     4  10  19  31  46  63  83 101 119 143 176 217
#     4   9  15  24  38  53  67  85 113 149 186 223
#     4   9  18  30  41  55  73  93 121 157 193 226
#
# _framework density 13.499143
#
# number of rings (size 3 to 8) (size 9 to 14) (size 15 to 20)
#    0.000    2.385    1.538    2.308    0.000    6.154 
#    0.000    3.077    0.000    0.000    0.000    0.000 
#    0.000    0.000    0.000    0.000    0.000    0.000 
#
# Total GULP energy -644504.941902 kJ/mol
# GULP energy per Si atom -12394.325806 kJ/mol
# Density = 1.346842 g / cm^3
# Si number density = 13.499143 Si / 1000 Ang^3
#
#
#
# Elastic Constant Matrix: (Units=GPa)
#
#
# Indices 1 2 3 4 5 6 
#
# 1 71.2594 37.7551 11.3178 0.0000 0.0000 0.0000
# 2 37.7551 91.0535 21.3507 0.0000 0.0000 0.0000
# 3 11.3178 21.3507 51.1298 0.0000 0.0000 0.0000
# 4 0.0000 0.0000 0.0000 0.8432 0.0000 0.0000
# 5 0.0000 0.0000 0.0000 0.0000 13.5574 0.0000
# 6 0.0000 0.0000 0.0000 0.0000 0.0000 19.5829
#
#
#
# Elastic Compliance Matrix: (Units=1/GPa)
#
#
# Indices 1 2 3 4 5 6 
#
# 1 0.018027 -0.007249 -0.000963 0.000000 0.000000 0.000000
# 2 -0.007249 0.015090 -0.004696 0.000000 0.000000 0.000000
# 3 -0.000963 -0.004696 0.021732 0.000000 0.000000 0.000000
# 4 0.000000 0.000000 0.000000 1.185961 0.000000 0.000000
# 5 0.000000 0.000000 0.000000 0.000000 0.073760 0.000000
# 6 0.000000 0.000000 0.000000 0.000000 0.000000 0.051065
#
#
# Mechanical properties :
#
#
# Convention : Reuss Voigt Hill
#
# Bulk Modulus (GPa) = 34.44542 39.36551 36.90547
# Shear Modulus (GPa) = 3.56855 16.33131 9.94993
#
# Velocity S-wave (km/s) = 1.62766 3.48200 2.71786
# Velocity P-wave (km/s) = 5.39486 6.73725 6.10307
#
# Compressibility (1/GPa) = 0.02903144
#
# Stress axis : x y z
#
# Youngs Moduli (GPa) = 55.47262 66.27099 46.01415
#
# Poissons Ratio (x) = 0.48039 0.04433
# Poissons Ratio (y) = 0.40212 0.21610
# Poissons Ratio (z) = 0.05344 0.31124
#
# Static dielectric constant tensor:
#      x y z
#    x 2.856790 0.000000 0.000000 
#    y 0.000000 2.717090 0.000000 
#    z 0.000000 0.000000 2.430250 
# 
# 
# High freq. dielectric constant tensor:
#      x y z
#    x 1.531890 0.000000 0.000000 
#    y 0.000000 1.495590 0.000000 
#    z 0.000000 0.000000 1.454490 
# 
# From -- ./inp_files/22033.got.cif
#   From: 2010.03.12/outbox.cif.g09.slc.cpg/sg47_12_cif.got.tgz:22033.got - 2010.04.14 03:12:58.
