data_PCOD8195219
_publ_section_title
;
Structure prediction by ZEFSAII (Michael W. Deem and Ramdas Pophale) SiO2 
 PCOD8195219
Probable space group: P M M M
;
_chemical_formula_sum "Si O2"
_cell_formula_units_Z 52
_cell_length_a 9.630499
_cell_length_b 20.490970
_cell_length_c 14.332989
_cell_angle_alpha 90.000000
_cell_angle_beta 90.000000
_cell_angle_gamma 90.000000
_cell_volume 2828.447197
_symmetry_space_group_name_H-M "P M M M"
_symmetry_group_IT_number 47
_symmetry_cell_setting 'orthorhombic'
loop_
_space_group_symop_operation_xyz
x,y,z
-x,-y,z
x,-y,-z
-x,y,-z
-x,-y,-z
x,y,-z
-x,y,z
x,-y,z
loop_
_atom_site_type_symbol
_atom_site_label
_atom_site_fract_x
_atom_site_fract_y
_atom_site_fract_z
Si Si1 0.335220 0.927758 0.395488
Si Si2 0.336298 0.308888 0.396803
Si Si3 0.661783 0.574329 0.271137
Si Si4 0.838235 0.142019 0.110210
Si Si5 0.844863 0.422503 0.897486
Si Si6 0.665294 0.190679 0.730948
Si Si7 0.163526 0.000000 0.898625
O O1 0.278626 0.913738 0.500000
O O2 0.500000 0.925248 0.397973
O O3 0.280733 0.872544 0.325691
O O4 0.285382 0.000000 0.362341
O O5 0.269626 0.301028 0.500000
O O6 0.500000 0.301186 0.405273
O O7 0.296918 0.380639 0.358539
O O8 0.282020 0.253439 0.326709
O O9 0.500000 0.579034 0.248092
O O10 0.705859 0.500000 0.294940
O O11 0.739151 0.603123 0.180376
O O12 0.742929 0.191819 0.169027
O O13 0.000000 0.156497 0.129569
O O14 0.795235 0.069013 0.148524
O O15 0.806668 0.149492 0.000000
O O16 0.841098 0.500000 0.899371
O O17 0.000000 0.398083 0.873109
O O18 0.801010 0.395874 0.000000
O O19 0.500000 0.191063 0.747277
O O20 0.000000 0.000000 0.912953
O O21 0.235063 0.000000 0.000000
#
# Coordination Sequence:
#
# PCOD8195219 Si02
#       7
#     8   8   8   8   8   8   4
#     4   8  14  25  42  66  94 120 149 188 231 274
#     4   9  18  33  51  71  97 128 160 195 243 301
#     4   9  17  29  48  74  98 122 160 207 246 282
#     4   9  18  33  51  70  96 131 166 197 234 285
#     4   8  14  26  45  69  98 130 158 186 229 285
#     4  10  19  30  49  73  96 124 159 198 240 283
#     4   7  12  26  47  67  88 121 162 194 225 273
#
# _framework density 18.384646
#
# number of rings (size 3 to 8) (size 9 to 14) (size 15 to 20)
#    0.000    3.308    0.000    2.308    1.077    2.769 
#    0.000    4.615    0.000    9.231    0.000    3.231 
#    0.000    0.000    0.000    0.000    0.000    0.000 
#
# Total GULP energy -644249.348972 kJ/mol
# GULP energy per Si atom -12389.410557 kJ/mol
# Density = 1.834280 g / cm^3
# Si number density = 18.384646 Si / 1000 Ang^3
#
#
#
# Elastic Constant Matrix: (Units=GPa)
#
#
# Indices 1 2 3 4 5 6 
#
# 1 38.1366 28.9822 45.7122 0.0000 0.0000 0.0000
# 2 28.9822 93.3438 63.8971 0.0000 0.0000 0.0000
# 3 45.7122 63.8971 126.9413 0.0000 0.0000 0.0000
# 4 0.0000 0.0000 0.0000 24.4188 0.0000 0.0000
# 5 0.0000 0.0000 0.0000 0.0000 8.2852 0.0000
# 6 0.0000 0.0000 0.0000 0.0000 0.0000 13.0611
#
#
#
# Elastic Compliance Matrix: (Units=1/GPa)
#
#
# Indices 1 2 3 4 5 6 
#
# 1 0.047410 -0.004628 -0.014743 0.000000 0.000000 0.000000
# 2 -0.004628 0.016797 -0.006788 0.000000 0.000000 0.000000
# 3 -0.014743 -0.006788 0.016604 0.000000 0.000000 0.000000
# 4 0.000000 0.000000 0.000000 0.040952 0.000000 0.000000
# 5 0.000000 0.000000 0.000000 0.000000 0.120697 0.000000
# 6 0.000000 0.000000 0.000000 0.000000 0.000000 0.076563
#
#
# Mechanical properties :
#
#
# Convention : Reuss Voigt Hill
#
# Bulk Modulus (GPa) = 35.09776 59.51163 47.30469
# Shear Modulus (GPa) = 13.12890 17.14171 15.13531
#
# Velocity S-wave (km/s) = 2.67521 3.05682 2.87236
# Velocity P-wave (km/s) = 5.35486 6.70071 6.06523
#
# Compressibility (1/GPa) = 0.02849185
#
# Stress axis : x y z
#
# Youngs Moduli (GPa) = 21.09241 59.53495 60.22796
#
# Poissons Ratio (x) = 0.27555 0.88794
# Poissons Ratio (y) = 0.09762 0.40884
# Poissons Ratio (z) = 0.31097 0.40413
#
# Static dielectric constant tensor:
#      x y z
#    x 2.965450 0.000000 0.000000 
#    y 0.000000 3.433540 0.000000 
#    z 0.000000 0.000000 3.556550 
# 
# 
# High freq. dielectric constant tensor:
#      x y z
#    x 1.663520 0.000000 0.000000 
#    y 0.000000 1.703870 0.000000 
#    z 0.000000 0.000000 1.714090 
# 
# From -- ./inp_files/21439.got.cif
#   From: 2010.03.12/outbox.cif.g09.slc.cpg/sg47_11_cif.got.tgz:21439.got - 2010.04.14 03:12:58.
