data_PCOD8195158
_publ_section_title
;
Structure prediction by ZEFSAII (Michael W. Deem and Ramdas Pophale) SiO2 
 PCOD8195158
Probable space group: P M M M
;
_chemical_formula_sum "Si O2"
_cell_formula_units_Z 64
_cell_length_a 28.507154
_cell_length_b 9.104678
_cell_length_c 14.094520
_cell_angle_alpha 90.000000
_cell_angle_beta 90.000000
_cell_angle_gamma 90.000000
_cell_volume 3658.210930
_symmetry_space_group_name_H-M "P M M M"
_symmetry_group_IT_number 47
_symmetry_cell_setting 'orthorhombic'
loop_
_space_group_symop_operation_xyz
x,y,z
-x,-y,z
x,-y,-z
-x,y,-z
-x,-y,-z
x,y,-z
-x,y,z
x,-y,z
loop_
_atom_site_type_symbol
_atom_site_label
_atom_site_fract_x
_atom_site_fract_y
_atom_site_fract_z
Si Si1 0.947957 0.334378 0.388266
Si Si2 0.773062 0.826954 0.752663
Si Si3 0.631580 0.174534 0.282841
Si Si4 0.307711 0.172970 0.106712
Si Si5 0.051524 0.825591 0.103955
Si Si6 0.120166 0.826488 0.259431
Si Si7 0.711089 0.331556 0.389555
Si Si8 0.445260 0.330270 0.392187
O O1 0.944459 0.330852 0.500000
O O2 0.942221 0.500000 0.350423
O O3 0.903939 0.238647 0.352834
O O4 0.000000 0.274305 0.357514
O O5 0.742396 0.783175 0.845870
O O6 0.826815 0.778161 0.762732
O O7 0.755703 0.737471 0.662086
O O8 0.767465 0.000000 0.732853
O O9 0.650000 0.224476 0.177611
O O10 0.665351 0.238970 0.363157
O O11 0.580501 0.236896 0.309857
O O12 0.631216 0.000000 0.289467
O O13 0.310356 0.000000 0.095866
O O14 0.312275 0.242953 0.000000
O O15 0.090342 0.759808 0.172905
O O16 0.000000 0.778115 0.139907
O O17 0.055175 0.000000 0.100492
O O18 0.060958 0.760054 0.000000
O O19 0.116938 0.000000 0.268118
O O20 0.720843 0.318144 0.500000
O O21 0.703816 0.500000 0.358330
O O22 0.432323 0.279698 0.500000
O O23 0.500000 0.306570 0.374321
O O24 0.431238 0.500000 0.380244
#
# Coordination Sequence:
#
# PCOD8195158 Si02
#       8
#     8   8   8   8   8   8   8   8
#     4   9  19  35  51  66  87 119 158 193 225 270
#     4   9  19  32  46  69  96 120 150 191 237 279
#     4  10  19  30  49  77 102 125 159 204 248 284
#     4   8  15  30  50  69  92 124 160 197 238 285
#     4   8  14  25  42  66  94 119 143 175 218 270
#     4  10  19  30  47  72  97 118 145 186 234 278
#     4  10  20  33  49  67  90 125 163 194 229 278
#     4   9  18  32  49  71 103 142 176 202 233 279
#
# _framework density 17.494890000000002
#
# number of rings (size 3 to 8) (size 9 to 14) (size 15 to 20)
#    0.000    2.875    0.000    3.375    0.000    5.500 
#    0.000    6.250    0.000   10.125    0.000    7.875 
#    0.000    0.000    0.000    0.000    0.000    0.000 
#
# Total GULP energy -793068.470725 kJ/mol
# GULP energy per Si atom -12391.694855 kJ/mol
# Density = 1.745507 g / cm^3
# Si number density = 17.494890 Si / 1000 Ang^3
#
#
#
# Elastic Constant Matrix: (Units=GPa)
#
#
# Indices 1 2 3 4 5 6 
#
# 1 119.4772 39.1665 62.6416 0.0000 0.0000 0.0000
# 2 39.1665 45.9863 36.1436 0.0000 0.0000 0.0000
# 3 62.6416 36.1436 106.4794 0.0000 0.0000 0.0000
# 4 0.0000 0.0000 0.0000 1.8453 0.0000 0.0000
# 5 0.0000 0.0000 0.0000 0.0000 -91.2464 0.0000
# 6 0.0000 0.0000 0.0000 0.0000 0.0000 23.3888
#
#
#
# Elastic Compliance Matrix: (Units=1/GPa)
#
#
# Indices 1 2 3 4 5 6 
#
# 1 0.013676 -0.007262 -0.005581 0.000000 0.000000 0.000000
# 2 -0.007262 0.033514 -0.007104 0.000000 0.000000 0.000000
# 3 -0.005581 -0.007104 0.015086 0.000000 0.000000 0.000000
# 4 0.000000 0.000000 0.000000 0.541909 0.000000 0.000000
# 5 0.000000 0.000000 0.000000 0.000000 -0.010959 0.000000
# 6 0.000000 0.000000 0.000000 0.000000 0.000000 0.042755
#
#
# Mechanical properties :
#
#
# Convention : Reuss Voigt Hill
#
# Bulk Modulus (GPa) = 44.67632 60.87179 52.77406
# Shear Modulus (GPa) = 7.31705 -4.26969 1.52368
#
# Velocity S-wave (km/s) = 2.04731 -1.56392 0.93425
# Velocity P-wave (km/s) = 5.58398 5.62214 5.60309
#
# Compressibility (1/GPa) = 0.02238322
#
# Stress axis : x y z
#
# Youngs Moduli (GPa) = 73.11908 29.83833 66.28653
#
# Poissons Ratio (x) = 0.21668 0.36993
# Poissons Ratio (y) = 0.53098 0.47090
# Poissons Ratio (z) = 0.40806 0.21197
#
# Static dielectric constant tensor:
#      x y z
#    x 3.378510 0.000000 0.000000 
#    y 0.000000 3.060920 0.000000 
#    z 0.000000 0.000000 3.454140 
# 
# 
# High freq. dielectric constant tensor:
#      x y z
#    x 1.675630 0.000000 0.000000 
#    y 0.000000 1.651010 0.000000 
#    z 0.000000 0.000000 1.671770 
# 
# From -- ./inp_files/25856.got.cif
#   From: 2010.03.12/outbox.cif.g09.slc.cpg/sg47_13_cif.got.tgz:25856.got - 2010.04.14 03:12:58.
