data_PCOD8195612
_publ_section_title
;
Structure prediction by ZEFSAII (Michael W. Deem and Ramdas Pophale) SiO2 
 PCOD8195612
Probable space group: P M M M
;
_chemical_formula_sum "Si O2"
_cell_formula_units_Z 48
_cell_length_a 20.482283
_cell_length_b 19.557130
_cell_length_c 9.341184
_cell_angle_alpha 90.000000
_cell_angle_beta 90.000000
_cell_angle_gamma 90.000000
_cell_volume 3741.841711
_symmetry_space_group_name_H-M "P M M M"
_symmetry_group_IT_number 47
_symmetry_cell_setting 'orthorhombic'
loop_
_space_group_symop_operation_xyz
x,y,z
-x,-y,z
x,-y,-z
-x,y,-z
-x,-y,-z
x,y,-z
-x,y,z
x,-y,z
loop_
_atom_site_type_symbol
_atom_site_label
_atom_site_fract_x
_atom_site_fract_y
_atom_site_fract_z
Si Si1 0.616069 0.850327 0.333423
Si Si2 0.875847 0.918653 0.162111
Si Si3 0.500000 0.080606 0.834300
Si Si4 0.422391 0.425253 0.161857
Si Si5 0.000000 0.081574 0.662741
Si Si6 0.574782 0.298166 0.334772
Si Si7 0.249440 0.920903 0.335072
O O1 0.598856 0.862994 0.500000
O O2 0.564344 0.890175 0.238751
O O3 0.615076 0.769854 0.297037
O O4 0.687419 0.877251 0.293967
O O5 0.936688 0.890168 0.253524
O O6 0.809334 0.893579 0.236808
O O7 0.878253 0.000000 0.161256
O O8 0.879204 0.890140 0.000000
O O9 0.500000 0.000000 0.814164
O O10 0.500000 0.102042 0.000000
O O11 0.500000 0.423192 0.172061
O O12 0.398156 0.500000 0.217707
O O13 0.393150 0.362926 0.253912
O O14 0.398795 0.414801 0.000000
O O15 0.000000 0.109632 0.500000
O O16 0.000000 0.000000 0.660929
O O17 0.578930 0.316590 0.500000
O O18 0.500000 0.284990 0.287707
O O19 0.229209 0.910499 0.500000
O O20 0.265244 0.000000 0.303840
#
# Coordination Sequence:
#
# PCOD8195612 Si02
#       7
#     8   8   4   8   4   8   8
#     4  10  19  32  45  55  69  92 121 152 188 230
#     4   9  16  25  37  53  73  93 111 138 178 217
#     4  11  23  33  41  55  70  85 114 157 199 234
#     4   8  14  24  37  53  72  92 111 131 163 211
#     4   9  15  23  37  55  73  91 113 139 166 207
#     4   9  16  26  39  55  72  88 112 146 181 217
#     4   9  17  28  41  54  67  89 121 152 183 220
#
# _framework density 12.827908000000001
#
# number of rings (size 3 to 8) (size 9 to 14) (size 15 to 20)
#    0.000    2.833    0.833    2.000    0.000    6.000 
#    0.000    3.333    0.000    0.000    0.000    0.000 
#    0.000    0.000    0.000    0.000    0.000    0.000 
#
# Total GULP energy -595053.930081 kJ/mol
# GULP energy per Si atom -12396.956877 kJ/mol
# Density = 1.279871 g / cm^3
# Si number density = 12.827908 Si / 1000 Ang^3
#
#
#
# Elastic Constant Matrix: (Units=GPa)
#
#
# Indices 1 2 3 4 5 6 
#
# 1 84.5520 39.8796 54.5197 0.0000 0.0000 0.0000
# 2 39.8796 70.7834 41.9240 0.0000 0.0000 0.0000
# 3 54.5197 41.9240 85.9726 0.0000 0.0000 0.0000
# 4 0.0000 0.0000 0.0000 17.5110 0.0000 0.0000
# 5 0.0000 0.0000 0.0000 0.0000 14.7691 0.0000
# 6 0.0000 0.0000 0.0000 0.0000 0.0000 -1.3964
#
#
#
# Elastic Compliance Matrix: (Units=1/GPa)
#
#
# Indices 1 2 3 4 5 6 
#
# 1 0.021520 -0.005683 -0.010876 0.000000 0.000000 0.000000
# 2 -0.005683 0.021366 -0.006815 0.000000 0.000000 0.000000
# 3 -0.010876 -0.006815 0.021852 0.000000 0.000000 0.000000
# 4 0.000000 0.000000 0.000000 0.057107 0.000000 0.000000
# 5 0.000000 0.000000 0.000000 0.000000 0.067709 0.000000
# 6 0.000000 0.000000 0.000000 0.000000 0.000000 -0.716130
#
#
# Mechanical properties :
#
#
# Convention : Reuss Voigt Hill
#
# Bulk Modulus (GPa) = 55.58569 57.10606 56.34587
# Shear Modulus (GPa) = -10.55227 13.17572 1.31173
#
# Velocity S-wave (km/s) = -2.87122 3.20834 1.01231
# Velocity P-wave (km/s) = 5.69509 7.63795 6.73693
#
# Compressibility (1/GPa) = 0.01799024
#
# Stress axis : x y z
#
# Youngs Moduli (GPa) = 46.46772 46.80358 45.76253
#
# Poissons Ratio (x) = 0.26598 0.49771
# Poissons Ratio (y) = 0.26407 0.31188
# Poissons Ratio (z) = 0.50538 0.31897
#
# Static dielectric constant tensor:
#      x y z
#    x 2.476480 0.000000 0.000000 
#    y 0.000000 2.550040 0.000000 
#    z 0.000000 0.000000 2.739820 
# 
# 
# High freq. dielectric constant tensor:
#      x y z
#    x 1.458100 0.000000 0.000000 
#    y 0.000000 1.454670 0.000000 
#    z 0.000000 0.000000 1.498140 
# 
# From -- ./inp_files/11405.got.cif
#   From: 2010.03.12/outbox.cif.g09.slc.cpg/sg47_6_cif.got.tgz:11405.got - 2010.04.14 03:12:58.
