data_PCOD8195035
_publ_section_title
;
Structure prediction by ZEFSAII (Michael W. Deem and Ramdas Pophale) SiO2 
 PCOD8195035
Probable space group: P M M M
;
_chemical_formula_sum "Si O2"
_cell_formula_units_Z 52
_cell_length_a 27.766497
_cell_length_b 13.966257
_cell_length_c 8.098529
_cell_angle_alpha 90.000000
_cell_angle_beta 90.000000
_cell_angle_gamma 90.000000
_cell_volume 3140.561223
_symmetry_space_group_name_H-M "P M M M"
_symmetry_group_IT_number 47
_symmetry_cell_setting 'orthorhombic'
loop_
_space_group_symop_operation_xyz
x,y,z
-x,-y,z
x,-y,-z
-x,y,-z
-x,-y,-z
x,y,-z
-x,y,z
x,-y,z
loop_
_atom_site_type_symbol
_atom_site_label
_atom_site_fract_x
_atom_site_fract_y
_atom_site_fract_z
Si Si1 0.283958 0.216433 0.806266
Si Si2 0.945610 0.391694 0.806123
Si Si3 0.553605 0.113099 0.500000
Si Si4 0.381959 0.887530 0.190898
Si Si5 0.143361 0.720502 0.690248
Si Si6 0.234282 0.605870 0.306028
Si Si7 0.192512 0.895005 0.807364
O O1 0.334771 0.171198 0.757106
O O2 0.279096 0.324930 0.738574
O O3 0.241042 0.151607 0.729545
O O4 0.278132 0.220250 0.000000
O O5 0.935545 0.500000 0.746325
O O6 0.909789 0.320250 0.715302
O O7 0.000000 0.362068 0.759008
O O8 0.937477 0.383907 0.000000
O O9 0.500000 0.157953 0.500000
O O10 0.578946 0.145338 0.327844
O O11 0.550645 0.000000 0.500000
O O12 0.370480 0.000000 0.205975
O O13 0.398204 0.864533 0.000000
O O14 0.154010 0.734763 0.500000
O O15 0.184242 0.649855 0.766361
O O16 0.147270 0.825345 0.772941
O O17 0.230081 0.595386 0.500000
O O18 0.242307 0.500000 0.227996
O O19 0.183698 0.000000 0.727486
O O20 0.199784 0.907770 0.000000
#
# Coordination Sequence:
#
# PCOD8195035 Si02
#       7
#     8   8   4   8   8   8   8
#     4   9  17  28  44  66  89 117 153 189 225 265
#     4   9  18  32  49  68  88 111 143 182 221 265
#     4   9  18  30  44  66  93 125 165 197 229 278
#     4   9  17  29  45  66  94 125 156 195 236 273
#     4  10  19  30  45  66  92 119 146 179 221 268
#     4   9  18  30  42  60  90 124 151 178 216 265
#     4   9  17  30  47  65  88 119 153 187 220 260
#
# _framework density 16.557549999999999
#
# number of rings (size 3 to 8) (size 9 to 14) (size 15 to 20)
#    0.000    2.846    0.000    1.846    1.077    4.615 
#    0.000    2.308    0.000    0.462    0.000    3.231 
#    0.000    1.231    0.000    3.385    0.000    0.154 
#
# Total GULP energy -644482.404365 kJ/mol
# GULP energy per Si atom -12393.892392 kJ/mol
# Density = 1.651986 g / cm^3
# Si number density = 16.557550 Si / 1000 Ang^3
#
#
#
# Elastic Constant Matrix: (Units=GPa)
#
#
# Indices 1 2 3 4 5 6 
#
# 1 102.6681 55.8183 34.9973 0.0000 0.0000 0.0000
# 2 55.8183 123.7132 25.1840 0.0000 0.0000 0.0000
# 3 34.9973 25.1840 44.7025 0.0000 0.0000 0.0000
# 4 0.0000 0.0000 0.0000 16.9136 0.0000 0.0000
# 5 0.0000 0.0000 0.0000 0.0000 23.1311 0.0000
# 6 0.0000 0.0000 0.0000 0.0000 0.0000 18.0853
#
#
#
# Elastic Compliance Matrix: (Units=1/GPa)
#
#
# Indices 1 2 3 4 5 6 
#
# 1 0.015781 -0.005202 -0.009424 0.000000 0.000000 0.000000
# 2 -0.005202 0.010845 -0.002037 0.000000 0.000000 0.000000
# 3 -0.009424 -0.002037 0.030896 0.000000 0.000000 0.000000
# 4 0.000000 0.000000 0.000000 0.059124 0.000000 0.000000
# 5 0.000000 0.000000 0.000000 0.000000 0.043232 0.000000
# 6 0.000000 0.000000 0.000000 0.000000 0.000000 0.055293
#
#
# Mechanical properties :
#
#
# Convention : Reuss Voigt Hill
#
# Bulk Modulus (GPa) = 41.33033 55.89812 48.61422
# Shear Modulus (GPa) = 19.48846 21.96494 20.72670
#
# Velocity S-wave (km/s) = 3.43449 3.64618 3.54191
# Velocity P-wave (km/s) = 6.38306 7.18048 6.79348
#
# Compressibility (1/GPa) = 0.02419531
#
# Stress axis : x y z
#
# Youngs Moduli (GPa) = 63.36897 92.20941 32.36666
#
# Poissons Ratio (x) = 0.47964 0.30503
# Poissons Ratio (y) = 0.32962 0.06594
# Poissons Ratio (z) = 0.59719 0.18786
#
# Static dielectric constant tensor:
#      x y z
#    x 3.088220 0.000000 0.000000 
#    y 0.000000 3.232760 0.000000 
#    z 0.000000 0.000000 3.042420 
# 
# 
# High freq. dielectric constant tensor:
#      x y z
#    x 1.612520 0.000000 0.000000 
#    y 0.000000 1.621860 0.000000 
#    z 0.000000 0.000000 1.637170 
# 
# From -- ./inp_files/4522.got.cif
#   From: 2010.03.12/outbox.cif.g09.slc.cpg/sg47_3_cif.got.tgz:4522.got - 2010.04.14 03:12:58.
