data_PCOD8195560
_publ_section_title
;
Structure prediction by ZEFSAII (Michael W. Deem and Ramdas Pophale) SiO2 
 PCOD8195560
Probable space group: P M M M
;
_chemical_formula_sum "Si O2"
_cell_formula_units_Z 48
_cell_length_a 15.243150
_cell_length_b 22.705377
_cell_length_c 7.705802
_cell_angle_alpha 90.000000
_cell_angle_beta 90.000000
_cell_angle_gamma 90.000000
_cell_volume 2666.989380
_symmetry_space_group_name_H-M "P M M M"
_symmetry_group_IT_number 47
_symmetry_cell_setting 'orthorhombic'
loop_
_space_group_symop_operation_xyz
x,y,z
-x,-y,z
x,-y,-z
-x,y,-z
-x,-y,-z
x,y,-z
-x,y,z
x,-y,z
loop_
_atom_site_type_symbol
_atom_site_label
_atom_site_fract_x
_atom_site_fract_y
_atom_site_fract_z
Si Si1 0.897517 0.356327 0.000000
Si Si2 0.500000 0.069744 0.805438
Si Si3 0.000000 0.932261 0.795496
Si Si4 0.898098 0.733997 0.302361
Si Si5 0.401263 0.430056 0.694940
Si Si6 0.164289 0.857268 0.300352
Si Si7 0.684776 0.934717 0.698913
Si Si8 0.275149 0.429950 0.000000
O O1 0.878234 0.319738 0.174406
O O2 0.826039 0.408475 0.000000
O O3 0.000000 0.378678 0.000000
O O4 0.412348 0.093158 0.713087
O O5 0.500000 0.000000 0.791769
O O6 0.500000 0.093151 0.000000
O O7 0.916210 0.901008 0.717117
O O8 0.000000 0.000000 0.736237
O O9 0.000000 0.925550 0.000000
O O10 0.868127 0.718101 0.500000
O O11 0.851331 0.792218 0.221939
O O12 0.000000 0.749748 0.302650
O O13 0.376513 0.408471 0.500000
O O14 0.500000 0.407884 0.743293
O O15 0.401289 0.500000 0.701261
O O16 0.328844 0.406197 0.831388
O O17 0.183807 0.845423 0.500000
O O18 0.247551 0.889565 0.209830
O O19 0.711489 0.941571 0.500000
O O20 0.689735 0.000000 0.787380
O O21 0.270520 0.500000 0.000000
#
# Coordination Sequence:
#
# PCOD8195560 Si02
#       8
#     4   4   4   8   8   8   8   4
#     4  10  22  36  53  74 100 139 174 220 267 291
#     4   9  17  29  43  61  89 121 151 189 235 282
#     4  11  23  31  41  69 107 137 153 182 243 312
#     4   9  18  34  54  74  93 123 175 223 255 294
#     4   8  14  26  47  78 114 146 173 204 245 297
#     4  10  19  32  51  71  91 122 161 202 245 293
#     4   9  17  29  46  68  92 118 151 191 237 289
#     4  10  19  31  50  79 111 142 177 210 254 314
#
# _framework density 17.997823
#
# number of rings (size 3 to 8) (size 9 to 14) (size 15 to 20)
#    0.000    2.667    0.833    1.750    1.167    4.833 
#    0.000    1.667    0.000    0.000    4.333    4.667 
#    0.000    0.000    0.000    0.000    0.000    0.000 
#
# Total GULP energy -594739.344901 kJ/mol
# GULP energy per Si atom -12390.403019 kJ/mol
# Density = 1.795686 g / cm^3
# Si number density = 17.997823 Si / 1000 Ang^3
#
#
#
# Elastic Constant Matrix: (Units=GPa)
#
#
# Indices 1 2 3 4 5 6 
#
# 1 131.1880 39.5173 33.6478 0.0000 0.0000 0.0000
# 2 39.5173 45.1769 24.0035 0.0000 0.0000 0.0000
# 3 33.6478 24.0035 76.1983 0.0000 0.0000 0.0000
# 4 0.0000 0.0000 0.0000 14.9825 0.0000 0.0000
# 5 0.0000 0.0000 0.0000 0.0000 56.9247 0.0000
# 6 0.0000 0.0000 0.0000 0.0000 0.0000 0.8605
#
#
#
# Elastic Compliance Matrix: (Units=1/GPa)
#
#
# Indices 1 2 3 4 5 6 
#
# 1 0.010627 -0.008170 -0.002119 0.000000 0.000000 0.000000
# 2 -0.008170 0.032866 -0.006745 0.000000 0.000000 0.000000
# 3 -0.002119 -0.006745 0.016184 0.000000 0.000000 0.000000
# 4 0.000000 0.000000 0.000000 0.066744 0.000000 0.000000
# 5 0.000000 0.000000 0.000000 0.000000 0.017567 0.000000
# 6 0.000000 0.000000 0.000000 0.000000 0.000000 1.162168
#
#
# Mechanical properties :
#
#
# Convention : Reuss Voigt Hill
#
# Bulk Modulus (GPa) = 39.05002 49.65559 44.35280
# Shear Modulus (GPa) = 3.70710 24.91319 14.31015
#
# Velocity S-wave (km/s) = 1.43674 3.72457 2.82282
# Velocity P-wave (km/s) = 4.94939 6.79310 5.94318
#
# Compressibility (1/GPa) = 0.02560818
#
# Stress axis : x y z
#
# Youngs Moduli (GPa) = 94.09853 30.42696 61.78813
#
# Poissons Ratio (x) = 0.24858 0.13094
# Poissons Ratio (y) = 0.76877 0.41679
# Poissons Ratio (z) = 0.19941 0.20524
#
# Static dielectric constant tensor:
#      x y z
#    x 3.515190 0.000000 0.000000 
#    y 0.000000 2.982680 0.000000 
#    z 0.000000 0.000000 3.464840 
# 
# 
# High freq. dielectric constant tensor:
#      x y z
#    x 1.697600 0.000000 0.000000 
#    y 0.000000 1.644720 0.000000 
#    z 0.000000 0.000000 1.699640 
# 
# From -- ./inp_files/6568.got.cif
#   From: 2010.03.12/outbox.cif.g09.slc.cpg/sg47_4_cif.got.tgz:6568.got - 2010.04.14 03:12:58.
