data_PCOD8195378
_publ_section_title
;
Structure prediction by ZEFSAII (Michael W. Deem and Ramdas Pophale) SiO2 
 PCOD8195378
Probable space group: P M M M
;
_chemical_formula_sum "Si O2"
_cell_formula_units_Z 52
_cell_length_a 12.526760
_cell_length_b 28.221626
_cell_length_c 9.022625
_cell_angle_alpha 90.000000
_cell_angle_beta 90.000000
_cell_angle_gamma 90.000000
_cell_volume 3189.728337
_symmetry_space_group_name_H-M "P M M M"
_symmetry_group_IT_number 47
_symmetry_cell_setting 'orthorhombic'
loop_
_space_group_symop_operation_xyz
x,y,z
-x,-y,z
x,-y,-z
-x,y,-z
-x,-y,-z
x,y,-z
-x,y,z
x,-y,z
loop_
_atom_site_type_symbol
_atom_site_label
_atom_site_fract_x
_atom_site_fract_y
_atom_site_fract_z
Si Si1 0.121793 0.855870 0.174690
Si Si2 0.126308 0.594265 0.829070
Si Si3 0.126801 0.948371 0.667374
Si Si4 0.500000 0.330842 0.328125
Si Si5 0.126866 0.500000 0.667399
Si Si6 0.268476 0.329267 0.322672
Si Si7 0.267511 0.228536 0.829409
Si Si8 0.500000 0.762760 0.165139
O O1 0.171538 0.904993 0.235524
O O2 0.190123 0.811768 0.236259
O O3 0.000000 0.848532 0.227924
O O4 0.130229 0.858557 0.000000
O O5 0.169036 0.546257 0.752903
O O6 0.177227 0.638646 0.746604
O O7 0.000000 0.599060 0.811876
O O8 0.160968 0.593469 0.000000
O O9 0.166434 0.940933 0.500000
O O10 0.000000 0.947975 0.675004
O O11 0.167505 0.000000 0.726022
O O12 0.500000 0.339532 0.500000
O O13 0.385338 0.350265 0.268610
O O14 0.500000 0.275426 0.294612
O O15 0.172278 0.500000 0.500000
O O16 0.000000 0.500000 0.666037
O O17 0.259036 0.329197 0.500000
O O18 0.251680 0.276062 0.264832
O O19 0.389508 0.208092 0.817472
O O20 0.238149 0.239973 0.000000
O O21 0.500000 0.738783 0.000000
#
# Coordination Sequence:
#
# PCOD8195378 Si02
#       8
#     8   8   8   4   4   8   8   4
#     4   9  17  27  39  58  85 113 137 166 210 260
#     4  10  20  33  49  70  96 124 152 183 222 265
#     4   8  14  25  40  57  78 105 137 171 205 245
#     4   8  16  30  46  65  89 115 145 186 229 262
#     4   9  17  31  51  72  93 118 151 189 223 259
#     4  10  19  31  48  69  92 119 152 187 223 264
#     4   9  17  29  43  61  86 115 146 178 214 255
#     4   8  14  26  44  60  76 106 148 185 210 243
#
# _framework density 16.302330000000001
#
# number of rings (size 3 to 8) (size 9 to 14) (size 15 to 20)
#    0.000    3.000    0.000    1.615    0.000    4.000 
#    0.000    3.077    0.000    0.462    0.000    3.769 
#    0.000    4.308    0.000    0.000    0.000    0.000 
#
# Total GULP energy -644190.830058 kJ/mol
# GULP energy per Si atom -12388.285193 kJ/mol
# Density = 1.626522 g / cm^3
# Si number density = 16.302330 Si / 1000 Ang^3
#
#
#
# Elastic Constant Matrix: (Units=GPa)
#
#
# Indices 1 2 3 4 5 6 
#
# 1 56.6747 51.9101 29.1718 0.0000 0.0000 0.0000
# 2 51.9101 123.8059 51.7380 0.0000 0.0000 0.0000
# 3 29.1718 51.7380 62.8879 0.0000 0.0000 0.0000
# 4 0.0000 0.0000 0.0000 26.8214 0.0000 0.0000
# 5 0.0000 0.0000 0.0000 0.0000 15.6885 0.0000
# 6 0.0000 0.0000 0.0000 0.0000 0.0000 2.5290
#
#
#
# Elastic Compliance Matrix: (Units=1/GPa)
#
#
# Indices 1 2 3 4 5 6 
#
# 1 0.029803 -0.010239 -0.005401 0.000000 0.000000 0.000000
# 2 -0.010239 0.015827 -0.008271 0.000000 0.000000 0.000000
# 3 -0.005401 -0.008271 0.025211 0.000000 0.000000 0.000000
# 4 0.000000 0.000000 0.000000 0.037284 0.000000 0.000000
# 5 0.000000 0.000000 0.000000 0.000000 0.063741 0.000000
# 6 0.000000 0.000000 0.000000 0.000000 0.000000 0.395418
#
#
# Mechanical properties :
#
#
# Convention : Reuss Voigt Hill
#
# Bulk Modulus (GPa) = 43.44299 56.55646 49.99972
# Shear Modulus (GPa) = 8.02855 16.37769 12.20312
#
# Velocity S-wave (km/s) = 2.22159 3.17302 2.73893
# Velocity P-wave (km/s) = 5.76947 6.94202 6.38273
#
# Compressibility (1/GPa) = 0.02301867
#
# Stress axis : x y z
#
# Youngs Moduli (GPa) = 33.55414 63.18488 39.66464
#
# Poissons Ratio (x) = 0.64693 0.21423
# Poissons Ratio (y) = 0.34355 0.32807
# Poissons Ratio (z) = 0.18123 0.52261
#
# Static dielectric constant tensor:
#      x y z
#    x 3.169620 0.000000 0.000000 
#    y 0.000000 3.146020 0.000000 
#    z 0.000000 0.000000 3.139560 
# 
# 
# High freq. dielectric constant tensor:
#      x y z
#    x 1.603850 0.000000 0.000000 
#    y 0.000000 1.612500 0.000000 
#    z 0.000000 0.000000 1.630250 
# 
# From -- ./inp_files/4602.got.cif
#   From: 2010.03.12/outbox.cif.g09.slc.cpg/sg47_3_cif.got.tgz:4602.got - 2010.04.14 03:12:58.
