data_PCOD8195456
_publ_section_title
;
Structure prediction by ZEFSAII (Michael W. Deem and Ramdas Pophale) SiO2 
 PCOD8195456
Probable space group: P M M M
;
_chemical_formula_sum "Si O2"
_cell_formula_units_Z 44
_cell_length_a 14.298519
_cell_length_b 18.400052
_cell_length_c 9.130435
_cell_angle_alpha 90.000000
_cell_angle_beta 90.000000
_cell_angle_gamma 90.000000
_cell_volume 2402.158038
_symmetry_space_group_name_H-M "P M M M"
_symmetry_group_IT_number 47
_symmetry_cell_setting 'orthorhombic'
loop_
_space_group_symop_operation_xyz
x,y,z
-x,-y,z
x,-y,-z
-x,y,-z
-x,-y,-z
x,y,-z
-x,y,z
x,-y,z
loop_
_atom_site_type_symbol
_atom_site_label
_atom_site_fract_x
_atom_site_fract_y
_atom_site_fract_z
Si Si1 0.894864 0.420356 0.173917
Si Si2 0.388845 0.921449 0.336022
Si Si3 0.792770 0.721013 0.171626
Si Si4 0.603256 0.782849 0.831029
Si Si5 0.889984 0.145111 0.670980
Si Si6 0.111420 0.000000 0.167960
O O1 0.860923 0.500000 0.230648
O O2 0.828127 0.356517 0.233409
O O3 0.000000 0.405379 0.230202
O O4 0.893427 0.420371 0.000000
O O5 0.351089 0.909476 0.500000
O O6 0.500000 0.920752 0.334968
O O7 0.352160 0.855798 0.237684
O O8 0.353412 0.000000 0.276012
O O9 0.680135 0.720428 0.197369
O O10 0.841704 0.784668 0.260518
O O11 0.816851 0.731239 0.000000
O O12 0.500000 0.761635 0.766289
O O13 0.591603 0.799762 0.000000
O O14 0.865508 0.139837 0.500000
O O15 0.000000 0.153168 0.697533
O O16 0.850932 0.072141 0.749339
O O17 0.000000 0.000000 0.175121
O O18 0.146658 0.000000 0.000000
#
# Coordination Sequence:
#
# PCOD8195456 Si02
#       6
#     8   8   8   8   8   4
#     4   8  14  26  47  75 101 122 151 197 247 292
#     4   8  14  26  44  63  82 109 150 199 246 288
#     4  10  19  31  49  72  96 127 166 203 241 292
#     4   9  18  31  45  64  92 125 160 200 246 290
#     4  10  20  33  49  71 100 130 160 199 246 292
#     4   9  17  31  51  71  94 129 170 205 237 280
#
# _framework density 18.316863999999999
#
# number of rings (size 3 to 8) (size 9 to 14) (size 15 to 20)
#    0.000    3.000    0.000    2.455    0.000    4.000 
#    1.636    1.818    0.000    1.091    0.000    6.364 
#    0.000    0.000    0.000    6.182    0.000    6.727 
#
# Total GULP energy -545249.149715 kJ/mol
# GULP energy per Si atom -12392.026130 kJ/mol
# Density = 1.827517 g / cm^3
# Si number density = 18.316864 Si / 1000 Ang^3
#
#
#
# Elastic Constant Matrix: (Units=GPa)
#
#
# Indices 1 2 3 4 5 6 
#
# 1 74.3166 76.9539 29.3014 0.0000 0.0000 0.0000
# 2 76.9539 167.1305 45.8774 0.0000 0.0000 0.0000
# 3 29.3014 45.8774 59.0749 0.0000 0.0000 0.0000
# 4 0.0000 0.0000 0.0000 -1.4824 0.0000 0.0000
# 5 0.0000 0.0000 0.0000 0.0000 11.3756 0.0000
# 6 0.0000 0.0000 0.0000 0.0000 0.0000 23.8223
#
#
#
# Elastic Compliance Matrix: (Units=1/GPa)
#
#
# Indices 1 2 3 4 5 6 
#
# 1 0.026706 -0.011007 -0.004698 0.000000 0.000000 0.000000
# 2 -0.011007 0.012141 -0.003969 0.000000 0.000000 0.000000
# 3 -0.004698 -0.003969 0.022340 0.000000 0.000000 0.000000
# 4 0.000000 0.000000 0.000000 -0.674603 0.000000 0.000000
# 5 0.000000 0.000000 0.000000 0.000000 0.087908 0.000000
# 6 0.000000 0.000000 0.000000 0.000000 0.000000 0.041978
#
#
# Mechanical properties :
#
#
# Convention : Reuss Voigt Hill
#
# Bulk Modulus (GPa) = 45.79049 67.19858 56.49454
# Shear Modulus (GPa) = -11.44420 16.63572 2.59576
#
# Velocity S-wave (km/s) = -2.50229 3.01694 1.19173
# Velocity P-wave (km/s) = 4.08714 6.99301 5.72743
#
# Compressibility (1/GPa) = 0.02183859
#
# Stress axis : x y z
#
# Youngs Moduli (GPa) = 37.44510 82.36654 44.76176
#
# Poissons Ratio (x) = 0.90659 0.21031
# Poissons Ratio (y) = 0.41215 0.17767
# Poissons Ratio (z) = 0.17593 0.32693
#
# Static dielectric constant tensor:
#      x y z
#    x 3.469160 0.000000 0.000000 
#    y 0.000000 3.742000 0.000000 
#    z 0.000000 0.000000 3.226260 
# 
# 
# High freq. dielectric constant tensor:
#      x y z
#    x 1.707190 0.000000 0.000000 
#    y 0.000000 1.696030 0.000000 
#    z 0.000000 0.000000 1.685760 
# 
# From -- ./inp_files/6172.got.cif
#   From: 2010.03.12/outbox.cif.g09.slc.cpg/sg47_4_cif.got.tgz:6172.got - 2010.04.14 03:12:58.
