data_PCOD8195841
_publ_section_title
;
Structure prediction by ZEFSAII (Michael W. Deem and Ramdas Pophale) SiO2 
 PCOD8195841
Probable space group: P M M M
;
_chemical_formula_sum "Si O2"
_cell_formula_units_Z 56
_cell_length_a 8.710785
_cell_length_b 23.361442
_cell_length_c 14.696639
_cell_angle_alpha 90.000000
_cell_angle_beta 90.000000
_cell_angle_gamma 90.000000
_cell_volume 2990.714577
_symmetry_space_group_name_H-M "P M M M"
_symmetry_group_IT_number 47
_symmetry_cell_setting 'orthorhombic'
loop_
_space_group_symop_operation_xyz
x,y,z
-x,-y,z
x,-y,-z
-x,y,-z
-x,-y,-z
x,y,-z
-x,y,z
x,-y,z
loop_
_atom_site_type_symbol
_atom_site_label
_atom_site_fract_x
_atom_site_fract_y
_atom_site_fract_z
Si Si1 0.318404 0.934327 0.000000
Si Si2 0.321407 0.130215 0.342565
Si Si3 0.171955 0.241402 0.398286
Si Si4 0.169829 0.933706 0.500000
Si Si5 0.180492 0.854499 0.150735
Si Si6 0.681051 0.434825 0.601519
Si Si7 0.182459 0.726984 0.898157
Si Si8 0.180713 0.657161 0.271320
O O1 0.259922 0.901273 0.911908
O O2 0.500000 0.933907 0.000000
O O3 0.257494 0.000000 0.000000
O O4 0.500000 0.122467 0.319842
O O5 0.291584 0.189987 0.392833
O O6 0.265612 0.080974 0.410097
O O7 0.220617 0.127362 0.252294
O O8 0.167839 0.265374 0.500000
O O9 0.233791 0.291546 0.335604
O O10 0.000000 0.222176 0.366973
O O11 0.000000 0.903213 0.500000
O O12 0.142254 0.000000 0.500000
O O13 0.243095 0.790021 0.131229
O O14 0.000000 0.857125 0.133305
O O15 0.737942 0.414463 0.500000
O O16 0.500000 0.429732 0.604568
O O17 0.734260 0.500000 0.616371
O O18 0.745822 0.399929 0.687650
O O19 0.239368 0.676329 0.829737
O O20 0.000000 0.729008 0.894992
O O21 0.241996 0.712719 0.000000
O O22 0.000000 0.647762 0.271569
#
# Coordination Sequence:
#
# PCOD8195841 Si02
#       8
#     4   8   8   4   8   8   8   8
#     4  11  25  43  61  87 121 147 178 239 304 349
#     4  12  24  37  57  86 117 147 181 231 291 342
#     4  10  19  32  52  78 112 149 184 225 275 336
#     4  11  25  45  65  81 103 145 198 241 280 343
#     4  11  21  39  65  86 110 150 195 232 279 349
#     4   9  19  36  55  77 112 157 197 235 282 336
#     4   9  17  32  56  85 112 143 182 230 282 332
#     4  10  19  32  54  85 115 145 186 235 283 329
#
# _framework density 18.724623000000001
#
# number of rings (size 3 to 8) (size 9 to 14) (size 15 to 20)
#    0.000    1.714    2.857    3.000    0.000    3.429 
#    0.000    0.714    0.000    0.429    0.000    3.000 
#    0.000    0.000    0.000    0.000    0.000    0.000 
#
# Total GULP energy -694206.179526 kJ/mol
# GULP energy per Si atom -12396.538920 kJ/mol
# Density = 1.868200 g / cm^3
# Si number density = 18.724623 Si / 1000 Ang^3
#
#
#
# Elastic Constant Matrix: (Units=GPa)
#
#
# Indices 1 2 3 4 5 6 
#
# 1 47.5195 26.7056 16.9195 0.0000 0.0000 0.0000
# 2 26.7056 107.7550 63.6784 0.0000 0.0000 0.0000
# 3 16.9195 63.6784 151.2814 0.0000 0.0000 0.0000
# 4 0.0000 0.0000 0.0000 19.4680 0.0000 0.0000
# 5 0.0000 0.0000 0.0000 0.0000 6.5444 0.0000
# 6 0.0000 0.0000 0.0000 0.0000 0.0000 11.5154
#
#
#
# Elastic Compliance Matrix: (Units=1/GPa)
#
#
# Indices 1 2 3 4 5 6 
#
# 1 0.024456 -0.005916 -0.000245 0.000000 0.000000 0.000000
# 2 -0.005916 0.013784 -0.005141 0.000000 0.000000 0.000000
# 3 -0.000245 -0.005141 0.008801 0.000000 0.000000 0.000000
# 4 0.000000 0.000000 0.000000 0.051366 0.000000 0.000000
# 5 0.000000 0.000000 0.000000 0.000000 0.152803 0.000000
# 6 0.000000 0.000000 0.000000 0.000000 0.000000 0.086840
#
#
# Mechanical properties :
#
#
# Convention : Reuss Voigt Hill
#
# Bulk Modulus (GPa) = 40.91927 57.90701 49.41314
# Shear Modulus (GPa) = 13.55744 20.78904 17.17324
#
# Velocity S-wave (km/s) = 2.69372 3.33566 3.03173
# Velocity P-wave (km/s) = 5.61921 6.76965 6.22108
#
# Compressibility (1/GPa) = 0.02443836
#
# Stress axis : x y z
#
# Youngs Moduli (GPa) = 40.88946 72.54542 113.61865
#
# Poissons Ratio (x) = 0.42921 0.02782
# Poissons Ratio (y) = 0.24192 0.58406
# Poissons Ratio (z) = 0.01001 0.37292
#
# Static dielectric constant tensor:
#      x y z
#    x 3.299150 0.000000 0.000000 
#    y 0.000000 3.440780 0.000000 
#    z 0.000000 0.000000 3.840580 
# 
# 
# High freq. dielectric constant tensor:
#      x y z
#    x 1.709740 0.000000 0.000000 
#    y 0.000000 1.711510 0.000000 
#    z 0.000000 0.000000 1.738060 
# 
# From -- ./inp_files/21685.got.cif
#   From: 2010.03.12/outbox.cif.g09.slc.cpg/sg47_11_cif.got.tgz:21685.got - 2010.04.14 03:12:58.
