data_PCOD8195937
_publ_section_title
;
Structure prediction by ZEFSAII (Michael W. Deem and Ramdas Pophale) SiO2 
 PCOD8195937
Probable space group: P M M M
;
_chemical_formula_sum "Si O2"
_cell_formula_units_Z 56
_cell_length_a 14.945405
_cell_length_b 22.508119
_cell_length_c 8.670788
_cell_angle_alpha 90.000000
_cell_angle_beta 90.000000
_cell_angle_gamma 90.000000
_cell_volume 2916.791991
_symmetry_space_group_name_H-M "P M M M"
_symmetry_group_IT_number 47
_symmetry_cell_setting 'orthorhombic'
loop_
_space_group_symop_operation_xyz
x,y,z
-x,-y,z
x,-y,-z
-x,y,-z
-x,-y,-z
x,y,-z
-x,y,z
x,-y,z
loop_
_atom_site_type_symbol
_atom_site_label
_atom_site_fract_x
_atom_site_fract_y
_atom_site_fract_z
Si Si1 0.324578 0.379742 0.679707
Si Si2 0.000000 0.432924 0.682076
Si Si3 0.394419 0.500000 0.821269
Si Si4 0.600038 0.066663 0.816731
Si Si5 0.100571 0.779236 0.678297
Si Si6 0.140283 0.346797 0.819640
Si Si7 0.598718 0.273081 0.823813
Si Si8 0.270651 0.168609 0.182715
O O1 0.301229 0.382810 0.500000
O O2 0.353721 0.443704 0.736841
O O3 0.242813 0.355136 0.778887
O O4 0.401057 0.331280 0.715044
O O5 0.911899 0.399933 0.738667
O O6 0.000000 0.500000 0.747376
O O7 0.000000 0.433322 0.500000
O O8 0.500000 0.500000 0.800151
O O9 0.366602 0.500000 0.000000
O O10 0.500000 0.083174 0.755928
O O11 0.675913 0.111245 0.751839
O O12 0.625129 0.000000 0.763233
O O13 0.598775 0.071032 0.000000
O O14 0.121110 0.767213 0.500000
O O15 0.106421 0.717102 0.766153
O O16 0.172150 0.826935 0.742674
O O17 0.000000 0.805003 0.701502
O O18 0.124048 0.351327 0.000000
O O19 0.500000 0.244033 0.810314
O O20 0.672189 0.225983 0.767757
O O21 0.617653 0.292328 0.000000
O O22 0.259432 0.164939 0.000000
#
# Coordination Sequence:
#
# PCOD8195937 Si02
#       8
#     8   4   4   8   8   8   8   8
#     4  12  25  40  59  82 112 146 186 234 286 342
#     4  11  25  43  63  87 117 147 182 229 289 352
#     4  11  25  45  65  82 105 142 189 237 285 343
#     4   8  14  27  51  86 126 164 200 240 289 344
#     4  11  23  39  59  82 113 149 189 240 300 357
#     4  12  24  40  62  85 112 145 187 234 286 348
#     4  10  20  34  53  80 115 150 186 231 285 344
#     4  10  19  32  55  86 118 153 197 242 289 347
#
# _framework density 19.199176999999999
#
# number of rings (size 3 to 8) (size 9 to 14) (size 15 to 20)
#    0.000    1.429    2.143    4.714    1.000    5.714 
#    0.000    0.000    0.000    2.143    0.000    4.000 
#    0.000    0.000    0.000    0.000    0.000    0.000 
#
# Total GULP energy -694430.315113 kJ/mol
# GULP energy per Si atom -12400.541341 kJ/mol
# Density = 1.915548 g / cm^3
# Si number density = 19.199177 Si / 1000 Ang^3
#
#
#
# Elastic Constant Matrix: (Units=GPa)
#
#
# Indices 1 2 3 4 5 6 
#
# 1 119.6093 57.2889 27.1921 0.0000 0.0000 0.0000
# 2 57.2889 123.2641 33.1291 0.0000 0.0000 0.0000
# 3 27.1921 33.1291 63.5604 0.0000 0.0000 0.0000
# 4 0.0000 0.0000 0.0000 7.9853 0.0000 0.0000
# 5 0.0000 0.0000 0.0000 0.0000 -32.7623 0.0000
# 6 0.0000 0.0000 0.0000 0.0000 0.0000 -110.9713
#
#
#
# Elastic Compliance Matrix: (Units=1/GPa)
#
#
# Indices 1 2 3 4 5 6 
#
# 1 0.011057 -0.004498 -0.002386 0.000000 0.000000 0.000000
# 2 -0.004498 0.011264 -0.003947 0.000000 0.000000 0.000000
# 3 -0.002386 -0.003947 0.018811 0.000000 0.000000 0.000000
# 4 0.000000 0.000000 0.000000 0.125230 0.000000 0.000000
# 5 0.000000 0.000000 0.000000 0.000000 -0.030523 0.000000
# 6 0.000000 0.000000 0.000000 0.000000 0.000000 -0.009011
#
#
# Mechanical properties :
#
#
# Convention : Reuss Voigt Hill
#
# Bulk Modulus (GPa) = 51.35882 60.18376 55.77129
# Shear Modulus (GPa) = 32.26245 -14.56140 8.85053
#
# Velocity S-wave (km/s) = 4.10373 -2.75696 2.14938
# Velocity P-wave (km/s) = 7.01874 4.61309 5.93899
#
# Compressibility (1/GPa) = 0.01947085
#
# Stress axis : x y z
#
# Youngs Moduli (GPa) = 90.43807 88.77996 53.16037
#
# Poissons Ratio (x) = 0.39931 0.12685
# Poissons Ratio (y) = 0.40677 0.20981
# Poissons Ratio (z) = 0.21580 0.35039
#
# Static dielectric constant tensor:
#      x y z
#    x 3.725130 0.000000 0.000000 
#    y 0.000000 2.258270 0.000000 
#    z 0.000000 0.000000 3.370760 
# 
# 
# High freq. dielectric constant tensor:
#      x y z
#    x 1.757400 0.000000 0.000000 
#    y 0.000000 1.733970 0.000000 
#    z 0.000000 0.000000 1.735110 
# 
# From -- ./inp_files/7428.got.cif
#   From: 2010.03.12/outbox.cif.g09.slc.cpg/sg47_4_cif.got.tgz:7428.got - 2010.04.14 03:12:58.
