data_PCOD8195829
_publ_section_title
;
Structure prediction by ZEFSAII (Michael W. Deem and Ramdas Pophale) SiO2 
 PCOD8195829
Probable space group: P M M M
;
_chemical_formula_sum "Si O2"
_cell_formula_units_Z 52
_cell_length_a 9.341317
_cell_length_b 17.466919
_cell_length_c 16.809454
_cell_angle_alpha 90.000000
_cell_angle_beta 90.000000
_cell_angle_gamma 90.000000
_cell_volume 2742.698213
_symmetry_space_group_name_H-M "P M M M"
_symmetry_group_IT_number 47
_symmetry_cell_setting 'orthorhombic'
loop_
_space_group_symop_operation_xyz
x,y,z
-x,-y,z
x,-y,-z
-x,y,-z
-x,-y,-z
x,y,-z
-x,y,z
x,-y,z
loop_
_atom_site_type_symbol
_atom_site_label
_atom_site_fract_x
_atom_site_fract_y
_atom_site_fract_z
Si Si1 0.661703 0.000000 0.904769
Si Si2 0.333708 0.295849 0.311532
Si Si3 0.667504 0.709652 0.873097
Si Si4 0.158674 0.858898 0.090911
Si Si5 0.838115 0.588743 0.410748
Si Si6 0.331716 0.585784 0.000000
Si Si7 0.161416 0.000000 0.405604
Si Si8 0.332743 0.148003 0.592415
O O1 0.744290 0.074430 0.869854
O O2 0.500000 0.000000 0.870572
O O3 0.655632 0.000000 0.000000
O O4 0.500000 0.304294 0.327804
O O5 0.295947 0.298651 0.219108
O O6 0.260319 0.368969 0.348700
O O7 0.278695 0.218310 0.353426
O O8 0.500000 0.727572 0.887590
O O9 0.760408 0.778827 0.905682
O O10 0.714048 0.632952 0.920830
O O11 0.000000 0.854485 0.131157
O O12 0.137043 0.881736 0.000000
O O13 0.782377 0.604363 0.500000
O O14 0.829477 0.500000 0.390067
O O15 0.000000 0.618455 0.402385
O O16 0.261548 0.500000 0.000000
O O17 0.500000 0.575393 0.000000
O O18 0.244859 0.075118 0.375983
O O19 0.159930 0.000000 0.500000
O O20 0.000000 0.000000 0.371370
O O21 0.299890 0.166714 0.500000
O O22 0.500000 0.130670 0.604784
#
# Coordination Sequence:
#
# PCOD8195829 Si02
#       8
#     4   8   8   8   8   4   4   8
#     4   9  17  29  50  79 106 135 173 215 262 318
#     4  10  21  34  52  81 110 139 179 226 270 317
#     4  10  20  35  55  78 106 141 180 222 273 329
#     4  10  19  32  52  77 106 137 174 219 267 317
#     4   9  19  36  56  78 107 144 180 213 260 324
#     4   9  18  34  57  80 101 132 175 221 268 323
#     4   9  17  29  48  75 102 132 178 224 256 297
#     4   9  17  31  50  72 103 140 174 212 264 316
#
# _framework density 18.959433000000001
#
# number of rings (size 3 to 8) (size 9 to 14) (size 15 to 20)
#    0.000    2.538    0.769    1.846    0.000    5.538 
#    0.000    4.615    0.000    2.769    0.000    0.000 
#    0.000    0.000    0.000    0.000    0.000    0.000 
#
# Total GULP energy -644702.901275 kJ/mol
# GULP energy per Si atom -12398.132717 kJ/mol
# Density = 1.891628 g / cm^3
# Si number density = 18.959433 Si / 1000 Ang^3
#
#
#
# Elastic Constant Matrix: (Units=GPa)
#
#
# Indices 1 2 3 4 5 6 
#
# 1 69.1341 53.9422 33.8867 0.0000 0.0000 0.0000
# 2 53.9422 136.9108 53.9859 0.0000 0.0000 0.0000
# 3 33.8867 53.9859 85.0952 0.0000 0.0000 0.0000
# 4 0.0000 0.0000 0.0000 1.7029 0.0000 0.0000
# 5 0.0000 0.0000 0.0000 0.0000 16.1886 0.0000
# 6 0.0000 0.0000 0.0000 0.0000 0.0000 -3.2742
#
#
#
# Elastic Compliance Matrix: (Units=1/GPa)
#
#
# Indices 1 2 3 4 5 6 
#
# 1 0.022033 -0.006963 -0.004357 0.000000 0.000000 0.000000
# 2 -0.006963 0.011941 -0.004803 0.000000 0.000000 0.000000
# 3 -0.004357 -0.004803 0.016533 0.000000 0.000000 0.000000
# 4 0.000000 0.000000 0.000000 0.587239 0.000000 0.000000
# 5 0.000000 0.000000 0.000000 0.000000 0.061772 0.000000
# 6 0.000000 0.000000 0.000000 0.000000 0.000000 -0.305421
#
#
# Mechanical properties :
#
#
# Convention : Reuss Voigt Hill
#
# Bulk Modulus (GPa) = 54.75628 63.86328 59.30978
# Shear Modulus (GPa) = 11.56256 12.87849 12.22052
#
# Velocity S-wave (km/s) = 2.47221 2.60910 2.54158
# Velocity P-wave (km/s) = 6.09037 6.54476 6.32164
#
# Compressibility (1/GPa) = 0.01826274
#
# Stress axis : x y z
#
# Youngs Moduli (GPa) = 45.38648 83.74303 60.48337
#
# Poissons Ratio (x) = 0.58311 0.26350
# Poissons Ratio (y) = 0.31603 0.29050
# Poissons Ratio (z) = 0.19773 0.40221
#
# Static dielectric constant tensor:
#      x y z
#    x 3.499380 0.000000 0.000000 
#    y 0.000000 3.554860 0.000000 
#    z 0.000000 0.000000 2.599220 
# 
# 
# High freq. dielectric constant tensor:
#      x y z
#    x 1.729640 0.000000 0.000000 
#    y 0.000000 1.742760 0.000000 
#    z 0.000000 0.000000 1.714200 
# 
# From -- ./inp_files/26825.got.cif
#   From: 2010.03.12/outbox.cif.g09.slc.cpg/sg47_14_cif.got.tgz:26825.got - 2010.04.14 03:12:58.
