data_PCOD8195719
_publ_section_title
;
Structure prediction by ZEFSAII (Michael W. Deem and Ramdas Pophale) SiO2 
 PCOD8195719
Probable space group: P M M M
;
_chemical_formula_sum "Si O2"
_cell_formula_units_Z 36
_cell_length_a 8.892764
_cell_length_b 13.721372
_cell_length_c 16.286500
_cell_angle_alpha 90.000000
_cell_angle_beta 90.000000
_cell_angle_gamma 90.000000
_cell_volume 1987.293762
_symmetry_space_group_name_H-M "P M M M"
_symmetry_group_IT_number 47
_symmetry_cell_setting 'orthorhombic'
loop_
_space_group_symop_operation_xyz
x,y,z
-x,-y,z
x,-y,-z
-x,y,-z
-x,-y,-z
x,y,-z
-x,y,z
x,-y,z
loop_
_atom_site_type_symbol
_atom_site_label
_atom_site_fract_x
_atom_site_fract_y
_atom_site_fract_z
Si Si1 0.678391 0.109948 0.246522
Si Si2 0.177477 0.287871 0.165261
Si Si3 0.821312 0.610194 0.000000
Si Si4 0.324035 0.206535 0.410588
Si Si5 0.326648 0.390456 0.687605
O O1 0.500000 0.122900 0.243637
O O2 0.749476 0.181672 0.179309
O O3 0.739422 0.137458 0.337980
O O4 0.727892 0.000000 0.225948
O O5 0.236691 0.331141 0.079395
O O6 0.224112 0.364095 0.235084
O O7 0.000000 0.275004 0.165436
O O8 0.755458 0.500000 0.000000
O O9 0.000000 0.604484 0.000000
O O10 0.249677 0.183595 0.500000
O O11 0.500000 0.188056 0.418038
O O12 0.289706 0.319119 0.388170
O O13 0.500000 0.377609 0.714641
O O14 0.291171 0.500000 0.658769
#
# Coordination Sequence:
#
# PCOD8195719 Si02
#       5
#     8   8   4   8   8
#     4   9  18  33  51  70  95 125 155 192 238 282
#     4  10  19  32  51  72  94 121 156 196 234 276
#     4   9  18  32  50  73  98 122 151 189 230 271
#     4   8  14  25  43  69  96 120 153 196 235 272
#     4   9  17  29  45  67  97 129 158 190 231 279
#
# _framework density 18.115086000000002
#
# number of rings (size 3 to 8) (size 9 to 14) (size 15 to 20)
#    0.000    3.000    0.000    2.667    0.000    2.667 
#    0.000    7.222    0.000   18.000    0.000   12.444 
#    0.000    0.000    0.000    0.000    0.000    0.000 
#
# Total GULP energy -446204.302294 kJ/mol
# GULP energy per Si atom -12394.563953 kJ/mol
# Density = 1.807386 g / cm^3
# Si number density = 18.115086 Si / 1000 Ang^3
#
#
#
# Elastic Constant Matrix: (Units=GPa)
#
#
# Indices 1 2 3 4 5 6 
#
# 1 29.5791 27.6337 21.8530 0.0000 0.0000 0.0000
# 2 27.6337 148.9320 56.1206 0.0000 0.0000 0.0000
# 3 21.8530 56.1206 124.2814 0.0000 0.0000 0.0000
# 4 0.0000 0.0000 0.0000 18.6388 0.0000 0.0000
# 5 0.0000 0.0000 0.0000 0.0000 11.6398 0.0000
# 6 0.0000 0.0000 0.0000 0.0000 0.0000 22.8912
#
#
#
# Elastic Compliance Matrix: (Units=1/GPa)
#
#
# Indices 1 2 3 4 5 6 
#
# 1 0.043135 -0.006201 -0.004785 0.000000 0.000000 0.000000
# 2 -0.006201 0.008983 -0.002966 0.000000 0.000000 0.000000
# 3 -0.004785 -0.002966 0.010227 0.000000 0.000000 0.000000
# 4 0.000000 0.000000 0.000000 0.053652 0.000000 0.000000
# 5 0.000000 0.000000 0.000000 0.000000 0.085912 0.000000
# 6 0.000000 0.000000 0.000000 0.000000 0.000000 0.043685
#
#
# Mechanical properties :
#
#
# Convention : Reuss Voigt Hill
#
# Bulk Modulus (GPa) = 29.03403 57.11189 43.07296
# Shear Modulus (GPa) = 17.54527 23.77962 20.66245
#
# Velocity S-wave (km/s) = 3.11552 3.62705 3.38097
# Velocity P-wave (km/s) = 5.38556 7.00973 6.25062
#
# Compressibility (1/GPa) = 0.03444235
#
# Stress axis : x y z
#
# Youngs Moduli (GPa) = 23.18281 111.32669 97.78166
#
# Poissons Ratio (x) = 0.69029 0.46786
# Poissons Ratio (y) = 0.14375 0.29001
# Poissons Ratio (z) = 0.11092 0.33018
#
# Static dielectric constant tensor:
#      x y z
#    x 2.974700 0.000000 0.000000 
#    y 0.000000 3.482690 0.000000 
#    z 0.000000 0.000000 3.509260 
# 
# 
# High freq. dielectric constant tensor:
#      x y z
#    x 1.662360 0.000000 0.000000 
#    y 0.000000 1.708180 0.000000 
#    z 0.000000 0.000000 1.695160 
# 
# From -- ./inp_files/5502.got.cif
#   From: 2010.03.12/outbox.cif.g09.slc.cpg/sg47_3_cif.got.tgz:5502.got - 2010.04.14 03:12:58.
