data_PCOD8195546
_publ_section_title
;
Structure prediction by ZEFSAII (Michael W. Deem and Ramdas Pophale) SiO2 
 PCOD8195546
Probable space group: P M M M
;
_chemical_formula_sum "Si O2"
_cell_formula_units_Z 56
_cell_length_a 20.604457
_cell_length_b 15.028794
_cell_length_c 9.041148
_cell_angle_alpha 90.000000
_cell_angle_beta 90.000000
_cell_angle_gamma 90.000000
_cell_volume 2799.683153
_symmetry_space_group_name_H-M "P M M M"
_symmetry_group_IT_number 47
_symmetry_cell_setting 'orthorhombic'
loop_
_space_group_symop_operation_xyz
x,y,z
-x,-y,z
x,-y,-z
-x,y,-z
-x,-y,-z
x,y,-z
-x,y,z
x,-y,z
loop_
_atom_site_type_symbol
_atom_site_label
_atom_site_fract_x
_atom_site_fract_y
_atom_site_fract_z
Si Si1 0.327410 0.355674 0.332206
Si Si2 0.904773 0.900738 0.326678
Si Si3 0.340435 0.158718 0.333234
Si Si4 0.070832 0.278313 0.171070
Si Si5 0.775047 0.099204 0.836601
Si Si6 0.807345 0.397340 0.824596
Si Si7 0.429113 0.000000 0.675089
Si Si8 0.426680 0.500000 0.323955
O O1 0.309837 0.383542 0.500000
O O2 0.363218 0.260187 0.330275
O O3 0.259936 0.361195 0.242703
O O4 0.384344 0.416888 0.265870
O O5 0.914261 0.887914 0.500000
O O6 0.938420 0.818364 0.246323
O O7 0.830069 0.895121 0.285023
O O8 0.931431 0.000000 0.280075
O O9 0.319735 0.129857 0.500000
O O10 0.280856 0.162226 0.220854
O O11 0.393807 0.090165 0.271826
O O12 0.130607 0.338565 0.233728
O O13 0.000000 0.326128 0.193381
O O14 0.084453 0.260789 0.000000
O O15 0.746853 0.000000 0.845064
O O16 0.798835 0.130674 0.000000
O O17 0.818767 0.500000 0.777038
O O18 0.802075 0.389531 0.000000
O O19 0.500000 0.000000 0.748964
O O20 0.435326 0.000000 0.500000
O O21 0.500000 0.500000 0.256315
O O22 0.432502 0.500000 0.500000
#
# Coordination Sequence:
#
# PCOD8195546 Si02
#       8
#     8   8   8   8   8   8   4   4
#     4  10  20  34  56  85 111 142 183 228 278 332
#     4  10  21  36  55  80 112 150 189 230 276 329
#     4  10  19  31  51  77 106 141 182 227 275 327
#     4  10  22  39  58  83 115 150 190 235 282 335
#     4  10  19  31  50  76 105 138 179 225 274 324
#     4  10  21  38  61  86 112 145 185 232 287 343
#     4   9  18  32  49  73 109 149 186 227 274 327
#     4   9  18  34  55  81 114 145 176 222 277 331
#
# _framework density 20.002262000000002
#
# number of rings (size 3 to 8) (size 9 to 14) (size 15 to 20)
#    0.000    2.143    1.429    1.714    0.000    6.286 
#    0.000    5.714    0.000    1.714    0.000    4.000 
#    0.000    0.000    0.000    0.000    0.000    0.000 
#
# Total GULP energy -693756.878024 kJ/mol
# GULP energy per Si atom -12388.515679 kJ/mol
# Density = 1.995674 g / cm^3
# Si number density = 20.002262 Si / 1000 Ang^3
#
#
#
# Elastic Constant Matrix: (Units=GPa)
#
#
# Indices 1 2 3 4 5 6 
#
# 1 154.5879 67.9270 25.6803 0.0000 0.0000 0.0000
# 2 67.9270 134.5537 24.0247 0.0000 0.0000 0.0000
# 3 25.6803 24.0247 36.9984 0.0000 0.0000 0.0000
# 4 0.0000 0.0000 0.0000 22.9305 0.0000 0.0000
# 5 0.0000 0.0000 0.0000 0.0000 18.1023 0.0000
# 6 0.0000 0.0000 0.0000 0.0000 0.0000 15.3725
#
#
#
# Elastic Compliance Matrix: (Units=1/GPa)
#
#
# Indices 1 2 3 4 5 6 
#
# 1 0.008720 -0.003757 -0.003613 0.000000 0.000000 0.000000
# 2 -0.003757 0.010025 -0.003902 0.000000 0.000000 0.000000
# 3 -0.003613 -0.003902 0.032070 0.000000 0.000000 0.000000
# 4 0.000000 0.000000 0.000000 0.043610 0.000000 0.000000
# 5 0.000000 0.000000 0.000000 0.000000 0.055242 0.000000
# 6 0.000000 0.000000 0.000000 0.000000 0.000000 0.065051
#
#
# Mechanical properties :
#
#
# Convention : Reuss Voigt Hill
#
# Bulk Modulus (GPa) = 35.37209 62.37824 48.87517
# Shear Modulus (GPa) = 20.26876 25.18161 22.72518
#
# Velocity S-wave (km/s) = 3.18673 3.55200 3.37431
# Velocity P-wave (km/s) = 5.59131 6.93366 6.29835
#
# Compressibility (1/GPa) = 0.02827087
#
# Stress axis : x y z
#
# Youngs Moduli (GPa) = 114.68136 99.74706 31.18211
#
# Poissons Ratio (x) = 0.37475 0.11265
# Poissons Ratio (y) = 0.43085 0.12168
# Poissons Ratio (z) = 0.41432 0.38923
#
# Static dielectric constant tensor:
#      x y z
#    x 3.710000 0.000000 0.000000 
#    y 0.000000 3.897700 0.000000 
#    z 0.000000 0.000000 3.429330 
# 
# 
# High freq. dielectric constant tensor:
#      x y z
#    x 1.776670 0.000000 0.000000 
#    y 0.000000 1.789340 0.000000 
#    z 0.000000 0.000000 1.752020 
# 
# From -- ./inp_files/11336.got.cif
#   From: 2010.03.12/outbox.cif.g09.slc.cpg/sg47_6_cif.got.tgz:11336.got - 2010.04.14 03:12:58.
