data_PCOD8195633
_publ_section_title
;
Structure prediction by ZEFSAII (Michael W. Deem and Ramdas Pophale) SiO2 
 PCOD8195633
Probable space group: P M M M
;
_chemical_formula_sum "Si O2"
_cell_formula_units_Z 40
_cell_length_a 18.534608
_cell_length_b 7.996437
_cell_length_c 18.167398
_cell_angle_alpha 90.000000
_cell_angle_beta 90.000000
_cell_angle_gamma 90.000000
_cell_volume 2692.605049
_symmetry_space_group_name_H-M "P M M M"
_symmetry_group_IT_number 47
_symmetry_cell_setting 'orthorhombic'
loop_
_space_group_symop_operation_xyz
x,y,z
-x,-y,z
x,-y,-z
-x,y,-z
-x,-y,-z
x,y,-z
-x,y,z
x,-y,z
loop_
_atom_site_type_symbol
_atom_site_label
_atom_site_fract_x
_atom_site_fract_y
_atom_site_fract_z
Si Si1 0.267613 0.696802 0.586014
Si Si2 0.576138 0.301671 0.582968
Si Si3 0.000000 0.690134 0.586792
Si Si4 0.866506 0.187783 0.325780
Si Si5 0.914319 0.000000 0.917634
Si Si6 0.084051 0.686790 0.177676
O O1 0.259170 0.744203 0.500000
O O2 0.255921 0.500000 0.596264
O O3 0.346997 0.756515 0.616875
O O4 0.209986 0.792326 0.634907
O O5 0.573936 0.234375 0.500000
O O6 0.500000 0.241243 0.622098
O O7 0.577728 0.500000 0.582118
O O8 0.928389 0.778100 0.615233
O O9 0.000000 0.500000 0.614370
O O10 0.000000 0.703851 0.500000
O O11 0.873064 0.305464 0.254545
O O12 0.874529 0.000000 0.296580
O O13 0.887141 0.829878 0.877816
O O14 0.000000 0.000000 0.920792
O O15 0.881970 0.000000 0.000000
O O16 0.096032 0.500000 0.144042
O O17 0.000000 0.718015 0.195271
#
# Coordination Sequence:
#
# PCOD8195633 Si02
#       6
#     8   8   4   8   4   8
#     4   9  17  28  41  58  80 106 141 186 227 262
#     4   7  10  19  37  58  76  96 128 173 222 266
#     4  11  23  35  45  57  73 102 147 193 233 267
#     4  12  22  31  43  58  81 111 147 183 221 264
#     4   9  18  32  50  72  92 108 133 170 211 255
#     4  10  19  32  49  66  86 113 143 174 214 260
#
# _framework density 14.855502
#
# number of rings (size 3 to 8) (size 9 to 14) (size 15 to 20)
#    0.000    2.400    2.000    4.500    0.000    4.000 
#    0.000    2.000    0.000    0.600    0.000    2.800 
#    0.000    0.000    0.000    0.000    0.000    2.000 
#
# Total GULP energy -495538.955799 kJ/mol
# GULP energy per Si atom -12388.473895 kJ/mol
# Density = 1.482169 g / cm^3
# Si number density = 14.855502 Si / 1000 Ang^3
#
#
#
# Elastic Constant Matrix: (Units=GPa)
#
#
# Indices 1 2 3 4 5 6 
#
# 1 104.1049 20.7432 26.5949 0.0000 0.0000 0.0000
# 2 20.7432 78.7096 28.6918 0.0000 0.0000 0.0000
# 3 26.5949 28.6918 59.6008 0.0000 0.0000 0.0000
# 4 0.0000 0.0000 0.0000 16.7070 0.0000 0.0000
# 5 0.0000 0.0000 0.0000 0.0000 44.9502 0.0000
# 6 0.0000 0.0000 0.0000 0.0000 0.0000 -3.2547
#
#
#
# Elastic Compliance Matrix: (Units=1/GPa)
#
#
# Indices 1 2 3 4 5 6 
#
# 1 0.010957 -0.001341 -0.004244 0.000000 0.000000 0.000000
# 2 -0.001341 0.015573 -0.006899 0.000000 0.000000 0.000000
# 3 -0.004244 -0.006899 0.021993 0.000000 0.000000 0.000000
# 4 0.000000 0.000000 0.000000 0.059855 0.000000 0.000000
# 5 0.000000 0.000000 0.000000 0.000000 0.022247 0.000000
# 6 0.000000 0.000000 0.000000 0.000000 0.000000 -0.307251
#
#
# Mechanical properties :
#
#
# Convention : Reuss Voigt Hill
#
# Bulk Modulus (GPa) = 42.45060 43.83057 43.14059
# Shear Modulus (GPa) = -34.76854 22.77287 -5.99784
#
# Velocity S-wave (km/s) = -4.84307 3.91955 -2.01152
# Velocity P-wave (km/s) = 1.62358 7.07478 4.86911
#
# Compressibility (1/GPa) = 0.02355679
#
# Stress axis : x y z
#
# Youngs Moduli (GPa) = 91.26628 64.21386 45.46910
#
# Poissons Ratio (x) = 0.08609 0.19296
# Poissons Ratio (y) = 0.12235 0.31367
# Poissons Ratio (z) = 0.38732 0.44299
#
# Static dielectric constant tensor:
#      x y z
#    x 3.066640 0.000000 0.000000 
#    y 0.000000 2.892400 0.000000 
#    z 0.000000 0.000000 2.576920 
# 
# 
# High freq. dielectric constant tensor:
#      x y z
#    x 1.554320 0.000000 0.000000 
#    y 0.000000 1.572760 0.000000 
#    z 0.000000 0.000000 1.518230 
# 
# From -- ./inp_files/28400.got.cif
#   From: 2010.03.12/outbox.cif.g09.slc.cpg/sg47_15_cif.got.tgz:28400.got - 2010.04.14 03:12:58.
