data_PCOD8195504
_publ_section_title
;
Structure prediction by ZEFSAII (Michael W. Deem and Ramdas Pophale) SiO2 
 PCOD8195504
Probable space group: P M M M
;
_chemical_formula_sum "Si O2"
_cell_formula_units_Z 60
_cell_length_a 20.486378
_cell_length_b 9.439973
_cell_length_c 17.248969
_cell_angle_alpha 90.000000
_cell_angle_beta 90.000000
_cell_angle_gamma 90.000000
_cell_volume 3335.792866
_symmetry_space_group_name_H-M "P M M M"
_symmetry_group_IT_number 47
_symmetry_cell_setting 'orthorhombic'
loop_
_space_group_symop_operation_xyz
x,y,z
-x,-y,z
x,-y,-z
-x,y,-z
-x,-y,-z
x,y,-z
-x,y,z
x,-y,z
loop_
_atom_site_type_symbol
_atom_site_label
_atom_site_fract_x
_atom_site_fract_y
_atom_site_fract_z
Si Si1 0.237886 0.841326 0.652940
Si Si2 0.575799 0.166072 0.810645
Si Si3 0.869865 0.663646 0.585466
Si Si4 0.613389 0.842577 0.360875
Si Si5 0.573572 0.348831 0.500000
Si Si6 0.792364 0.665575 0.798916
Si Si7 0.070353 0.333670 0.746049
Si Si8 0.321135 0.335052 0.088933
O O1 0.194873 0.758916 0.589775
O O2 0.310355 0.849843 0.621256
O O3 0.241724 0.756303 0.732884
O O4 0.209930 0.000000 0.666461
O O5 0.500000 0.202541 0.826932
O O6 0.595590 0.214994 0.724447
O O7 0.621107 0.248829 0.870867
O O8 0.589608 0.000000 0.821423
O O9 0.902160 0.687215 0.500000
O O10 0.849705 0.500000 0.596035
O O11 0.916960 0.710223 0.656063
O O12 0.584540 0.737919 0.422619
O O13 0.582973 0.000000 0.370591
O O14 0.613017 0.500000 0.500000
O O15 0.500000 0.392812 0.500000
O O16 0.789170 0.500000 0.776433
O O17 0.869344 0.713737 0.802035
O O18 0.751489 0.696956 0.876733
O O19 0.063136 0.500000 0.751524
O O20 0.000000 0.265617 0.771054
O O21 0.337868 0.500000 0.098605
O O22 0.318005 0.288213 0.000000
#
# Coordination Sequence:
#
# PCOD8195504 Si02
#       8
#     8   8   8   8   4   8   8   8
#     4  10  19  31  50  73  95 123 166 211 253 302
#     4  10  21  38  59  81 105 136 175 217 262 314
#     4   9  18  30  44  67 100 135 170 209 257 306
#     4  10  21  37  56  75  99 134 173 216 267 317
#     4  11  25  39  51  73 101 131 172 219 264 311
#     4   9  17  32  53  75 101 132 166 205 250 300
#     4   8  14  26  47  74 100 130 172 216 254 298
#     4  10  21  36  55  80 110 142 173 209 258 316
#
# _framework density 17.986727999999999
#
# number of rings (size 3 to 8) (size 9 to 14) (size 15 to 20)
#    0.000    2.467    1.333    1.800    0.933    4.000 
#    0.000    2.667    0.000    6.800    0.000    6.533 
#    0.000    0.000    0.000    6.000    0.000    6.667 
#
# Total GULP energy -743458.044821 kJ/mol
# GULP energy per Si atom -12390.967414 kJ/mol
# Density = 1.794579 g / cm^3
# Si number density = 17.986728 Si / 1000 Ang^3
#
#
#
# Elastic Constant Matrix: (Units=GPa)
#
#
# Indices 1 2 3 4 5 6 
#
# 1 125.7671 34.0034 54.4644 0.0000 0.0000 0.0000
# 2 34.0034 68.3272 42.6612 0.0000 0.0000 0.0000
# 3 54.4644 42.6612 116.4672 0.0000 0.0000 0.0000
# 4 0.0000 0.0000 0.0000 27.4314 0.0000 0.0000
# 5 0.0000 0.0000 0.0000 0.0000 -11.4951 0.0000
# 6 0.0000 0.0000 0.0000 0.0000 0.0000 13.6647
#
#
#
# Elastic Compliance Matrix: (Units=1/GPa)
#
#
# Indices 1 2 3 4 5 6 
#
# 1 0.010357 -0.002762 -0.003832 0.000000 0.000000 0.000000
# 2 -0.002762 0.019712 -0.005929 0.000000 0.000000 0.000000
# 3 -0.003832 -0.005929 0.012550 0.000000 0.000000 0.000000
# 4 0.000000 0.000000 0.000000 0.036455 0.000000 0.000000
# 5 0.000000 0.000000 0.000000 0.000000 -0.086994 0.000000
# 6 0.000000 0.000000 0.000000 0.000000 0.000000 0.073181
#
#
# Mechanical properties :
#
#
# Convention : Reuss Voigt Hill
#
# Bulk Modulus (GPa) = 56.90290 63.64660 60.27475
# Shear Modulus (GPa) = 51.99490 17.88237 34.93864
#
# Velocity S-wave (km/s) = 5.38239 3.15651 4.41212
# Velocity P-wave (km/s) = 8.38639 6.98190 7.71617
#
# Compressibility (1/GPa) = 0.01757380
#
# Stress axis : x y z
#
# Youngs Moduli (GPa) = 96.54995 50.73153 79.68374
#
# Poissons Ratio (x) = 0.14012 0.30533
# Poissons Ratio (y) = 0.26667 0.47242
# Poissons Ratio (z) = 0.36996 0.30077
#
# Static dielectric constant tensor:
#      x y z
#    x 3.588330 0.000000 0.000000 
#    y 0.000000 3.336220 0.000000 
#    z 0.000000 0.000000 3.191030 
# 
# 
# High freq. dielectric constant tensor:
#      x y z
#    x 1.698080 0.000000 0.000000 
#    y 0.000000 1.684920 0.000000 
#    z 0.000000 0.000000 1.677130 
# 
# From -- ./inp_files/11560.got.cif
#   From: 2010.03.12/outbox.cif.g09.slc.cpg/sg47_6_cif.got.tgz:11560.got - 2010.04.14 03:12:58.
