data_PCOD8195616
_publ_section_title
;
Structure prediction by ZEFSAII (Michael W. Deem and Ramdas Pophale) SiO2 
 PCOD8195616
Probable space group: P M M M
;
_chemical_formula_sum "Si O2"
_cell_formula_units_Z 36
_cell_length_a 17.225488
_cell_length_b 7.849038
_cell_length_c 17.157514
_cell_angle_alpha 90.000000
_cell_angle_beta 90.000000
_cell_angle_gamma 90.000000
_cell_volume 2319.756114
_symmetry_space_group_name_H-M "P M M M"
_symmetry_group_IT_number 47
_symmetry_cell_setting 'orthorhombic'
loop_
_space_group_symop_operation_xyz
x,y,z
-x,-y,z
x,-y,-z
-x,y,-z
-x,-y,-z
x,y,-z
-x,y,z
x,-y,z
loop_
_atom_site_type_symbol
_atom_site_label
_atom_site_fract_x
_atom_site_fract_y
_atom_site_fract_z
Si Si1 0.802627 0.801789 0.908473
Si Si2 0.086257 0.500000 0.907883
Si Si3 0.586993 0.801109 0.336374
Si Si4 0.348551 0.803660 0.821105
Si Si5 0.587380 0.300380 0.500000
Si Si6 0.500000 0.699008 0.909824
O O1 0.871438 0.675211 0.881454
O O2 0.727059 0.727977 0.863466
O O3 0.823260 0.000000 0.888547
O O4 0.785316 0.783737 0.000000
O O5 0.000000 0.500000 0.870768
O O6 0.080461 0.500000 0.000000
O O7 0.500000 0.719864 0.335356
O O8 0.636988 0.721058 0.265052
O O9 0.628119 0.764393 0.420138
O O10 0.580113 0.000000 0.321650
O O11 0.424059 0.781015 0.873322
O O12 0.330400 0.000000 0.810832
O O13 0.588405 0.500000 0.500000
O O14 0.500000 0.224874 0.500000
O O15 0.500000 0.500000 0.893459
O O16 0.500000 0.744914 0.000000
#
# Coordination Sequence:
#
# PCOD8195616 Si02
#       6
#     8   4   8   8   4   4
#     4   9  18  31  47  67  91 119 150 185 226 269
#     4   9  18  32  50  69  89 114 145 183 225 272
#     4   9  16  28  43  58  77 107 147 185 220 259
#     4  10  19  32  46  61  83 115 153 190 224 259
#     4   9  17  27  39  57  79 103 137 182 227 260
#     4  11  23  31  39  58  83 116 155 191 224 257
#
# _framework density 15.518872999999999
#
# number of rings (size 3 to 8) (size 9 to 14) (size 15 to 20)
#    0.000    2.556    1.111    1.333    1.556    4.444 
#    0.000    2.222    0.000    0.000    0.000    0.000 
#    0.000    0.000    0.000    2.000    0.000   16.889 
#
# Total GULP energy -446079.126036 kJ/mol
# GULP energy per Si atom -12391.086834 kJ/mol
# Density = 1.548355 g / cm^3
# Si number density = 15.518873 Si / 1000 Ang^3
#
#
#
# Elastic Constant Matrix: (Units=GPa)
#
#
# Indices 1 2 3 4 5 6 
#
# 1 105.5632 33.5791 41.1146 0.0000 0.0000 0.0000
# 2 33.5791 47.3687 22.8447 0.0000 0.0000 0.0000
# 3 41.1146 22.8447 96.4393 0.0000 0.0000 0.0000
# 4 0.0000 0.0000 0.0000 8.7299 0.0000 0.0000
# 5 0.0000 0.0000 0.0000 0.0000 0.5249 0.0000
# 6 0.0000 0.0000 0.0000 0.0000 0.0000 18.2860
#
#
#
# Elastic Compliance Matrix: (Units=1/GPa)
#
#
# Indices 1 2 3 4 5 6 
#
# 1 0.013425 -0.007628 -0.003916 0.000000 0.000000 0.000000
# 2 -0.007628 0.028168 -0.003421 0.000000 0.000000 0.000000
# 3 -0.003916 -0.003421 0.012849 0.000000 0.000000 0.000000
# 4 0.000000 0.000000 0.000000 0.114549 0.000000 0.000000
# 5 0.000000 0.000000 0.000000 0.000000 1.905222 0.000000
# 6 0.000000 0.000000 0.000000 0.000000 0.000000 0.054687
#
#
# Mechanical properties :
#
#
# Convention : Reuss Voigt Hill
#
# Bulk Modulus (GPa) = 40.79597 49.38310 45.08954
# Shear Modulus (GPa) = 2.30734 15.63033 8.96883
#
# Velocity S-wave (km/s) = 1.22066 3.17706 2.40663
# Velocity P-wave (km/s) = 5.32276 6.73414 6.06961
#
# Compressibility (1/GPa) = 0.02451222
#
# Stress axis : x y z
#
# Youngs Moduli (GPa) = 74.48937 35.50143 77.82624
#
# Poissons Ratio (x) = 0.27080 0.30480
# Poissons Ratio (y) = 0.56819 0.26621
# Poissons Ratio (z) = 0.29173 0.12143
#
# Static dielectric constant tensor:
#      x y z
#    x 2.893310 0.000000 0.000000 
#    y 0.000000 2.945830 0.000000 
#    z 0.000000 0.000000 3.291020 
# 
# 
# High freq. dielectric constant tensor:
#      x y z
#    x 1.546170 0.000000 0.000000 
#    y 0.000000 1.600260 0.000000 
#    z 0.000000 0.000000 1.588530 
# 
# From -- ./inp_files/20597.got.cif
#   From: 2010.03.12/outbox.cif.g09.slc.cpg/sg47_11_cif.got.tgz:20597.got - 2010.04.14 03:12:58.
