data_PCOD8195004
_publ_section_title
;
Structure prediction by ZEFSAII (Michael W. Deem and Ramdas Pophale) SiO2 
 PCOD8195004
Probable space group: P M M M
;
_chemical_formula_sum "Si O2"
_cell_formula_units_Z 64
_cell_length_a 8.883469
_cell_length_b 20.103788
_cell_length_c 19.883505
_cell_angle_alpha 90.000000
_cell_angle_beta 90.000000
_cell_angle_gamma 90.000000
_cell_volume 3551.022547
_symmetry_space_group_name_H-M "P M M M"
_symmetry_group_IT_number 47
_symmetry_cell_setting 'orthorhombic'
loop_
_space_group_symop_operation_xyz
x,y,z
-x,-y,z
x,-y,-z
-x,y,-z
-x,-y,-z
x,y,-z
-x,y,z
x,-y,z
loop_
_atom_site_type_symbol
_atom_site_label
_atom_site_fract_x
_atom_site_fract_y
_atom_site_fract_z
Si Si1 0.325324 0.295828 0.238255
Si Si2 0.673644 0.924741 0.078815
Si Si3 0.828611 0.134112 0.426030
Si Si4 0.177039 0.071636 0.709652
Si Si5 0.176741 0.426355 0.281789
Si Si6 0.177147 0.606126 0.572135
Si Si7 0.821651 0.172253 0.180226
Si Si8 0.672888 0.264723 0.390430
O O1 0.500000 0.301535 0.220736
O O2 0.257057 0.370657 0.235935
O O3 0.249128 0.246409 0.183765
O O4 0.293105 0.264690 0.311064
O O5 0.500000 0.914201 0.098555
O O6 0.773201 0.868067 0.114079
O O7 0.724239 0.000000 0.099380
O O8 0.697619 0.914999 0.000000
O O9 0.813158 0.100968 0.500000
O O10 0.783382 0.081716 0.368762
O O11 0.713175 0.194363 0.421506
O O12 0.000000 0.159243 0.413895
O O13 0.242877 0.129994 0.756304
O O14 0.000000 0.070025 0.721178
O O15 0.246268 0.000000 0.730580
O O16 0.209121 0.500000 0.251807
O O17 0.240898 0.426931 0.359195
O O18 0.000000 0.410228 0.281950
O O19 0.234567 0.575042 0.500000
O O20 0.222829 0.682898 0.571812
O O21 0.000000 0.598954 0.573730
O O22 0.000000 0.180470 0.180859
O O23 0.500000 0.282042 0.404975
#
# Coordination Sequence:
#
# PCOD8195004 Si02
#       8
#     8   8   8   8   8   8   8   8
#     4  10  20  33  50  71  96 128 168 209 253 308
#     4   9  19  36  56  80 115 155 185 209 245 298
#     4  10  19  30  45  62  83 115 155 202 258 315
#     4   9  18  31  46  67  93 120 156 205 258 305
#     4   9  18  32  49  69  95 126 160 204 260 315
#     4   9  17  28  43  63  87 116 152 194 246 312
#     4  11  20  32  54  79 105 135 171 219 261 296
#     4  10  19  30  44  62  86 115 152 201 253 304
#
# _framework density 18.022977000000001
#
# number of rings (size 3 to 8) (size 9 to 14) (size 15 to 20)
#    0.000    2.375    1.250    2.250    0.000    4.750 
#    0.000    3.125    0.000    1.125    0.000    4.375 
#    0.000    0.500    0.000    5.250    0.000    2.250 
#
# Total GULP energy -793110.006718 kJ/mol
# GULP energy per Si atom -12392.343855 kJ/mol
# Density = 1.798196 g / cm^3
# Si number density = 18.022977 Si / 1000 Ang^3
#
#
#
# Elastic Constant Matrix: (Units=GPa)
#
#
# Indices 1 2 3 4 5 6 
#
# 1 47.3909 37.8726 24.0018 0.0000 0.0000 0.0000
# 2 37.8726 123.3118 36.0600 0.0000 0.0000 0.0000
# 3 24.0018 36.0600 56.9312 0.0000 0.0000 0.0000
# 4 0.0000 0.0000 0.0000 9.4735 0.0000 0.0000
# 5 0.0000 0.0000 0.0000 0.0000 20.7509 0.0000
# 6 0.0000 0.0000 0.0000 0.0000 0.0000 19.7231
#
#
#
# Elastic Compliance Matrix: (Units=1/GPa)
#
#
# Indices 1 2 3 4 5 6 
#
# 1 0.031098 -0.007017 -0.008666 0.000000 0.000000 0.000000
# 2 -0.007017 0.011536 -0.004349 0.000000 0.000000 0.000000
# 3 -0.008666 -0.004349 0.023973 0.000000 0.000000 0.000000
# 4 0.000000 0.000000 0.000000 0.105558 0.000000 0.000000
# 5 0.000000 0.000000 0.000000 0.000000 0.048191 0.000000
# 6 0.000000 0.000000 0.000000 0.000000 0.000000 0.050702
#
#
# Mechanical properties :
#
#
# Convention : Reuss Voigt Hill
#
# Bulk Modulus (GPa) = 37.67378 47.05582 42.36480
# Shear Modulus (GPa) = 15.62651 18.63612 17.13131
#
# Velocity S-wave (km/s) = 2.94774 3.21911 3.08641
# Velocity P-wave (km/s) = 5.70387 6.32316 6.02148
#
# Compressibility (1/GPa) = 0.02654366
#
# Stress axis : x y z
#
# Youngs Moduli (GPa) = 32.15678 86.68295 41.71324
#
# Poissons Ratio (x) = 0.60823 0.36149
# Poissons Ratio (y) = 0.22564 0.18140
# Poissons Ratio (z) = 0.27868 0.37697
#
# Static dielectric constant tensor:
#      x y z
#    x 3.136620 0.000000 0.000000 
#    y 0.000000 3.318150 0.000000 
#    z 0.000000 0.000000 3.156320 
# 
# 
# High freq. dielectric constant tensor:
#      x y z
#    x 1.681920 0.000000 0.000000 
#    y 0.000000 1.691380 0.000000 
#    z 0.000000 0.000000 1.663880 
# 
# From -- ./inp_files/11876.got.cif
#   From: 2010.03.12/outbox.cif.g09.slc.cpg/sg47_6_cif.got.tgz:11876.got - 2010.04.14 03:12:58.
