data_PCOD8195444
_publ_section_title
;
Structure prediction by ZEFSAII (Michael W. Deem and Ramdas Pophale) SiO2 
 PCOD8195444
Probable space group: P M M M
;
_chemical_formula_sum "Si O2"
_cell_formula_units_Z 52
_cell_length_a 9.394863
_cell_length_b 15.020408
_cell_length_c 20.513962
_cell_angle_alpha 90.000000
_cell_angle_beta 90.000000
_cell_angle_gamma 90.000000
_cell_volume 2894.821088
_symmetry_space_group_name_H-M "P M M M"
_symmetry_group_IT_number 47
_symmetry_cell_setting 'orthorhombic'
loop_
_space_group_symop_operation_xyz
x,y,z
-x,-y,z
x,-y,-z
-x,y,-z
-x,-y,-z
x,y,-z
-x,y,z
x,-y,z
loop_
_atom_site_type_symbol
_atom_site_label
_atom_site_fract_x
_atom_site_fract_y
_atom_site_fract_z
Si Si1 0.347786 0.000000 0.427403
Si Si2 0.330714 0.399637 0.072064
Si Si3 0.336374 0.899347 0.761586
Si Si4 0.333810 0.286672 0.809837
Si Si5 0.837148 0.335427 0.425022
Si Si6 0.836716 0.141778 0.633898
Si Si7 0.337917 0.399956 0.310786
O O1 0.252667 0.914100 0.416889
O O2 0.500000 0.000000 0.387067
O O3 0.397711 0.000000 0.500000
O O4 0.500000 0.394202 0.071708
O O5 0.281938 0.500000 0.089190
O O6 0.265067 0.332157 0.125933
O O7 0.273683 0.372837 0.000000
O O8 0.500000 0.891525 0.737992
O O9 0.305787 0.820250 0.813780
O O10 0.229934 0.878106 0.703736
O O11 0.307872 0.000000 0.789212
O O12 0.500000 0.308991 0.809656
O O13 0.271820 0.332018 0.743407
O O14 0.781122 0.333924 0.500000
O O15 0.821295 0.241294 0.390066
O O16 0.745465 0.400274 0.379601
O O17 0.000000 0.367577 0.424717
O O18 0.000000 0.110847 0.635414
O O19 0.500000 0.372625 0.326331
O O20 0.329129 0.500000 0.282143
#
# Coordination Sequence:
#
# PCOD8195444 Si02
#       7
#     4   8   8   8   8   8   8
#     4  11  23  35  49  71  97 125 158 201 260 323
#     4   8  13  22  40  69 103 137 171 204 243 296
#     4  10  19  31  49  71  97 129 166 204 248 302
#     4   9  16  28  46  68  99 134 164 204 253 294
#     4  10  22  38  52  67  92 127 164 204 254 308
#     4  11  21  34  52  71  93 123 163 211 258 304
#     4  10  20  33  51  74  96 123 164 209 253 303
#
# _framework density 17.963114000000001
#
# number of rings (size 3 to 8) (size 9 to 14) (size 15 to 20)
#    0.000    2.231    2.308    2.077    0.000    4.615 
#    0.000    1.538    0.000    0.462    0.000    3.231 
#    0.000    2.462    0.000    9.846    0.000    9.231 
#
# Total GULP energy -644242.259822 kJ/mol
# GULP energy per Si atom -12389.274227 kJ/mol
# Density = 1.792223 g / cm^3
# Si number density = 17.963114 Si / 1000 Ang^3
#
#
#
# Elastic Constant Matrix: (Units=GPa)
#
#
# Indices 1 2 3 4 5 6 
#
# 1 57.8904 27.9030 24.2897 0.0000 0.0000 0.0000
# 2 27.9030 116.5182 62.0005 0.0000 0.0000 0.0000
# 3 24.2897 62.0005 117.5893 0.0000 0.0000 0.0000
# 4 0.0000 0.0000 0.0000 28.5192 0.0000 0.0000
# 5 0.0000 0.0000 0.0000 0.0000 -22.3692 0.0000
# 6 0.0000 0.0000 0.0000 0.0000 0.0000 16.9915
#
#
#
# Elastic Compliance Matrix: (Units=1/GPa)
#
#
# Indices 1 2 3 4 5 6 
#
# 1 0.019938 -0.003591 -0.002225 0.000000 0.000000 0.000000
# 2 -0.003591 0.012576 -0.005889 0.000000 0.000000 0.000000
# 3 -0.002225 -0.005889 0.012069 0.000000 0.000000 0.000000
# 4 0.000000 0.000000 0.000000 0.035064 0.000000 0.000000
# 5 0.000000 0.000000 0.000000 0.000000 -0.044704 0.000000
# 6 0.000000 0.000000 0.000000 0.000000 0.000000 0.058853
#
#
# Mechanical properties :
#
#
# Convention : Reuss Voigt Hill
#
# Bulk Modulus (GPa) = 47.22973 57.82049 52.52511
# Shear Modulus (GPa) = 40.23709 16.48196 28.35953
#
# Velocity S-wave (km/s) = 4.73798 3.03239 3.97768
# Velocity P-wave (km/s) = 7.50207 6.67224 7.09929
#
# Compressibility (1/GPa) = 0.02117310
#
# Stress axis : x y z
#
# Youngs Moduli (GPa) = 50.15454 79.51756 82.85713
#
# Poissons Ratio (x) = 0.28551 0.18439
# Poissons Ratio (y) = 0.18008 0.48795
# Poissons Ratio (z) = 0.11161 0.46829
#
# Static dielectric constant tensor:
#      x y z
#    x 3.105020 0.000000 0.000000 
#    y 0.000000 3.371100 0.000000 
#    z 0.000000 0.000000 3.403790 
# 
# 
# High freq. dielectric constant tensor:
#      x y z
#    x 1.661480 0.000000 0.000000 
#    y 0.000000 1.703940 0.000000 
#    z 0.000000 0.000000 1.675110 
# 
# From -- ./inp_files/6968.got.cif
#   From: 2010.03.12/outbox.cif.g09.slc.cpg/sg47_4_cif.got.tgz:6968.got - 2010.04.14 03:12:58.
