data_PCOD8195199
_publ_section_title
;
Structure prediction by ZEFSAII (Michael W. Deem and Ramdas Pophale) SiO2 
 PCOD8195199
Probable space group: P M M M
;
_chemical_formula_sum "Si O2"
_cell_formula_units_Z 48
_cell_length_a 7.775330
_cell_length_b 34.636571
_cell_length_c 9.355782
_cell_angle_alpha 90.000000
_cell_angle_beta 90.000000
_cell_angle_gamma 90.000000
_cell_volume 2519.612851
_symmetry_space_group_name_H-M "P M M M"
_symmetry_group_IT_number 47
_symmetry_cell_setting 'orthorhombic'
loop_
_space_group_symop_operation_xyz
x,y,z
-x,-y,z
x,-y,-z
-x,y,-z
-x,-y,-z
x,y,-z
-x,y,z
x,-y,z
loop_
_atom_site_type_symbol
_atom_site_label
_atom_site_fract_x
_atom_site_fract_y
_atom_site_fract_z
Si Si1 0.000000 0.404395 0.829420
Si Si2 0.302972 0.732626 0.665232
Si Si3 0.201536 0.958735 0.334745
Si Si4 0.691055 0.543178 0.169731
Si Si5 0.697661 0.877446 0.340977
Si Si6 0.295964 0.192522 0.840462
Si Si7 0.000000 0.325361 0.334785
O O1 0.168004 0.426984 0.771187
O O2 0.000000 0.362185 0.765199
O O3 0.000000 0.401285 0.000000
O O4 0.287748 0.744674 0.500000
O O5 0.500000 0.720305 0.702044
O O6 0.241422 0.769035 0.757236
O O7 0.173555 0.698033 0.701972
O O8 0.253761 0.959350 0.500000
O O9 0.283249 0.919938 0.267166
O O10 0.000000 0.955868 0.313321
O O11 0.266641 0.000000 0.267294
O O12 0.500000 0.556080 0.220579
O O13 0.731608 0.500000 0.226968
O O14 0.699187 0.542495 0.000000
O O15 0.783729 0.876915 0.500000
O O16 0.500000 0.866906 0.357277
O O17 0.783521 0.844788 0.240994
O O18 0.500000 0.189248 0.847843
O O19 0.217943 0.193957 0.000000
O O20 0.000000 0.337852 0.500000
#
# Coordination Sequence:
#
# PCOD8195199 Si02
#       7
#     4   8   8   8   8   8   4
#     4  10  19  30  48  74 102 132 168 211 253 292
#     4   9  18  35  56  72  91 124 163 200 239 287
#     4   8  14  25  40  59  85 115 146 181 219 259
#     4   8  14  26  46  73 103 134 171 214 255 293
#     4   9  16  26  43  67  91 114 144 183 225 272
#     4   9  17  30  49  71  94 119 146 184 237 287
#     4  10  22  37  51  73 102 132 167 203 244 298
#
# _framework density 19.050547000000002
#
# number of rings (size 3 to 8) (size 9 to 14) (size 15 to 20)
#    0.000    3.167    0.000    1.750    0.000    4.667 
#    1.500    1.667    0.000    1.500    0.000    4.667 
#    0.000    0.000    0.000    0.000    0.000    0.000 
#
# Total GULP energy -594749.485149 kJ/mol
# GULP energy per Si atom -12390.614274 kJ/mol
# Density = 1.900719 g / cm^3
# Si number density = 19.050547 Si / 1000 Ang^3
#
#
#
# Elastic Constant Matrix: (Units=GPa)
#
#
# Indices 1 2 3 4 5 6 
#
# 1 81.8089 66.7905 27.0914 0.0000 0.0000 0.0000
# 2 66.7905 171.0928 62.7674 0.0000 0.0000 0.0000
# 3 27.0914 62.7674 61.9321 0.0000 0.0000 0.0000
# 4 0.0000 0.0000 0.0000 22.2680 0.0000 0.0000
# 5 0.0000 0.0000 0.0000 0.0000 8.8570 0.0000
# 6 0.0000 0.0000 0.0000 0.0000 0.0000 -4.0768
#
#
#
# Elastic Compliance Matrix: (Units=1/GPa)
#
#
# Indices 1 2 3 4 5 6 
#
# 1 0.017997 -0.006586 -0.001197 0.000000 0.000000 0.000000
# 2 -0.006586 0.011715 -0.008991 0.000000 0.000000 0.000000
# 3 -0.001197 -0.008991 0.025783 0.000000 0.000000 0.000000
# 4 0.000000 0.000000 0.000000 0.044907 0.000000 0.000000
# 5 0.000000 0.000000 0.000000 0.000000 0.112905 0.000000
# 6 0.000000 0.000000 0.000000 0.000000 0.000000 -0.245290
#
#
# Mechanical properties :
#
#
# Convention : Reuss Voigt Hill
#
# Bulk Modulus (GPa) = 45.56932 69.79247 57.68089
# Shear Modulus (GPa) = 562.89158 15.95529 289.42343
#
# Velocity S-wave (km/s) = 17.20797 2.89714 12.33912
# Velocity P-wave (km/s) = 20.46438 6.92143 15.27575
#
# Compressibility (1/GPa) = 0.02194459
#
# Stress axis : x y z
#
# Youngs Moduli (GPa) = 55.56330 85.36363 38.78496
#
# Poissons Ratio (x) = 0.56225 0.04644
# Poissons Ratio (y) = 0.36597 0.34873
# Poissons Ratio (z) = 0.06653 0.76754
#
# Static dielectric constant tensor:
#      x y z
#    x 3.476100 0.000000 0.000000 
#    y 0.000000 3.619590 0.000000 
#    z 0.000000 0.000000 3.223950 
# 
# 
# High freq. dielectric constant tensor:
#      x y z
#    x 1.732340 0.000000 0.000000 
#    y 0.000000 1.747330 0.000000 
#    z 0.000000 0.000000 1.688740 
# 
# From -- ./inp_files/2650.got.cif
#   From: 2010.03.12/outbox.cif.g09.slc.cpg/sg47_2_cif.got.tgz:2650.got - 2010.04.14 03:12:58.
