data_PCOD8195965
_publ_section_title
;
Structure prediction by ZEFSAII (Michael W. Deem and Ramdas Pophale) SiO2 
 PCOD8195965
Probable space group: P M M M
;
_chemical_formula_sum "Si O2"
_cell_formula_units_Z 48
_cell_length_a 8.861634
_cell_length_b 18.638336
_cell_length_c 16.207707
_cell_angle_alpha 90.000000
_cell_angle_beta 90.000000
_cell_angle_gamma 90.000000
_cell_volume 2676.963950
_symmetry_space_group_name_H-M "P M M M"
_symmetry_group_IT_number 47
_symmetry_cell_setting 'orthorhombic'
loop_
_space_group_symop_operation_xyz
x,y,z
-x,-y,z
x,-y,-z
-x,y,-z
-x,-y,-z
x,y,-z
-x,y,z
x,-y,z
loop_
_atom_site_type_symbol
_atom_site_label
_atom_site_fract_x
_atom_site_fract_y
_atom_site_fract_z
Si Si1 0.679295 0.081533 0.000000
Si Si2 0.824861 0.212309 0.410672
Si Si3 0.321224 0.416987 0.320713
Si Si4 0.677692 0.838069 0.163187
Si Si5 0.826633 0.081061 0.691003
Si Si6 0.677128 0.417822 0.500000
Si Si7 0.178986 0.710927 0.751765
O O1 0.737427 0.125443 0.920652
O O2 0.500000 0.077049 0.000000
O O3 0.744935 0.000000 0.000000
O O4 0.748140 0.230329 0.500000
O O5 0.799925 0.128005 0.391208
O O6 0.756949 0.256764 0.334495
O O7 0.000000 0.230715 0.417108
O O8 0.500000 0.408261 0.313723
O O9 0.275474 0.500000 0.308142
O O10 0.262320 0.387651 0.411736
O O11 0.241238 0.370654 0.248420
O O12 0.500000 0.826040 0.160962
O O13 0.719826 0.892195 0.236035
O O14 0.754808 0.759649 0.174506
O O15 0.000000 0.089398 0.720861
O O16 0.784921 0.000000 0.668309
O O17 0.722616 0.500000 0.500000
O O18 0.500000 0.408619 0.500000
O O19 0.000000 0.711756 0.759076
#
# Coordination Sequence:
#
# PCOD8195965 Si02
#       7
#     4   8   8   8   8   4   8
#     4   9  18  32  53  81 104 123 154 197 241 292
#     4   8  15  27  41  59  85 120 161 199 234 273
#     4   9  17  30  48  70  96 129 168 206 247 294
#     4  10  19  33  52  72  96 125 158 193 238 295
#     4   9  17  29  45  66  93 122 154 196 242 285
#     4   7  12  24  41  63  93 125 158 201 248 289
#     4  10  20  32  47  68  98 130 163 203 244 288
#
# _framework density 17.930762000000001
#
# number of rings (size 3 to 8) (size 9 to 14) (size 15 to 20)
#    0.000    3.000    0.000    3.500    1.167    1.667 
#    0.000    3.333    0.000    9.000    0.000    5.250 
#    0.000    4.667    0.000    0.000    0.000    0.000 
#
# Total GULP energy -594660.751326 kJ/mol
# GULP energy per Si atom -12388.765653 kJ/mol
# Density = 1.788995 g / cm^3
# Si number density = 17.930762 Si / 1000 Ang^3
#
#
#
# Elastic Constant Matrix: (Units=GPa)
#
#
# Indices 1 2 3 4 5 6 
#
# 1 45.9489 30.3909 20.5395 0.0000 0.0000 0.0000
# 2 30.3909 100.2628 34.3109 0.0000 0.0000 0.0000
# 3 20.5395 34.3109 83.7270 0.0000 0.0000 0.0000
# 4 0.0000 0.0000 0.0000 29.5731 0.0000 0.0000
# 5 0.0000 0.0000 0.0000 0.0000 16.6559 0.0000
# 6 0.0000 0.0000 0.0000 0.0000 0.0000 23.0619
#
#
#
# Elastic Compliance Matrix: (Units=1/GPa)
#
#
# Indices 1 2 3 4 5 6 
#
# 1 0.028322 -0.007219 -0.003989 0.000000 0.000000 0.000000
# 2 -0.007219 0.013441 -0.003737 0.000000 0.000000 0.000000
# 3 -0.003989 -0.003737 0.014454 0.000000 0.000000 0.000000
# 4 0.000000 0.000000 0.000000 0.033814 0.000000 0.000000
# 5 0.000000 0.000000 0.000000 0.000000 0.060039 0.000000
# 6 0.000000 0.000000 0.000000 0.000000 0.000000 0.043362
#
#
# Mechanical properties :
#
#
# Convention : Reuss Voigt Hill
#
# Bulk Modulus (GPa) = 37.98706 44.49126 41.23916
# Shear Modulus (GPa) = 21.54272 23.50467 22.52370
#
# Velocity S-wave (km/s) = 3.46994 3.62450 3.54806
# Velocity P-wave (km/s) = 6.10617 6.51020 6.31142
#
# Compressibility (1/GPa) = 0.02632475
#
# Stress axis : x y z
#
# Youngs Moduli (GPa) = 35.30883 74.39957 69.18692
#
# Poissons Ratio (x) = 0.53713 0.27600
# Poissons Ratio (y) = 0.25491 0.25855
# Poissons Ratio (z) = 0.14085 0.27803
#
# Static dielectric constant tensor:
#      x y z
#    x 2.964080 0.000000 0.000000 
#    y 0.000000 3.461560 0.000000 
#    z 0.000000 0.000000 3.345560 
# 
# 
# High freq. dielectric constant tensor:
#      x y z
#    x 1.666390 0.000000 0.000000 
#    y 0.000000 1.700310 0.000000 
#    z 0.000000 0.000000 1.663440 
# 
# From -- ./inp_files/21123.got.cif
#   From: 2010.03.12/outbox.cif.g09.slc.cpg/sg47_11_cif.got.tgz:21123.got - 2010.04.14 03:12:58.
