data_PCOD8195355
_publ_section_title
;
Structure prediction by ZEFSAII (Michael W. Deem and Ramdas Pophale) SiO2 
 PCOD8195355
Probable space group: P M M M
;
_chemical_formula_sum "Si O2"
_cell_formula_units_Z 64
_cell_length_a 31.347225
_cell_length_b 9.607719
_cell_length_c 14.183800
_cell_angle_alpha 90.000000
_cell_angle_beta 90.000000
_cell_angle_gamma 90.000000
_cell_volume 4271.810635
_symmetry_space_group_name_H-M "P M M M"
_symmetry_group_IT_number 47
_symmetry_cell_setting 'orthorhombic'
loop_
_space_group_symop_operation_xyz
x,y,z
-x,-y,z
x,-y,-z
-x,y,-z
-x,-y,-z
x,y,-z
-x,y,z
x,-y,z
loop_
_atom_site_type_symbol
_atom_site_label
_atom_site_fract_x
_atom_site_fract_y
_atom_site_fract_z
Si Si1 0.202960 0.836728 0.225008
Si Si2 0.454830 0.665370 0.894430
Si Si3 0.820690 0.660831 0.393188
Si Si4 0.285775 0.161070 0.109156
Si Si5 0.636446 0.343150 0.112794
Si Si6 0.082014 0.664653 0.398388
Si Si7 0.119848 0.839802 0.108873
Si Si8 0.951533 0.337040 0.202388
O O1 0.207148 0.754748 0.323222
O O2 0.243283 0.792857 0.162762
O O3 0.160351 0.790774 0.169683
O O4 0.202661 0.000000 0.246147
O O5 0.500000 0.710998 0.843285
O O6 0.452568 0.500000 0.899034
O O7 0.409773 0.713163 0.847083
O O8 0.456737 0.725847 0.000000
O O9 0.804431 0.683579 0.500000
O O10 0.816188 0.500000 0.363880
O O11 0.869385 0.711861 0.383414
O O12 0.325859 0.245613 0.151217
O O13 0.296036 0.000000 0.124553
O O14 0.278230 0.196406 0.000000
O O15 0.645611 0.500000 0.147829
O O16 0.634332 0.338593 0.000000
O O17 0.065263 0.723999 0.500000
O O18 0.079974 0.500000 0.403947
O O19 0.054127 0.717766 0.310255
O O20 0.078936 0.746653 0.132735
O O21 0.108440 0.000000 0.130141
O O22 0.131814 0.818636 0.000000
O O23 0.939956 0.500000 0.195563
O O24 0.000000 0.309294 0.171097
#
# Coordination Sequence:
#
# PCOD8195355 Si02
#       8
#     8   8   8   8   8   8   8   8
#     4  10  19  31  48  67  84 106 139 174 203 238
#     4   7   9  14  26  44  65  91 126 169 212 247
#     4   9  17  30  49  70  90 110 130 157 197 243
#     4   9  17  28  40  55  79 110 140 172 212 250
#     4   8  13  21  33  50  72  98 133 175 212 247
#     4   8  14  27  47  69  91 111 129 152 188 235
#     4  10  21  36  51  65  83 110 142 173 204 238
#     4  10  20  33  50  71  91 110 135 166 198 236
#
# _framework density 14.981938
#
# number of rings (size 3 to 8) (size 9 to 14) (size 15 to 20)
#    0.000    3.125    1.250    2.250    0.000    3.250 
#    0.000    2.500    0.000    3.000    0.000    3.500 
#    0.000    0.000    0.000    0.000    0.000    0.625 
#
# Total GULP energy -792944.296618 kJ/mol
# GULP energy per Si atom -12389.754635 kJ/mol
# Density = 1.494784 g / cm^3
# Si number density = 14.981938 Si / 1000 Ang^3
#
#
#
# Elastic Constant Matrix: (Units=GPa)
#
#
# Indices 1 2 3 4 5 6 
#
# 1 117.6081 45.9473 35.1352 0.0000 0.0000 0.0000
# 2 45.9473 41.3392 27.7735 0.0000 0.0000 0.0000
# 3 35.1352 27.7735 56.3620 0.0000 0.0000 0.0000
# 4 0.0000 0.0000 0.0000 19.8107 0.0000 0.0000
# 5 0.0000 0.0000 0.0000 0.0000 -4.5021 0.0000
# 6 0.0000 0.0000 0.0000 0.0000 0.0000 18.3409
#
#
#
# Elastic Compliance Matrix: (Units=1/GPa)
#
#
# Indices 1 2 3 4 5 6 
#
# 1 0.015139 -0.015675 -0.001713 0.000000 0.000000 0.000000
# 2 -0.015675 0.052393 -0.016046 0.000000 0.000000 0.000000
# 3 -0.001713 -0.016046 0.026717 0.000000 0.000000 0.000000
# 4 0.000000 0.000000 0.000000 0.050478 0.000000 0.000000
# 5 0.000000 0.000000 0.000000 0.000000 -0.222120 0.000000
# 6 0.000000 0.000000 0.000000 0.000000 0.000000 0.054523
#
#
# Mechanical properties :
#
#
# Convention : Reuss Voigt Hill
#
# Bulk Modulus (GPa) = 36.52218 48.11347 42.31782
# Shear Modulus (GPa) = 94.11731 13.82680 53.97205
#
# Velocity S-wave (km/s) = 7.93454 3.04122 6.00857
# Velocity P-wave (km/s) = 10.41023 6.67204 8.74325
#
# Compressibility (1/GPa) = 0.02738062
#
# Stress axis : x y z
#
# Youngs Moduli (GPa) = 66.05645 19.08644 37.42907
#
# Poissons Ratio (x) = 0.29919 0.06411
# Poissons Ratio (y) = 1.03546 0.60059
# Poissons Ratio (z) = 0.11314 0.30626
#
# Static dielectric constant tensor:
#      x y z
#    x 3.135870 0.000000 0.000000 
#    y 0.000000 2.683210 0.000000 
#    z 0.000000 0.000000 2.915190 
# 
# 
# High freq. dielectric constant tensor:
#      x y z
#    x 1.572470 0.000000 0.000000 
#    y 0.000000 1.550190 0.000000 
#    z 0.000000 0.000000 1.537540 
# 
# From -- ./inp_files/25893.got.cif
#   From: 2010.03.12/outbox.cif.g09.slc.cpg/sg47_13_cif.got.tgz:25893.got - 2010.04.14 03:12:58.
