data_PCOD8195042
_publ_section_title
;
Structure prediction by ZEFSAII (Michael W. Deem and Ramdas Pophale) SiO2 
 PCOD8195042
Probable space group: P M M M
;
_chemical_formula_sum "Si O2"
_cell_formula_units_Z 52
_cell_length_a 9.216564
_cell_length_b 11.543769
_cell_length_c 28.578007
_cell_angle_alpha 90.000000
_cell_angle_beta 90.000000
_cell_angle_gamma 90.000000
_cell_volume 3040.525213
_symmetry_space_group_name_H-M "P M M M"
_symmetry_group_IT_number 47
_symmetry_cell_setting 'orthorhombic'
loop_
_space_group_symop_operation_xyz
x,y,z
-x,-y,z
x,-y,-z
-x,y,-z
-x,-y,-z
x,y,-z
-x,y,z
x,-y,z
loop_
_atom_site_type_symbol
_atom_site_label
_atom_site_fract_x
_atom_site_fract_y
_atom_site_fract_z
Si Si1 0.326540 0.630859 0.649709
Si Si2 0.164814 0.633988 0.820166
Si Si3 0.831929 0.246771 0.915534
Si Si4 0.833672 0.000000 0.879986
Si Si5 0.671723 0.366109 0.000000
Si Si6 0.671678 0.758261 0.740825
Si Si7 0.337613 0.362452 0.549527
Si Si8 0.328155 0.000000 0.217937
O O1 0.500000 0.629660 0.646916
O O2 0.271442 0.500000 0.660931
O O3 0.271574 0.719583 0.689551
O O4 0.263987 0.676254 0.598973
O O5 0.182064 0.500000 0.831462
O O6 0.216014 0.702011 0.865891
O O7 0.266882 0.667166 0.777576
O O8 0.000000 0.667107 0.807210
O O9 0.801614 0.109702 0.913019
O O10 0.000000 0.274275 0.926704
O O11 0.732873 0.303216 0.954593
O O12 0.737115 0.000000 0.833694
O O13 0.000000 0.000000 0.862638
O O14 0.720496 0.500000 0.000000
O O15 0.500000 0.354076 0.000000
O O16 0.500000 0.749612 0.743202
O O17 0.725216 0.887904 0.752900
O O18 0.259029 0.324108 0.500000
O O19 0.500000 0.311778 0.547660
O O20 0.344679 0.500000 0.551593
O O21 0.500000 0.000000 0.212045
#
# Coordination Sequence:
#
# PCOD8195042 Si02
#       8
#     8   8   8   4   4   8   8   4
#     4   8  13  21  34  55  84 116 151 191 236 287
#     4  10  20  33  51  75  99 125 159 195 234 282
#     4  10  21  38  60  81 102 131 164 199 238 279
#     4  10  20  37  61  82  99 125 165 203 235 278
#     4  11  25  42  59  82 110 137 164 195 234 281
#     4  10  19  30  45  66  93 127 160 194 239 287
#     4   7   9  14  26  46  74 108 145 187 234 280
#     4  10  20  32  47  69  97 128 163 200 237 280
#
# _framework density 17.102309000000002
#
# number of rings (size 3 to 8) (size 9 to 14) (size 15 to 20)
#    0.000    2.692    1.538    2.538    0.000    3.692 
#    0.000    1.538    0.000    0.000    0.000    0.538 
#    0.000    4.923    0.000    5.692    0.000    7.385 
#
# Total GULP energy -644340.460253 kJ/mol
# GULP energy per Si atom -12391.162697 kJ/mol
# Density = 1.706338 g / cm^3
# Si number density = 17.102309 Si / 1000 Ang^3
#
#
#
# Elastic Constant Matrix: (Units=GPa)
#
#
# Indices 1 2 3 4 5 6 
#
# 1 22.0409 22.2147 31.8384 0.0000 0.0000 0.0000
# 2 22.2147 90.8960 56.0271 0.0000 0.0000 0.0000
# 3 31.8384 56.0271 140.1621 0.0000 0.0000 0.0000
# 4 0.0000 0.0000 0.0000 0.5833 0.0000 0.0000
# 5 0.0000 0.0000 0.0000 0.0000 1.3565 0.0000
# 6 0.0000 0.0000 0.0000 0.0000 0.0000 18.2358
#
#
#
# Elastic Compliance Matrix: (Units=1/GPa)
#
#
# Indices 1 2 3 4 5 6 
#
# 1 0.074104 -0.010264 -0.012730 0.000000 0.000000 0.000000
# 2 -0.010264 0.016020 -0.004072 0.000000 0.000000 0.000000
# 3 -0.012730 -0.004072 0.011654 0.000000 0.000000 0.000000
# 4 0.000000 0.000000 0.000000 1.714467 0.000000 0.000000
# 5 0.000000 0.000000 0.000000 0.000000 0.737192 0.000000
# 6 0.000000 0.000000 0.000000 0.000000 0.000000 0.054837
#
#
# Mechanical properties :
#
#
# Convention : Reuss Voigt Hill
#
# Bulk Modulus (GPa) = 20.98842 52.58437 36.78639
# Shear Modulus (GPa) = 1.86686 13.56971 7.71829
#
# Velocity S-wave (km/s) = 1.04592 2.81987 2.12669
# Velocity P-wave (km/s) = 3.70911 6.43552 5.25231
#
# Compressibility (1/GPa) = 0.04764533
#
# Stress axis : x y z
#
# Youngs Moduli (GPa) = 13.49457 62.42145 85.80681
#
# Poissons Ratio (x) = 0.64070 1.09233
# Poissons Ratio (y) = 0.13851 0.34942
# Poissons Ratio (z) = 0.17179 0.25419
#
# Static dielectric constant tensor:
#      x y z
#    x 2.856290 0.000000 0.000000 
#    y 0.000000 3.245270 0.000000 
#    z 0.000000 0.000000 3.792010 
# 
# 
# High freq. dielectric constant tensor:
#      x y z
#    x 1.618640 0.000000 0.000000 
#    y 0.000000 1.644490 0.000000 
#    z 0.000000 0.000000 1.675070 
# 
# From -- ./inp_files/33328.got.cif
#   From: 2010.03.12/outbox.cif.g09.slc.cpg/sg47_17_cif.got.tgz:33328.got - 2010.04.14 03:12:58.
