data_PCOD8195635
_publ_section_title
;
Structure prediction by ZEFSAII (Michael W. Deem and Ramdas Pophale) SiO2 
 PCOD8195635
Probable space group: P M M M
;
_chemical_formula_sum "Si O2"
_cell_formula_units_Z 40
_cell_length_a 16.692758
_cell_length_b 18.035284
_cell_length_c 8.847671
_cell_angle_alpha 90.000000
_cell_angle_beta 90.000000
_cell_angle_gamma 90.000000
_cell_volume 2663.667721
_symmetry_space_group_name_H-M "P M M M"
_symmetry_group_IT_number 47
_symmetry_cell_setting 'orthorhombic'
loop_
_space_group_symop_operation_xyz
x,y,z
-x,-y,z
x,-y,-z
-x,y,-z
-x,-y,-z
x,y,-z
-x,y,z
x,-y,z
loop_
_atom_site_type_symbol
_atom_site_label
_atom_site_fract_x
_atom_site_fract_y
_atom_site_fract_z
Si Si1 0.162437 0.586648 0.323110
Si Si2 0.000000 0.411972 0.830009
Si Si3 0.320968 0.363046 0.178226
Si Si4 0.404970 0.081251 0.169594
Si Si5 0.405259 0.500000 0.671064
Si Si6 0.405628 0.772053 0.673794
O O1 0.163023 0.602222 0.500000
O O2 0.176054 0.500000 0.286847
O O3 0.231820 0.633362 0.244057
O O4 0.078584 0.616246 0.257127
O O5 0.000000 0.500000 0.831108
O O6 0.000000 0.380180 0.000000
O O7 0.375821 0.427146 0.245802
O O8 0.359209 0.284778 0.220301
O O9 0.317430 0.372483 0.000000
O O10 0.500000 0.079908 0.168972
O O11 0.375117 0.145478 0.282499
O O12 0.373375 0.000000 0.223584
O O13 0.373704 0.097803 0.000000
O O14 0.500000 0.500000 0.670709
O O15 0.371159 0.500000 0.500000
O O16 0.384321 0.756575 0.500000
O O17 0.500000 0.763209 0.703584
#
# Coordination Sequence:
#
# PCOD8195635 Si02
#       6
#     8   4   8   8   4   8
#     4  10  19  32  49  66  87 113 143 178 221 268
#     4   9  17  29  47  69  91 109 136 175 215 262
#     4  12  23  33  47  64  85 113 149 189 227 264
#     4   8  14  26  44  64  85 109 139 177 220 265
#     4  11  23  37  49  60  79 110 149 191 231 267
#     4  10  20  32  45  62  86 116 150 187 226 267
#
# _framework density 15.016889000000001
#
# number of rings (size 3 to 8) (size 9 to 14) (size 15 to 20)
#    0.000    2.000    1.000    4.800    0.000    6.800 
#    0.000    2.000    0.000    0.000    0.000    0.000 
#    0.000    0.000    0.000    0.900    0.000   16.600 
#
# Total GULP energy -496000.403939 kJ/mol
# GULP energy per Si atom -12400.010098 kJ/mol
# Density = 1.498271 g / cm^3
# Si number density = 15.016889 Si / 1000 Ang^3
#
#
#
# Elastic Constant Matrix: (Units=GPa)
#
#
# Indices 1 2 3 4 5 6 
#
# 1 72.7769 32.0938 44.3626 0.0000 0.0000 0.0000
# 2 32.0938 82.9059 37.3055 0.0000 0.0000 0.0000
# 3 44.3626 37.3055 109.5330 0.0000 0.0000 0.0000
# 4 0.0000 0.0000 0.0000 22.2047 0.0000 0.0000
# 5 0.0000 0.0000 0.0000 0.0000 24.1995 0.0000
# 6 0.0000 0.0000 0.0000 0.0000 0.0000 0.7533
#
#
#
# Elastic Compliance Matrix: (Units=1/GPa)
#
#
# Indices 1 2 3 4 5 6 
#
# 1 0.019724 -0.004772 -0.006363 0.000000 0.000000 0.000000
# 2 -0.004772 0.015400 -0.003312 0.000000 0.000000 0.000000
# 3 -0.006363 -0.003312 0.012835 0.000000 0.000000 0.000000
# 4 0.000000 0.000000 0.000000 0.045036 0.000000 0.000000
# 5 0.000000 0.000000 0.000000 0.000000 0.041323 0.000000
# 6 0.000000 0.000000 0.000000 0.000000 0.000000 1.327525
#
#
# Mechanical properties :
#
#
# Convention : Reuss Voigt Hill
#
# Bulk Modulus (GPa) = 52.45593 54.74882 53.60238
# Shear Modulus (GPa) = 3.33981 19.52842 11.43412
#
# Velocity S-wave (km/s) = 1.49294 3.61006 2.76237
# Velocity P-wave (km/s) = 6.16271 7.34262 6.77838
#
# Compressibility (1/GPa) = 0.01906362
#
# Stress axis : x y z
#
# Youngs Moduli (GPa) = 50.70004 64.93700 77.91250
#
# Poissons Ratio (x) = 0.30988 0.49577
# Poissons Ratio (y) = 0.24194 0.25806
# Poissons Ratio (z) = 0.32261 0.21508
#
# Static dielectric constant tensor:
#      x y z
#    x 2.772980 0.000000 0.000000 
#    y 0.000000 3.113890 0.000000 
#    z 0.000000 0.000000 3.072350 
# 
# 
# High freq. dielectric constant tensor:
#      x y z
#    x 1.546370 0.000000 0.000000 
#    y 0.000000 1.552900 0.000000 
#    z 0.000000 0.000000 1.593010 
# 
# From -- ./inp_files/5764.got.cif
#   From: 2010.03.12/outbox.cif.g09.slc.cpg/sg47_3_cif.got.tgz:5764.got - 2010.04.14 03:12:58.
