data_PCOD8195960
_publ_section_title
;
Structure prediction by ZEFSAII (Michael W. Deem and Ramdas Pophale) SiO2 
 PCOD8195960
Probable space group: P M M M
;
_chemical_formula_sum "Si O2"
_cell_formula_units_Z 52
_cell_length_a 31.289160
_cell_length_b 9.259247
_cell_length_c 11.627895
_cell_angle_alpha 90.000000
_cell_angle_beta 90.000000
_cell_angle_gamma 90.000000
_cell_volume 3368.764680
_symmetry_space_group_name_H-M "P M M M"
_symmetry_group_IT_number 47
_symmetry_cell_setting 'orthorhombic'
loop_
_space_group_symop_operation_xyz
x,y,z
-x,-y,z
x,-y,-z
-x,y,-z
-x,-y,-z
x,y,-z
-x,y,z
x,-y,z
loop_
_atom_site_type_symbol
_atom_site_label
_atom_site_fract_x
_atom_site_fract_y
_atom_site_fract_z
Si Si1 0.000000 0.171494 0.873995
Si Si2 0.500000 0.834916 0.864170
Si Si3 0.663503 0.332623 0.132657
Si Si4 0.547724 0.329704 0.500000
Si Si5 0.253670 0.837068 0.863121
Si Si6 0.423730 0.329993 0.746550
Si Si7 0.091622 0.837448 0.862294
Si Si8 0.172345 0.337195 0.137225
O O1 0.955002 0.215338 0.812374
O O2 0.000000 0.000000 0.887464
O O3 0.000000 0.243967 0.000000
O O4 0.541956 0.755585 0.819978
O O5 0.500000 0.000000 0.820829
O O6 0.500000 0.826503 0.000000
O O7 0.675319 0.500000 0.147328
O O8 0.703337 0.240855 0.179694
O O9 0.622995 0.288119 0.208680
O O10 0.653163 0.296616 0.000000
O O11 0.543158 0.500000 0.500000
O O12 0.500000 0.261339 0.500000
O O13 0.573200 0.280306 0.386440
O O14 0.212618 0.752162 0.814147
O O15 0.252840 0.000000 0.815302
O O16 0.252287 0.835714 0.000000
O O17 0.432791 0.500000 0.761841
O O18 0.128655 0.733251 0.815005
O O19 0.102054 0.000000 0.820837
O O20 0.089532 0.834072 0.000000
O O21 0.175362 0.500000 0.183877
O O22 0.172517 0.334260 0.000000
#
# Coordination Sequence:
#
# PCOD8195960 Si02
#       8
#     4   4   8   4   8   8   8   8
#     4   7  10  16  25  35  47  67  97 135 177 220
#     4  11  23  34  45  66  94 117 138 169 204 235
#     4   9  17  28  42  61  82 103 128 158 193 234
#     4   9  16  30  52  74  90 108 140 176 198 221
#     4   9  16  25  37  51  68  92 118 145 182 228
#     4  10  19  33  52  69  87 113 142 168 197 236
#     4   8  12  18  27  37  50  71 102 138 177 222
#     4   9  15  21  29  42  60  81 107 141 179 221
#
# _framework density 15.435924
#
# number of rings (size 3 to 8) (size 9 to 14) (size 15 to 20)
#    0.000    3.000    0.769    2.538    0.000    5.538 
#    0.000    2.692    0.000    2.308    0.000    0.000 
#    0.000    0.000    0.000    0.000    0.000    0.000 
#
# Total GULP energy -644442.762272 kJ/mol
# GULP energy per Si atom -12393.130044 kJ/mol
# Density = 1.540079 g / cm^3
# Si number density = 15.435924 Si / 1000 Ang^3
#
#
#
# Elastic Constant Matrix: (Units=GPa)
#
#
# Indices 1 2 3 4 5 6 
#
# 1 171.3892 77.5676 34.8245 0.0000 0.0000 0.0000
# 2 77.5676 92.8165 18.3216 0.0000 0.0000 0.0000
# 3 34.8245 18.3216 36.0478 0.0000 0.0000 0.0000
# 4 0.0000 0.0000 0.0000 6.2029 0.0000 0.0000
# 5 0.0000 0.0000 0.0000 0.0000 -0.8943 0.0000
# 6 0.0000 0.0000 0.0000 0.0000 0.0000 27.9600
#
#
#
# Elastic Compliance Matrix: (Units=1/GPa)
#
#
# Indices 1 2 3 4 5 6 
#
# 1 0.010546 -0.007561 -0.006345 0.000000 0.000000 0.000000
# 2 -0.007561 0.017396 -0.001538 0.000000 0.000000 0.000000
# 3 -0.006345 -0.001538 0.034652 0.000000 0.000000 0.000000
# 4 0.000000 0.000000 0.000000 0.161215 0.000000 0.000000
# 5 0.000000 0.000000 0.000000 0.000000 -1.118227 0.000000
# 6 0.000000 0.000000 0.000000 0.000000 0.000000 0.035765
#
#
# Mechanical properties :
#
#
# Convention : Reuss Voigt Hill
#
# Bulk Modulus (GPa) = 31.53848 62.40898 46.97373
# Shear Modulus (GPa) = -6.11847 17.95638 5.91896
#
# Velocity S-wave (km/s) = -1.99309 3.41440 1.96032
# Velocity P-wave (km/s) = 3.89611 7.48752 5.96836
#
# Compressibility (1/GPa) = 0.03170730
#
# Stress axis : x y z
#
# Youngs Moduli (GPa) = 94.82479 57.48446 28.85819
#
# Poissons Ratio (x) = 0.43462 0.18311
# Poissons Ratio (y) = 0.71694 0.04437
# Poissons Ratio (z) = 0.60167 0.08838
#
# Static dielectric constant tensor:
#      x y z
#    x 3.300710 0.000000 0.000000 
#    y 0.000000 2.966450 0.000000 
#    z 0.000000 0.000000 2.448180 
# 
# 
# High freq. dielectric constant tensor:
#      x y z
#    x 1.611490 0.000000 0.000000 
#    y 0.000000 1.585840 0.000000 
#    z 0.000000 0.000000 1.510160 
# 
# From -- ./inp_files/20074.got.cif
#   From: 2010.03.12/outbox.cif.g09.slc.cpg/sg47_11_cif.got.tgz:20074.got - 2010.04.14 03:12:58.
