data_PCOD8195914
_publ_section_title
;
Structure prediction by ZEFSAII (Michael W. Deem and Ramdas Pophale) SiO2 
 PCOD8195914
Probable space group: P M M M
;
_chemical_formula_sum "Si O2"
_cell_formula_units_Z 44
_cell_length_a 31.456041
_cell_length_b 7.778525
_cell_length_c 9.082853
_cell_angle_alpha 90.000000
_cell_angle_beta 90.000000
_cell_angle_gamma 90.000000
_cell_volume 2222.407017
_symmetry_space_group_name_H-M "P M M M"
_symmetry_group_IT_number 47
_symmetry_cell_setting 'orthorhombic'
loop_
_space_group_symop_operation_xyz
x,y,z
-x,-y,z
x,-y,-z
-x,y,-z
-x,-y,-z
x,y,-z
-x,y,z
x,-y,z
loop_
_atom_site_type_symbol
_atom_site_label
_atom_site_fract_x
_atom_site_fract_y
_atom_site_fract_z
Si Si1 0.000000 0.704882 0.165921
Si Si2 0.917542 0.297671 0.667883
Si Si3 0.547442 0.691017 0.174645
Si Si4 0.303271 0.000000 0.675292
Si Si5 0.605923 0.000000 0.175963
Si Si6 0.164181 0.804323 0.163313
Si Si7 0.744729 0.693499 0.171069
O O1 0.957857 0.778038 0.244320
O O2 0.000000 0.500000 0.174513
O O3 0.000000 0.773146 0.000000
O O4 0.923803 0.243700 0.500000
O O5 0.914614 0.500000 0.688939
O O6 0.874084 0.216925 0.724152
O O7 0.500000 0.731137 0.235205
O O8 0.561882 0.500000 0.226408
O O9 0.580485 0.832233 0.232569
O O10 0.546055 0.699080 0.000000
O O11 0.349677 0.000000 0.743353
O O12 0.279921 0.827152 0.727272
O O13 0.305319 0.000000 0.500000
O O14 0.612409 0.000000 0.000000
O O15 0.205141 0.694324 0.211031
O O16 0.179626 0.000000 0.163545
O O17 0.148654 0.748202 0.000000
O O18 0.727718 0.500000 0.200831
O O19 0.738249 0.744771 0.000000
#
# Coordination Sequence:
#
# PCOD8195914 Si02
#       7
#     4   8   8   4   4   8   8
#     4   9  17  31  52  75 102 139 184 230 272 320
#     4  10  20  33  51  78 111 144 178 218 271 335
#     4   8  14  26  48  81 115 144 184 243 301 344
#     4  12  26  41  57  83 124 163 197 244 298 359
#     4  10  19  32  54  80 110 150 197 241 288 345
#     4  10  20  36  59  84 110 138 176 228 282 337
#     4  10  21  41  68  90 111 146 195 249 300 352
#
# _framework density 19.798354
#
# number of rings (size 3 to 8) (size 9 to 14) (size 15 to 20)
#    0.000    2.273    0.909    3.000    0.000    6.182 
#    0.000    2.273    0.000    3.818    0.000    1.273 
#    0.000    0.000    0.000    0.000    0.000    0.000 
#
# Total GULP energy -545550.300724 kJ/mol
# GULP energy per Si atom -12398.870471 kJ/mol
# Density = 1.975329 g / cm^3
# Si number density = 19.798354 Si / 1000 Ang^3
#
#
#
# Elastic Constant Matrix: (Units=GPa)
#
#
# Indices 1 2 3 4 5 6 
#
# 1 130.5946 63.4319 51.4059 0.0000 0.0000 0.0000
# 2 63.4319 104.9453 49.6364 0.0000 0.0000 0.0000
# 3 51.4059 49.6364 76.9893 0.0000 0.0000 0.0000
# 4 0.0000 0.0000 0.0000 18.0666 0.0000 0.0000
# 5 0.0000 0.0000 0.0000 0.0000 0.1700 0.0000
# 6 0.0000 0.0000 0.0000 0.0000 0.0000 27.6304
#
#
#
# Elastic Compliance Matrix: (Units=1/GPa)
#
#
# Indices 1 2 3 4 5 6 
#
# 1 0.011948 -0.004962 -0.004779 0.000000 0.000000 0.000000
# 2 -0.004962 0.015769 -0.006854 0.000000 0.000000 0.000000
# 3 -0.004779 -0.006854 0.020599 0.000000 0.000000 0.000000
# 4 0.000000 0.000000 0.000000 0.055351 0.000000 0.000000
# 5 0.000000 0.000000 0.000000 0.000000 5.883758 0.000000
# 6 0.000000 0.000000 0.000000 0.000000 0.000000 0.036192
#
#
# Mechanical properties :
#
#
# Convention : Reuss Voigt Hill
#
# Bulk Modulus (GPa) = 66.10618 71.27527 68.69073
# Shear Modulus (GPa) = 0.82483 19.04372 9.93428
#
# Velocity S-wave (km/s) = 0.64616 3.10479 2.24246
# Velocity P-wave (km/s) = 5.83257 6.99512 6.44013
#
# Compressibility (1/GPa) = 0.01512718
#
# Stress axis : x y z
#
# Youngs Moduli (GPa) = 83.69322 63.41378 48.54647
#
# Poissons Ratio (x) = 0.31463 0.23201
# Poissons Ratio (y) = 0.41525 0.33274
# Poissons Ratio (z) = 0.39999 0.43464
#
# Static dielectric constant tensor:
#      x y z
#    x 3.619930 0.000000 0.000000 
#    y 0.000000 3.782630 0.000000 
#    z 0.000000 0.000000 3.344390 
# 
# 
# High freq. dielectric constant tensor:
#      x y z
#    x 1.773120 0.000000 0.000000 
#    y 0.000000 1.775950 0.000000 
#    z 0.000000 0.000000 1.740630 
# 
# From -- ./inp_files/13776.got.cif
#   From: 2010.03.12/outbox.cif.g09.slc.cpg/sg47_7_cif.got.tgz:13776.got - 2010.04.14 03:12:58.
