data_PCOD8195303
_publ_section_title
;
Structure prediction by ZEFSAII (Michael W. Deem and Ramdas Pophale) SiO2 
 PCOD8195303
Probable space group: P M M M
;
_chemical_formula_sum "Si O2"
_cell_formula_units_Z 56
_cell_length_a 13.840962
_cell_length_b 9.847642
_cell_length_c 30.210151
_cell_angle_alpha 90.000000
_cell_angle_beta 90.000000
_cell_angle_gamma 90.000000
_cell_volume 4117.668919
_symmetry_space_group_name_H-M "P M M M"
_symmetry_group_IT_number 47
_symmetry_cell_setting 'orthorhombic'
loop_
_space_group_symop_operation_xyz
x,y,z
-x,-y,z
x,-y,-z
-x,y,-z
-x,-y,-z
x,y,-z
-x,y,z
x,-y,z
loop_
_atom_site_type_symbol
_atom_site_label
_atom_site_fract_x
_atom_site_fract_y
_atom_site_fract_z
Si Si1 0.266931 0.754049 0.947712
Si Si2 0.609817 0.500000 0.947507
Si Si3 0.885037 0.347912 0.549032
Si Si4 0.605595 0.000000 0.947588
Si Si5 0.114726 0.655237 0.200724
Si Si6 0.886697 0.841160 0.118654
Si Si7 0.114906 0.151501 0.623517
Si Si8 0.885059 0.847087 0.277740
O O1 0.325799 0.624469 0.931037
O O2 0.336924 0.871191 0.931137
O O3 0.164326 0.776524 0.924310
O O4 0.246686 0.752561 0.000000
O O5 0.500000 0.500000 0.927646
O O6 0.599662 0.500000 0.000000
O O7 0.852225 0.299017 0.500000
O O8 0.847189 0.500000 0.557863
O O9 0.839471 0.251206 0.586697
O O10 0.000000 0.345358 0.551677
O O11 0.500000 0.000000 0.925547
O O12 0.595758 0.000000 0.000000
O O13 0.155859 0.500000 0.197897
O O14 0.147619 0.748413 0.159626
O O15 0.155813 0.732989 0.244185
O O16 0.000000 0.648052 0.202596
O O17 0.000000 0.826576 0.110097
O O18 0.859781 0.000000 0.126551
O O19 0.149532 0.193475 0.672798
O O20 0.000000 0.157347 0.621677
O O21 0.150975 0.000000 0.612514
O O22 0.000000 0.848641 0.275223
O O23 0.848302 0.000000 0.265678
#
# Coordination Sequence:
#
# PCOD8195303 Si02
#       8
#     8   4   8   4   8   8   8   8
#     4  10  19  31  46  66  85 105 132 156 184 222
#     4   9  18  32  49  67  87 107 124 150 191 229
#     4   8  13  19  24  31  46  68  91 115 148 193
#     4   9  16  28  47  67  85 101 124 160 191 217
#     4   9  17  27  39  53  67  87 117 149 178 211
#     4  10  20  32  44  58  80 109 134 157 186 218
#     4   8  13  19  27  39  52  67  89 120 158 199
#     4   8  13  22  34  46  60  76  98 132 173 212
#
# _framework density 13.599928999999999
#
# number of rings (size 3 to 8) (size 9 to 14) (size 15 to 20)
#    0.000    3.143    0.714    2.143    1.000    4.571 
#    0.000    5.000    0.000    1.286    0.000    0.000 
#    0.000    0.000    0.000    0.000    0.000    0.000 
#
# Total GULP energy -693800.989131 kJ/mol
# GULP energy per Si atom -12389.303377 kJ/mol
# Density = 1.356897 g / cm^3
# Si number density = 13.599929 Si / 1000 Ang^3
#
#
#
# Elastic Constant Matrix: (Units=GPa)
#
#
# Indices 1 2 3 4 5 6 
#
# 1 28.4507 26.4853 24.7440 0.0000 0.0000 0.0000
# 2 26.4853 120.3446 62.5710 0.0000 0.0000 0.0000
# 3 24.7440 62.5710 91.7400 0.0000 0.0000 0.0000
# 4 0.0000 0.0000 0.0000 27.6125 0.0000 0.0000
# 5 0.0000 0.0000 0.0000 0.0000 0.7533 0.0000
# 6 0.0000 0.0000 0.0000 0.0000 0.0000 23.6634
#
#
#
# Elastic Compliance Matrix: (Units=1/GPa)
#
#
# Indices 1 2 3 4 5 6 
#
# 1 0.048572 -0.006009 -0.009002 0.000000 0.000000 0.000000
# 2 -0.006009 0.013619 -0.007668 0.000000 0.000000 0.000000
# 3 -0.009002 -0.007668 0.018558 0.000000 0.000000 0.000000
# 4 0.000000 0.000000 0.000000 0.036215 0.000000 0.000000
# 5 0.000000 0.000000 0.000000 0.000000 1.327568 0.000000
# 6 0.000000 0.000000 0.000000 0.000000 0.000000 0.042259
#
#
# Mechanical properties :
#
#
# Convention : Reuss Voigt Hill
#
# Bulk Modulus (GPa) = 28.25614 52.01509 40.13562
# Shear Modulus (GPa) = 3.23845 18.85482 11.04664
#
# Velocity S-wave (km/s) = 1.54480 3.72747 2.85310
# Velocity P-wave (km/s) = 4.89935 7.54022 6.35840
#
# Compressibility (1/GPa) = 0.03539053
#
# Stress axis : x y z
#
# Youngs Moduli (GPa) = 20.58798 73.42854 53.88429
#
# Poissons Ratio (x) = 0.44124 0.48509
# Poissons Ratio (y) = 0.12371 0.41317
# Poissons Ratio (z) = 0.18534 0.56304
#
# Static dielectric constant tensor:
#      x y z
#    x 2.204110 0.000000 0.000000 
#    y 0.000000 3.030190 0.000000 
#    z 0.000000 0.000000 2.803260 
# 
# 
# High freq. dielectric constant tensor:
#      x y z
#    x 1.441760 0.000000 0.000000 
#    y 0.000000 1.536290 0.000000 
#    z 0.000000 0.000000 1.510370 
# 
# From -- ./inp_files/34643.got.cif
#   From: 2010.03.12/outbox.cif.g09.slc.cpg/sg47_18_cif.got.tgz:34643.got - 2010.04.14 03:12:58.
