data_PCOD8195809
_publ_section_title
;
Structure prediction by ZEFSAII (Michael W. Deem and Ramdas Pophale) SiO2 
 PCOD8195809
Probable space group: P M M M
;
_chemical_formula_sum "Si O2"
_cell_formula_units_Z 64
_cell_length_a 9.103841
_cell_length_b 28.582402
_cell_length_c 13.915025
_cell_angle_alpha 90.000000
_cell_angle_beta 90.000000
_cell_angle_gamma 90.000000
_cell_volume 3620.823690
_symmetry_space_group_name_H-M "P M M M"
_symmetry_group_IT_number 47
_symmetry_cell_setting 'orthorhombic'
loop_
_space_group_symop_operation_xyz
x,y,z
-x,-y,z
x,-y,-z
-x,y,-z
-x,-y,-z
x,y,-z
-x,y,z
x,-y,z
loop_
_atom_site_type_symbol
_atom_site_label
_atom_site_fract_x
_atom_site_fract_y
_atom_site_fract_z
Si Si1 0.170169 0.052036 0.725118
Si Si2 0.827180 0.274732 0.112330
Si Si3 0.337155 0.633137 0.887708
Si Si4 0.170767 0.445577 0.789108
Si Si5 0.173053 0.142213 0.389450
Si Si6 0.663869 0.444549 0.395056
Si Si7 0.672778 0.808636 0.778678
Si Si8 0.671561 0.901883 0.108323
O O1 0.218255 0.089908 0.645095
O O2 0.252772 0.059252 0.825783
O O3 0.000000 0.057714 0.748488
O O4 0.206558 0.000000 0.685772
O O5 0.763348 0.324224 0.149101
O O6 0.749604 0.236333 0.177328
O O7 0.000000 0.274235 0.131547
O O8 0.791652 0.265809 0.000000
O O9 0.500000 0.635335 0.840428
O O10 0.260022 0.583750 0.866798
O O11 0.354140 0.637326 0.000000
O O12 0.209677 0.500000 0.804234
O O13 0.219765 0.427304 0.683780
O O14 0.000000 0.435987 0.802163
O O15 0.221382 0.147739 0.500000
O O16 0.259858 0.180293 0.326187
O O17 0.000000 0.150641 0.376829
O O18 0.709613 0.424641 0.500000
O O19 0.500000 0.426967 0.367976
O O20 0.664572 0.500000 0.399400
O O21 0.500000 0.799550 0.767756
O O22 0.708138 0.850701 0.851179
O O23 0.500000 0.911931 0.110231
O O24 0.733460 0.905251 0.000000
#
# Coordination Sequence:
#
# PCOD8195809 Si02
#       8
#     8   8   8   8   8   8   8   8
#     4   9  18  31  46  67  95 127 166 210 253 296
#     4  10  20  34  54  79 105 131 159 195 242 295
#     4  10  21  36  53  73  99 133 172 210 246 289
#     4  10  20  32  48  72 102 136 172 211 254 297
#     4   9  18  33  52  73  98 129 166 208 253 300
#     4   8  14  26  45  68  93 122 158 200 243 286
#     4  10  19  32  52  76 101 127 159 200 244 295
#     4   9  18  31  46  66  94 128 163 199 241 291
#
# _framework density 17.675536000000001
#
# number of rings (size 3 to 8) (size 9 to 14) (size 15 to 20)
#    0.000    2.625    0.000    2.250    0.000    5.000 
#    0.000    5.000    0.000    0.750    0.000    3.500 
#    0.000    0.000    0.000    0.000    0.000    0.000 
#
# Total GULP energy -793464.958063 kJ/mol
# GULP energy per Si atom -12397.889970 kJ/mol
# Density = 1.763531 g / cm^3
# Si number density = 17.675536 Si / 1000 Ang^3
#
#
#
# Elastic Constant Matrix: (Units=GPa)
#
#
# Indices 1 2 3 4 5 6 
#
# 1 86.2367 53.1252 43.6466 0.0000 0.0000 0.0000
# 2 53.1252 94.6700 42.6525 0.0000 0.0000 0.0000
# 3 43.6466 42.6525 87.8182 0.0000 0.0000 0.0000
# 4 0.0000 0.0000 0.0000 20.4676 0.0000 0.0000
# 5 0.0000 0.0000 0.0000 0.0000 28.8402 0.0000
# 6 0.0000 0.0000 0.0000 0.0000 0.0000 27.9557
#
#
#
# Elastic Compliance Matrix: (Units=1/GPa)
#
#
# Indices 1 2 3 4 5 6 
#
# 1 0.019700 -0.008505 -0.005661 0.000000 0.000000 0.000000
# 2 -0.008505 0.017193 -0.004124 0.000000 0.000000 0.000000
# 3 -0.005661 -0.004124 0.016203 0.000000 0.000000 0.000000
# 4 0.000000 0.000000 0.000000 0.048858 0.000000 0.000000
# 5 0.000000 0.000000 0.000000 0.000000 0.034674 0.000000
# 6 0.000000 0.000000 0.000000 0.000000 0.000000 0.035771
#
#
# Mechanical properties :
#
#
# Convention : Reuss Voigt Hill
#
# Bulk Modulus (GPa) = 60.53643 60.84150 60.68897
# Shear Modulus (GPa) = 23.31181 24.07275 23.69228
#
# Velocity S-wave (km/s) = 3.63557 3.69443 3.66512
# Velocity P-wave (km/s) = 7.20737 7.25909 7.23328
#
# Compressibility (1/GPa) = 0.01651898
#
# Stress axis : x y z
#
# Youngs Moduli (GPa) = 50.76107 58.16172 61.71550
#
# Poissons Ratio (x) = 0.49465 0.34934
# Poissons Ratio (y) = 0.43171 0.25450
# Poissons Ratio (z) = 0.28733 0.23985
#
# Static dielectric constant tensor:
#      x y z
#    x 3.391220 0.000000 0.000000 
#    y 0.000000 3.173640 0.000000 
#    z 0.000000 0.000000 3.382800 
# 
# 
# High freq. dielectric constant tensor:
#      x y z
#    x 1.689270 0.000000 0.000000 
#    y 0.000000 1.665870 0.000000 
#    z 0.000000 0.000000 1.674830 
# 
# From -- ./inp_files/15731.got.cif
#   From: 2010.03.12/outbox.cif.g09.slc.cpg/sg47_8_cif.got.tgz:15731.got - 2010.04.14 03:12:58.
