data_PCOD8195112
_publ_section_title
;
Structure prediction by ZEFSAII (Michael W. Deem and Ramdas Pophale) SiO2 
 PCOD8195112
Probable space group: P M M M
;
_chemical_formula_sum "Si O2"
_cell_formula_units_Z 48
_cell_length_a 7.703538
_cell_length_b 9.453458
_cell_length_c 34.678858
_cell_angle_alpha 90.000000
_cell_angle_beta 90.000000
_cell_angle_gamma 90.000000
_cell_volume 2525.490363
_symmetry_space_group_name_H-M "P M M M"
_symmetry_group_IT_number 47
_symmetry_cell_setting 'orthorhombic'
loop_
_space_group_symop_operation_xyz
x,y,z
-x,-y,z
x,-y,-z
-x,y,-z
-x,-y,-z
x,y,-z
-x,y,z
x,-y,z
loop_
_atom_site_type_symbol
_atom_site_label
_atom_site_fract_x
_atom_site_fract_y
_atom_site_fract_z
Si Si1 0.500000 0.831050 0.402876
Si Si2 0.793661 0.341374 0.042662
Si Si3 0.807115 0.832212 0.457063
Si Si4 0.807349 0.331944 0.268420
Si Si5 0.794371 0.657246 0.816595
Si Si6 0.500000 0.331517 0.676723
Si Si7 0.207430 0.158944 0.886906
O O1 0.668207 0.776712 0.426295
O O2 0.500000 0.751365 0.362843
O O3 0.500000 0.000000 0.396661
O O4 0.726680 0.500000 0.051431
O O5 0.718505 0.235611 0.074848
O O6 0.000000 0.340163 0.044090
O O7 0.730396 0.293338 0.000000
O O8 0.762938 0.774400 0.500000
O O9 0.000000 0.781239 0.444664
O O10 0.799553 0.000000 0.458368
O O11 0.814631 0.500000 0.267138
O O12 0.746989 0.281047 0.225805
O O13 0.670181 0.280265 0.300100
O O14 0.000000 0.272429 0.278739
O O15 0.714921 0.500000 0.822452
O O16 0.718613 0.760906 0.849226
O O17 0.000000 0.647147 0.820255
O O18 0.500000 0.500000 0.669881
O O19 0.000000 0.159952 0.886825
O O20 0.280089 0.000000 0.886452
#
# Coordination Sequence:
#
# PCOD8195112 Si02
#       7
#     4   8   8   8   8   4   8
#     4  10  19  30  46  70  98 124 154 195 239 280
#     4   8  13  20  28  38  57  91 133 170 204 248
#     4   8  14  26  46  71  96 124 161 202 239 275
#     4   8  15  29  48  67  86 113 152 193 229 270
#     4   8  13  23  39  54  68  92 129 171 212 254
#     4  10  20  33  49  69  94 126 161 193 230 280
#     4   9  15  20  28  46  70  93 122 164 213 263
#
# _framework density 19.006208999999998
#
# number of rings (size 3 to 8) (size 9 to 14) (size 15 to 20)
#    0.000    3.500    0.000    2.750    0.000    4.000 
#    0.000    2.500    0.000    2.000    0.000    1.167 
#    0.000    0.000    0.000    0.750    0.000   19.000 
#
# Total GULP energy -594817.080839 kJ/mol
# GULP energy per Si atom -12392.022517 kJ/mol
# Density = 1.896295 g / cm^3
# Si number density = 19.006209 Si / 1000 Ang^3
#
#
#
# Elastic Constant Matrix: (Units=GPa)
#
#
# Indices 1 2 3 4 5 6 
#
# 1 79.9738 27.2433 72.0110 0.0000 0.0000 0.0000
# 2 27.2433 75.1315 69.3888 0.0000 0.0000 0.0000
# 3 72.0110 69.3888 193.7728 0.0000 0.0000 0.0000
# 4 0.0000 0.0000 0.0000 26.4077 0.0000 0.0000
# 5 0.0000 0.0000 0.0000 0.0000 -15.2231 0.0000
# 6 0.0000 0.0000 0.0000 0.0000 0.0000 4.1417
#
#
#
# Elastic Compliance Matrix: (Units=1/GPa)
#
#
# Indices 1 2 3 4 5 6 
#
# 1 0.018807 -0.000545 -0.006794 0.000000 0.000000 0.000000
# 2 -0.000545 0.019903 -0.006925 0.000000 0.000000 0.000000
# 3 -0.006794 -0.006925 0.010165 0.000000 0.000000 0.000000
# 4 0.000000 0.000000 0.000000 0.037868 0.000000 0.000000
# 5 0.000000 0.000000 0.000000 0.000000 -0.065690 0.000000
# 6 0.000000 0.000000 0.000000 0.000000 0.000000 0.241449
#
#
# Mechanical properties :
#
#
# Convention : Reuss Voigt Hill
#
# Bulk Modulus (GPa) = 49.14433 76.24049 62.69241
# Shear Modulus (GPa) = 16.78907 15.08090 15.93499
#
# Velocity S-wave (km/s) = 2.97534 2.81992 2.89867
# Velocity P-wave (km/s) = 6.14139 7.12763 6.65281
#
# Compressibility (1/GPa) = 0.02034823
#
# Stress axis : x y z
#
# Youngs Moduli (GPa) = 53.17045 50.24394 98.37413
#
# Poissons Ratio (x) = 0.02737 0.66838
# Poissons Ratio (y) = 0.02897 0.68121
# Poissons Ratio (z) = 0.36125 0.34792
#
# Static dielectric constant tensor:
#      x y z
#    x 3.422720 0.000000 0.000000 
#    y 0.000000 3.210070 0.000000 
#    z 0.000000 0.000000 3.709610 
# 
# 
# High freq. dielectric constant tensor:
#      x y z
#    x 1.716780 0.000000 0.000000 
#    y 0.000000 1.690390 0.000000 
#    z 0.000000 0.000000 1.744410 
# 
# From -- ./inp_files/34138.got.cif
#   From: 2010.03.12/outbox.cif.g09.slc.cpg/sg47_18_cif.got.tgz:34138.got - 2010.04.14 03:12:58.
