data_PCOD8195031
_publ_section_title
;
Structure prediction by ZEFSAII (Michael W. Deem and Ramdas Pophale) SiO2 
 PCOD8195031
Probable space group: P M M M
;
_chemical_formula_sum "Si O2"
_cell_formula_units_Z 56
_cell_length_a 18.438058
_cell_length_b 18.713002
_cell_length_c 9.520169
_cell_angle_alpha 90.000000
_cell_angle_beta 90.000000
_cell_angle_gamma 90.000000
_cell_volume 3284.757393
_symmetry_space_group_name_H-M "P M M M"
_symmetry_group_IT_number 47
_symmetry_cell_setting 'orthorhombic'
loop_
_space_group_symop_operation_xyz
x,y,z
-x,-y,z
x,-y,-z
-x,y,-z
-x,-y,-z
x,y,-z
-x,y,z
x,-y,z
loop_
_atom_site_type_symbol
_atom_site_label
_atom_site_fract_x
_atom_site_fract_y
_atom_site_fract_z
Si Si1 0.080976 0.327053 0.159348
Si Si2 0.581921 0.207884 0.662192
Si Si3 0.586172 0.921897 0.156898
Si Si4 0.915967 0.917373 0.162638
Si Si5 0.284615 0.300222 0.338917
Si Si6 0.852408 0.793391 0.334686
Si Si7 0.783914 0.419196 0.163458
O O1 0.091068 0.261813 0.266251
O O2 0.134787 0.392042 0.194819
O O3 0.000000 0.357358 0.176947
O O4 0.094348 0.299245 0.000000
O O5 0.583163 0.187197 0.500000
O O6 0.500000 0.227191 0.711617
O O7 0.615293 0.139331 0.741008
O O8 0.633762 0.274669 0.693764
O O9 0.500000 0.922447 0.160339
O O10 0.615012 0.000000 0.205532
O O11 0.614058 0.905430 0.000000
O O12 0.863610 0.870040 0.261024
O O13 0.000000 0.900642 0.196825
O O14 0.898672 0.000000 0.194957
O O15 0.899774 0.899998 0.000000
O O16 0.275259 0.323420 0.500000
O O17 0.228559 0.236080 0.304065
O O18 0.273064 0.369876 0.244760
O O19 0.867982 0.800594 0.500000
O O20 0.777554 0.500000 0.219161
O O21 0.764891 0.414748 0.000000
#
# Coordination Sequence:
#
# PCOD8195031 Si02
#       7
#     8   8   8   8   8   8   8
#     4   9  17  29  46  68  94 123 151 181 220 262
#     4   9  17  30  49  70  90 116 154 196 231 267
#     4   8  14  25  41  63  92 121 146 176 218 267
#     4   9  18  32  48  65  87 118 157 199 237 269
#     4   9  19  34  49  68  94 121 149 183 227 276
#     4  10  19  30  45  65  91 121 152 188 228 271
#     4   9  18  32  50  72  95 120 152 185 216 259
#
# _framework density 17.048444
#
# number of rings (size 3 to 8) (size 9 to 14) (size 15 to 20)
#    0.000    3.000    0.000    1.714    0.000    4.571 
#    0.000    4.286    0.000    4.714    0.000    7.000 
#    0.000    0.000    0.000    0.000    0.000    0.000 
#
# Total GULP energy -694235.484800 kJ/mol
# GULP energy per Si atom -12397.062229 kJ/mol
# Density = 1.700964 g / cm^3
# Si number density = 17.048444 Si / 1000 Ang^3
#
#
#
# Elastic Constant Matrix: (Units=GPa)
#
#
# Indices 1 2 3 4 5 6 
#
# 1 71.8419 51.1939 38.5498 0.0000 0.0000 0.0000
# 2 51.1939 131.9180 67.8377 0.0000 0.0000 0.0000
# 3 38.5498 67.8377 76.4788 0.0000 0.0000 0.0000
# 4 0.0000 0.0000 0.0000 22.6357 0.0000 0.0000
# 5 0.0000 0.0000 0.0000 0.0000 20.0961 0.0000
# 6 0.0000 0.0000 0.0000 0.0000 0.0000 16.7182
#
#
#
# Elastic Compliance Matrix: (Units=1/GPa)
#
#
# Indices 1 2 3 4 5 6 
#
# 1 0.020669 -0.004897 -0.006074 0.000000 0.000000 0.000000
# 2 -0.004897 0.015099 -0.010924 0.000000 0.000000 0.000000
# 3 -0.006074 -0.010924 0.025827 0.000000 0.000000 0.000000
# 4 0.000000 0.000000 0.000000 0.044178 0.000000 0.000000
# 5 0.000000 0.000000 0.000000 0.000000 0.049761 0.000000
# 6 0.000000 0.000000 0.000000 0.000000 0.000000 0.059815
#
#
# Mechanical properties :
#
#
# Convention : Reuss Voigt Hill
#
# Bulk Modulus (GPa) = 56.17018 66.15571 61.16294
# Shear Modulus (GPa) = 18.86267 20.06717 19.46492
#
# Velocity S-wave (km/s) = 3.32989 3.43456 3.38263
# Velocity P-wave (km/s) = 6.91398 7.39034 7.15612
#
# Compressibility (1/GPa) = 0.01780304
#
# Stress axis : x y z
#
# Youngs Moduli (GPa) = 48.38251 66.23116 38.71902
#
# Poissons Ratio (x) = 0.32436 0.23519
# Poissons Ratio (y) = 0.23695 0.42297
# Poissons Ratio (z) = 0.29388 0.72352
#
# Static dielectric constant tensor:
#      x y z
#    x 3.052240 0.000000 0.000000 
#    y 0.000000 3.173180 0.000000 
#    z 0.000000 0.000000 3.235070 
# 
# 
# High freq. dielectric constant tensor:
#      x y z
#    x 1.635650 0.000000 0.000000 
#    y 0.000000 1.647570 0.000000 
#    z 0.000000 0.000000 1.657870 
# 
# From -- ./inp_files/11515.got.cif
#   From: 2010.03.12/outbox.cif.g09.slc.cpg/sg47_6_cif.got.tgz:11515.got - 2010.04.14 03:12:58.
