data_PCOD8195423
_publ_section_title
;
Structure prediction by ZEFSAII (Michael W. Deem and Ramdas Pophale) SiO2 
 PCOD8195423
Probable space group: P M M M
;
_chemical_formula_sum "Si O2"
_cell_formula_units_Z 56
_cell_length_a 19.414656
_cell_length_b 8.736813
_cell_length_c 18.793289
_cell_angle_alpha 90.000000
_cell_angle_beta 90.000000
_cell_angle_gamma 90.000000
_cell_volume 3187.759381
_symmetry_space_group_name_H-M "P M M M"
_symmetry_group_IT_number 47
_symmetry_cell_setting 'orthorhombic'
loop_
_space_group_symop_operation_xyz
x,y,z
-x,-y,z
x,-y,-z
-x,y,-z
-x,-y,-z
x,y,-z
-x,y,z
x,-y,z
loop_
_atom_site_type_symbol
_atom_site_label
_atom_site_fract_x
_atom_site_fract_y
_atom_site_fract_z
Si Si1 0.075060 0.318400 0.645354
Si Si2 0.073592 0.318759 0.193570
Si Si3 0.298271 0.180481 0.705305
Si Si4 0.783993 0.319743 0.418684
Si Si5 0.780118 0.319657 0.834806
Si Si6 0.578052 0.318330 0.782737
Si Si7 0.347207 0.680541 0.077810
O O1 0.076326 0.500000 0.643225
O O2 0.083743 0.259453 0.726073
O O3 0.139182 0.255557 0.599338
O O4 0.000000 0.261738 0.615833
O O5 0.069419 0.500000 0.194010
O O6 0.140916 0.267863 0.148070
O O7 0.000000 0.254865 0.162885
O O8 0.274063 0.237805 0.628289
O O9 0.243945 0.235952 0.763683
O O10 0.374245 0.246401 0.721899
O O11 0.302853 0.000000 0.705557
O O12 0.767482 0.279711 0.500000
O O13 0.780379 0.500000 0.403822
O O14 0.775534 0.500000 0.818638
O O15 0.731368 0.275666 0.900946
O O16 0.500000 0.265546 0.769271
O O17 0.586193 0.500000 0.779654
O O18 0.601266 0.257843 0.861220
O O19 0.355333 0.500000 0.072063
O O20 0.363432 0.753720 0.000000
#
# Coordination Sequence:
#
# PCOD8195423 Si02
#       7
#     8   8   8   8   8   8   8
#     4   8  13  22  39  65  93 118 151 198 243 278
#     4   8  12  19  37  63  86 113 155 206 247 273
#     4  11  21  32  48  69  96 125 154 192 233 277
#     4  10  19  31  49  70  93 124 161 199 236 278
#     4   9  15  27  47  65  88 123 164 203 234 274
#     4   9  18  33  54  76  96 122 154 187 223 269
#     4   8  14  24  42  72 103 127 152 184 224 270
#
# _framework density 17.567197
#
# number of rings (size 3 to 8) (size 9 to 14) (size 15 to 20)
#    0.000    3.000    1.429    3.000    0.000    1.143 
#    0.000    2.857    0.000    9.429    0.000   11.000 
#    0.000    0.000    0.000    5.143    0.000    5.714 
#
# Total GULP energy -693771.701605 kJ/mol
# GULP energy per Si atom -12388.780386 kJ/mol
# Density = 1.752721 g / cm^3
# Si number density = 17.567197 Si / 1000 Ang^3
#
#
#
# Elastic Constant Matrix: (Units=GPa)
#
#
# Indices 1 2 3 4 5 6 
#
# 1 166.5435 29.9040 54.8056 0.0000 0.0000 0.0000
# 2 29.9040 32.4750 20.3558 0.0000 0.0000 0.0000
# 3 54.8056 20.3558 77.5210 0.0000 0.0000 0.0000
# 4 0.0000 0.0000 0.0000 4.2715 0.0000 0.0000
# 5 0.0000 0.0000 0.0000 0.0000 19.3920 0.0000
# 6 0.0000 0.0000 0.0000 0.0000 0.0000 4.8431
#
#
#
# Elastic Compliance Matrix: (Units=1/GPa)
#
#
# Indices 1 2 3 4 5 6 
#
# 1 0.008409 -0.004808 -0.004682 0.000000 0.000000 0.000000
# 2 -0.004808 0.039609 -0.007002 0.000000 0.000000 0.000000
# 3 -0.004682 -0.007002 0.018048 0.000000 0.000000 0.000000
# 4 0.000000 0.000000 0.000000 0.234111 0.000000 0.000000
# 5 0.000000 0.000000 0.000000 0.000000 0.051568 0.000000
# 6 0.000000 0.000000 0.000000 0.000000 0.000000 0.206478
#
#
# Mechanical properties :
#
#
# Convention : Reuss Voigt Hill
#
# Bulk Modulus (GPa) = 30.22742 54.07446 42.15094
# Shear Modulus (GPa) = 8.30243 17.13292 12.71768
#
# Velocity S-wave (km/s) = 2.17632 3.12633 2.69354
# Velocity P-wave (km/s) = 4.85379 6.62422 5.80687
#
# Compressibility (1/GPa) = 0.03308255
#
# Stress axis : x y z
#
# Youngs Moduli (GPa) = 118.92685 25.24680 55.40660
#
# Poissons Ratio (x) = 0.12139 0.25942
# Poissons Ratio (y) = 0.57180 0.38793
# Poissons Ratio (z) = 0.55683 0.17677
#
# Static dielectric constant tensor:
#      x y z
#    x 3.703290 0.000000 0.000000 
#    y 0.000000 2.754500 0.000000 
#    z 0.000000 0.000000 3.180190 
# 
# 
# High freq. dielectric constant tensor:
#      x y z
#    x 1.690650 0.000000 0.000000 
#    y 0.000000 1.626060 0.000000 
#    z 0.000000 0.000000 1.649330 
# 
# From -- ./inp_files/26939.got.cif
#   From: 2010.03.12/outbox.cif.g09.slc.cpg/sg47_14_cif.got.tgz:26939.got - 2010.04.14 03:12:58.
