data_PCOD8195053
_publ_section_title
;
Structure prediction by ZEFSAII (Michael W. Deem and Ramdas Pophale) SiO2 
 PCOD8195053
Probable space group: P M M M
;
_chemical_formula_sum "Si O2"
_cell_formula_units_Z 44
_cell_length_a 9.034984
_cell_length_b 13.616179
_cell_length_c 21.422529
_cell_angle_alpha 90.000000
_cell_angle_beta 90.000000
_cell_angle_gamma 90.000000
_cell_volume 2635.441493
_symmetry_space_group_name_H-M "P M M M"
_symmetry_group_IT_number 47
_symmetry_cell_setting 'orthorhombic'
loop_
_space_group_symop_operation_xyz
x,y,z
-x,-y,z
x,-y,-z
-x,y,-z
-x,-y,-z
x,y,-z
-x,y,z
x,-y,z
loop_
_atom_site_type_symbol
_atom_site_label
_atom_site_fract_x
_atom_site_fract_y
_atom_site_fract_z
Si Si1 0.828748 0.109805 0.318619
Si Si2 0.325600 0.613990 0.874950
Si Si3 0.825955 0.296766 0.757739
Si Si4 0.166436 0.383629 0.000000
Si Si5 0.669435 0.609747 0.646596
Si Si6 0.326701 0.204435 0.430375
O O1 0.780614 0.187253 0.265355
O O2 0.744759 0.126551 0.383575
O O3 0.000000 0.124455 0.333902
O O4 0.793694 0.000000 0.294226
O O5 0.500000 0.629103 0.879449
O O6 0.285706 0.500000 0.862062
O O7 0.260297 0.682131 0.821068
O O8 0.253433 0.652692 0.938961
O O9 0.775561 0.374438 0.705637
O O10 0.000000 0.307719 0.769618
O O11 0.161675 0.500000 0.000000
O O12 0.000000 0.340198 0.000000
O O13 0.500000 0.625489 0.668855
O O14 0.693938 0.500000 0.620718
O O15 0.710284 0.684585 0.591322
O O16 0.261721 0.190231 0.500000
O O17 0.500000 0.184768 0.430352
#
# Coordination Sequence:
#
# PCOD8195053 Si02
#       6
#     8   8   8   4   8   8
#     4   9  19  35  51  66  86 113 146 186 232 279
#     4  10  19  30  45  67  98 132 159 183 216 259
#     4  10  19  30  46  67  89 115 150 190 228 267
#     4   9  17  29  45  67  96 129 164 195 217 244
#     4   9  17  29  44  62  87 119 151 182 219 265
#     4   9  18  31  46  66  90 114 144 183 225 271
#
# _framework density 16.695495999999999
#
# number of rings (size 3 to 8) (size 9 to 14) (size 15 to 20)
#    0.000    2.636    0.000    1.909    0.000    6.909 
#    0.000    3.636    0.000    0.000    0.000    5.727 
#    0.000    5.091    0.000    0.000    0.000    0.000 
#
# Total GULP energy -545581.413956 kJ/mol
# GULP energy per Si atom -12399.577590 kJ/mol
# Density = 1.665750 g / cm^3
# Si number density = 16.695496 Si / 1000 Ang^3
#
#
#
# Elastic Constant Matrix: (Units=GPa)
#
#
# Indices 1 2 3 4 5 6 
#
# 1 68.2866 28.6055 52.2455 0.0000 0.0000 0.0000
# 2 28.6055 82.5203 41.6080 0.0000 0.0000 0.0000
# 3 52.2455 41.6080 133.3885 0.0000 0.0000 0.0000
# 4 0.0000 0.0000 0.0000 16.9235 0.0000 0.0000
# 5 0.0000 0.0000 0.0000 0.0000 26.9520 0.0000
# 6 0.0000 0.0000 0.0000 0.0000 0.0000 20.7947
#
#
#
# Elastic Compliance Matrix: (Units=1/GPa)
#
#
# Indices 1 2 3 4 5 6 
#
# 1 0.021908 -0.003878 -0.007371 0.000000 0.000000 0.000000
# 2 -0.003878 0.015066 -0.003181 0.000000 0.000000 0.000000
# 3 -0.007371 -0.003181 0.011376 0.000000 0.000000 0.000000
# 4 0.000000 0.000000 0.000000 0.059089 0.000000 0.000000
# 5 0.000000 0.000000 0.000000 0.000000 0.037103 0.000000
# 6 0.000000 0.000000 0.000000 0.000000 0.000000 0.048089
#
#
# Mechanical properties :
#
#
# Convention : Reuss Voigt Hill
#
# Bulk Modulus (GPa) = 51.30571 58.79036 55.04804
# Shear Modulus (GPa) = 21.93084 23.71648 22.82366
#
# Velocity S-wave (km/s) = 3.62826 3.77308 3.70138
# Velocity P-wave (km/s) = 6.95337 7.36691 7.16312
#
# Compressibility (1/GPa) = 0.01949101
#
# Stress axis : x y z
#
# Youngs Moduli (GPa) = 45.64458 66.37361 87.90165
#
# Poissons Ratio (x) = 0.25738 0.64797
# Poissons Ratio (y) = 0.17700 0.27960
# Poissons Ratio (z) = 0.33647 0.21112
#
# Static dielectric constant tensor:
#      x y z
#    x 3.202220 0.000000 0.000000 
#    y 0.000000 3.061280 0.000000 
#    z 0.000000 0.000000 3.167980 
# 
# 
# High freq. dielectric constant tensor:
#      x y z
#    x 1.649530 0.000000 0.000000 
#    y 0.000000 1.620770 0.000000 
#    z 0.000000 0.000000 1.635920 
# 
# From -- ./inp_files/6802.got.cif
#   From: 2010.03.12/outbox.cif.g09.slc.cpg/sg47_4_cif.got.tgz:6802.got - 2010.04.14 03:12:58.
