data_PCOD8195622
_publ_section_title
;
Structure prediction by ZEFSAII (Michael W. Deem and Ramdas Pophale) SiO2 
 PCOD8195622
Probable space group: P M M M
;
_chemical_formula_sum "Si O2"
_cell_formula_units_Z 40
_cell_length_a 22.072827
_cell_length_b 8.105218
_cell_length_c 14.237038
_cell_angle_alpha 90.000000
_cell_angle_beta 90.000000
_cell_angle_gamma 90.000000
_cell_volume 2547.078347
_symmetry_space_group_name_H-M "P M M M"
_symmetry_group_IT_number 47
_symmetry_cell_setting 'orthorhombic'
loop_
_space_group_symop_operation_xyz
x,y,z
-x,-y,z
x,-y,-z
-x,y,-z
-x,-y,-z
x,y,-z
-x,y,z
x,-y,z
loop_
_atom_site_type_symbol
_atom_site_label
_atom_site_fract_x
_atom_site_fract_y
_atom_site_fract_z
Si Si1 0.267589 0.811810 0.894475
Si Si2 0.931120 0.000000 0.112013
Si Si3 0.500000 0.805437 0.107812
Si Si4 0.430843 0.806510 0.394573
Si Si5 0.380246 0.687266 0.790092
Si Si6 0.859004 0.317197 0.111575
O O1 0.324799 0.795961 0.826482
O O2 0.210859 0.705712 0.857005
O O3 0.245605 0.000000 0.895159
O O4 0.286500 0.756797 0.000000
O O5 0.900023 0.167798 0.152586
O O6 0.000000 0.000000 0.147515
O O7 0.927318 0.000000 0.000000
O O8 0.558791 0.734727 0.157166
O O9 0.500000 0.000000 0.118931
O O10 0.500000 0.749588 0.000000
O O11 0.408882 0.763911 0.500000
O O12 0.500000 0.747547 0.380910
O O13 0.387997 0.712662 0.321449
O O14 0.426532 0.000000 0.375151
O O15 0.363798 0.500000 0.811751
O O16 0.880811 0.500000 0.146381
O O17 0.862500 0.308567 0.000000
#
# Coordination Sequence:
#
# PCOD8195622 Si02
#       6
#     8   4   4   8   8   8
#     4  10  19  32  48  63  84 119 157 190 225 270
#     4   9  16  26  40  60  86 115 150 189 226 263
#     4  11  23  37  48  59  82 115 147 184 228 271
#     4   9  18  34  54  69  83 108 140 176 221 275
#     4  12  23  32  46  69  90 110 141 184 232 279
#     4   9  16  27  42  60  84 114 150 190 228 266
#
# _framework density 15.704268000000001
#
# number of rings (size 3 to 8) (size 9 to 14) (size 15 to 20)
#    0.000    2.000    2.000    3.900    0.000    5.200 
#    0.000    3.000    0.000    0.000    0.000    0.000 
#    0.000    0.000    0.000    0.000    0.000    2.000 
#
# Total GULP energy -495923.004354 kJ/mol
# GULP energy per Si atom -12398.075109 kJ/mol
# Density = 1.566852 g / cm^3
# Si number density = 15.704268 Si / 1000 Ang^3
#
#
#
# Elastic Constant Matrix: (Units=GPa)
#
#
# Indices 1 2 3 4 5 6 
#
# 1 89.5043 41.0358 24.7498 0.0000 0.0000 0.0000
# 2 41.0358 89.6520 17.6032 0.0000 0.0000 0.0000
# 3 24.7498 17.6032 63.4837 0.0000 0.0000 0.0000
# 4 0.0000 0.0000 0.0000 11.0408 0.0000 0.0000
# 5 0.0000 0.0000 0.0000 0.0000 0.7751 0.0000
# 6 0.0000 0.0000 0.0000 0.0000 0.0000 18.7273
#
#
#
# Elastic Compliance Matrix: (Units=1/GPa)
#
#
# Indices 1 2 3 4 5 6 
#
# 1 0.015133 -0.006101 -0.004208 0.000000 0.000000 0.000000
# 2 -0.006101 0.014256 -0.001575 0.000000 0.000000 0.000000
# 3 -0.004208 -0.001575 0.017829 0.000000 0.000000 0.000000
# 4 0.000000 0.000000 0.000000 0.090573 0.000000 0.000000
# 5 0.000000 0.000000 0.000000 0.000000 1.290229 0.000000
# 6 0.000000 0.000000 0.000000 0.000000 0.000000 0.053398
#
#
# Mechanical properties :
#
#
# Convention : Reuss Voigt Hill
#
# Bulk Modulus (GPa) = 42.64104 45.49085 44.06594
# Shear Modulus (GPa) = 3.30469 16.72538 10.01503
#
# Velocity S-wave (km/s) = 1.45220 3.26701 2.52807
# Velocity P-wave (km/s) = 5.47935 6.57732 6.05328
#
# Compressibility (1/GPa) = 0.02345159
#
# Stress axis : x y z
#
# Youngs Moduli (GPa) = 66.07941 70.14697 56.08733
#
# Poissons Ratio (x) = 0.42794 0.23603
# Poissons Ratio (y) = 0.40312 0.08831
# Poissons Ratio (z) = 0.27808 0.11045
#
# Static dielectric constant tensor:
#      x y z
#    x 2.910270 0.000000 0.000000 
#    y 0.000000 3.203920 0.000000 
#    z 0.000000 0.000000 2.745400 
# 
# 
# High freq. dielectric constant tensor:
#      x y z
#    x 1.584650 0.000000 0.000000 
#    y 0.000000 1.620830 0.000000 
#    z 0.000000 0.000000 1.551980 
# 
# From -- ./inp_files/10821.got.cif
#   From: 2010.03.12/outbox.cif.g09.slc.cpg/sg47_6_cif.got.tgz:10821.got - 2010.04.14 03:12:58.
