data_PCOD8195148
_publ_section_title
;
Structure prediction by ZEFSAII (Michael W. Deem and Ramdas Pophale) SiO2 
 PCOD8195148
Probable space group: P M M M
;
_chemical_formula_sum "Si O2"
_cell_formula_units_Z 44
_cell_length_a 9.362330
_cell_length_b 20.811597
_cell_length_c 13.591487
_cell_angle_alpha 90.000000
_cell_angle_beta 90.000000
_cell_angle_gamma 90.000000
_cell_volume 2648.233814
_symmetry_space_group_name_H-M "P M M M"
_symmetry_group_IT_number 47
_symmetry_cell_setting 'orthorhombic'
loop_
_space_group_symop_operation_xyz
x,y,z
-x,-y,z
x,-y,-z
-x,y,-z
-x,-y,-z
x,y,-z
-x,y,z
x,-y,z
loop_
_atom_site_type_symbol
_atom_site_label
_atom_site_fract_x
_atom_site_fract_y
_atom_site_fract_z
Si Si1 0.334034 0.626494 0.278801
Si Si2 0.335224 0.757106 0.613049
Si Si3 0.166729 0.689414 0.112508
Si Si4 0.167465 0.819448 0.221203
Si Si5 0.329992 0.500000 0.610858
Si Si6 0.662884 0.926152 0.886342
O O1 0.500000 0.619991 0.252505
O O2 0.304653 0.684410 0.353809
O O3 0.250804 0.637098 0.176790
O O4 0.274802 0.562555 0.331065
O O5 0.291647 0.763457 0.500000
O O6 0.500000 0.775060 0.630761
O O7 0.238064 0.806574 0.673143
O O8 0.204973 0.761317 0.147340
O O9 0.000000 0.675736 0.125306
O O10 0.215978 0.682218 0.000000
O O11 0.230018 0.884822 0.178487
O O12 0.000000 0.828003 0.236050
O O13 0.500000 0.500000 0.605073
O O14 0.267165 0.500000 0.500000
O O15 0.500000 0.904263 0.867325
O O16 0.682844 0.000000 0.855500
O O17 0.702815 0.916624 0.000000
#
# Coordination Sequence:
#
# PCOD8195148 Si02
#       6
#     8   8   8   8   4   8
#     4   9  17  29  47  71  93 116 151 191 230 274
#     4   9  17  30  48  69  93 121 154 191 231 277
#     4   9  18  32  47  64  91 125 156 187 226 271
#     4  10  19  30  47  71  96 122 154 192 232 273
#     4   9  16  28  48  71  94 118 145 185 236 281
#     4   9  18  32  49  70  97 127 156 186 223 270
#
# _framework density 16.614847000000001
#
# number of rings (size 3 to 8) (size 9 to 14) (size 15 to 20)
#    0.000    2.818    0.000    2.182    0.000    5.091 
#    0.000    1.818    0.000    5.455    0.000    3.818 
#    0.000    0.000    0.000    0.000    0.000    0.000 
#
# Total GULP energy -545674.194699 kJ/mol
# GULP energy per Si atom -12401.686243 kJ/mol
# Density = 1.657703 g / cm^3
# Si number density = 16.614847 Si / 1000 Ang^3
#
#
#
# Elastic Constant Matrix: (Units=GPa)
#
#
# Indices 1 2 3 4 5 6 
#
# 1 66.0688 47.6744 61.7539 0.0000 0.0000 0.0000
# 2 47.6744 94.2195 64.1093 0.0000 0.0000 0.0000
# 3 61.7539 64.1093 145.1938 0.0000 0.0000 0.0000
# 4 0.0000 0.0000 0.0000 27.0653 0.0000 0.0000
# 5 0.0000 0.0000 0.0000 0.0000 23.8653 0.0000
# 6 0.0000 0.0000 0.0000 0.0000 0.0000 21.7795
#
#
#
# Elastic Compliance Matrix: (Units=1/GPa)
#
#
# Indices 1 2 3 4 5 6 
#
# 1 0.029864 -0.009246 -0.008619 0.000000 0.000000 0.000000
# 2 -0.009246 0.018034 -0.004030 0.000000 0.000000 0.000000
# 3 -0.008619 -0.004030 0.012333 0.000000 0.000000 0.000000
# 4 0.000000 0.000000 0.000000 0.036948 0.000000 0.000000
# 5 0.000000 0.000000 0.000000 0.000000 0.041902 0.000000
# 6 0.000000 0.000000 0.000000 0.000000 0.000000 0.045915
#
#
# Mechanical properties :
#
#
# Convention : Reuss Voigt Hill
#
# Bulk Modulus (GPa) = 60.82839 72.50636 66.66738
# Shear Modulus (GPa) = 21.34320 23.33833 22.34077
#
# Velocity S-wave (km/s) = 3.58800 3.75196 3.67089
# Velocity P-wave (km/s) = 7.33862 7.90593 7.62755
#
# Compressibility (1/GPa) = 0.01643969
#
# Stress axis : x y z
#
# Youngs Moduli (GPa) = 33.48521 55.44951 81.08464
#
# Poissons Ratio (x) = 0.51270 0.69888
# Poissons Ratio (y) = 0.30961 0.32680
# Poissons Ratio (z) = 0.28861 0.22348
#
# Static dielectric constant tensor:
#      x y z
#    x 3.007690 0.000000 0.000000 
#    y 0.000000 3.031140 0.000000 
#    z 0.000000 0.000000 3.152910 
# 
# 
# High freq. dielectric constant tensor:
#      x y z
#    x 1.630700 0.000000 0.000000 
#    y 0.000000 1.628940 0.000000 
#    z 0.000000 0.000000 1.638710 
# 
# From -- ./inp_files/6178.got.cif
#   From: 2010.03.12/outbox.cif.g09.slc.cpg/sg47_4_cif.got.tgz:6178.got - 2010.04.14 03:12:58.
