data_PCOD8195411
_publ_section_title
;
Structure prediction by ZEFSAII (Michael W. Deem and Ramdas Pophale) SiO2 
 PCOD8195411
Probable space group: P M M M
;
_chemical_formula_sum "Si O2"
_cell_formula_units_Z 52
_cell_length_a 8.945576
_cell_length_b 12.569413
_cell_length_c 25.934091
_cell_angle_alpha 90.000000
_cell_angle_beta 90.000000
_cell_angle_gamma 90.000000
_cell_volume 2916.045771
_symmetry_space_group_name_H-M "P M M M"
_symmetry_group_IT_number 47
_symmetry_cell_setting 'orthorhombic'
loop_
_space_group_symop_operation_xyz
x,y,z
-x,-y,z
x,-y,-z
-x,y,-z
-x,-y,-z
x,y,-z
-x,y,z
x,-y,z
loop_
_atom_site_type_symbol
_atom_site_label
_atom_site_fract_x
_atom_site_fract_y
_atom_site_fract_z
Si Si1 0.173580 0.691640 0.940014
Si Si2 0.825454 0.700921 0.703221
Si Si3 0.323576 0.500000 0.118487
Si Si4 0.672517 0.122380 0.114612
Si Si5 0.671395 0.123258 0.766737
Si Si6 0.831294 0.626438 0.500000
Si Si7 0.174121 0.500000 0.227776
Si Si8 0.675984 0.622675 0.603288
O O1 0.265877 0.604786 0.909297
O O2 0.222461 0.808422 0.922027
O O3 0.000000 0.675033 0.927948
O O4 0.208387 0.678368 0.000000
O O5 0.781223 0.810114 0.730809
O O6 0.781115 0.603228 0.739733
O O7 0.736576 0.692965 0.649997
O O8 0.000000 0.700610 0.690614
O O9 0.500000 0.500000 0.116425
O O10 0.272898 0.500000 0.177155
O O11 0.500000 0.149105 0.103302
O O12 0.710758 0.147481 0.173934
O O13 0.706536 0.000000 0.101851
O O14 0.500000 0.154887 0.755604
O O15 0.698179 0.000000 0.754249
O O16 0.827046 0.500000 0.500000
O O17 0.747527 0.668536 0.550847
O O18 0.000000 0.670107 0.500000
O O19 0.000000 0.500000 0.212700
O O20 0.500000 0.635531 0.598935
O O21 0.722820 0.500000 0.612229
#
# Coordination Sequence:
#
# PCOD8195411 Si02
#       8
#     8   8   4   8   8   4   4   8
#     4  11  24  40  57  78 106 138 172 212 260 314
#     4  11  21  33  51  77 109 141 176 217 262 311
#     4  12  25  39  58  79 101 135 178 219 260 311
#     4   9  19  37  60  84 108 135 170 214 262 313
#     4   9  19  36  55  76 104 137 174 215 260 310
#     4   9  17  29  47  69 100 141 180 221 267 312
#     4  10  22  37  53  77 111 143 170 209 263 319
#     4  10  19  31  48  72 104 142 183 221 261 311
#
# _framework density 17.832367999999999
#
# number of rings (size 3 to 8) (size 9 to 14) (size 15 to 20)
#    0.000    1.923    0.769    4.385    0.000    8.923 
#    0.000    3.077    0.000    0.000    0.000    0.538 
#    0.000    4.308    0.000    0.000    0.000    0.000 
#
# Total GULP energy -645041.102253 kJ/mol
# GULP energy per Si atom -12404.636582 kJ/mol
# Density = 1.779178 g / cm^3
# Si number density = 17.832368 Si / 1000 Ang^3
#
#
#
# Elastic Constant Matrix: (Units=GPa)
#
#
# Indices 1 2 3 4 5 6 
#
# 1 95.3111 38.7311 68.8163 0.0000 0.0000 0.0000
# 2 38.7311 71.7591 43.2460 0.0000 0.0000 0.0000
# 3 68.8163 43.2460 114.8993 0.0000 0.0000 0.0000
# 4 0.0000 0.0000 0.0000 39.8655 0.0000 0.0000
# 5 0.0000 0.0000 0.0000 0.0000 34.4339 0.0000
# 6 0.0000 0.0000 0.0000 0.0000 0.0000 28.2590
#
#
#
# Elastic Compliance Matrix: (Units=1/GPa)
#
#
# Indices 1 2 3 4 5 6 
#
# 1 0.019559 -0.004523 -0.010012 0.000000 0.000000 0.000000
# 2 -0.004523 0.019070 -0.004469 0.000000 0.000000 0.000000
# 3 -0.010012 -0.004469 0.016382 0.000000 0.000000 0.000000
# 4 0.000000 0.000000 0.000000 0.025084 0.000000 0.000000
# 5 0.000000 0.000000 0.000000 0.000000 0.029041 0.000000
# 6 0.000000 0.000000 0.000000 0.000000 0.000000 0.035387
#
#
# Mechanical properties :
#
#
# Convention : Reuss Voigt Hill
#
# Bulk Modulus (GPa) = 58.81241 64.83959 61.82600
# Shear Modulus (GPa) = 26.56792 29.25674 27.91233
#
# Velocity S-wave (km/s) = 3.86407 4.05489 3.96063
# Velocity P-wave (km/s) = 7.27739 7.63953 7.46066
#
# Compressibility (1/GPa) = 0.01700321
#
# Stress axis : x y z
#
# Youngs Moduli (GPa) = 51.12834 52.43918 61.04411
#
# Poissons Ratio (x) = 0.23717 0.61117
# Poissons Ratio (y) = 0.23124 0.27279
# Poissons Ratio (z) = 0.51189 0.23433
#
# Static dielectric constant tensor:
#      x y z
#    x 3.312490 0.000000 0.000000 
#    y 0.000000 3.164520 0.000000 
#    z 0.000000 0.000000 3.329280 
# 
# 
# High freq. dielectric constant tensor:
#      x y z
#    x 1.698810 0.000000 0.000000 
#    y 0.000000 1.671740 0.000000 
#    z 0.000000 0.000000 1.694340 
# 
# From -- ./inp_files/33278.got.cif
#   From: 2010.03.12/outbox.cif.g09.slc.cpg/sg47_17_cif.got.tgz:33278.got - 2010.04.14 03:12:58.
