data_PCOD8195292
_publ_section_title
;
Structure prediction by ZEFSAII (Michael W. Deem and Ramdas Pophale) SiO2 
 PCOD8195292
Probable space group: P M M M
;
_chemical_formula_sum "Si O2"
_cell_formula_units_Z 40
_cell_length_a 16.850997
_cell_length_b 8.881307
_cell_length_c 18.053778
_cell_angle_alpha 90.000000
_cell_angle_beta 90.000000
_cell_angle_gamma 90.000000
_cell_volume 2701.908152
_symmetry_space_group_name_H-M "P M M M"
_symmetry_group_IT_number 47
_symmetry_cell_setting 'orthorhombic'
loop_
_space_group_symop_operation_xyz
x,y,z
-x,-y,z
x,-y,-z
-x,y,-z
-x,-y,-z
x,y,-z
-x,y,z
x,-y,z
loop_
_atom_site_type_symbol
_atom_site_label
_atom_site_fract_x
_atom_site_fract_y
_atom_site_fract_z
Si Si1 0.660463 0.177667 0.085518
Si Si2 0.093142 0.826076 0.727571
Si Si3 0.911533 0.321092 0.000000
Si Si4 0.500000 0.669532 0.087922
Si Si5 0.905913 0.331184 0.418838
Si Si6 0.814747 0.678187 0.858812
O O1 0.577982 0.244088 0.116274
O O2 0.729000 0.245389 0.136845
O O3 0.657924 0.000000 0.094343
O O4 0.674850 0.225272 0.000000
O O5 0.123050 0.782138 0.645154
O O6 0.141638 0.724171 0.784052
O O7 0.000000 0.791201 0.737527
O O8 0.112250 0.000000 0.741621
O O9 0.866826 0.261359 0.072560
O O10 0.914908 0.500000 0.000000
O O11 0.000000 0.252750 0.000000
O O12 0.500000 0.500000 0.119446
O O13 0.500000 0.669571 0.000000
O O14 0.874175 0.278205 0.500000
O O15 0.874953 0.500000 0.401681
O O16 0.000000 0.332119 0.420812
O O17 0.804056 0.500000 0.861536
#
# Coordination Sequence:
#
# PCOD8195292 Si02
#       6
#     8   8   4   4   8   8
#     4  10  19  31  46  64  87 110 136 173 221 266
#     4  10  20  31  42  60  86 114 145 181 223 265
#     4   9  18  30  43  58  75 102 145 191 226 253
#     4   9  17  29  47  67  85 105 136 171 208 257
#     4   8  14  26  44  63  81 104 137 175 214 258
#     4  11  20  31  46  61  82 111 148 187 221 257
#
# _framework density 14.804352
#
# number of rings (size 3 to 8) (size 9 to 14) (size 15 to 20)
#    0.000    2.400    1.000    3.300    0.000    4.400 
#    0.000    2.000    0.000    2.400    0.000    0.000 
#    0.000    0.000    0.000    0.900    0.000   16.600 
#
# Total GULP energy -495951.771789 kJ/mol
# GULP energy per Si atom -12398.794295 kJ/mol
# Density = 1.477066 g / cm^3
# Si number density = 14.804352 Si / 1000 Ang^3
#
#
#
# Elastic Constant Matrix: (Units=GPa)
#
#
# Indices 1 2 3 4 5 6 
#
# 1 87.1046 34.4539 33.5358 0.0000 0.0000 0.0000
# 2 34.4539 66.9876 25.7074 0.0000 0.0000 0.0000
# 3 33.5358 25.7074 80.0361 0.0000 0.0000 0.0000
# 4 0.0000 0.0000 0.0000 21.0443 0.0000 0.0000
# 5 0.0000 0.0000 0.0000 0.0000 3.4845 0.0000
# 6 0.0000 0.0000 0.0000 0.0000 0.0000 23.3694
#
#
#
# Elastic Compliance Matrix: (Units=1/GPa)
#
#
# Indices 1 2 3 4 5 6 
#
# 1 0.015747 -0.006350 -0.004559 0.000000 0.000000 0.000000
# 2 -0.006350 0.019587 -0.003631 0.000000 0.000000 0.000000
# 3 -0.004559 -0.003631 0.015571 0.000000 0.000000 0.000000
# 4 0.000000 0.000000 0.000000 0.047519 0.000000 0.000000
# 5 0.000000 0.000000 0.000000 0.000000 0.286986 0.000000
# 6 0.000000 0.000000 0.000000 0.000000 0.000000 0.042791
#
#
# Mechanical properties :
#
#
# Convention : Reuss Voigt Hill
#
# Bulk Modulus (GPa) = 45.81542 46.83585 46.32563
# Shear Modulus (GPa) = 10.76297 18.94172 14.85234
#
# Velocity S-wave (km/s) = 2.69924 3.58085 3.17084
# Velocity P-wave (km/s) = 6.38193 6.98583 6.69070
#
# Compressibility (1/GPa) = 0.02182671
#
# Stress axis : x y z
#
# Youngs Moduli (GPa) = 63.50331 51.05310 64.22327
#
# Poissons Ratio (x) = 0.32418 0.29277
# Poissons Ratio (y) = 0.40324 0.23318
# Poissons Ratio (z) = 0.28949 0.18536
#
# Static dielectric constant tensor:
#      x y z
#    x 2.735070 0.000000 0.000000 
#    y 0.000000 2.872440 0.000000 
#    z 0.000000 0.000000 2.902080 
# 
# 
# High freq. dielectric constant tensor:
#      x y z
#    x 1.538100 0.000000 0.000000 
#    y 0.000000 1.573580 0.000000 
#    z 0.000000 0.000000 1.543850 
# 
# From -- ./inp_files/9363.got.cif
#   From: 2010.03.12/outbox.cif.g09.slc.cpg/sg47_5_cif.got.tgz:9363.got - 2010.04.14 03:12:58.
