data_PCOD8195905
_publ_section_title
;
Structure prediction by ZEFSAII (Michael W. Deem and Ramdas Pophale) SiO2 
 PCOD8195905
Probable space group: P M M M
;
_chemical_formula_sum "Si O2"
_cell_formula_units_Z 56
_cell_length_a 14.714703
_cell_length_b 23.242856
_cell_length_c 8.965978
_cell_angle_alpha 90.000000
_cell_angle_beta 90.000000
_cell_angle_gamma 90.000000
_cell_volume 3066.469583
_symmetry_space_group_name_H-M "P M M M"
_symmetry_group_IT_number 47
_symmetry_cell_setting 'orthorhombic'
loop_
_space_group_symop_operation_xyz
x,y,z
-x,-y,z
x,-y,-z
-x,y,-z
-x,-y,-z
x,y,-z
-x,y,z
x,-y,z
loop_
_atom_site_type_symbol
_atom_site_label
_atom_site_fract_x
_atom_site_fract_y
_atom_site_fract_z
Si Si1 0.104304 0.782360 0.827025
Si Si2 0.397685 0.067648 0.171791
Si Si3 0.344944 0.357889 0.825064
Si Si4 0.399808 0.248728 0.333558
Si Si5 0.261665 0.849423 0.325579
Si Si6 0.500000 0.562908 0.178635
Si Si7 0.000000 0.567861 0.322641
Si Si8 0.142656 0.348563 0.177908
O O1 0.164984 0.830732 0.744494
O O2 0.117743 0.716449 0.769444
O O3 0.000000 0.800019 0.799390
O O4 0.130813 0.784494 0.000000
O O5 0.500000 0.085618 0.228957
O O6 0.311954 0.094786 0.259254
O O7 0.386513 0.000000 0.192020
O O8 0.388839 0.085816 0.000000
O O9 0.393183 0.298840 0.785100
O O10 0.408457 0.407881 0.758725
O O11 0.243561 0.361493 0.762018
O O12 0.339250 0.362634 0.000000
O O13 0.379197 0.272090 0.500000
O O14 0.500000 0.221233 0.325465
O O15 0.328818 0.201613 0.285350
O O16 0.246809 0.859716 0.500000
O O17 0.500000 0.500000 0.246191
O O18 0.500000 0.564268 0.000000
O O19 0.914017 0.601409 0.256441
O O20 0.000000 0.500000 0.275025
O O21 0.000000 0.573084 0.500000
O O22 0.129755 0.353666 0.000000
#
# Coordination Sequence:
#
# PCOD8195905 Si02
#       8
#     8   8   8   8   8   4   4   8
#     4  10  20  36  57  81 110 142 182 233 286 341
#     4   9  19  37  60  86 118 158 200 238 276 320
#     4  10  19  32  54  78 100 133 174 219 271 321
#     4  10  20  32  47  73 111 147 176 213 263 319
#     4  11  22  34  53  84 118 151 187 228 279 335
#     4   9  18  32  49  73 103 133 172 219 264 317
#     4  11  25  41  57  79 107 141 180 225 282 349
#     4  10  20  36  58  83 106 134 179 231 282 336
#
# _framework density 18.262043999999999
#
# number of rings (size 3 to 8) (size 9 to 14) (size 15 to 20)
#    0.000    2.000    2.857    1.500    0.000    4.286 
#    0.000    2.143    0.000    1.286    0.000    3.000 
#    0.000    0.000    0.000    0.000    0.000    0.000 
#
# Total GULP energy -694029.760284 kJ/mol
# GULP energy per Si atom -12393.388577 kJ/mol
# Density = 1.822048 g / cm^3
# Si number density = 18.262044 Si / 1000 Ang^3
#
#
#
# Elastic Constant Matrix: (Units=GPa)
#
#
# Indices 1 2 3 4 5 6 
#
# 1 133.5877 53.6614 39.8102 0.0000 0.0000 0.0000
# 2 53.6614 84.2859 34.8148 0.0000 0.0000 0.0000
# 3 39.8102 34.8148 45.8683 0.0000 0.0000 0.0000
# 4 0.0000 0.0000 0.0000 23.4262 0.0000 0.0000
# 5 0.0000 0.0000 0.0000 0.0000 21.0402 0.0000
# 6 0.0000 0.0000 0.0000 0.0000 0.0000 -383.3358
#
#
#
# Elastic Compliance Matrix: (Units=1/GPa)
#
#
# Indices 1 2 3 4 5 6 
#
# 1 0.011169 -0.004525 -0.006259 0.000000 0.000000 0.000000
# 2 -0.004525 0.019117 -0.010582 0.000000 0.000000 0.000000
# 3 -0.006259 -0.010582 0.035265 0.000000 0.000000 0.000000
# 4 0.000000 0.000000 0.000000 0.042687 0.000000 0.000000
# 5 0.000000 0.000000 0.000000 0.000000 0.047528 0.000000
# 6 0.000000 0.000000 0.000000 0.000000 0.000000 -0.002609
#
#
# Mechanical properties :
#
#
# Convention : Reuss Voigt Hill
#
# Bulk Modulus (GPa) = 43.82420 57.81275 50.81847
# Shear Modulus (GPa) = 24.57056 -58.74350 -17.08647
#
# Velocity S-wave (km/s) = 3.67201 -5.67775 -3.06212
# Velocity P-wave (km/s) = 6.48288 3.35505 3.92246
#
# Compressibility (1/GPa) = 0.02281844
#
# Stress axis : x y z
#
# Youngs Moduli (GPa) = 89.53587 52.31081 28.35639
#
# Poissons Ratio (x) = 0.23673 0.17747
# Poissons Ratio (y) = 0.40519 0.30007
# Poissons Ratio (z) = 0.56037 0.55355
#
# Static dielectric constant tensor:
#      x y z
#    x 3.902460 0.000000 0.000000 
#    y 0.000000 3.343640 0.000000 
#    z 0.000000 0.000000 3.209410 
# 
# 
# High freq. dielectric constant tensor:
#      x y z
#    x 1.720650 0.000000 0.000000 
#    y 0.000000 1.693090 0.000000 
#    z 0.000000 0.000000 1.692180 
# 
# From -- ./inp_files/7392.got.cif
#   From: 2010.03.12/outbox.cif.g09.slc.cpg/sg47_4_cif.got.tgz:7392.got - 2010.04.14 03:12:58.
