data_PCOD8195164
_publ_section_title
;
Structure prediction by ZEFSAII (Michael W. Deem and Ramdas Pophale) SiO2 
 PCOD8195164
Probable space group: P M M M
;
_chemical_formula_sum "Si O2"
_cell_formula_units_Z 32
_cell_length_a 10.283438
_cell_length_b 19.343051
_cell_length_c 8.837372
_cell_angle_alpha 90.000000
_cell_angle_beta 90.000000
_cell_angle_gamma 90.000000
_cell_volume 1757.868757
_symmetry_space_group_name_H-M "P M M M"
_symmetry_group_IT_number 47
_symmetry_cell_setting 'orthorhombic'
loop_
_space_group_symop_operation_xyz
x,y,z
-x,-y,z
x,-y,-z
-x,y,-z
-x,-y,-z
x,y,-z
-x,y,z
x,-y,z
loop_
_atom_site_type_symbol
_atom_site_label
_atom_site_fract_x
_atom_site_fract_y
_atom_site_fract_z
Si Si1 0.651206 0.712975 0.323567
Si Si2 0.345814 0.575595 0.830002
Si Si3 0.500000 0.923100 0.179669
Si Si4 0.754898 0.844983 0.820598
Si Si5 0.000000 0.920038 0.320846
O O1 0.671177 0.725348 0.500000
O O2 0.500000 0.722392 0.276245
O O3 0.702261 0.636203 0.281345
O O4 0.741668 0.765881 0.231757
O O5 0.500000 0.573302 0.828529
O O6 0.293049 0.500000 0.776278
O O7 0.296303 0.591229 0.000000
O O8 0.372869 0.884271 0.239190
O O9 0.500000 0.000000 0.247905
O O10 0.500000 0.924967 0.000000
O O11 0.875422 0.881918 0.744302
O O12 0.771102 0.848225 0.000000
O O13 0.000000 0.913768 0.500000
O O14 0.000000 0.000000 0.268582
#
# Coordination Sequence:
#
# PCOD8195164 Si02
#       5
#     8   8   4   8   4
#     4  10  19  30  47  74 110 145 178 220 271 325
#     4   8  14  25  42  66  99 139 181 222 264 312
#     4   9  18  32  53  81 106 129 168 221 269 314
#     4  11  21  36  58  81 107 141 182 226 269 319
#     4  11  25  43  59  79 110 143 176 221 277 333
#
# _framework density 18.203861
#
# number of rings (size 3 to 8) (size 9 to 14) (size 15 to 20)
#    0.000    2.250    1.250    3.375    0.000    3.500 
#    0.000    2.500    0.000    3.000    0.000    0.875 
#    0.000    7.000    0.000    0.000    0.000    0.000 
#
# Total GULP energy -396734.478109 kJ/mol
# GULP energy per Si atom -12397.952441 kJ/mol
# Density = 1.816243 g / cm^3
# Si number density = 18.203861 Si / 1000 Ang^3
#
#
#
# Elastic Constant Matrix: (Units=GPa)
#
#
# Indices 1 2 3 4 5 6 
#
# 1 95.6621 56.4980 34.1196 0.0000 0.0000 0.0000
# 2 56.4980 160.5077 47.6359 0.0000 0.0000 0.0000
# 3 34.1196 47.6359 68.0815 0.0000 0.0000 0.0000
# 4 0.0000 0.0000 0.0000 31.2108 0.0000 0.0000
# 5 0.0000 0.0000 0.0000 0.0000 -8.7172 0.0000
# 6 0.0000 0.0000 0.0000 0.0000 0.0000 13.5659
#
#
#
# Elastic Compliance Matrix: (Units=1/GPa)
#
#
# Indices 1 2 3 4 5 6 
#
# 1 0.014246 -0.003655 -0.004583 0.000000 0.000000 0.000000
# 2 -0.003655 0.008801 -0.004326 0.000000 0.000000 0.000000
# 3 -0.004583 -0.004326 0.020012 0.000000 0.000000 0.000000
# 4 0.000000 0.000000 0.000000 0.032040 0.000000 0.000000
# 5 0.000000 0.000000 0.000000 0.000000 -0.114715 0.000000
# 6 0.000000 0.000000 0.000000 0.000000 0.000000 0.073714
#
#
# Mechanical properties :
#
#
# Convention : Reuss Voigt Hill
#
# Bulk Modulus (GPa) = 55.76593 66.75093 61.25843
# Shear Modulus (GPa) = 76.68509 19.61176 48.14842
#
# Velocity S-wave (km/s) = 6.49747 3.28585 5.14849
# Velocity P-wave (km/s) = 9.32685 7.15150 8.31066
#
# Compressibility (1/GPa) = 0.01793209
#
# Stress axis : x y z
#
# Youngs Moduli (GPa) = 70.19352 113.62913 49.97054
#
# Poissons Ratio (x) = 0.41527 0.22899
# Poissons Ratio (y) = 0.25653 0.21618
# Poissons Ratio (z) = 0.32167 0.49157
#
# Static dielectric constant tensor:
#      x y z
#    x 2.860250 0.000000 0.000000 
#    y 0.000000 3.825450 0.000000 
#    z 0.000000 0.000000 3.256290 
# 
# 
# High freq. dielectric constant tensor:
#      x y z
#    x 1.657880 0.000000 0.000000 
#    y 0.000000 1.727390 0.000000 
#    z 0.000000 0.000000 1.700100 
# 
# From -- ./inp_files/3617.got.cif
#   From: 2010.03.12/outbox.cif.g09.slc.cpg/sg47_2_cif.got.tgz:3617.got - 2010.04.14 03:12:58.
