data_PCOD8195969
_publ_section_title
;
Structure prediction by ZEFSAII (Michael W. Deem and Ramdas Pophale) SiO2 
 PCOD8195969
Probable space group: P M M M
;
_chemical_formula_sum "Si O2"
_cell_formula_units_Z 52
_cell_length_a 27.225200
_cell_length_b 12.648848
_cell_length_c 9.277752
_cell_angle_alpha 90.000000
_cell_angle_beta 90.000000
_cell_angle_gamma 90.000000
_cell_volume 3194.955488
_symmetry_space_group_name_H-M "P M M M"
_symmetry_group_IT_number 47
_symmetry_cell_setting 'orthorhombic'
loop_
_space_group_symop_operation_xyz
x,y,z
-x,-y,z
x,-y,-z
-x,y,-z
-x,-y,-z
x,y,-z
-x,y,z
x,-y,z
loop_
_atom_site_type_symbol
_atom_site_label
_atom_site_fract_x
_atom_site_fract_y
_atom_site_fract_z
Si Si1 0.722297 0.380923 0.838895
Si Si2 0.246592 0.192626 0.669898
Si Si3 0.612194 0.318394 0.168494
Si Si4 0.441933 0.500000 0.334710
Si Si5 0.946272 0.874394 0.839006
Si Si6 0.647466 0.120268 0.330497
Si Si7 0.143017 0.876809 0.340945
O O1 0.739827 0.500000 0.816179
O O2 0.752161 0.312480 0.724662
O O3 0.664411 0.373894 0.811655
O O4 0.734381 0.340922 0.000000
O O5 0.244754 0.189612 0.500000
O O6 0.295659 0.131316 0.721645
O O7 0.196558 0.141110 0.732028
O O8 0.574301 0.393558 0.251779
O O9 0.613316 0.201204 0.240609
O O10 0.597394 0.308145 0.000000
O O11 0.500000 0.500000 0.335969
O O12 0.421736 0.500000 0.500000
O O13 0.901547 0.823747 0.748139
O O14 0.000000 0.842914 0.774534
O O15 0.941474 0.000000 0.842496
O O16 0.941728 0.829132 0.000000
O O17 0.642747 0.146936 0.500000
O O18 0.630444 0.000000 0.298789
O O19 0.142002 0.825493 0.500000
O O20 0.133141 0.000000 0.351564
#
# Coordination Sequence:
#
# PCOD8195969 Si02
#       7
#     8   8   8   4   8   8   8
#     4   9  17  30  45  63  89 118 147 181 220 262
#     4   9  17  27  40  62  88 118 153 185 219 261
#     4  10  19  33  52  74 100 128 158 194 236 277
#     4  11  23  37  55  79 103 125 155 195 238 285
#     4   8  14  24  36  50  70  99 137 178 217 258
#     4   9  17  30  48  70  98 132 166 196 227 270
#     4   9  16  25  37  54  80 111 141 177 216 254
#
# _framework density 16.275656000000001
#
# number of rings (size 3 to 8) (size 9 to 14) (size 15 to 20)
#    0.000    2.846    0.769    1.615    0.000    4.615 
#    0.000    1.538    0.000    3.231    0.000    3.231 
#    0.000    0.615    0.000    6.769    0.000    5.231 
#
# Total GULP energy -644420.725245 kJ/mol
# GULP energy per Si atom -12392.706255 kJ/mol
# Density = 1.623861 g / cm^3
# Si number density = 16.275656 Si / 1000 Ang^3
#
#
#
# Elastic Constant Matrix: (Units=GPa)
#
#
# Indices 1 2 3 4 5 6 
#
# 1 69.1910 28.1139 37.2270 0.0000 0.0000 0.0000
# 2 28.1139 73.3702 33.4999 0.0000 0.0000 0.0000
# 3 37.2270 33.4999 58.3646 0.0000 0.0000 0.0000
# 4 0.0000 0.0000 0.0000 23.2108 0.0000 0.0000
# 5 0.0000 0.0000 0.0000 0.0000 22.5013 0.0000
# 6 0.0000 0.0000 0.0000 0.0000 0.0000 15.9204
#
#
#
# Elastic Compliance Matrix: (Units=1/GPa)
#
#
# Indices 1 2 3 4 5 6 
#
# 1 0.022419 -0.002794 -0.012696 0.000000 0.000000 0.000000
# 2 -0.002794 0.018818 -0.009019 0.000000 0.000000 0.000000
# 3 -0.012696 -0.009019 0.030408 0.000000 0.000000 0.000000
# 4 0.000000 0.000000 0.000000 0.043083 0.000000 0.000000
# 5 0.000000 0.000000 0.000000 0.000000 0.044442 0.000000
# 6 0.000000 0.000000 0.000000 0.000000 0.000000 0.062812
#
#
# Mechanical properties :
#
#
# Convention : Reuss Voigt Hill
#
# Bulk Modulus (GPa) = 44.19391 44.28971 44.24181
# Shear Modulus (GPa) = 17.95055 19.13217 18.54136
#
# Velocity S-wave (km/s) = 3.32461 3.43229 3.37888
# Velocity P-wave (km/s) = 6.47686 6.55582 6.51646
#
# Compressibility (1/GPa) = 0.02262755
#
# Stress axis : x y z
#
# Youngs Moduli (GPa) = 44.60564 53.14057 32.88558
#
# Poissons Ratio (x) = 0.14845 0.41752
# Poissons Ratio (y) = 0.12461 0.29660
# Poissons Ratio (z) = 0.56631 0.47929
#
# Static dielectric constant tensor:
#      x y z
#    x 3.091120 0.000000 0.000000 
#    y 0.000000 2.860030 0.000000 
#    z 0.000000 0.000000 3.255450 
# 
# 
# High freq. dielectric constant tensor:
#      x y z
#    x 1.610870 0.000000 0.000000 
#    y 0.000000 1.592510 0.000000 
#    z 0.000000 0.000000 1.626850 
# 
# From -- ./inp_files/13231.got.cif
#   From: 2010.03.12/outbox.cif.g09.slc.cpg/sg47_7_cif.got.tgz:13231.got - 2010.04.14 03:12:58.
