data_PCOD8195051
_publ_section_title
;
Structure prediction by ZEFSAII (Michael W. Deem and Ramdas Pophale) SiO2 
 PCOD8195051
Probable space group: P M M M
;
_chemical_formula_sum "Si O2"
_cell_formula_units_Z 64
_cell_length_a 9.372867
_cell_length_b 24.789755
_cell_length_c 14.971436
_cell_angle_alpha 90.000000
_cell_angle_beta 90.000000
_cell_angle_gamma 90.000000
_cell_volume 3478.629273
_symmetry_space_group_name_H-M "P M M M"
_symmetry_group_IT_number 47
_symmetry_cell_setting 'orthorhombic'
loop_
_space_group_symop_operation_xyz
x,y,z
-x,-y,z
x,-y,-z
-x,y,-z
-x,-y,-z
x,y,-z
-x,y,z
x,-y,z
loop_
_atom_site_type_symbol
_atom_site_label
_atom_site_fract_x
_atom_site_fract_y
_atom_site_fract_z
Si Si1 0.163263 0.161246 0.836978
Si Si2 0.661140 0.255461 0.099304
Si Si3 0.663305 0.693216 0.599788
Si Si4 0.666052 0.939669 0.215374
Si Si5 0.333811 0.354964 0.216507
Si Si6 0.338682 0.100720 0.404363
Si Si7 0.837143 0.200613 0.637701
Si Si8 0.165536 0.562685 0.899208
O O1 0.242173 0.201914 0.903410
O O2 0.239370 0.102893 0.839235
O O3 0.176979 0.189797 0.742126
O O4 0.000000 0.152922 0.866634
O O5 0.500000 0.238764 0.126170
O O6 0.719632 0.300149 0.168230
O O7 0.665587 0.280637 0.000000
O O8 0.685928 0.668249 0.500000
O O9 0.500000 0.712492 0.612248
O O10 0.698832 0.649315 0.677064
O O11 0.764549 0.743904 0.611265
O O12 0.500000 0.926913 0.198456
O O13 0.704050 0.937074 0.321243
O O14 0.704034 0.000000 0.182611
O O15 0.500000 0.363927 0.196999
O O16 0.251294 0.405404 0.175996
O O17 0.325500 0.069393 0.500000
O O18 0.500000 0.121433 0.389749
O O19 0.238504 0.152374 0.413648
O O20 0.000000 0.203321 0.606394
O O21 0.194679 0.500000 0.882221
O O22 0.000000 0.576492 0.887698
O O23 0.214502 0.578283 0.000000
#
# Coordination Sequence:
#
# PCOD8195051 Si02
#       8
#     8   8   8   8   8   8   8   8
#     4  10  20  33  50  72 100 133 167 205 253 310
#     4  10  20  34  54  80 108 137 168 206 258 316
#     4  10  20  33  50  72 102 142 183 221 262 306
#     4   9  18  32  50  69  90 123 166 210 258 310
#     4  10  20  34  54  81 113 144 179 223 264 307
#     4   9  17  28  43  64  91 123 160 205 257 310
#     4  10  19  30  45  67  96 131 172 213 252 300
#     4   9  19  36  57  82 113 148 183 219 263 316
#
# _framework density 18.398050999999999
#
# number of rings (size 3 to 8) (size 9 to 14) (size 15 to 20)
#    0.000    2.375    1.250    1.875    0.000    5.750 
#    0.000    1.875    0.000    0.750    0.000    8.750 
#    0.000    0.000    0.000    0.000    0.000    0.000 
#
# Total GULP energy -793354.850898 kJ/mol
# GULP energy per Si atom -12396.169545 kJ/mol
# Density = 1.835618 g / cm^3
# Si number density = 18.398051 Si / 1000 Ang^3
#
#
#
# Elastic Constant Matrix: (Units=GPa)
#
#
# Indices 1 2 3 4 5 6 
#
# 1 83.8266 50.5177 32.6909 0.0000 0.0000 0.0000
# 2 50.5177 90.4521 42.4639 0.0000 0.0000 0.0000
# 3 32.6909 42.4639 86.5942 0.0000 0.0000 0.0000
# 4 0.0000 0.0000 0.0000 13.2188 0.0000 0.0000
# 5 0.0000 0.0000 0.0000 0.0000 18.4139 0.0000
# 6 0.0000 0.0000 0.0000 0.0000 0.0000 6.5159
#
#
#
# Elastic Compliance Matrix: (Units=1/GPa)
#
#
# Indices 1 2 3 4 5 6 
#
# 1 0.018381 -0.009104 -0.002475 0.000000 0.000000 0.000000
# 2 -0.009104 0.018871 -0.005817 0.000000 0.000000 0.000000
# 3 -0.002475 -0.005817 0.015335 0.000000 0.000000 0.000000
# 4 0.000000 0.000000 0.000000 0.075650 0.000000 0.000000
# 5 0.000000 0.000000 0.000000 0.000000 0.054307 0.000000
# 6 0.000000 0.000000 0.000000 0.000000 0.000000 0.153472
#
#
# Mechanical properties :
#
#
# Convention : Reuss Voigt Hill
#
# Bulk Modulus (GPa) = 56.19432 56.91310 56.55371
# Shear Modulus (GPa) = 13.27180 16.64307 14.95743
#
# Velocity S-wave (km/s) = 2.68875 3.01094 2.85439
# Velocity P-wave (km/s) = 6.34422 6.56423 6.45516
#
# Compressibility (1/GPa) = 0.01779539
#
# Stress axis : x y z
#
# Youngs Moduli (GPa) = 54.40397 52.99117 65.21065
#
# Poissons Ratio (x) = 0.48243 0.16138
# Poissons Ratio (y) = 0.49530 0.37933
# Poissons Ratio (z) = 0.13464 0.30825
#
# Static dielectric constant tensor:
#      x y z
#    x 3.377300 0.000000 0.000000 
#    y 0.000000 3.097140 0.000000 
#    z 0.000000 0.000000 3.449450 
# 
# 
# High freq. dielectric constant tensor:
#      x y z
#    x 1.710700 0.000000 0.000000 
#    y 0.000000 1.683340 0.000000 
#    z 0.000000 0.000000 1.712390 
# 
# From -- ./inp_files/7876.got.cif
#   From: 2010.03.12/outbox.cif.g09.slc.cpg/sg47_4_cif.got.tgz:7876.got - 2010.04.14 03:12:58.
