data_PCOD8195268
_publ_section_title
;
Structure prediction by ZEFSAII (Michael W. Deem and Ramdas Pophale) SiO2 
 PCOD8195268
Probable space group: P M M M
;
_chemical_formula_sum "Si O2"
_cell_formula_units_Z 48
_cell_length_a 18.026612
_cell_length_b 21.914734
_cell_length_c 8.893354
_cell_angle_alpha 90.000000
_cell_angle_beta 90.000000
_cell_angle_gamma 90.000000
_cell_volume 3513.305330
_symmetry_space_group_name_H-M "P M M M"
_symmetry_group_IT_number 47
_symmetry_cell_setting 'orthorhombic'
loop_
_space_group_symop_operation_xyz
x,y,z
-x,-y,z
x,-y,-z
-x,y,-z
-x,-y,-z
x,y,-z
-x,y,z
x,-y,z
loop_
_atom_site_type_symbol
_atom_site_label
_atom_site_fract_x
_atom_site_fract_y
_atom_site_fract_z
Si Si1 0.772454 0.071955 0.172917
Si Si2 0.637107 0.864316 0.677599
Si Si3 0.500000 0.072160 0.829724
Si Si4 0.588153 0.620764 0.668975
Si Si5 0.413168 0.255635 0.824572
Si Si6 0.081358 0.072387 0.668653
Si Si7 0.588548 0.500000 0.830288
O O1 0.715307 0.107010 0.278216
O O2 0.854741 0.095112 0.218193
O O3 0.763435 0.000000 0.200983
O O4 0.757701 0.088724 0.000000
O O5 0.628049 0.863512 0.500000
O O6 0.572860 0.905381 0.746989
O O7 0.633207 0.795774 0.739283
O O8 0.500000 0.000000 0.830130
O O9 0.500000 0.098090 0.000000
O O10 0.619637 0.624989 0.500000
O O11 0.500000 0.617731 0.667009
O O12 0.614459 0.679357 0.762864
O O13 0.619962 0.559877 0.746897
O O14 0.500000 0.245012 0.791332
O O15 0.395657 0.252834 0.000000
O O16 0.098231 0.096219 0.500000
O O17 0.000000 0.096425 0.721819
O O18 0.080100 0.000000 0.667820
O O19 0.500000 0.500000 0.828690
O O20 0.618629 0.500000 0.000000
#
# Coordination Sequence:
#
# PCOD8195268 Si02
#       7
#     8   8   4   8   8   8   4
#     4  10  20  32  45  61  81 103 127 158 197 239
#     4  12  23  33  46  60  76  98 129 165 202 242
#     4  11  23  37  49  59  73  94 123 162 207 249
#     4   9  16  25  38  55  75  95 120 153 190 229
#     4  10  19  31  45  57  73  97 126 160 199 239
#     4   8  14  26  44  64  84 103 122 147 183 229
#     4   9  15  23  35  53  75  97 121 147 186 231
#
# _framework density 13.662348
#
# number of rings (size 3 to 8) (size 9 to 14) (size 15 to 20)
#    0.000    2.167    0.833    4.500    0.000    7.667 
#    0.000    1.667    0.000    0.000    0.000    0.000 
#    0.000    0.000    0.000    0.000    0.000    0.000 
#
# Total GULP energy -595171.967774 kJ/mol
# GULP energy per Si atom -12399.415995 kJ/mol
# Density = 1.363125 g / cm^3
# Si number density = 13.662348 Si / 1000 Ang^3
#
#
#
# Elastic Constant Matrix: (Units=GPa)
#
#
# Indices 1 2 3 4 5 6 
#
# 1 62.2201 27.7209 33.1715 0.0000 0.0000 0.0000
# 2 27.7209 77.1127 47.4716 0.0000 0.0000 0.0000
# 3 33.1715 47.4716 114.9843 0.0000 0.0000 0.0000
# 4 0.0000 0.0000 0.0000 24.2499 0.0000 0.0000
# 5 0.0000 0.0000 0.0000 0.0000 285.2713 0.0000
# 6 0.0000 0.0000 0.0000 0.0000 0.0000 2.6718
#
#
#
# Elastic Compliance Matrix: (Units=1/GPa)
#
#
# Indices 1 2 3 4 5 6 
#
# 1 0.020313 -0.004954 -0.003815 0.000000 0.000000 0.000000
# 2 -0.004954 0.018595 -0.006248 0.000000 0.000000 0.000000
# 3 -0.003815 -0.006248 0.012377 0.000000 0.000000 0.000000
# 4 0.000000 0.000000 0.000000 0.041237 0.000000 0.000000
# 5 0.000000 0.000000 0.000000 0.000000 0.003505 0.000000
# 6 0.000000 0.000000 0.000000 0.000000 0.000000 0.374282
#
#
# Mechanical properties :
#
#
# Convention : Reuss Voigt Hill
#
# Bulk Modulus (GPa) = 47.05482 52.33833 49.69658
# Shear Modulus (GPa) = 9.85364 72.16879 41.01121
#
# Velocity S-wave (km/s) = 2.68848 7.27584 5.48478
# Velocity P-wave (km/s) = 6.64479 10.43913 8.75010
#
# Compressibility (1/GPa) = 0.02125181
#
# Stress axis : x y z
#
# Youngs Moduli (GPa) = 49.23001 53.77744 80.79580
#
# Poissons Ratio (x) = 0.26640 0.30822
# Poissons Ratio (y) = 0.24387 0.50481
# Poissons Ratio (z) = 0.18780 0.33600
#
# Static dielectric constant tensor:
#      x y z
#    x 2.610690 0.000000 0.000000 
#    y 0.000000 2.660350 0.000000 
#    z 0.000000 0.000000 2.903660 
# 
# 
# High freq. dielectric constant tensor:
#      x y z
#    x 1.475460 0.000000 0.000000 
#    y 0.000000 1.501850 0.000000 
#    z 0.000000 0.000000 1.541000 
# 
# From -- ./inp_files/9765.got.cif
#   From: 2010.03.12/outbox.cif.g09.slc.cpg/sg47_5_cif.got.tgz:9765.got - 2010.04.14 03:12:58.
