data_PCOD8195760
_publ_section_title
;
Structure prediction by ZEFSAII (Michael W. Deem and Ramdas Pophale) SiO2 
 PCOD8195760
Probable space group: P M M M
;
_chemical_formula_sum "Si O2"
_cell_formula_units_Z 52
_cell_length_a 9.720979
_cell_length_b 21.519301
_cell_length_c 13.963954
_cell_angle_alpha 90.000000
_cell_angle_beta 90.000000
_cell_angle_gamma 90.000000
_cell_volume 2921.101009
_symmetry_space_group_name_H-M "P M M M"
_symmetry_group_IT_number 47
_symmetry_cell_setting 'orthorhombic'
loop_
_space_group_symop_operation_xyz
x,y,z
-x,-y,z
x,-y,-z
-x,y,-z
-x,-y,-z
x,y,-z
-x,y,z
x,-y,z
loop_
_atom_site_type_symbol
_atom_site_label
_atom_site_fract_x
_atom_site_fract_y
_atom_site_fract_z
Si Si1 0.341787 0.885888 0.732519
Si Si2 0.842864 0.429972 0.239774
Si Si3 0.154663 0.071702 0.108264
Si Si4 0.343074 0.747026 0.737854
Si Si5 0.336467 0.000000 0.393611
Si Si6 0.839438 0.684591 0.110554
Si Si7 0.659978 0.632058 0.609979
O O1 0.500000 0.900823 0.754695
O O2 0.259941 0.888035 0.831311
O O3 0.321695 0.815936 0.693518
O O4 0.283166 0.937445 0.658895
O O5 0.818247 0.500000 0.202712
O O6 0.806191 0.383873 0.152477
O O7 0.747102 0.418419 0.331720
O O8 0.000000 0.419940 0.272747
O O9 0.000000 0.081237 0.146970
O O10 0.197310 0.000000 0.115004
O O11 0.164807 0.095671 0.000000
O O12 0.500000 0.738304 0.772997
O O13 0.245673 0.735489 0.829459
O O14 0.307751 0.700321 0.651742
O O15 0.500000 0.000000 0.399042
O O16 0.273100 0.000000 0.500000
O O17 0.000000 0.700901 0.120522
O O18 0.792801 0.685950 0.000000
O O19 0.707079 0.631021 0.500000
O O20 0.500000 0.614975 0.620332
#
# Coordination Sequence:
#
# PCOD8195760 Si02
#       7
#     8   8   8   8   4   8   8
#     4  10  19  32  51  74  98 125 159 200 246 291
#     4   9  18  32  50  74 102 129 159 198 243 287
#     4   9  18  32  49  69  94 125 157 189 232 286
#     4   9  19  33  49  71  98 127 161 202 244 287
#     4   9  18  32  50  73  98 122 153 197 246 293
#     4   9  18  33  52  73  98 130 166 200 235 280
#     4   9  18  33  51  70  95 129 166 202 241 286
#
# _framework density 17.801507000000001
#
# number of rings (size 3 to 8) (size 9 to 14) (size 15 to 20)
#    0.000    2.846    0.769    0.462    0.000    3.692 
#    0.000   10.000    0.000    0.923    0.000    6.462 
#    0.000    0.000    0.000    0.000    0.000    0.000 
#
# Total GULP energy -644733.478467 kJ/mol
# GULP energy per Si atom -12398.720740 kJ/mol
# Density = 1.776099 g / cm^3
# Si number density = 17.801507 Si / 1000 Ang^3
#
#
#
# Elastic Constant Matrix: (Units=GPa)
#
#
# Indices 1 2 3 4 5 6 
#
# 1 45.7190 26.9528 34.1200 0.0000 0.0000 0.0000
# 2 26.9528 98.8057 33.8550 0.0000 0.0000 0.0000
# 3 34.1200 33.8550 99.9727 0.0000 0.0000 0.0000
# 4 0.0000 0.0000 0.0000 15.3907 0.0000 0.0000
# 5 0.0000 0.0000 0.0000 0.0000 22.3944 0.0000
# 6 0.0000 0.0000 0.0000 0.0000 0.0000 24.9414
#
#
#
# Elastic Compliance Matrix: (Units=1/GPa)
#
#
# Indices 1 2 3 4 5 6 
#
# 1 0.031888 -0.005622 -0.008979 0.000000 0.000000 0.000000
# 2 -0.005622 0.012441 -0.002294 0.000000 0.000000 0.000000
# 3 -0.008979 -0.002294 0.013844 0.000000 0.000000 0.000000
# 4 0.000000 0.000000 0.000000 0.064974 0.000000 0.000000
# 5 0.000000 0.000000 0.000000 0.000000 0.044654 0.000000
# 6 0.000000 0.000000 0.000000 0.000000 0.000000 0.040094
#
#
# Mechanical properties :
#
#
# Convention : Reuss Voigt Hill
#
# Bulk Modulus (GPa) = 41.01377 48.26143 44.63760
# Shear Modulus (GPa) = 20.01490 22.51662 21.26576
#
# Velocity S-wave (km/s) = 3.35675 3.56036 3.46005
# Velocity P-wave (km/s) = 6.17359 6.63862 6.41032
#
# Compressibility (1/GPa) = 0.02438205
#
# Stress axis : x y z
#
# Youngs Moduli (GPa) = 31.35933 80.38235 72.23212
#
# Poissons Ratio (x) = 0.45191 0.64861
# Poissons Ratio (y) = 0.17630 0.16571
# Poissons Ratio (z) = 0.28159 0.18441
#
# Static dielectric constant tensor:
#      x y z
#    x 3.225290 0.000000 0.000000 
#    y 0.000000 3.352010 0.000000 
#    z 0.000000 0.000000 3.252320 
# 
# 
# High freq. dielectric constant tensor:
#      x y z
#    x 1.678320 0.000000 0.000000 
#    y 0.000000 1.691810 0.000000 
#    z 0.000000 0.000000 1.676130 
# 
# From -- ./inp_files/19167.got.cif
#   From: 2010.03.12/outbox.cif.g09.slc.cpg/sg47_10_cif.got.tgz:19167.got - 2010.04.14 03:12:58.
