data_PCOD8195014
_publ_section_title
;
Structure prediction by ZEFSAII (Michael W. Deem and Ramdas Pophale) SiO2 
 PCOD8195014
Probable space group: P M M M
;
_chemical_formula_sum "Si O2"
_cell_formula_units_Z 48
_cell_length_a 14.556739
_cell_length_b 14.068666
_cell_length_c 15.463735
_cell_angle_alpha 90.000000
_cell_angle_beta 90.000000
_cell_angle_gamma 90.000000
_cell_volume 3166.878584
_symmetry_space_group_name_H-M "P M M M"
_symmetry_group_IT_number 47
_symmetry_cell_setting 'orthorhombic'
loop_
_space_group_symop_operation_xyz
x,y,z
-x,-y,z
x,-y,-z
-x,y,-z
-x,-y,-z
x,y,-z
-x,y,z
x,-y,z
loop_
_atom_site_type_symbol
_atom_site_label
_atom_site_fract_x
_atom_site_fract_y
_atom_site_fract_z
Si Si1 0.274055 0.891625 0.000000
Si Si2 0.392468 0.243394 0.500000
Si Si3 0.267883 0.112448 0.185635
Si Si4 0.898473 0.780607 0.000000
Si Si5 0.606297 0.892315 0.657461
Si Si6 0.104898 0.750976 0.188472
Si Si7 0.105448 0.609852 0.338808
Si Si8 0.229869 0.612341 0.500000
O O1 0.309156 0.849592 0.907612
O O2 0.164481 0.874308 0.000000
O O3 0.300723 0.000000 0.000000
O O4 0.500000 0.273660 0.500000
O O5 0.367253 0.179275 0.581905
O O6 0.328858 0.336492 0.500000
O O7 0.341249 0.141155 0.257196
O O8 0.170969 0.160533 0.209055
O O9 0.250269 0.000000 0.181364
O O10 0.882301 0.718389 0.912405
O O11 0.000000 0.823371 0.000000
O O12 0.500000 0.886620 0.680212
O O13 0.633313 0.000000 0.630091
O O14 0.131811 0.664305 0.250921
O O15 0.000000 0.783285 0.205880
O O16 0.121559 0.500000 0.318331
O O17 0.171388 0.643772 0.416297
O O18 0.000000 0.628981 0.366698
O O19 0.248329 0.500000 0.500000
#
# Coordination Sequence:
#
# PCOD8195014 Si02
#       8
#     4   4   8   4   8   8   8   4
#     4   8  14  23  35  53  77 105 134 162 193 227
#     4  10  19  30  45  63  82 104 129 159 196 237
#     4   9  16  26  40  58  81 107 134 164 196 231
#     4   8  14  23  35  53  77 105 134 162 193 227
#     4   9  17  29  44  61  80 103 132 164 196 231
#     4   9  16  26  40  58  81 107 134 164 196 231
#     4   9  17  29  44  61  80 103 132 164 196 231
#     4  10  19  30  45  63  82 104 129 159 196 237
#
# _framework density 15.156879999999999
#
# number of rings (size 3 to 8) (size 9 to 14) (size 15 to 20)
#    0.000    3.000    0.000    1.500    0.000    2.667 
#    0.000    4.167    0.000    5.000    0.000    0.000 
#    0.000   12.000    0.000    0.000    0.000  100.000 
#
# Total GULP energy -594651.581561 kJ/mol
# GULP energy per Si atom -12388.574616 kJ/mol
# Density = 1.512238 g / cm^3
# Si number density = 15.156880 Si / 1000 Ang^3
#
#
#
# Elastic Constant Matrix: (Units=GPa)
#
#
# Indices 1 2 3 4 5 6 
#
# 1 60.3246 34.0105 53.6693 0.0000 0.0000 0.0000
# 2 34.0105 45.5107 41.1414 0.0000 0.0000 0.0000
# 3 53.6693 41.1414 118.3403 0.0000 0.0000 0.0000
# 4 0.0000 0.0000 0.0000 20.6616 0.0000 0.0000
# 5 0.0000 0.0000 0.0000 0.0000 24.7005 0.0000
# 6 0.0000 0.0000 0.0000 0.0000 0.0000 22.9751
#
#
#
# Elastic Compliance Matrix: (Units=1/GPa)
#
#
# Indices 1 2 3 4 5 6 
#
# 1 0.035171 -0.017302 -0.009936 0.000000 0.000000 0.000000
# 2 -0.017302 0.040555 -0.006252 0.000000 0.000000 0.000000
# 3 -0.009936 -0.006252 0.015130 0.000000 0.000000 0.000000
# 4 0.000000 0.000000 0.000000 0.048399 0.000000 0.000000
# 5 0.000000 0.000000 0.000000 0.000000 0.040485 0.000000
# 6 0.000000 0.000000 0.000000 0.000000 0.000000 0.043525
#
#
# Mechanical properties :
#
#
# Convention : Reuss Voigt Hill
#
# Bulk Modulus (GPa) = 41.88302 53.53534 47.70918
# Shear Modulus (GPa) = 16.76706 20.02438 18.39572
#
# Velocity S-wave (km/s) = 3.32962 3.63869 3.48758
# Velocity P-wave (km/s) = 6.51727 7.28361 6.91107
#
# Compressibility (1/GPa) = 0.02387603
#
# Stress axis : x y z
#
# Youngs Moduli (GPa) = 28.43234 24.65800 66.09460
#
# Poissons Ratio (x) = 0.42663 0.65669
# Poissons Ratio (y) = 0.49194 0.41324
# Poissons Ratio (z) = 0.28249 0.15417
#
# Static dielectric constant tensor:
#      x y z
#    x 2.818530 0.000000 0.000000 
#    y 0.000000 2.679580 0.000000 
#    z 0.000000 0.000000 3.301270 
# 
# 
# High freq. dielectric constant tensor:
#      x y z
#    x 1.568260 0.000000 0.000000 
#    y 0.000000 1.549510 0.000000 
#    z 0.000000 0.000000 1.601010 
# 
# From -- ./inp_files/23777.got.cif
#   From: 2010.03.12/outbox.cif.g09.slc.cpg/sg47_12_cif.got.tgz:23777.got - 2010.04.14 03:12:58.
