data_PCOD8195116
_publ_section_title
;
Structure prediction by ZEFSAII (Michael W. Deem and Ramdas Pophale) SiO2 
 PCOD8195116
Probable space group: P M M M
;
_chemical_formula_sum "Si O2"
_cell_formula_units_Z 40
_cell_length_a 29.232251
_cell_length_b 7.817413
_cell_length_c 9.741977
_cell_angle_alpha 90.000000
_cell_angle_beta 90.000000
_cell_angle_gamma 90.000000
_cell_volume 2226.242225
_symmetry_space_group_name_H-M "P M M M"
_symmetry_group_IT_number 47
_symmetry_cell_setting 'orthorhombic'
loop_
_space_group_symop_operation_xyz
x,y,z
-x,-y,z
x,-y,-z
-x,y,-z
-x,-y,-z
x,y,-z
-x,y,z
x,-y,z
loop_
_atom_site_type_symbol
_atom_site_label
_atom_site_fract_x
_atom_site_fract_y
_atom_site_fract_z
Si Si1 0.448980 0.310062 0.162628
Si Si2 0.230027 0.691670 0.663000
Si Si3 0.130826 0.698088 0.350998
Si Si4 0.949374 0.201790 0.153188
Si Si5 0.705712 0.000000 0.663802
Si Si6 0.386121 0.000000 0.164255
O O1 0.500000 0.271599 0.220178
O O2 0.433016 0.500000 0.211110
O O3 0.413838 0.167156 0.214714
O O4 0.451027 0.303204 0.000000
O O5 0.228626 0.684168 0.500000
O O6 0.241686 0.500000 0.720806
O O7 0.179658 0.759350 0.712169
O O8 0.267249 0.829679 0.711424
O O9 0.121063 0.785810 0.500000
O O10 0.137289 0.500000 0.376140
O O11 0.088769 0.726722 0.251905
O O12 0.000000 0.261135 0.202549
O O13 0.946741 0.000000 0.152861
O O14 0.940357 0.272226 0.000000
O O15 0.660072 0.000000 0.751190
O O16 0.696288 0.000000 0.500000
O O17 0.377269 0.000000 0.000000
#
# Coordination Sequence:
#
# PCOD8195116 Si02
#       6
#     8   8   8   8   4   4
#     4   8  14  26  46  71  97 128 165 200 237 282
#     4   8  16  32  51  71  94 120 158 204 240 281
#     4   9  18  32  51  74  94 114 150 201 246 280
#     4   9  19  34  48  66  96 130 158 184 223 283
#     4  10  20  33  51  71  93 131 168 191 237 298
#     4  10  19  30  46  72 102 125 155 204 247 277
#
# _framework density 17.967496000000001
#
# number of rings (size 3 to 8) (size 9 to 14) (size 15 to 20)
#    0.000    3.200    0.000    2.700    1.400    3.600 
#    0.000    4.000    0.000    2.400    0.000    1.400 
#    0.000    0.000    0.000    0.000    0.000    0.000 
#
# Total GULP energy -495550.991231 kJ/mol
# GULP energy per Si atom -12388.774781 kJ/mol
# Density = 1.792660 g / cm^3
# Si number density = 17.967496 Si / 1000 Ang^3
#
#
#
# Elastic Constant Matrix: (Units=GPa)
#
#
# Indices 1 2 3 4 5 6 
#
# 1 166.1012 76.5697 51.3880 0.0000 0.0000 0.0000
# 2 76.5697 100.8755 25.5962 0.0000 0.0000 0.0000
# 3 51.3880 25.5962 41.9418 0.0000 0.0000 0.0000
# 4 0.0000 0.0000 0.0000 16.0175 0.0000 0.0000
# 5 0.0000 0.0000 0.0000 0.0000 33.9498 0.0000
# 6 0.0000 0.0000 0.0000 0.0000 0.0000 28.8833
#
#
#
# Elastic Compliance Matrix: (Units=1/GPa)
#
#
# Indices 1 2 3 4 5 6 
#
# 1 0.012632 -0.006698 -0.011389 0.000000 0.000000 0.000000
# 2 -0.006698 0.015282 -0.001119 0.000000 0.000000 0.000000
# 3 -0.011389 -0.001119 0.038479 0.000000 0.000000 0.000000
# 4 0.000000 0.000000 0.000000 0.062432 0.000000 0.000000
# 5 0.000000 0.000000 0.000000 0.000000 0.029455 0.000000
# 6 0.000000 0.000000 0.000000 0.000000 0.000000 0.034622
#
#
# Mechanical properties :
#
#
# Convention : Reuss Voigt Hill
#
# Bulk Modulus (GPa) = 35.73959 68.44735 52.09347
# Shear Modulus (GPa) = 20.77788 26.12776 23.45282
#
# Velocity S-wave (km/s) = 3.40430 3.81749 3.61680
# Velocity P-wave (km/s) = 5.94868 7.59005 6.81893
#
# Compressibility (1/GPa) = 0.02798017
#
# Stress axis : x y z
#
# Youngs Moduli (GPa) = 79.16640 65.43854 25.98799
#
# Poissons Ratio (x) = 0.43832 0.29597
# Poissons Ratio (y) = 0.53028 0.02908
# Poissons Ratio (z) = 0.90160 0.07324
#
# Static dielectric constant tensor:
#      x y z
#    x -1.751890 0.000000 0.000000 
#    y 0.000000 3.665830 0.000000 
#    z 0.000000 0.000000 2.640690 
# 
# 
# High freq. dielectric constant tensor:
#      x y z
#    x 1.700040 0.000000 0.000000 
#    y 0.000000 1.703780 0.000000 
#    z 0.000000 0.000000 1.643510 
# 
# From -- ./inp_files/13009.got.cif
#   From: 2010.03.12/outbox.cif.g09.slc.cpg/sg47_7_cif.got.tgz:13009.got - 2010.04.14 03:12:58.
