data_PCOD8195084
_publ_section_title
;
Structure prediction by ZEFSAII (Michael W. Deem and Ramdas Pophale) SiO2 
 PCOD8195084
Probable space group: P M M M
;
_chemical_formula_sum "Si O2"
_cell_formula_units_Z 52
_cell_length_a 9.330594
_cell_length_b 25.960896
_cell_length_c 13.659352
_cell_angle_alpha 90.000000
_cell_angle_beta 90.000000
_cell_angle_gamma 90.000000
_cell_volume 3308.712764
_symmetry_space_group_name_H-M "P M M M"
_symmetry_group_IT_number 47
_symmetry_cell_setting 'orthorhombic'
loop_
_space_group_symop_operation_xyz
x,y,z
-x,-y,z
x,-y,-z
-x,y,-z
-x,-y,-z
x,y,-z
-x,y,z
x,-y,z
loop_
_atom_site_type_symbol
_atom_site_label
_atom_site_fract_x
_atom_site_fract_y
_atom_site_fract_z
Si Si1 0.666501 0.298596 0.724048
Si Si2 0.666406 0.195626 0.387506
Si Si3 0.162034 0.500000 0.383610
Si Si4 0.832482 0.752428 0.111527
Si Si5 0.332938 0.598923 0.386514
Si Si6 0.663682 0.059416 0.887251
Si Si7 0.831780 0.144217 0.777092
O O1 0.500000 0.299914 0.750328
O O2 0.701841 0.253321 0.647646
O O3 0.751623 0.290590 0.824942
O O4 0.716686 0.351614 0.674878
O O5 0.711287 0.191128 0.500000
O O6 0.500000 0.182686 0.371454
O O7 0.759894 0.154549 0.327835
O O8 0.165349 0.500000 0.500000
O O9 0.243567 0.550655 0.345157
O O10 0.000000 0.500000 0.343202
O O11 0.793349 0.809434 0.149108
O O12 0.000000 0.741790 0.121495
O O13 0.780054 0.747828 0.000000
O O14 0.298783 0.609852 0.500000
O O15 0.500000 0.586754 0.371984
O O16 0.500000 0.076775 0.868926
O O17 0.769962 0.091733 0.820171
O O18 0.683397 0.000000 0.858539
O O19 0.705340 0.068214 0.000000
O O20 0.000000 0.137853 0.761884
#
# Coordination Sequence:
#
# PCOD8195084 Si02
#       7
#     8   8   4   8   8   8   8
#     4   9  17  28  44  67  89 112 147 185 218 255
#     4   9  17  30  47  66  90 120 152 184 218 258
#     4   9  17  27  39  59  86 115 148 181 211 250
#     4   9  18  31  44  61  89 121 148 175 212 259
#     4   9  16  27  43  62  87 117 145 176 216 258
#     4   9  18  32  49  69  92 117 146 181 221 265
#     4  10  19  30  46  68  93 120 149 181 218 261
#
# _framework density 15.716082
#
# number of rings (size 3 to 8) (size 9 to 14) (size 15 to 20)
#    0.000    2.846    0.000    2.077    0.000    5.846 
#    0.000    0.769    0.000    3.231    0.000    3.769 
#    0.000    4.308    0.000    0.000    0.000    0.000 
#
# Total GULP energy -644874.294812 kJ/mol
# GULP energy per Si atom -12401.428746 kJ/mol
# Density = 1.568031 g / cm^3
# Si number density = 15.716082 Si / 1000 Ang^3
#
#
#
# Elastic Constant Matrix: (Units=GPa)
#
#
# Indices 1 2 3 4 5 6 
#
# 1 70.2159 53.1773 53.3264 0.0000 0.0000 0.0000
# 2 53.1773 99.4720 56.1209 0.0000 0.0000 0.0000
# 3 53.3264 56.1209 111.8260 0.0000 0.0000 0.0000
# 4 0.0000 0.0000 0.0000 25.4773 0.0000 0.0000
# 5 0.0000 0.0000 0.0000 0.0000 23.4336 0.0000
# 6 0.0000 0.0000 0.0000 0.0000 0.0000 25.0541
#
#
#
# Elastic Compliance Matrix: (Units=1/GPa)
#
#
# Indices 1 2 3 4 5 6 
#
# 1 0.028571 -0.010584 -0.008313 0.000000 0.000000 0.000000
# 2 -0.010584 0.017944 -0.003959 0.000000 0.000000 0.000000
# 3 -0.008313 -0.003959 0.014893 0.000000 0.000000 0.000000
# 4 0.000000 0.000000 0.000000 0.039251 0.000000 0.000000
# 5 0.000000 0.000000 0.000000 0.000000 0.042674 0.000000
# 6 0.000000 0.000000 0.000000 0.000000 0.000000 0.039914
#
#
# Mechanical properties :
#
#
# Convention : Reuss Voigt Hill
#
# Bulk Modulus (GPa) = 63.70233 67.41811 65.56022
# Shear Modulus (GPa) = 21.35026 22.71895 22.03461
#
# Velocity S-wave (km/s) = 3.68978 3.80621 3.74845
# Velocity P-wave (km/s) = 7.66641 7.89348 7.78077
#
# Compressibility (1/GPa) = 0.01569801
#
# Stress axis : x y z
#
# Youngs Moduli (GPa) = 35.00108 55.72770 67.14444
#
# Poissons Ratio (x) = 0.58980 0.55817
# Poissons Ratio (y) = 0.37044 0.26579
# Poissons Ratio (z) = 0.29096 0.22060
#
# Static dielectric constant tensor:
#      x y z
#    x 2.988090 0.000000 0.000000 
#    y 0.000000 2.937550 0.000000 
#    z 0.000000 0.000000 2.896280 
# 
# 
# High freq. dielectric constant tensor:
#      x y z
#    x 1.605800 0.000000 0.000000 
#    y 0.000000 1.594650 0.000000 
#    z 0.000000 0.000000 1.583930 
# 
# From -- ./inp_files/4523.got.cif
#   From: 2010.03.12/outbox.cif.g09.slc.cpg/sg47_3_cif.got.tgz:4523.got - 2010.04.14 03:12:58.
