data_PCOD8195359
_publ_section_title
;
Structure prediction by ZEFSAII (Michael W. Deem and Ramdas Pophale) SiO2 
 PCOD8195359
Probable space group: P M M M
;
_chemical_formula_sum "Si O2"
_cell_formula_units_Z 64
_cell_length_a 23.400380
_cell_length_b 16.035768
_cell_length_c 9.215088
_cell_angle_alpha 90.000000
_cell_angle_beta 90.000000
_cell_angle_gamma 90.000000
_cell_volume 3457.897863
_symmetry_space_group_name_H-M "P M M M"
_symmetry_group_IT_number 47
_symmetry_cell_setting 'orthorhombic'
loop_
_space_group_symop_operation_xyz
x,y,z
-x,-y,z
x,-y,-z
-x,y,-z
-x,-y,-z
x,y,-z
-x,y,z
x,-y,z
loop_
_atom_site_type_symbol
_atom_site_label
_atom_site_fract_x
_atom_site_fract_y
_atom_site_fract_z
Si Si1 0.763960 0.593686 0.833896
Si Si2 0.564958 0.741838 0.829611
Si Si3 0.934878 0.746617 0.668730
Si Si4 0.933658 0.409894 0.157656
Si Si5 0.725388 0.838363 0.337906
Si Si6 0.372644 0.092015 0.833795
Si Si7 0.825964 0.763508 0.830535
Si Si8 0.337190 0.336501 0.337956
O O1 0.789168 0.500000 0.808606
O O2 0.810990 0.665394 0.793714
O O3 0.706088 0.600746 0.740991
O O4 0.745633 0.607056 0.000000
O O5 0.500000 0.728763 0.779313
O O6 0.582517 0.836654 0.786712
O O7 0.603258 0.672737 0.748372
O O8 0.572348 0.727227 0.000000
O O9 0.923017 0.761596 0.500000
O O10 0.923410 0.649955 0.706577
O O11 0.887614 0.792755 0.766419
O O12 0.000000 0.773665 0.709609
O O13 0.905750 0.500000 0.192049
O O14 0.000000 0.421306 0.133760
O O15 0.908430 0.376421 0.000000
O O16 0.741402 0.868612 0.500000
O O17 0.684870 0.905769 0.261558
O O18 0.782132 0.826349 0.244170
O O19 0.691815 0.752628 0.343652
O O20 0.400548 0.000000 0.812962
O O21 0.354395 0.106796 0.000000
O O22 0.824977 0.781326 0.000000
O O23 0.349674 0.370052 0.500000
#
# Coordination Sequence:
#
# PCOD8195359 Si02
#       8
#     8   8   8   8   8   8   8   8
#     4   9  18  32  49  68  88 111 144 190 242 290
#     4   9  17  29  46  68  95 130 167 195 222 262
#     4  10  20  31  42  59  85 115 146 182 225 272
#     4   8  14  25  39  52  68  96 135 174 211 255
#     4   9  17  30  47  66  90 120 154 190 229 274
#     4   9  17  29  46  70 100 130 159 192 226 260
#     4  10  19  31  48  67  88 116 151 190 231 278
#     4   9  17  29  46  67  90 118 152 191 235 279
#
# _framework density 18.508354000000001
#
# number of rings (size 3 to 8) (size 9 to 14) (size 15 to 20)
#    0.000    2.875    0.000    1.875    0.000    6.000 
#    0.000    3.750    0.000    0.375    0.000    6.125 
#    0.000    0.500    0.000    5.250    0.000    2.250 
#
# Total GULP energy -792976.199996 kJ/mol
# GULP energy per Si atom -12390.253125 kJ/mol
# Density = 1.846623 g / cm^3
# Si number density = 18.508354 Si / 1000 Ang^3
#
#
#
# Elastic Constant Matrix: (Units=GPa)
#
#
# Indices 1 2 3 4 5 6 
#
# 1 125.4143 7.8585 58.0008 0.0000 0.0000 0.0000
# 2 7.8585 17.3675 6.9805 0.0000 0.0000 0.0000
# 3 58.0008 6.9805 95.4462 0.0000 0.0000 0.0000
# 4 0.0000 0.0000 0.0000 15.4235 0.0000 0.0000
# 5 0.0000 0.0000 0.0000 0.0000 28.9897 0.0000
# 6 0.0000 0.0000 0.0000 0.0000 0.0000 13.1726
#
#
#
# Elastic Compliance Matrix: (Units=1/GPa)
#
#
# Indices 1 2 3 4 5 6 
#
# 1 0.011187 -0.002400 -0.006622 0.000000 0.000000 0.000000
# 2 -0.002400 0.059838 -0.002918 0.000000 0.000000 0.000000
# 3 -0.006622 -0.002918 0.014715 0.000000 0.000000 0.000000
# 4 0.000000 0.000000 0.000000 0.064836 0.000000 0.000000
# 5 0.000000 0.000000 0.000000 0.000000 0.034495 0.000000
# 6 0.000000 0.000000 0.000000 0.000000 0.000000 0.075915
#
#
# Mechanical properties :
#
#
# Convention : Reuss Voigt Hill
#
# Bulk Modulus (GPa) = 16.16588 42.65640 29.41114
# Shear Modulus (GPa) = 16.36740 22.54304 19.45522
#
# Velocity S-wave (km/s) = 2.97699 3.49376 3.24568
# Velocity P-wave (km/s) = 4.53541 6.27473 5.47459
#
# Compressibility (1/GPa) = 0.06185869
#
# Stress axis : x y z
#
# Youngs Moduli (GPa) = 89.39239 16.71187 67.95887
#
# Poissons Ratio (x) = 0.04011 0.45005
# Poissons Ratio (y) = 0.21455 0.19829
# Poissons Ratio (z) = 0.59199 0.04876
#
# Static dielectric constant tensor:
#      x y z
#    x 3.483580 0.000000 0.000000 
#    y 0.000000 3.030930 0.000000 
#    z 0.000000 0.000000 3.525090 
# 
# 
# High freq. dielectric constant tensor:
#      x y z
#    x 1.716070 0.000000 0.000000 
#    y 0.000000 1.665520 0.000000 
#    z 0.000000 0.000000 1.719940 
# 
# From -- ./inp_files/12855.got.cif
#   From: 2010.03.12/outbox.cif.g09.slc.cpg/sg47_7_cif.got.tgz:12855.got - 2010.04.14 03:12:58.
