data_PCOD8195536
_publ_section_title
;
Structure prediction by ZEFSAII (Michael W. Deem and Ramdas Pophale) SiO2 
 PCOD8195536
Probable space group: P M M M
;
_chemical_formula_sum "Si O2"
_cell_formula_units_Z 40
_cell_length_a 29.447815
_cell_length_b 9.332323
_cell_length_c 7.713924
_cell_angle_alpha 90.000000
_cell_angle_beta 90.000000
_cell_angle_gamma 90.000000
_cell_volume 2119.913759
_symmetry_space_group_name_H-M "P M M M"
_symmetry_group_IT_number 47
_symmetry_cell_setting 'orthorhombic'
loop_
_space_group_symop_operation_xyz
x,y,z
-x,-y,z
x,-y,-z
-x,y,-z
-x,-y,-z
x,y,-z
-x,y,z
x,-y,z
loop_
_atom_site_type_symbol
_atom_site_label
_atom_site_fract_x
_atom_site_fract_y
_atom_site_fract_z
Si Si1 0.051169 0.171106 0.000000
Si Si2 0.385621 0.835792 0.194164
Si Si3 0.298927 0.335403 0.294938
Si Si4 0.550526 0.830055 0.500000
Si Si5 0.886440 0.170732 0.307070
Si Si6 0.213768 0.158881 0.705437
O O1 0.076479 0.229999 0.171663
O O2 0.000000 0.231029 0.000000
O O3 0.051512 0.000000 0.000000
O O4 0.340479 0.742707 0.203783
O O5 0.423114 0.776442 0.328431
O O6 0.373122 0.000000 0.240206
O O7 0.405808 0.823918 0.000000
O O8 0.303636 0.316645 0.500000
O O9 0.299014 0.500000 0.238344
O O10 0.252298 0.265741 0.224142
O O11 0.500000 0.762436 0.500000
O O12 0.546797 0.000000 0.500000
O O13 0.897402 0.231408 0.500000
O O14 0.836148 0.218389 0.243101
O O15 0.887285 0.000000 0.313730
O O16 0.216122 0.148764 0.500000
O O17 0.221882 0.000000 0.784488
#
# Coordination Sequence:
#
# PCOD8195536 Si02
#       6
#     4   8   8   4   8   8
#     4   9  16  24  36  58  87 117 151 193 240 291
#     4  10  20  34  54  79 106 138 174 208 248 301
#     4  10  19  31  50  75 104 138 171 208 256 303
#     4   9  18  34  57  83 109 135 167 215 262 295
#     4   8  14  25  39  56  82 117 154 192 237 287
#     4   8  14  26  45  66  92 129 168 205 245 294
#
# _framework density 18.868693
#
# number of rings (size 3 to 8) (size 9 to 14) (size 15 to 20)
#    0.000    3.000    1.000    1.800    0.000    2.000 
#    1.800    4.000    0.000    1.200    0.000    1.400 
#    0.000    1.600    0.000    7.800    0.000    8.000 
#
# Total GULP energy -495828.449552 kJ/mol
# GULP energy per Si atom -12395.711239 kJ/mol
# Density = 1.882575 g / cm^3
# Si number density = 18.868693 Si / 1000 Ang^3
#
#
#
# Elastic Constant Matrix: (Units=GPa)
#
#
# Indices 1 2 3 4 5 6 
#
# 1 174.6237 42.0373 73.0348 0.0000 0.0000 0.0000
# 2 42.0373 55.4053 25.0262 0.0000 0.0000 0.0000
# 3 73.0348 25.0262 106.2277 0.0000 0.0000 0.0000
# 4 0.0000 0.0000 0.0000 9.6698 0.0000 0.0000
# 5 0.0000 0.0000 0.0000 0.0000 13.6406 0.0000
# 6 0.0000 0.0000 0.0000 0.0000 0.0000 0.6145
#
#
#
# Elastic Compliance Matrix: (Units=1/GPa)
#
#
# Indices 1 2 3 4 5 6 
#
# 1 0.008932 -0.004480 -0.005086 0.000000 0.000000 0.000000
# 2 -0.004480 0.022445 -0.002208 0.000000 0.000000 0.000000
# 3 -0.005086 -0.002208 0.013430 0.000000 0.000000 0.000000
# 4 0.000000 0.000000 0.000000 0.103415 0.000000 0.000000
# 5 0.000000 0.000000 0.000000 0.000000 0.073310 0.000000
# 6 0.000000 0.000000 0.000000 0.000000 0.000000 1.627227
#
#
# Mechanical properties :
#
#
# Convention : Reuss Voigt Hill
#
# Bulk Modulus (GPa) = 47.03467 68.49480 57.76473
# Shear Modulus (GPa) = 2.66043 17.86223 10.26133
#
# Velocity S-wave (km/s) = 1.18871 3.08012 2.33454
# Velocity P-wave (km/s) = 5.18320 7.00208 6.16014
#
# Compressibility (1/GPa) = 0.02126091
#
# Stress axis : x y z
#
# Youngs Moduli (GPa) = 111.95628 44.55338 74.45779
#
# Poissons Ratio (x) = 0.19959 0.37867
# Poissons Ratio (y) = 0.50154 0.16439
# Poissons Ratio (z) = 0.56937 0.09837
#
# Static dielectric constant tensor:
#      x y z
#    x 3.684900 0.000000 0.000000 
#    y 0.000000 3.049520 0.000000 
#    z 0.000000 0.000000 3.506600 
# 
# 
# High freq. dielectric constant tensor:
#      x y z
#    x 1.733410 0.000000 0.000000 
#    y 0.000000 1.674140 0.000000 
#    z 0.000000 0.000000 1.731270 
# 
# From -- ./inp_files/13025.got.cif
#   From: 2010.03.12/outbox.cif.g09.slc.cpg/sg47_7_cif.got.tgz:13025.got - 2010.04.14 03:12:58.
