data_PCOD8195764
_publ_section_title
;
Structure prediction by ZEFSAII (Michael W. Deem and Ramdas Pophale) SiO2 
 PCOD8195764
Probable space group: P M M M
;
_chemical_formula_sum "Si O2"
_cell_formula_units_Z 44
_cell_length_a 8.948066
_cell_length_b 14.755707
_cell_length_c 17.637886
_cell_angle_alpha 90.000000
_cell_angle_beta 90.000000
_cell_angle_gamma 90.000000
_cell_volume 2328.818986
_symmetry_space_group_name_H-M "P M M M"
_symmetry_group_IT_number 47
_symmetry_cell_setting 'orthorhombic'
loop_
_space_group_symop_operation_xyz
x,y,z
-x,-y,z
x,-y,-z
-x,y,-z
-x,-y,-z
x,y,-z
-x,y,z
x,-y,z
loop_
_atom_site_type_symbol
_atom_site_label
_atom_site_fract_x
_atom_site_fract_y
_atom_site_fract_z
Si Si1 0.169788 0.840973 0.693442
Si Si2 0.822504 0.101549 0.000000
Si Si3 0.170952 0.639003 0.671320
Si Si4 0.821685 0.783848 0.857089
Si Si5 0.338846 0.500000 0.414377
Si Si6 0.179005 0.000000 0.412329
Si Si7 0.324599 0.398386 0.173158
O O1 0.184040 0.744779 0.652379
O O2 0.239539 0.829560 0.778528
O O3 0.243175 0.914259 0.636254
O O4 0.000000 0.871891 0.705383
O O5 0.765433 0.153066 0.074720
O O6 0.000000 0.098602 0.000000
O O7 0.756325 0.000000 0.000000
O O8 0.238465 0.588205 0.599955
O O9 0.269565 0.605941 0.741145
O O10 0.000000 0.611836 0.687427
O O11 0.757770 0.682671 0.872175
O O12 0.000000 0.774251 0.852830
O O13 0.500000 0.500000 0.370145
O O14 0.381805 0.500000 0.500000
O O15 0.239845 0.000000 0.500000
O O16 0.000000 0.000000 0.416507
O O17 0.500000 0.379754 0.169360
O O18 0.288346 0.500000 0.140735
#
# Coordination Sequence:
#
# PCOD8195764 Si02
#       7
#     8   4   8   8   4   4   8
#     4   8  16  28  45  71 100 132 168 209 259 315
#     4   9  18  32  54  83 110 138 175 227 280 317
#     4  10  19  32  51  75 101 132 175 225 271 314
#     4   9  18  32  51  78 107 136 175 219 265 319
#     4  11  23  35  47  69 103 142 181 220 269 329
#     4   9  16  26  42  67 102 136 163 203 261 317
#     4  10  19  32  53  77 103 137 174 212 260 317
#
# _framework density 18.893695000000001
#
# number of rings (size 3 to 8) (size 9 to 14) (size 15 to 20)
#    0.000    2.636    0.909    2.455    1.273    2.545 
#    0.000    2.727    0.000    3.818    0.000    1.909 
#    0.000   19.636    0.000    0.000    0.000    0.000 
#
# Total GULP energy -545112.267421 kJ/mol
# GULP energy per Si atom -12388.915169 kJ/mol
# Density = 1.885069 g / cm^3
# Si number density = 18.893695 Si / 1000 Ang^3
#
#
#
# Elastic Constant Matrix: (Units=GPa)
#
#
# Indices 1 2 3 4 5 6 
#
# 1 39.8840 40.4978 23.7004 0.0000 0.0000 0.0000
# 2 40.4978 165.9013 79.1114 0.0000 0.0000 0.0000
# 3 23.7004 79.1114 109.3979 0.0000 0.0000 0.0000
# 4 0.0000 0.0000 0.0000 132.9967 0.0000 0.0000
# 5 0.0000 0.0000 0.0000 0.0000 12.4497 0.0000
# 6 0.0000 0.0000 0.0000 0.0000 0.0000 8.2573
#
#
#
# Elastic Compliance Matrix: (Units=1/GPa)
#
#
# Indices 1 2 3 4 5 6 
#
# 1 0.033637 -0.007229 -0.002060 0.000000 0.000000 0.000000
# 2 -0.007229 0.010754 -0.006211 0.000000 0.000000 0.000000
# 3 -0.002060 -0.006211 0.014078 0.000000 0.000000 0.000000
# 4 0.000000 0.000000 0.000000 0.007519 0.000000 0.000000
# 5 0.000000 0.000000 0.000000 0.000000 0.080323 0.000000
# 6 0.000000 0.000000 0.000000 0.000000 0.000000 0.121105
#
#
# Mechanical properties :
#
#
# Convention : Reuss Voigt Hill
#
# Bulk Modulus (GPa) = 36.40235 66.86694 51.63465
# Shear Modulus (GPa) = 16.25640 42.19897 29.22768
#
# Velocity S-wave (km/s) = 2.93646 4.73111 3.93740
# Velocity P-wave (km/s) = 5.55030 8.08162 6.93247
#
# Compressibility (1/GPa) = 0.02747075
#
# Stress axis : x y z
#
# Youngs Moduli (GPa) = 29.72949 92.98986 71.03092
#
# Poissons Ratio (x) = 0.67220 0.14630
# Poissons Ratio (y) = 0.21491 0.44115
# Poissons Ratio (z) = 0.06123 0.57752
#
# Static dielectric constant tensor:
#      x y z
#    x 3.140970 0.000000 0.000000 
#    y 0.000000 3.732260 0.000000 
#    z 0.000000 0.000000 3.414640 
# 
# 
# High freq. dielectric constant tensor:
#      x y z
#    x 1.696580 0.000000 0.000000 
#    y 0.000000 1.748210 0.000000 
#    z 0.000000 0.000000 1.715780 
# 
# From -- ./inp_files/26438.got.cif
#   From: 2010.03.12/outbox.cif.g09.slc.cpg/sg47_14_cif.got.tgz:26438.got - 2010.04.14 03:12:58.
