data_PCOD8195591
_publ_section_title
;
Structure prediction by ZEFSAII (Michael W. Deem and Ramdas Pophale) SiO2 
 PCOD8195591
Probable space group: P M M M
;
_chemical_formula_sum "Si O2"
_cell_formula_units_Z 64
_cell_length_a 24.108238
_cell_length_b 14.888956
_cell_length_c 9.104796
_cell_angle_alpha 90.000000
_cell_angle_beta 90.000000
_cell_angle_gamma 90.000000
_cell_volume 3268.134610
_symmetry_space_group_name_H-M "P M M M"
_symmetry_group_IT_number 47
_symmetry_cell_setting 'orthorhombic'
loop_
_space_group_symop_operation_xyz
x,y,z
-x,-y,z
x,-y,-z
-x,y,-z
-x,-y,-z
x,y,-z
-x,y,z
x,-y,z
loop_
_atom_site_type_symbol
_atom_site_label
_atom_site_fract_x
_atom_site_fract_y
_atom_site_fract_z
Si Si1 0.883987 0.103144 0.326750
Si Si2 0.856847 0.604167 0.330980
Si Si3 0.771869 0.105135 0.832276
Si Si4 0.268592 0.598883 0.673642
Si Si5 0.564785 0.596657 0.840196
Si Si6 0.936807 0.260796 0.169451
Si Si7 0.439838 0.767733 0.670847
Si Si8 0.320133 0.783622 0.674100
O O1 0.882078 0.117207 0.500000
O O2 0.825132 0.134012 0.261131
O O3 0.930173 0.166692 0.255758
O O4 0.897599 0.000000 0.285464
O O5 0.863541 0.634487 0.500000
O O6 0.872563 0.500000 0.312668
O O7 0.794105 0.621557 0.275024
O O8 0.897834 0.661904 0.232236
O O9 0.718544 0.151257 0.763936
O O10 0.761442 0.000000 0.821074
O O11 0.780238 0.136037 0.000000
O O12 0.267990 0.591776 0.500000
O O13 0.286658 0.500000 0.736911
O O14 0.309255 0.679704 0.725253
O O15 0.500000 0.584546 0.857346
O O16 0.591226 0.500000 0.796787
O O17 0.576587 0.666349 0.711494
O O18 0.588316 0.628790 0.000000
O O19 0.000000 0.292635 0.188894
O O20 0.921848 0.244288 0.000000
O O21 0.448909 0.773290 0.500000
O O22 0.500000 0.798358 0.743601
O O23 0.383057 0.819039 0.714177
O O24 0.309201 0.792473 0.500000
#
# Coordination Sequence:
#
# PCOD8195591 Si02
#       8
#     8   8   8   8   8   8   8   8
#     4  10  21  38  61  86 111 141 177 217 263 320
#     4   9  18  34  56  78 101 136 185 239 288 330
#     4  10  21  37  58  84 111 135 163 209 270 328
#     4   8  15  29  49  74 102 131 168 215 265 314
#     4   8  14  25  40  57  80 116 163 209 249 292
#     4  11  24  38  53  78 113 151 188 228 274 320
#     4   9  18  30  43  65  98 133 171 215 261 309
#     4  10  19  31  52  78 103 137 177 217 262 314
#
# _framework density 19.583036
#
# number of rings (size 3 to 8) (size 9 to 14) (size 15 to 20)
#    0.000    2.625    0.000    3.000    0.000    5.500 
#    0.000    5.000    0.000    1.500    0.000    2.625 
#    0.000    0.000    0.000    0.000    0.000    0.000 
#
# Total GULP energy -792897.410168 kJ/mol
# GULP energy per Si atom -12389.022034 kJ/mol
# Density = 1.953846 g / cm^3
# Si number density = 19.583036 Si / 1000 Ang^3
#
#
#
# Elastic Constant Matrix: (Units=GPa)
#
#
# Indices 1 2 3 4 5 6 
#
# 1 107.4358 32.5786 39.1557 0.0000 0.0000 0.0000
# 2 32.5786 44.5353 23.2941 0.0000 0.0000 0.0000
# 3 39.1557 23.2941 54.1989 0.0000 0.0000 0.0000
# 4 0.0000 0.0000 0.0000 26.2866 0.0000 0.0000
# 5 0.0000 0.0000 0.0000 0.0000 13.7139 0.0000
# 6 0.0000 0.0000 0.0000 0.0000 0.0000 11.4495
#
#
#
# Elastic Compliance Matrix: (Units=1/GPa)
#
#
# Indices 1 2 3 4 5 6 
#
# 1 0.013896 -0.006339 -0.007315 0.000000 0.000000 0.000000
# 2 -0.006339 0.031858 -0.009112 0.000000 0.000000 0.000000
# 3 -0.007315 -0.009112 0.027651 0.000000 0.000000 0.000000
# 4 0.000000 0.000000 0.000000 0.038042 0.000000 0.000000
# 5 0.000000 0.000000 0.000000 0.000000 0.072919 0.000000
# 6 0.000000 0.000000 0.000000 0.000000 0.000000 0.087340
#
#
# Mechanical properties :
#
#
# Convention : Reuss Voigt Hill
#
# Bulk Modulus (GPa) = 35.87745 44.02521 39.95133
# Shear Modulus (GPa) = 15.31256 17.69942 16.50599
#
# Velocity S-wave (km/s) = 2.79933 3.00961 2.90638
# Velocity P-wave (km/s) = 5.36738 5.88278 5.63098
#
# Compressibility (1/GPa) = 0.02787266
#
# Stress axis : x y z
#
# Youngs Moduli (GPa) = 71.96270 31.38957 36.16477
#
# Poissons Ratio (x) = 0.19899 0.26453
# Poissons Ratio (y) = 0.45621 0.32954
# Poissons Ratio (z) = 0.52637 0.28603
#
# Static dielectric constant tensor:
#      x y z
#    x 3.734080 0.000000 0.000000 
#    y 0.000000 3.643890 0.000000 
#    z 0.000000 0.000000 3.466130 
# 
# 
# High freq. dielectric constant tensor:
#      x y z
#    x 1.768300 0.000000 0.000000 
#    y 0.000000 1.744760 0.000000 
#    z 0.000000 0.000000 1.747550 
# 
# From -- ./inp_files/12661.got.cif
#   From: 2010.03.12/outbox.cif.g09.slc.cpg/sg47_7_cif.got.tgz:12661.got - 2010.04.14 03:12:58.
