data_PCOD8195293
_publ_section_title
;
Structure prediction by ZEFSAII (Michael W. Deem and Ramdas Pophale) SiO2 
 PCOD8195293
Probable space group: P M M M
;
_chemical_formula_sum "Si O2"
_cell_formula_units_Z 36
_cell_length_a 16.901315
_cell_length_b 15.681244
_cell_length_c 8.835510
_cell_angle_alpha 90.000000
_cell_angle_beta 90.000000
_cell_angle_gamma 90.000000
_cell_volume 2341.707416
_symmetry_space_group_name_H-M "P M M M"
_symmetry_group_IT_number 47
_symmetry_cell_setting 'orthorhombic'
loop_
_space_group_symop_operation_xyz
x,y,z
-x,-y,z
x,-y,-z
-x,y,-z
-x,-y,-z
x,y,-z
-x,y,z
x,-y,z
loop_
_atom_site_type_symbol
_atom_site_label
_atom_site_fract_x
_atom_site_fract_y
_atom_site_fract_z
Si Si1 0.411660 0.000000 0.679899
Si Si2 0.406970 0.315254 0.821488
Si Si3 0.685252 0.837777 0.678982
Si Si4 0.160335 0.098207 0.821405
Si Si5 0.000000 0.898739 0.329552
Si Si6 0.591779 0.500000 0.175554
O O1 0.367012 0.083541 0.740269
O O2 0.500000 0.000000 0.748054
O O3 0.414778 0.000000 0.500000
O O4 0.500000 0.303392 0.787007
O O5 0.357103 0.248744 0.725891
O O6 0.375997 0.409023 0.762566
O O7 0.391260 0.303605 0.000000
O O8 0.695238 0.841434 0.500000
O O9 0.771090 0.842779 0.754265
O O10 0.077926 0.134275 0.756355
O O11 0.174221 0.000000 0.771412
O O12 0.158265 0.107135 0.000000
O O13 0.000000 0.862899 0.500000
O O14 0.000000 0.000000 0.327727
O O15 0.500000 0.500000 0.209031
O O16 0.609114 0.500000 0.000000
#
# Coordination Sequence:
#
# PCOD8195293 Si02
#       6
#     4   8   8   8   4   4
#     4   9  18  30  41  54  79 118 157 187 218 259
#     4   9  17  30  47  66  87 114 150 190 231 274
#     4  11  20  30  44  62  89 121 154 188 225 266
#     4  10  19  31  46  64  88 116 150 188 225 261
#     4   9  17  29  47  67  87 112 145 180 223 273
#     4   7  12  26  47  65  83 110 143 182 231 281
#
# _framework density 15.373398
#
# number of rings (size 3 to 8) (size 9 to 14) (size 15 to 20)
#    0.000    2.556    1.111    3.667    0.000    3.556 
#    0.000    0.556    0.000    4.667    0.000    0.000 
#    0.000    0.889    0.000    9.556    0.000    4.222 
#
# Total GULP energy -446189.575904 kJ/mol
# GULP energy per Si atom -12394.154886 kJ/mol
# Density = 1.533841 g / cm^3
# Si number density = 15.373398 Si / 1000 Ang^3
#
#
#
# Elastic Constant Matrix: (Units=GPa)
#
#
# Indices 1 2 3 4 5 6 
#
# 1 110.9600 46.2480 36.4798 0.0000 0.0000 0.0000
# 2 46.2480 101.8715 25.9572 0.0000 0.0000 0.0000
# 3 36.4798 25.9572 57.5934 0.0000 0.0000 0.0000
# 4 0.0000 0.0000 0.0000 17.7854 0.0000 0.0000
# 5 0.0000 0.0000 0.0000 0.0000 25.6501 0.0000
# 6 0.0000 0.0000 0.0000 0.0000 0.0000 6.0414
#
#
#
# Elastic Compliance Matrix: (Units=1/GPa)
#
#
# Indices 1 2 3 4 5 6 
#
# 1 0.012820 -0.004238 -0.006210 0.000000 0.000000 0.000000
# 2 -0.004238 0.012491 -0.002945 0.000000 0.000000 0.000000
# 3 -0.006210 -0.002945 0.022624 0.000000 0.000000 0.000000
# 4 0.000000 0.000000 0.000000 0.056226 0.000000 0.000000
# 5 0.000000 0.000000 0.000000 0.000000 0.038986 0.000000
# 6 0.000000 0.000000 0.000000 0.000000 0.000000 0.165524
#
#
# Mechanical properties :
#
#
# Convention : Reuss Voigt Hill
#
# Bulk Modulus (GPa) = 47.28538 54.19940 50.74239
# Shear Modulus (GPa) = 14.59821 20.67805 17.63813
#
# Velocity S-wave (km/s) = 3.08486 3.67148 3.39088
# Velocity P-wave (km/s) = 6.59645 7.30102 6.95766
#
# Compressibility (1/GPa) = 0.02114819
#
# Stress axis : x y z
#
# Youngs Moduli (GPa) = 78.00101 80.05998 44.20031
#
# Poissons Ratio (x) = 0.33928 0.27451
# Poissons Ratio (y) = 0.33055 0.13018
# Poissons Ratio (z) = 0.48442 0.23580
#
# Static dielectric constant tensor:
#      x y z
#    x 2.919590 0.000000 0.000000 
#    y 0.000000 3.001660 0.000000 
#    z 0.000000 0.000000 2.807620 
# 
# 
# High freq. dielectric constant tensor:
#      x y z
#    x 1.576960 0.000000 0.000000 
#    y 0.000000 1.566610 0.000000 
#    z 0.000000 0.000000 1.583140 
# 
# From -- ./inp_files/5604.got.cif
#   From: 2010.03.12/outbox.cif.g09.slc.cpg/sg47_3_cif.got.tgz:5604.got - 2010.04.14 03:12:58.
