data_PCOD8195401
_publ_section_title
;
Structure prediction by ZEFSAII (Michael W. Deem and Ramdas Pophale) SiO2 
 PCOD8195401
Probable space group: P M M M
;
_chemical_formula_sum "Si O2"
_cell_formula_units_Z 44
_cell_length_a 13.788053
_cell_length_b 21.519917
_cell_length_c 8.788072
_cell_angle_alpha 90.000000
_cell_angle_beta 90.000000
_cell_angle_gamma 90.000000
_cell_volume 2607.577005
_symmetry_space_group_name_H-M "P M M M"
_symmetry_group_IT_number 47
_symmetry_cell_setting 'orthorhombic'
loop_
_space_group_symop_operation_xyz
x,y,z
-x,-y,z
x,-y,-z
-x,y,-z
-x,-y,-z
x,y,-z
-x,y,z
x,-y,z
loop_
_atom_site_type_symbol
_atom_site_label
_atom_site_fract_x
_atom_site_fract_y
_atom_site_fract_z
Si Si1 0.611942 0.126930 0.320416
Si Si2 0.789662 0.432175 0.321510
Si Si3 0.109924 0.309498 0.680375
Si Si4 0.614917 0.000000 0.170787
Si Si5 0.286093 0.243141 0.179288
Si Si6 0.609111 0.645005 0.676218
O O1 0.623683 0.128742 0.500000
O O2 0.500000 0.138449 0.272706
O O3 0.680279 0.178091 0.246446
O O4 0.650729 0.060876 0.260031
O O5 0.804614 0.438626 0.500000
O O6 0.810235 0.500000 0.245877
O O7 0.862339 0.378929 0.259961
O O8 0.679153 0.412437 0.283388
O O9 0.124978 0.306070 0.500000
O O10 0.179346 0.258929 0.756979
O O11 0.000000 0.294975 0.728444
O O12 0.500000 0.000000 0.166105
O O13 0.657884 0.000000 0.000000
O O14 0.363863 0.295262 0.224904
O O15 0.280291 0.237856 0.000000
O O16 0.621283 0.664298 0.500000
O O17 0.500000 0.624056 0.713974
#
# Coordination Sequence:
#
# PCOD8195401 Si02
#       6
#     8   8   8   4   8   8
#     4  10  19  31  48  70  99 134 167 196 228 268
#     4   8  14  25  43  69  95 115 143 187 236 284
#     4   9  18  33  51  69  90 116 148 190 240 291
#     4   9  17  29  45  69 102 135 166 197 227 263
#     4  11  21  31  46  68  93 121 156 197 238 280
#     4   9  17  29  44  63  90 123 157 192 230 275
#
# _framework density 16.873902000000001
#
# number of rings (size 3 to 8) (size 9 to 14) (size 15 to 20)
#    0.000    2.636    0.000    4.091    0.000    5.818 
#    0.000    3.636    0.000    8.727    0.000   10.818 
#    0.000    5.091    0.000    0.000    0.000    0.000 
#
# Total GULP energy -545468.689967 kJ/mol
# GULP energy per Si atom -12397.015681 kJ/mol
# Density = 1.683550 g / cm^3
# Si number density = 16.873902 Si / 1000 Ang^3
#
#
#
# Elastic Constant Matrix: (Units=GPa)
#
#
# Indices 1 2 3 4 5 6 
#
# 1 101.9554 54.7651 38.7092 0.0000 0.0000 0.0000
# 2 54.7651 139.1543 47.9834 0.0000 0.0000 0.0000
# 3 38.7092 47.9834 71.9094 0.0000 0.0000 0.0000
# 4 0.0000 0.0000 0.0000 -1.3590 0.0000 0.0000
# 5 0.0000 0.0000 0.0000 0.0000 14.8290 0.0000
# 6 0.0000 0.0000 0.0000 0.0000 0.0000 18.6401
#
#
#
# Elastic Compliance Matrix: (Units=1/GPa)
#
#
# Indices 1 2 3 4 5 6 
#
# 1 0.013642 -0.003684 -0.004885 0.000000 0.000000 0.000000
# 2 -0.003684 0.010329 -0.004909 0.000000 0.000000 0.000000
# 3 -0.004885 -0.004909 0.019812 0.000000 0.000000 0.000000
# 4 0.000000 0.000000 0.000000 -0.735834 0.000000 0.000000
# 5 0.000000 0.000000 0.000000 0.000000 0.067435 0.000000
# 6 0.000000 0.000000 0.000000 0.000000 0.000000 0.053648
#
#
# Mechanical properties :
#
#
# Convention : Reuss Voigt Hill
#
# Bulk Modulus (GPa) = 59.43243 66.21495 62.82369
# Shear Modulus (GPa) = -9.28673 17.85944 4.28635
#
# Velocity S-wave (km/s) = -2.34852 3.25684 1.59554
# Velocity P-wave (km/s) = 5.28620 7.31225 6.38016
#
# Compressibility (1/GPa) = 0.01682583
#
# Stress axis : x y z
#
# Youngs Moduli (GPa) = 73.30316 96.81464 50.47531
#
# Poissons Ratio (x) = 0.35671 0.24657
# Poissons Ratio (y) = 0.27008 0.24778
# Poissons Ratio (z) = 0.35809 0.47526
#
# Static dielectric constant tensor:
#      x y z
#    x 3.087650 0.000000 0.000000 
#    y 0.000000 3.309400 0.000000 
#    z 0.000000 0.000000 3.017400 
# 
# 
# High freq. dielectric constant tensor:
#      x y z
#    x 1.629820 0.000000 0.000000 
#    y 0.000000 1.648880 0.000000 
#    z 0.000000 0.000000 1.635020 
# 
# From -- ./inp_files/6803.got.cif
#   From: 2010.03.12/outbox.cif.g09.slc.cpg/sg47_4_cif.got.tgz:6803.got - 2010.04.14 03:12:58.
