data_PCOD8195559
_publ_section_title
;
Structure prediction by ZEFSAII (Michael W. Deem and Ramdas Pophale) SiO2 
 PCOD8195559
Probable space group: P M M M
;
_chemical_formula_sum "Si O2"
_cell_formula_units_Z 52
_cell_length_a 10.089026
_cell_length_b 13.647698
_cell_length_c 21.604375
_cell_angle_alpha 90.000000
_cell_angle_beta 90.000000
_cell_angle_gamma 90.000000
_cell_volume 2974.749170
_symmetry_space_group_name_H-M "P M M M"
_symmetry_group_IT_number 47
_symmetry_cell_setting 'orthorhombic'
loop_
_space_group_symop_operation_xyz
x,y,z
-x,-y,z
x,-y,-z
-x,y,-z
-x,-y,-z
x,y,-z
-x,y,z
x,-y,z
loop_
_atom_site_type_symbol
_atom_site_label
_atom_site_fract_x
_atom_site_fract_y
_atom_site_fract_z
Si Si1 0.154953 0.232888 0.118159
Si Si2 0.500000 0.887023 0.427103
Si Si3 0.650662 0.612885 0.836599
Si Si4 0.654855 0.389266 0.693245
Si Si5 0.000000 0.112821 0.573413
Si Si6 0.156675 0.890447 0.000000
Si Si7 0.249423 0.800985 0.361389
Si Si8 0.151003 0.112152 0.240413
O O1 0.245808 0.329433 0.120221
O O2 0.203327 0.168085 0.060513
O O3 0.184843 0.172065 0.179521
O O4 0.000000 0.262176 0.112566
O O5 0.500000 0.872962 0.500000
O O6 0.373744 0.835076 0.399648
O O7 0.500000 0.000000 0.408126
O O8 0.500000 0.650245 0.847474
O O9 0.661368 0.500000 0.855787
O O10 0.690675 0.626529 0.765010
O O11 0.500000 0.368227 0.682570
O O12 0.690430 0.500000 0.673016
O O13 0.741918 0.315607 0.651536
O O14 0.875366 0.173040 0.597084
O O15 0.000000 0.111307 0.500000
O O16 0.000000 0.000000 0.598566
O O17 0.000000 0.900314 0.000000
O O18 0.219086 0.000000 0.000000
O O19 0.247240 0.856430 0.295711
O O20 0.000000 0.130915 0.262260
O O21 0.175473 0.000000 0.223383
#
# Coordination Sequence:
#
# PCOD8195559 Si02
#       8
#     8   4   8   8   4   4   8   8
#     4  10  19  32  54  80 108 139 182 229 264 312
#     4  11  24  38  53  79 113 146 183 224 266 321
#     4   9  18  34  54  77 108 143 176 216 273 333
#     4   9  18  35  58  83 110 142 180 225 282 336
#     4  11  24  40  57  77 111 156 185 208 262 339
#     4   9  18  34  54  77 108 152 189 211 258 329
#     4  12  20  35  58  81 108 140 184 229 272 322
#     4  10  19  31  50  79 111 140 173 223 275 320
#
# _framework density 17.480466
#
# number of rings (size 3 to 8) (size 9 to 14) (size 15 to 20)
#    0.000    1.923    3.077    3.231    0.000    3.385 
#    0.000    1.154    0.000    6.923    0.000    0.000 
#    0.000    0.000    0.000    0.000    0.000    0.000 
#
# Total GULP energy -644826.771611 kJ/mol
# GULP energy per Si atom -12400.514839 kJ/mol
# Density = 1.744068 g / cm^3
# Si number density = 17.480466 Si / 1000 Ang^3
#
#
#
# Elastic Constant Matrix: (Units=GPa)
#
#
# Indices 1 2 3 4 5 6 
#
# 1 85.9172 55.3419 31.0471 0.0000 0.0000 0.0000
# 2 55.3419 124.0803 45.7216 0.0000 0.0000 0.0000
# 3 31.0471 45.7216 65.6562 0.0000 0.0000 0.0000
# 4 0.0000 0.0000 0.0000 29.1140 0.0000 0.0000
# 5 0.0000 0.0000 0.0000 0.0000 23.2630 0.0000
# 6 0.0000 0.0000 0.0000 0.0000 0.0000 28.9487
#
#
#
# Elastic Compliance Matrix: (Units=1/GPa)
#
#
# Indices 1 2 3 4 5 6 
#
# 1 0.016976 -0.006206 -0.003706 0.000000 0.000000 0.000000
# 2 -0.006206 0.013110 -0.006195 0.000000 0.000000 0.000000
# 3 -0.003706 -0.006195 0.021297 0.000000 0.000000 0.000000
# 4 0.000000 0.000000 0.000000 0.034348 0.000000 0.000000
# 5 0.000000 0.000000 0.000000 0.000000 0.042987 0.000000
# 6 0.000000 0.000000 0.000000 0.000000 0.000000 0.034544
#
#
# Mechanical properties :
#
#
# Convention : Reuss Voigt Hill
#
# Bulk Modulus (GPa) = 52.16537 59.98611 56.07574
# Shear Modulus (GPa) = 24.76916 25.83468 25.30192
#
# Velocity S-wave (km/s) = 3.76834 3.84854 3.80865
# Velocity P-wave (km/s) = 6.98861 7.35792 7.17564
#
# Compressibility (1/GPa) = 0.01916980
#
# Stress axis : x y z
#
# Youngs Moduli (GPa) = 58.90793 76.27772 46.95468
#
# Poissons Ratio (x) = 0.47338 0.17400
# Poissons Ratio (y) = 0.36558 0.29088
# Poissons Ratio (z) = 0.21829 0.47253
#
# Static dielectric constant tensor:
#      x y z
#    x 3.092190 0.000000 0.000000 
#    y 0.000000 3.332550 0.000000 
#    z 0.000000 0.000000 3.226010 
# 
# 
# High freq. dielectric constant tensor:
#      x y z
#    x 1.661660 0.000000 0.000000 
#    y 0.000000 1.680040 0.000000 
#    z 0.000000 0.000000 1.670660 
# 
# From -- ./inp_files/29660.got.cif
#   From: 2010.03.12/outbox.cif.g09.slc.cpg/sg47_15_cif.got.tgz:29660.got - 2010.04.14 03:12:58.
