data_PCOD8195910
_publ_section_title
;
Structure prediction by ZEFSAII (Michael W. Deem and Ramdas Pophale) SiO2 
 PCOD8195910
Probable space group: P M M M
;
_chemical_formula_sum "Si O2"
_cell_formula_units_Z 52
_cell_length_a 20.625470
_cell_length_b 14.825152
_cell_length_c 9.220029
_cell_angle_alpha 90.000000
_cell_angle_beta 90.000000
_cell_angle_gamma 90.000000
_cell_volume 2819.261078
_symmetry_space_group_name_H-M "P M M M"
_symmetry_group_IT_number 47
_symmetry_cell_setting 'orthorhombic'
loop_
_space_group_symop_operation_xyz
x,y,z
-x,-y,z
x,-y,-z
-x,y,-z
-x,-y,-z
x,y,-z
-x,y,z
x,-y,z
loop_
_atom_site_type_symbol
_atom_site_label
_atom_site_fract_x
_atom_site_fract_y
_atom_site_fract_z
Si Si1 0.426221 0.324981 0.829439
Si Si2 0.310074 0.729001 0.665073
Si Si3 0.771258 0.901521 0.659857
Si Si4 0.897529 0.898301 0.169972
Si Si5 0.928750 0.276934 0.332898
Si Si6 0.576112 0.500000 0.659584
Si Si7 0.808479 0.396796 0.327706
O O1 0.500000 0.298095 0.786162
O O2 0.373115 0.257042 0.767474
O O3 0.401604 0.415153 0.751172
O O4 0.420865 0.337645 0.000000
O O5 0.330346 0.704958 0.500000
O O6 0.283734 0.828845 0.677434
O O7 0.256716 0.656141 0.722105
O O8 0.804401 0.890389 0.500000
O O9 0.822874 0.888391 0.786374
O O10 0.738658 0.000000 0.673293
O O11 0.935174 0.819054 0.251796
O O12 0.922486 0.000000 0.211195
O O13 0.905484 0.882414 0.000000
O O14 0.912598 0.256630 0.500000
O O15 0.872468 0.343051 0.269279
O O16 0.000000 0.323519 0.317060
O O17 0.500000 0.500000 0.640649
O O18 0.609439 0.500000 0.500000
O O19 0.811589 0.398890 0.500000
O O20 0.807790 0.500000 0.266984
#
# Coordination Sequence:
#
# PCOD8195910 Si02
#       7
#     8   8   8   8   8   4   8
#     4  10  21  35  50  73 108 145 178 216 264 316
#     4  10  19  32  54  80 105 137 176 218 265 315
#     4   9  17  32  55  80 106 135 171 218 268 317
#     4  10  20  33  51  76 106 138 171 213 268 325
#     4  10  20  35  55  77 103 139 181 220 262 313
#     4   9  17  31  51  73  99 135 178 217 256 307
#     4   9  18  33  52  78 109 136 171 220 265 304
#
# _framework density 18.44455
#
# number of rings (size 3 to 8) (size 9 to 14) (size 15 to 20)
#    0.000    2.385    1.538    1.154    1.077    4.308 
#    0.000    3.077    0.000    1.846    0.000    4.308 
#    0.000    0.000    0.000    0.000    0.000    0.000 
#
# Total GULP energy -644263.990370 kJ/mol
# GULP energy per Si atom -12389.692123 kJ/mol
# Density = 1.840257 g / cm^3
# Si number density = 18.444550 Si / 1000 Ang^3
#
#
#
# Elastic Constant Matrix: (Units=GPa)
#
#
# Indices 1 2 3 4 5 6 
#
# 1 115.1994 47.1015 39.2348 0.0000 0.0000 0.0000
# 2 47.1015 102.9001 28.5117 0.0000 0.0000 0.0000
# 3 39.2348 28.5117 61.4782 0.0000 0.0000 0.0000
# 4 0.0000 0.0000 0.0000 18.3993 0.0000 0.0000
# 5 0.0000 0.0000 0.0000 0.0000 18.3965 0.0000
# 6 0.0000 0.0000 0.0000 0.0000 0.0000 14.9645
#
#
#
# Elastic Compliance Matrix: (Units=1/GPa)
#
#
# Indices 1 2 3 4 5 6 
#
# 1 0.012370 -0.003987 -0.006045 0.000000 0.000000 0.000000
# 2 -0.003987 0.012436 -0.003223 0.000000 0.000000 0.000000
# 3 -0.006045 -0.003223 0.021619 0.000000 0.000000 0.000000
# 4 0.000000 0.000000 0.000000 0.054350 0.000000 0.000000
# 5 0.000000 0.000000 0.000000 0.000000 0.054358 0.000000
# 6 0.000000 0.000000 0.000000 0.000000 0.000000 0.066825
#
#
# Mechanical properties :
#
#
# Convention : Reuss Voigt Hill
#
# Bulk Modulus (GPa) = 50.21576 56.58594 53.40085
# Shear Modulus (GPa) = 19.59969 21.33403 20.46686
#
# Velocity S-wave (km/s) = 3.26333 3.40466 3.33474
# Velocity P-wave (km/s) = 6.44077 6.79714 6.62135
#
# Compressibility (1/GPa) = 0.01991407
#
# Stress axis : x y z
#
# Youngs Moduli (GPa) = 80.84298 80.41003 46.25646
#
# Poissons Ratio (x) = 0.32060 0.27963
# Poissons Ratio (y) = 0.32233 0.14909
# Poissons Ratio (z) = 0.48870 0.25916
#
# Static dielectric constant tensor:
#      x y z
#    x 3.328430 0.000000 0.000000 
#    y 0.000000 3.594050 0.000000 
#    z 0.000000 0.000000 3.291930 
# 
# 
# High freq. dielectric constant tensor:
#      x y z
#    x 1.708930 0.000000 0.000000 
#    y 0.000000 1.710180 0.000000 
#    z 0.000000 0.000000 1.694340 
# 
# From -- ./inp_files/11015.got.cif
#   From: 2010.03.12/outbox.cif.g09.slc.cpg/sg47_6_cif.got.tgz:11015.got - 2010.04.14 03:12:58.
