data_PCOD8195156
_publ_section_title
;
Structure prediction by ZEFSAII (Michael W. Deem and Ramdas Pophale) SiO2 
 PCOD8195156
Probable space group: P M M M
;
_chemical_formula_sum "Si O2"
_cell_formula_units_Z 64
_cell_length_a 19.013525
_cell_length_b 9.329523
_cell_length_c 19.284010
_cell_angle_alpha 90.000000
_cell_angle_beta 90.000000
_cell_angle_gamma 90.000000
_cell_volume 3420.734973
_symmetry_space_group_name_H-M "P M M M"
_symmetry_group_IT_number 47
_symmetry_cell_setting 'orthorhombic'
loop_
_space_group_symop_operation_xyz
x,y,z
-x,-y,z
x,-y,-z
-x,y,-z
-x,-y,-z
x,y,-z
-x,y,z
x,-y,z
loop_
_atom_site_type_symbol
_atom_site_label
_atom_site_fract_x
_atom_site_fract_y
_atom_site_fract_z
Si Si1 0.184250 0.332325 0.919522
Si Si2 0.582045 0.345179 0.424504
Si Si3 0.077489 0.170200 0.665833
Si Si4 0.792324 0.171238 0.579208
Si Si5 0.664606 0.167263 0.329152
Si Si6 0.579193 0.830947 0.799431
Si Si7 0.917389 0.836178 0.821750
Si Si8 0.323366 0.165937 0.921055
O O1 0.189871 0.500000 0.904139
O O2 0.121248 0.266699 0.875347
O O3 0.257207 0.259529 0.896827
O O4 0.168413 0.300830 0.000000
O O5 0.617180 0.326516 0.500000
O O6 0.500000 0.345687 0.432860
O O7 0.606598 0.500000 0.392834
O O8 0.601192 0.207937 0.379450
O O9 0.132684 0.226158 0.608538
O O10 0.100594 0.215721 0.743532
O O11 0.000000 0.233018 0.647973
O O12 0.073582 0.000000 0.664524
O O13 0.781916 0.228328 0.500000
O O14 0.734653 0.233353 0.634354
O O15 0.788561 0.000000 0.578565
O O16 0.638437 0.229322 0.254699
O O17 0.675544 0.000000 0.323108
O O18 0.500000 0.764596 0.790357
O O19 0.608423 0.792990 0.875569
O O20 0.572939 0.000000 0.788307
O O21 0.000000 0.823168 0.835607
O O22 0.892299 0.000000 0.833025
O O23 0.302677 0.000000 0.910632
O O24 0.344272 0.199809 0.000000
#
# Coordination Sequence:
#
# PCOD8195156 Si02
#       8
#     8   8   8   8   8   8   8   8
#     4  10  21  35  51  74 106 141 174 210 253 303
#     4   9  18  32  48  65  89 125 164 200 242 290
#     4   8  15  28  46  69  97 131 169 209 253 296
#     4   9  17  27  42  69 101 132 167 205 247 296
#     4  10  19  30  47  72 100 129 161 200 246 299
#     4   9  18  31  49  76 104 130 165 210 259 307
#     4   9  18  32  52  77 103 135 177 218 255 302
#     4   9  18  33  54  77  99 130 171 212 256 304
#
# _framework density 18.709430000000001
#
# number of rings (size 3 to 8) (size 9 to 14) (size 15 to 20)
#    0.000    2.875    0.000    2.250    1.750    3.250 
#    0.000    5.000    0.000    1.125    0.000    1.750 
#    0.000    0.000    0.000    5.375    0.000    5.250 
#
# Total GULP energy -792903.239685 kJ/mol
# GULP energy per Si atom -12389.113120 kJ/mol
# Density = 1.866685 g / cm^3
# Si number density = 18.709430 Si / 1000 Ang^3
#
#
#
# Elastic Constant Matrix: (Units=GPa)
#
#
# Indices 1 2 3 4 5 6 
#
# 1 111.0736 26.2031 78.5375 0.0000 0.0000 0.0000
# 2 26.2031 23.1098 22.2682 0.0000 0.0000 0.0000
# 3 78.5375 22.2682 115.3939 0.0000 0.0000 0.0000
# 4 0.0000 0.0000 0.0000 12.2133 0.0000 0.0000
# 5 0.0000 0.0000 0.0000 0.0000 34.8241 0.0000
# 6 0.0000 0.0000 0.0000 0.0000 0.0000 10.1077
#
#
#
# Elastic Compliance Matrix: (Units=1/GPa)
#
#
# Indices 1 2 3 4 5 6 
#
# 1 0.019557 -0.011484 -0.011094 0.000000 0.000000 0.000000
# 2 -0.011484 0.059900 -0.003743 0.000000 0.000000 0.000000
# 3 -0.011094 -0.003743 0.016939 0.000000 0.000000 0.000000
# 4 0.000000 0.000000 0.000000 0.081878 0.000000 0.000000
# 5 0.000000 0.000000 0.000000 0.000000 0.028716 0.000000
# 6 0.000000 0.000000 0.000000 0.000000 0.000000 0.098934
#
#
# Mechanical properties :
#
#
# Convention : Reuss Voigt Hill
#
# Bulk Modulus (GPa) = 22.85569 55.95500 39.40534
# Shear Modulus (GPa) = 13.39942 19.60026 16.49984
#
# Velocity S-wave (km/s) = 2.67907 3.24020 2.97290
# Velocity P-wave (km/s) = 4.67039 6.63105 5.73513
#
# Compressibility (1/GPa) = 0.04375278
#
# Stress axis : x y z
#
# Youngs Moduli (GPa) = 51.13348 16.69450 59.03540
#
# Poissons Ratio (x) = 0.19172 0.65495
# Poissons Ratio (y) = 0.58723 0.22097
# Poissons Ratio (z) = 0.56728 0.06249
#
# Static dielectric constant tensor:
#      x y z
#    x 3.589240 0.000000 0.000000 
#    y 0.000000 3.081120 0.000000 
#    z 0.000000 0.000000 3.628780 
# 
# 
# High freq. dielectric constant tensor:
#      x y z
#    x 1.728210 0.000000 0.000000 
#    y 0.000000 1.674200 0.000000 
#    z 0.000000 0.000000 1.732900 
# 
# From -- ./inp_files/9925.got.cif
#   From: 2010.03.12/outbox.cif.g09.slc.cpg/sg47_5_cif.got.tgz:9925.got - 2010.04.14 03:12:58.
