data_PCOD8195771
_publ_section_title
;
Structure prediction by ZEFSAII (Michael W. Deem and Ramdas Pophale) SiO2 
 PCOD8195771
Probable space group: P M M M
;
_chemical_formula_sum "Si O2"
_cell_formula_units_Z 44
_cell_length_a 11.544890
_cell_length_b 15.285965
_cell_length_c 13.366487
_cell_angle_alpha 90.000000
_cell_angle_beta 90.000000
_cell_angle_gamma 90.000000
_cell_volume 2358.847912
_symmetry_space_group_name_H-M "P M M M"
_symmetry_group_IT_number 47
_symmetry_cell_setting 'orthorhombic'
loop_
_space_group_symop_operation_xyz
x,y,z
-x,-y,z
x,-y,-z
-x,y,-z
-x,-y,-z
x,y,-z
-x,y,z
x,-y,z
loop_
_atom_site_type_symbol
_atom_site_label
_atom_site_fract_x
_atom_site_fract_y
_atom_site_fract_z
Si Si1 0.785009 0.277569 0.116021
Si Si2 0.500000 0.096752 0.381188
Si Si3 0.864672 0.901335 0.796844
Si Si4 0.365243 0.500000 0.610255
Si Si5 0.000000 0.398756 0.118231
Si Si6 0.636499 0.678191 0.292882
Si Si7 0.740769 0.832471 0.615359
O O1 0.811045 0.174272 0.133284
O O2 0.888452 0.342001 0.152924
O O3 0.669849 0.303416 0.177591
O O4 0.757791 0.292018 0.000000
O O5 0.500000 0.105202 0.500000
O O6 0.617042 0.137640 0.339255
O O7 0.500000 0.000000 0.341113
O O8 0.839983 0.878667 0.680229
O O9 0.000000 0.900255 0.814388
O O10 0.817727 0.000000 0.821985
O O11 0.500000 0.500000 0.589240
O O12 0.304483 0.500000 0.500000
O O13 0.330265 0.580636 0.678808
O O14 0.000000 0.500000 0.160657
O O15 0.000000 0.404258 0.000000
O O16 0.500000 0.699420 0.311600
O O17 0.726876 0.729426 0.365897
O O18 0.763417 0.856546 0.500000
#
# Coordination Sequence:
#
# PCOD8195771 Si02
#       7
#     8   4   8   4   4   8   8
#     4  10  21  37  57  81 108 139 181 227 271 321
#     4   9  16  26  44  69  94 124 165 209 252 300
#     4  10  21  36  54  78 107 139 177 223 274 326
#     4   9  18  32  53  80 111 144 179 214 255 310
#     4   9  18  34  57  81 103 134 176 222 271 314
#     4  10  20  34  53  80 110 143 180 220 267 320
#     4  10  19  32  51  75 105 140 178 217 262 315
#
# _framework density 18.653174
#
# number of rings (size 3 to 8) (size 9 to 14) (size 15 to 20)
#    0.000    2.273    1.818    1.091    1.273    2.909 
#    0.000    1.818    0.000    1.636    0.000    3.182 
#    0.000    0.000    0.000    0.000    0.000    0.000 
#
# Total GULP energy -545132.780086 kJ/mol
# GULP energy per Si atom -12389.381366 kJ/mol
# Density = 1.861072 g / cm^3
# Si number density = 18.653174 Si / 1000 Ang^3
#
#
#
# Elastic Constant Matrix: (Units=GPa)
#
#
# Indices 1 2 3 4 5 6 
#
# 1 28.7568 18.9380 12.5181 0.0000 0.0000 0.0000
# 2 18.9380 137.3005 20.7394 0.0000 0.0000 0.0000
# 3 12.5181 20.7394 76.1100 0.0000 0.0000 0.0000
# 4 0.0000 0.0000 0.0000 21.0708 0.0000 0.0000
# 5 0.0000 0.0000 0.0000 0.0000 17.4493 0.0000
# 6 0.0000 0.0000 0.0000 0.0000 0.0000 24.2822
#
#
#
# Elastic Compliance Matrix: (Units=1/GPa)
#
#
# Indices 1 2 3 4 5 6 
#
# 1 0.040214 -0.004743 -0.005322 0.000000 0.000000 0.000000
# 2 -0.004743 0.008155 -0.001442 0.000000 0.000000 0.000000
# 3 -0.005322 -0.001442 0.014407 0.000000 0.000000 0.000000
# 4 0.000000 0.000000 0.000000 0.047459 0.000000 0.000000
# 5 0.000000 0.000000 0.000000 0.000000 0.057309 0.000000
# 6 0.000000 0.000000 0.000000 0.000000 0.000000 0.041182
#
#
# Mechanical properties :
#
#
# Convention : Reuss Voigt Hill
#
# Bulk Modulus (GPa) = 25.14893 38.50648 31.82771
# Shear Modulus (GPa) = 20.40854 25.22525 22.81690
#
# Velocity S-wave (km/s) = 3.31131 3.68139 3.50125
# Velocity P-wave (km/s) = 5.30390 6.22563 5.78316
#
# Compressibility (1/GPa) = 0.03976312
#
# Stress axis : x y z
#
# Youngs Moduli (GPa) = 24.86666 122.61908 69.40994
#
# Poissons Ratio (x) = 0.58158 0.36939
# Poissons Ratio (y) = 0.11794 0.10010
# Poissons Ratio (z) = 0.13234 0.17684
#
# Static dielectric constant tensor:
#      x y z
#    x 3.271300 0.000000 0.000000 
#    y 0.000000 4.006270 0.000000 
#    z 0.000000 0.000000 3.151270 
# 
# 
# High freq. dielectric constant tensor:
#      x y z
#    x 1.701030 0.000000 0.000000 
#    y 0.000000 1.746040 0.000000 
#    z 0.000000 0.000000 1.701790 
# 
# From -- ./inp_files/22658.got.cif
#   From: 2010.03.12/outbox.cif.g09.slc.cpg/sg47_12_cif.got.tgz:22658.got - 2010.04.14 03:12:58.
