data_PCOD8195966
_publ_section_title
;
Structure prediction by ZEFSAII (Michael W. Deem and Ramdas Pophale) SiO2 
 PCOD8195966
Probable space group: P M M M
;
_chemical_formula_sum "Si O2"
_cell_formula_units_Z 64
_cell_length_a 16.241704
_cell_length_b 9.065657
_cell_length_c 23.105509
_cell_angle_alpha 90.000000
_cell_angle_beta 90.000000
_cell_angle_gamma 90.000000
_cell_volume 3402.094830
_symmetry_space_group_name_H-M "P M M M"
_symmetry_group_IT_number 47
_symmetry_cell_setting 'orthorhombic'
loop_
_space_group_symop_operation_xyz
x,y,z
-x,-y,z
x,-y,-z
-x,y,-z
-x,-y,-z
x,y,-z
-x,y,z
x,-y,z
loop_
_atom_site_type_symbol
_atom_site_label
_atom_site_fract_x
_atom_site_fract_y
_atom_site_fract_z
Si Si1 0.906007 0.671243 0.432171
Si Si2 0.658271 0.171342 0.065505
Si Si3 0.737365 0.674367 0.753659
Si Si4 0.812663 0.831118 0.854223
Si Si5 0.409154 0.666642 0.832770
Si Si6 0.245894 0.176235 0.631220
Si Si7 0.408784 0.174993 0.434656
Si Si8 0.905009 0.660608 0.937563
O O1 0.894864 0.700155 0.500000
O O2 0.891623 0.500000 0.417244
O O3 0.837118 0.766703 0.399521
O O4 0.000000 0.716158 0.413827
O O5 0.743656 0.203321 0.097695
O O6 0.590385 0.247236 0.106257
O O7 0.637740 0.000000 0.062880
O O8 0.658130 0.236388 0.000000
O O9 0.741810 0.500000 0.741913
O O10 0.807261 0.726846 0.798224
O O11 0.651537 0.727925 0.783002
O O12 0.751635 0.762727 0.695473
O O13 0.894017 0.783644 0.888089
O O14 0.814506 0.000000 0.834169
O O15 0.500000 0.677680 0.805951
O O16 0.382865 0.500000 0.846860
O O17 0.330561 0.235841 0.601400
O O18 0.242731 0.000000 0.631268
O O19 0.398445 0.233651 0.500000
O O20 0.500000 0.226476 0.411031
O O21 0.406062 0.000000 0.433875
O O22 0.866155 0.500000 0.920560
O O23 0.000000 0.638321 0.945299
O O24 0.868171 0.712149 0.000000
#
# Coordination Sequence:
#
# PCOD8195966 Si02
#       8
#     8   8   8   8   8   8   8   8
#     4   9  19  37  60  85 114 148 182 215 259 318
#     4   9  18  31  47  70  98 126 157 197 252 314
#     4  10  21  37  54  71  97 136 176 212 256 312
#     4  10  19  33  52  72  96 126 164 212 257 297
#     4   9  19  35  52  70  94 127 169 215 258 301
#     4  11  21  33  54  84 113 142 181 229 272 308
#     4   8  15  29  49  76 112 149 180 212 257 314
#     4   9  18  32  50  74 103 132 161 194 239 302
#
# _framework density 18.811938000000001
#
# number of rings (size 3 to 8) (size 9 to 14) (size 15 to 20)
#    0.000    2.625    0.000    3.000    0.000    4.250 
#    0.000    3.125    0.000    4.875    0.000    4.375 
#    0.000    0.000    0.000    0.000    0.000    0.000 
#
# Total GULP energy -792977.559539 kJ/mol
# GULP energy per Si atom -12390.274368 kJ/mol
# Density = 1.876912 g / cm^3
# Si number density = 18.811938 Si / 1000 Ang^3
#
#
#
# Elastic Constant Matrix: (Units=GPa)
#
#
# Indices 1 2 3 4 5 6 
#
# 1 100.2808 39.1835 61.7428 0.0000 0.0000 0.0000
# 2 39.1835 59.4910 45.2935 0.0000 0.0000 0.0000
# 3 61.7428 45.2935 121.1926 0.0000 0.0000 0.0000
# 4 0.0000 0.0000 0.0000 27.5770 0.0000 0.0000
# 5 0.0000 0.0000 0.0000 0.0000 20.9587 0.0000
# 6 0.0000 0.0000 0.0000 0.0000 0.0000 24.9780
#
#
#
# Elastic Compliance Matrix: (Units=1/GPa)
#
#
# Indices 1 2 3 4 5 6 
#
# 1 0.015942 -0.006033 -0.005867 0.000000 0.000000 0.000000
# 2 -0.006033 0.025778 -0.006560 0.000000 0.000000 0.000000
# 3 -0.005867 -0.006560 0.013692 0.000000 0.000000 0.000000
# 4 0.000000 0.000000 0.000000 0.036262 0.000000 0.000000
# 5 0.000000 0.000000 0.000000 0.000000 0.047713 0.000000
# 6 0.000000 0.000000 0.000000 0.000000 0.000000 0.040035
#
#
# Mechanical properties :
#
#
# Convention : Reuss Voigt Hill
#
# Bulk Modulus (GPa) = 54.08104 63.71155 58.89629
# Shear Modulus (GPa) = 22.47138 23.68574 23.07856
#
# Velocity S-wave (km/s) = 3.45994 3.55220 3.50638
# Velocity P-wave (km/s) = 6.69121 7.12498 6.91150
#
# Compressibility (1/GPa) = 0.01849077
#
# Stress axis : x y z
#
# Youngs Moduli (GPa) = 62.72909 38.79334 73.03527
#
# Poissons Ratio (x) = 0.23405 0.42849
# Poissons Ratio (y) = 0.37845 0.47913
# Poissons Ratio (z) = 0.36802 0.25449
#
# Static dielectric constant tensor:
#      x y z
#    x 3.527750 0.000000 0.000000 
#    y 0.000000 3.300360 0.000000 
#    z 0.000000 0.000000 3.448350 
# 
# 
# High freq. dielectric constant tensor:
#      x y z
#    x 1.727240 0.000000 0.000000 
#    y 0.000000 1.717820 0.000000 
#    z 0.000000 0.000000 1.724960 
# 
# From -- ./inp_files/27059.got.cif
#   From: 2010.03.12/outbox.cif.g09.slc.cpg/sg47_14_cif.got.tgz:27059.got - 2010.04.14 03:12:58.
