data_PCOD8195957
_publ_section_title
;
Structure prediction by ZEFSAII (Michael W. Deem and Ramdas Pophale) SiO2 
 PCOD8195957
Probable space group: P M M M
;
_chemical_formula_sum "Si O2"
_cell_formula_units_Z 64
_cell_length_a 8.870701
_cell_length_b 23.803913
_cell_length_c 19.211998
_cell_angle_alpha 90.000000
_cell_angle_beta 90.000000
_cell_angle_gamma 90.000000
_cell_volume 4056.755448
_symmetry_space_group_name_H-M "P M M M"
_symmetry_group_IT_number 47
_symmetry_cell_setting 'orthorhombic'
loop_
_space_group_symop_operation_xyz
x,y,z
-x,-y,z
x,-y,-z
-x,y,-z
-x,-y,-z
x,y,-z
-x,y,z
x,-y,z
loop_
_atom_site_type_symbol
_atom_site_label
_atom_site_fract_x
_atom_site_fract_y
_atom_site_fract_z
Si Si1 0.175082 0.843347 0.698272
Si Si2 0.672632 0.935360 0.788548
Si Si3 0.179847 0.237185 0.925174
Si Si4 0.824799 0.890885 0.921693
Si Si5 0.819585 0.326984 0.647904
Si Si6 0.325164 0.222053 0.580006
Si Si7 0.174922 0.731559 0.218948
Si Si8 0.179121 0.561522 0.421741
O O1 0.236101 0.900532 0.731070
O O2 0.259218 0.828486 0.626463
O O3 0.204009 0.794267 0.753970
O O4 0.000000 0.850262 0.681051
O O5 0.500000 0.915883 0.786528
O O6 0.733100 0.927650 0.866854
O O7 0.690794 0.000000 0.767546
O O8 0.233032 0.173111 0.917547
O O9 0.245371 0.272849 0.859304
O O10 0.000000 0.238094 0.923745
O O11 0.237111 0.261596 0.000000
O O12 0.000000 0.894431 0.901510
O O13 0.797951 0.914224 0.000000
O O14 0.758196 0.280887 0.594491
O O15 0.757292 0.313270 0.725955
O O16 0.758386 0.388754 0.627330
O O17 0.000000 0.323363 0.645052
O O18 0.298957 0.205485 0.500000
O O19 0.500000 0.230016 0.597660
O O20 0.000000 0.718642 0.213164
O O21 0.239528 0.571162 0.500000
O O22 0.233464 0.500000 0.394537
O O23 0.000000 0.563417 0.422325
#
# Coordination Sequence:
#
# PCOD8195957 Si02
#       8
#     8   8   8   8   8   8   8   8
#     4  10  19  33  52  69  86 110 145 185 218 256
#     4  11  23  35  47  65  91 120 146 177 222 274
#     4   8  12  20  37  59  82 106 133 170 215 258
#     4   9  17  30  48  66  84 112 151 189 220 256
#     4   9  16  25  41  64  88 114 149 190 222 256
#     4  10  20  32  47  69  96 120 139 168 217 273
#     4   8  13  22  38  61  83 102 131 176 222 256
#     4   8  13  21  34  54  82 116 152 189 227 262
#
# _framework density 15.776154
#
# number of rings (size 3 to 8) (size 9 to 14) (size 15 to 20)
#    0.000    2.875    1.250    3.375    0.000    3.000 
#    0.000    1.250    0.000    0.750    0.000    4.375 
#    0.000    0.500    0.000    7.000    0.000    0.000 
#
# Total GULP energy -793042.314905 kJ/mol
# GULP energy per Si atom -12391.286170 kJ/mol
# Density = 1.574025 g / cm^3
# Si number density = 15.776154 Si / 1000 Ang^3
#
#
#
# Elastic Constant Matrix: (Units=GPa)
#
#
# Indices 1 2 3 4 5 6 
#
# 1 38.9578 24.6300 33.8842 0.0000 0.0000 0.0000
# 2 24.6300 85.4485 51.7786 0.0000 0.0000 0.0000
# 3 33.8842 51.7786 112.2150 0.0000 0.0000 0.0000
# 4 0.0000 0.0000 0.0000 25.2184 0.0000 0.0000
# 5 0.0000 0.0000 0.0000 0.0000 17.1252 0.0000
# 6 0.0000 0.0000 0.0000 0.0000 0.0000 8.8054
#
#
#
# Elastic Compliance Matrix: (Units=1/GPa)
#
#
# Indices 1 2 3 4 5 6 
#
# 1 0.036481 -0.005331 -0.008556 0.000000 0.000000 0.000000
# 2 -0.005331 0.017024 -0.006246 0.000000 0.000000 0.000000
# 3 -0.008556 -0.006246 0.014377 0.000000 0.000000 0.000000
# 4 0.000000 0.000000 0.000000 0.039654 0.000000 0.000000
# 5 0.000000 0.000000 0.000000 0.000000 0.058393 0.000000
# 6 0.000000 0.000000 0.000000 0.000000 0.000000 0.113566
#
#
# Mechanical properties :
#
#
# Convention : Reuss Voigt Hill
#
# Bulk Modulus (GPa) = 36.20949 50.80075 43.50512
# Shear Modulus (GPa) = 15.19916 18.65170 16.92543
#
# Velocity S-wave (km/s) = 3.10728 3.44215 3.27899
# Velocity P-wave (km/s) = 5.98961 6.93316 6.47859
#
# Compressibility (1/GPa) = 0.02761707
#
# Stress axis : x y z
#
# Youngs Moduli (GPa) = 27.41176 58.74010 69.55617
#
# Poissons Ratio (x) = 0.31313 0.59511
# Poissons Ratio (y) = 0.14613 0.43442
# Poissons Ratio (z) = 0.23453 0.36687
#
# Static dielectric constant tensor:
#      x y z
#    x 2.749210 0.000000 0.000000 
#    y 0.000000 2.959330 0.000000 
#    z 0.000000 0.000000 3.365980 
# 
# 
# High freq. dielectric constant tensor:
#      x y z
#    x 1.578530 0.000000 0.000000 
#    y 0.000000 1.573290 0.000000 
#    z 0.000000 0.000000 1.610570 
# 
# From -- ./inp_files/30218.got.cif
#   From: 2010.03.12/outbox.cif.g09.slc.cpg/sg47_16_cif.got.tgz:30218.got - 2010.04.14 03:12:58.
