data_PCOD8195245
_publ_section_title
;
Structure prediction by ZEFSAII (Michael W. Deem and Ramdas Pophale) SiO2 
 PCOD8195245
Probable space group: P M M M
;
_chemical_formula_sum "Si O2"
_cell_formula_units_Z 64
_cell_length_a 14.992309
_cell_length_b 24.289229
_cell_length_c 9.552624
_cell_angle_alpha 90.000000
_cell_angle_beta 90.000000
_cell_angle_gamma 90.000000
_cell_volume 3478.603567
_symmetry_space_group_name_H-M "P M M M"
_symmetry_group_IT_number 47
_symmetry_cell_setting 'orthorhombic'
loop_
_space_group_symop_operation_xyz
x,y,z
-x,-y,z
x,-y,-z
-x,y,-z
-x,-y,-z
x,y,-z
-x,y,z
x,-y,z
loop_
_atom_site_type_symbol
_atom_site_label
_atom_site_fract_x
_atom_site_fract_y
_atom_site_fract_z
Si Si1 0.258816 0.759907 0.660859
Si Si2 0.263592 0.632604 0.664711
Si Si3 0.602667 0.148294 0.661912
Si Si4 0.287552 0.063823 0.833955
Si Si5 0.905576 0.065227 0.156703
Si Si6 0.098560 0.369544 0.842582
Si Si7 0.097689 0.238925 0.843356
Si Si8 0.604262 0.563169 0.158484
O O1 0.232383 0.764631 0.500000
O O2 0.278057 0.696756 0.701298
O O3 0.345864 0.795298 0.698475
O O4 0.174478 0.784932 0.744094
O O5 0.258839 0.621695 0.500000
O O6 0.172589 0.608885 0.733887
O O7 0.346641 0.600780 0.729136
O O8 0.615816 0.132201 0.500000
O O9 0.500000 0.159069 0.698560
O O10 0.637295 0.098286 0.755619
O O11 0.189117 0.083853 0.775967
O O12 0.304291 0.000000 0.798230
O O13 0.294074 0.073653 0.000000
O O14 0.000000 0.083563 0.232521
O O15 0.901837 0.000000 0.149436
O O16 0.908899 0.089063 0.000000
O O17 0.096417 0.304235 0.836519
O O18 0.000000 0.392183 0.800970
O O19 0.122944 0.389198 0.000000
O O20 0.000000 0.216652 0.796205
O O21 0.118699 0.218774 0.000000
O O22 0.500000 0.571599 0.183092
O O23 0.631176 0.500000 0.184165
O O24 0.630071 0.580516 0.000000
#
# Coordination Sequence:
#
# PCOD8195245 Si02
#       8
#     8   8   8   8   8   8   8   8
#     4   9  19  34  50  71 100 134 169 203 243 292
#     4  10  19  30  50  79 105 131 165 207 254 299
#     4  10  22  39  54  67  91 130 170 206 246 293
#     4   9  18  33  54  79 102 123 154 200 248 291
#     4   7  10  20  42  71  99 124 148 176 219 279
#     4   8  14  26  45  69  99 136 173 205 240 287
#     4   8  14  26  46  72 100 129 162 201 242 285
#     4   9  19  36  55  74  99 132 168 206 250 302
#
# _framework density 18.398187
#
# number of rings (size 3 to 8) (size 9 to 14) (size 15 to 20)
#    0.000    3.250    0.000    2.625    0.000    3.250 
#    0.000    6.250    0.000    3.000    0.000    4.375 
#    0.000    0.000    0.000    0.000    0.000    0.000 
#
# Total GULP energy -792981.440649 kJ/mol
# GULP energy per Si atom -12390.335010 kJ/mol
# Density = 1.835631 g / cm^3
# Si number density = 18.398187 Si / 1000 Ang^3
#
#
#
# Elastic Constant Matrix: (Units=GPa)
#
#
# Indices 1 2 3 4 5 6 
#
# 1 154.6375 51.7118 73.0339 0.0000 0.0000 0.0000
# 2 51.7118 57.6448 44.0768 0.0000 0.0000 0.0000
# 3 73.0339 44.0768 84.8973 0.0000 0.0000 0.0000
# 4 0.0000 0.0000 0.0000 19.9845 0.0000 0.0000
# 5 0.0000 0.0000 0.0000 0.0000 30.9704 0.0000
# 6 0.0000 0.0000 0.0000 0.0000 0.0000 -14.2913
#
#
#
# Elastic Compliance Matrix: (Units=1/GPa)
#
#
# Indices 1 2 3 4 5 6 
#
# 1 0.011583 -0.004596 -0.007578 0.000000 0.000000 0.000000
# 2 -0.004596 0.030592 -0.011928 0.000000 0.000000 0.000000
# 3 -0.007578 -0.011928 0.024491 0.000000 0.000000 0.000000
# 4 0.000000 0.000000 0.000000 0.050039 0.000000 0.000000
# 5 0.000000 0.000000 0.000000 0.000000 0.032289 0.000000
# 6 0.000000 0.000000 0.000000 0.000000 0.000000 -0.069973
#
#
# Mechanical properties :
#
#
# Convention : Reuss Voigt Hill
#
# Bulk Modulus (GPa) = 54.17128 70.53607 62.35367
# Shear Modulus (GPa) = 37.48711 15.88986 26.68849
#
# Velocity S-wave (km/s) = 4.51881 2.94201 3.81281
# Velocity P-wave (km/s) = 7.53219 7.06841 7.30398
#
# Compressibility (1/GPa) = 0.01845997
#
# Stress axis : x y z
#
# Youngs Moduli (GPa) = 86.33522 32.68853 40.83155
#
# Poissons Ratio (x) = 0.15025 0.30942
# Poissons Ratio (y) = 0.39683 0.48706
# Poissons Ratio (z) = 0.65424 0.38992
#
# Static dielectric constant tensor:
#      x y z
#    x 3.760490 0.000000 0.000000 
#    y 0.000000 3.084280 0.000000 
#    z 0.000000 0.000000 3.249640 
# 
# 
# High freq. dielectric constant tensor:
#      x y z
#    x 1.726480 0.000000 0.000000 
#    y 0.000000 1.687670 0.000000 
#    z 0.000000 0.000000 1.690230 
# 
# From -- ./inp_files/7819.got.cif
#   From: 2010.03.12/outbox.cif.g09.slc.cpg/sg47_4_cif.got.tgz:7819.got - 2010.04.14 03:12:58.
