data_PCOD8195873
_publ_section_title
;
Structure prediction by ZEFSAII (Michael W. Deem and Ramdas Pophale) SiO2 
 PCOD8195873
Probable space group: P M M M
;
_chemical_formula_sum "Si O2"
_cell_formula_units_Z 60
_cell_length_a 20.425087
_cell_length_b 17.815788
_cell_length_c 8.646907
_cell_angle_alpha 90.000000
_cell_angle_beta 90.000000
_cell_angle_gamma 90.000000
_cell_volume 3146.514513
_symmetry_space_group_name_H-M "P M M M"
_symmetry_group_IT_number 47
_symmetry_cell_setting 'orthorhombic'
loop_
_space_group_symop_operation_xyz
x,y,z
-x,-y,z
x,-y,-z
-x,y,-z
-x,-y,-z
x,y,-z
-x,y,z
x,-y,z
loop_
_atom_site_type_symbol
_atom_site_label
_atom_site_fract_x
_atom_site_fract_y
_atom_site_fract_z
Si Si1 0.882872 0.334776 0.319564
Si Si2 0.621319 0.418475 0.178302
Si Si3 0.750427 0.659554 0.176337
Si Si4 0.000000 0.586929 0.828820
Si Si5 0.924369 0.178106 0.819209
Si Si6 0.696754 0.195495 0.678935
Si Si7 0.427068 0.260398 0.817340
Si Si8 0.810120 0.086813 0.680901
O O1 0.867566 0.338056 0.500000
O O2 0.821915 0.367328 0.223307
O O3 0.902385 0.250651 0.275227
O O4 0.939082 0.391294 0.274513
O O5 0.602268 0.500000 0.254579
O O6 0.699526 0.408480 0.197246
O O7 0.586129 0.344768 0.251938
O O8 0.601005 0.422600 0.000000
O O9 0.733378 0.726958 0.291291
O O10 0.748509 0.689250 0.000000
O O11 0.000000 0.500000 0.857080
O O12 0.000000 0.626652 0.000000
O O13 0.876081 0.110970 0.770173
O O14 0.000000 0.157309 0.779598
O O15 0.916337 0.194551 0.000000
O O16 0.683405 0.183016 0.500000
O O17 0.625002 0.198540 0.758746
O O18 0.744772 0.129811 0.741905
O O19 0.500000 0.234981 0.768176
O O20 0.418924 0.265145 0.000000
O O21 0.820643 0.103677 0.500000
O O22 0.798052 0.000000 0.715267
#
# Coordination Sequence:
#
# PCOD8195873 Si02
#       8
#     8   8   8   4   8   8   8   8
#     4  12  23  36  57  81 107 142 185 233 285 337
#     4   8  15  28  47  74 106 139 177 222 272 322
#     4  10  19  32  53  78 105 138 181 228 273 326
#     4  11  25  43  59  77 104 141 188 239 289 341
#     4  11  23  38  59  85 115 150 190 231 276 336
#     4  10  19  33  55  81 109 142 183 227 273 329
#     4   9  18  32  52  79 109 144 186 231 279 332
#     4  10  22  39  59  85 116 148 184 229 283 339
#
# _framework density 19.068719000000002
#
# number of rings (size 3 to 8) (size 9 to 14) (size 15 to 20)
#    0.000    1.933    2.000    3.400    0.000    3.467 
#    0.000    4.000    0.000   10.000    0.000    6.533 
#    0.000    0.000    0.000    0.000    0.000    0.000 
#
# Total GULP energy -743678.200572 kJ/mol
# GULP energy per Si atom -12394.636676 kJ/mol
# Density = 1.902532 g / cm^3
# Si number density = 19.068719 Si / 1000 Ang^3
#
#
#
# Elastic Constant Matrix: (Units=GPa)
#
#
# Indices 1 2 3 4 5 6 
#
# 1 142.2032 25.9154 32.4548 0.0000 0.0000 0.0000
# 2 25.9154 69.6966 19.7027 0.0000 0.0000 0.0000
# 3 32.4548 19.7027 46.6730 0.0000 0.0000 0.0000
# 4 0.0000 0.0000 0.0000 21.5448 0.0000 0.0000
# 5 0.0000 0.0000 0.0000 0.0000 26.5018 0.0000
# 6 0.0000 0.0000 0.0000 0.0000 0.0000 30.8197
#
#
#
# Elastic Compliance Matrix: (Units=1/GPa)
#
#
# Indices 1 2 3 4 5 6 
#
# 1 0.008532 -0.001698 -0.005216 0.000000 0.000000 0.000000
# 2 -0.001698 0.016630 -0.005840 0.000000 0.000000 0.000000
# 3 -0.005216 -0.005840 0.027518 0.000000 0.000000 0.000000
# 4 0.000000 0.000000 0.000000 0.046415 0.000000 0.000000
# 5 0.000000 0.000000 0.000000 0.000000 0.037733 0.000000
# 6 0.000000 0.000000 0.000000 0.000000 0.000000 0.032447
#
#
# Mechanical properties :
#
#
# Convention : Reuss Voigt Hill
#
# Bulk Modulus (GPa) = 36.80158 46.07983 41.44071
# Shear Modulus (GPa) = 24.52905 27.80659 26.16782
#
# Velocity S-wave (km/s) = 3.59046 3.82282 3.70846
# Velocity P-wave (km/s) = 6.04400 6.61082 6.33375
#
# Compressibility (1/GPa) = 0.02717274
#
# Stress axis : x y z
#
# Youngs Moduli (GPa) = 117.20444 60.13208 36.33995
#
# Poissons Ratio (x) = 0.10210 0.18955
# Poissons Ratio (y) = 0.19901 0.21221
# Poissons Ratio (z) = 0.61136 0.35115
#
# Static dielectric constant tensor:
#      x y z
#    x 3.824350 0.000000 0.000000 
#    y 0.000000 3.367590 0.000000 
#    z 0.000000 0.000000 3.419900 
# 
# 
# High freq. dielectric constant tensor:
#      x y z
#    x 1.752180 0.000000 0.000000 
#    y 0.000000 1.716250 0.000000 
#    z 0.000000 0.000000 1.728110 
# 
# From -- ./inp_files/11616.got.cif
#   From: 2010.03.12/outbox.cif.g09.slc.cpg/sg47_6_cif.got.tgz:11616.got - 2010.04.14 03:12:58.
