data_PCOD8195724
_publ_section_title
;
Structure prediction by ZEFSAII (Michael W. Deem and Ramdas Pophale) SiO2 
 PCOD8195724
Probable space group: P M M M
;
_chemical_formula_sum "Si O2"
_cell_formula_units_Z 48
_cell_length_a 16.363701
_cell_length_b 9.116048
_cell_length_c 18.561613
_cell_angle_alpha 90.000000
_cell_angle_beta 90.000000
_cell_angle_gamma 90.000000
_cell_volume 2768.878202
_symmetry_space_group_name_H-M "P M M M"
_symmetry_group_IT_number 47
_symmetry_cell_setting 'orthorhombic'
loop_
_space_group_symop_operation_xyz
x,y,z
-x,-y,z
x,-y,-z
-x,y,-z
-x,-y,-z
x,y,-z
-x,y,z
x,-y,z
loop_
_atom_site_type_symbol
_atom_site_label
_atom_site_fract_x
_atom_site_fract_y
_atom_site_fract_z
Si Si1 0.500000 0.674095 0.806707
Si Si2 0.227347 0.168809 0.292560
Si Si3 0.500000 0.673353 0.359243
Si Si4 0.343215 0.830916 0.582348
Si Si5 0.091662 0.672549 0.213477
Si Si6 0.200597 0.330938 0.918794
Si Si7 0.661933 0.171143 0.156902
O O1 0.500000 0.500000 0.814659
O O2 0.500000 0.724557 0.723543
O O3 0.578029 0.740368 0.846750
O O4 0.265263 0.214952 0.369400
O O5 0.145602 0.260916 0.277983
O O6 0.296083 0.203795 0.233387
O O7 0.201522 0.000000 0.290521
O O8 0.500000 0.500000 0.365763
O O9 0.579215 0.733154 0.399351
O O10 0.317464 0.805502 0.500000
O O11 0.366614 0.000000 0.597755
O O12 0.091046 0.500000 0.223935
O O13 0.128635 0.716863 0.135680
O O14 0.000000 0.736442 0.217734
O O15 0.225015 0.500000 0.905338
O O16 0.280077 0.231050 0.906362
O O17 0.168664 0.306189 0.000000
O O18 0.644895 0.000000 0.144842
#
# Coordination Sequence:
#
# PCOD8195724 Si02
#       7
#     4   8   4   8   8   8   8
#     4  11  21  32  49  72  98 131 170 210 249 290
#     4   9  18  32  50  72  97 128 166 205 247 293
#     4  11  22  32  47  73 105 135 166 209 252 294
#     4  10  20  34  51  71 100 137 173 208 248 295
#     4   9  18  32  52  78 103 128 161 199 241 294
#     4   9  18  33  52  74 103 134 160 194 244 298
#     4  10  19  32  51  72  96 129 169 211 248 287
#
# _framework density 17.335540000000002
#
# number of rings (size 3 to 8) (size 9 to 14) (size 15 to 20)
#    0.000    2.333    1.667    1.250    0.000    4.333 
#    0.000    2.083    0.000    3.000    0.000    8.167 
#    0.000    0.000    0.000    0.000    0.000    0.000 
#
# Total GULP energy -595306.174904 kJ/mol
# GULP energy per Si atom -12402.211977 kJ/mol
# Density = 1.729608 g / cm^3
# Si number density = 17.335540 Si / 1000 Ang^3
#
#
#
# Elastic Constant Matrix: (Units=GPa)
#
#
# Indices 1 2 3 4 5 6 
#
# 1 143.1216 48.8775 53.9151 0.0000 0.0000 0.0000
# 2 48.8775 56.0728 28.1564 0.0000 0.0000 0.0000
# 3 53.9151 28.1564 88.8646 0.0000 0.0000 0.0000
# 4 0.0000 0.0000 0.0000 23.7324 0.0000 0.0000
# 5 0.0000 0.0000 0.0000 0.0000 17.0338 0.0000
# 6 0.0000 0.0000 0.0000 0.0000 0.0000 27.4441
#
#
#
# Elastic Compliance Matrix: (Units=1/GPa)
#
#
# Indices 1 2 3 4 5 6 
#
# 1 0.011240 -0.007579 -0.004418 0.000000 0.000000 0.000000
# 2 -0.007579 0.026319 -0.003741 0.000000 0.000000 0.000000
# 3 -0.004418 -0.003741 0.015119 0.000000 0.000000 0.000000
# 4 0.000000 0.000000 0.000000 0.042136 0.000000 0.000000
# 5 0.000000 0.000000 0.000000 0.000000 0.058707 0.000000
# 6 0.000000 0.000000 0.000000 0.000000 0.000000 0.036438
#
#
# Mechanical properties :
#
#
# Convention : Reuss Voigt Hill
#
# Bulk Modulus (GPa) = 47.16551 61.10633 54.13592
# Shear Modulus (GPa) = 21.88180 24.11606 22.99893
#
# Velocity S-wave (km/s) = 3.55667 3.73384 3.64633
# Velocity P-wave (km/s) = 6.64327 7.34264 7.00169
#
# Compressibility (1/GPa) = 0.02120193
#
# Stress axis : x y z
#
# Youngs Moduli (GPa) = 88.97133 37.99571 66.14339
#
# Poissons Ratio (x) = 0.28797 0.29221
# Poissons Ratio (y) = 0.67431 0.24743
# Poissons Ratio (z) = 0.39306 0.14213
#
# Static dielectric constant tensor:
#      x y z
#    x 3.210710 0.000000 0.000000 
#    y 0.000000 3.217150 0.000000 
#    z 0.000000 0.000000 3.215320 
# 
# 
# High freq. dielectric constant tensor:
#      x y z
#    x 1.659800 0.000000 0.000000 
#    y 0.000000 1.670170 0.000000 
#    z 0.000000 0.000000 1.658040 
# 
# From -- ./inp_files/6485.got.cif
#   From: 2010.03.12/outbox.cif.g09.slc.cpg/sg47_4_cif.got.tgz:6485.got - 2010.04.14 03:12:58.
