data_PCOD8195426
_publ_section_title
;
Structure prediction by ZEFSAII (Michael W. Deem and Ramdas Pophale) SiO2 
 PCOD8195426
Probable space group: P M M M
;
_chemical_formula_sum "Si O2"
_cell_formula_units_Z 52
_cell_length_a 8.695690
_cell_length_b 11.835525
_cell_length_c 28.620491
_cell_angle_alpha 90.000000
_cell_angle_beta 90.000000
_cell_angle_gamma 90.000000
_cell_volume 2945.565307
_symmetry_space_group_name_H-M "P M M M"
_symmetry_group_IT_number 47
_symmetry_cell_setting 'orthorhombic'
loop_
_space_group_symop_operation_xyz
x,y,z
-x,-y,z
x,-y,-z
-x,y,-z
-x,-y,-z
x,y,-z
-x,y,z
x,-y,z
loop_
_atom_site_type_symbol
_atom_site_label
_atom_site_fract_x
_atom_site_fract_y
_atom_site_fract_z
Si Si1 0.677679 0.000000 0.856780
Si Si2 0.181618 0.782223 0.901711
Si Si3 0.827213 0.634394 0.450517
Si Si4 0.822924 0.247217 0.739278
Si Si5 0.817602 0.129055 0.000000
Si Si6 0.318553 0.371073 0.172624
Si Si7 0.826666 0.000000 0.763228
Si Si8 0.184036 0.627290 0.350802
O O1 0.766474 0.891583 0.874205
O O2 0.500000 0.000000 0.872096
O O3 0.692586 0.000000 0.801314
O O4 0.255347 0.672584 0.877341
O O5 0.000000 0.769555 0.898996
O O6 0.238531 0.799248 0.955128
O O7 0.743851 0.671204 0.500000
O O8 0.832032 0.500000 0.447570
O O9 0.750978 0.674913 0.401172
O O10 0.000000 0.681844 0.452906
O O11 0.738656 0.293052 0.785160
O O12 0.804219 0.112706 0.732708
O O13 0.750506 0.299595 0.692135
O O14 0.000000 0.283169 0.744657
O O15 0.000000 0.118060 0.000000
O O16 0.749759 0.000000 0.000000
O O17 0.500000 0.362707 0.170783
O O18 0.263002 0.500000 0.179896
O O19 0.000000 0.000000 0.785178
O O20 0.241484 0.500000 0.342111
O O21 0.000000 0.632136 0.352834
#
# Coordination Sequence:
#
# PCOD8195426 Si02
#       8
#     4   8   8   8   4   8   4   8
#     4  12  22  33  53  80 109 135 161 201 250 293
#     4  11  21  37  60  82 105 133 167 204 241 287
#     4   7   9  14  26  47  78 113 147 189 242 292
#     4  10  19  31  49  70  95 126 164 205 245 292
#     4   9  18  34  57  84 109 129 158 203 247 280
#     4  11  24  39  53  73 103 135 166 202 247 299
#     4  10  20  32  47  71  97 128 165 204 244 289
#     4   8  13  21  35  58  86 117 156 199 242 291
#
# _framework density 17.653656999999999
#
# number of rings (size 3 to 8) (size 9 to 14) (size 15 to 20)
#    0.000    2.385    2.308    3.462    0.000    1.846 
#    0.000    2.308    0.000    2.308    0.000    0.538 
#    0.000    4.923    0.000    5.692    0.000    7.385 
#
# Total GULP energy -644180.010333 kJ/mol
# GULP energy per Si atom -12388.077122 kJ/mol
# Density = 1.761348 g / cm^3
# Si number density = 17.653657 Si / 1000 Ang^3
#
#
#
# Elastic Constant Matrix: (Units=GPa)
#
#
# Indices 1 2 3 4 5 6 
#
# 1 31.5339 22.4107 20.8293 0.0000 0.0000 0.0000
# 2 22.4107 99.0250 59.8474 0.0000 0.0000 0.0000
# 3 20.8293 59.8474 167.5971 0.0000 0.0000 0.0000
# 4 0.0000 0.0000 0.0000 21.2010 0.0000 0.0000
# 5 0.0000 0.0000 0.0000 0.0000 0.5555 0.0000
# 6 0.0000 0.0000 0.0000 0.0000 0.0000 17.0495
#
#
#
# Elastic Compliance Matrix: (Units=1/GPa)
#
#
# Indices 1 2 3 4 5 6 
#
# 1 0.038376 -0.007399 -0.002127 0.000000 0.000000 0.000000
# 2 -0.007399 0.014304 -0.004188 0.000000 0.000000 0.000000
# 3 -0.002127 -0.004188 0.007727 0.000000 0.000000 0.000000
# 4 0.000000 0.000000 0.000000 0.047168 0.000000 0.000000
# 5 0.000000 0.000000 0.000000 0.000000 1.800243 0.000000
# 6 0.000000 0.000000 0.000000 0.000000 0.000000 0.058653
#
#
# Mechanical properties :
#
#
# Convention : Reuss Voigt Hill
#
# Bulk Modulus (GPa) = 30.32424 56.03675 43.18049
# Shear Modulus (GPa) = 2.49390 20.76576 11.62983
#
# Velocity S-wave (km/s) = 1.18985 3.43342 2.56945
# Velocity P-wave (km/s) = 4.37061 6.89413 5.77197
#
# Compressibility (1/GPa) = 0.03297692
#
# Stress axis : x y z
#
# Youngs Moduli (GPa) = 26.05826 69.90893 129.42167
#
# Poissons Ratio (x) = 0.51728 0.27530
# Poissons Ratio (y) = 0.19281 0.54206
# Poissons Ratio (z) = 0.05543 0.29280
#
# Static dielectric constant tensor:
#      x y z
#    x 2.914280 0.000000 0.000000 
#    y 0.000000 3.251070 0.000000 
#    z 0.000000 0.000000 3.870790 
# 
# 
# High freq. dielectric constant tensor:
#      x y z
#    x 1.643690 0.000000 0.000000 
#    y 0.000000 1.654500 0.000000 
#    z 0.000000 0.000000 1.697270 
# 
# From -- ./inp_files/34348.got.cif
#   From: 2010.03.12/outbox.cif.g09.slc.cpg/sg47_18_cif.got.tgz:34348.got - 2010.04.14 03:12:58.
