data_PCOD8195377
_publ_section_title
;
Structure prediction by ZEFSAII (Michael W. Deem and Ramdas Pophale) SiO2 
 PCOD8195377
Probable space group: P M M M
;
_chemical_formula_sum "Si O2"
_cell_formula_units_Z 56
_cell_length_a 9.655536
_cell_length_b 25.648141
_cell_length_c 14.159968
_cell_angle_alpha 90.000000
_cell_angle_beta 90.000000
_cell_angle_gamma 90.000000
_cell_volume 3506.667206
_symmetry_space_group_name_H-M "P M M M"
_symmetry_group_IT_number 47
_symmetry_cell_setting 'orthorhombic'
loop_
_space_group_symop_operation_xyz
x,y,z
-x,-y,z
x,-y,-z
-x,y,-z
-x,-y,-z
x,y,-z
-x,y,z
x,-y,z
loop_
_atom_site_type_symbol
_atom_site_label
_atom_site_fract_x
_atom_site_fract_y
_atom_site_fract_z
Si Si1 0.660069 0.150990 0.890543
Si Si2 0.659204 0.646020 0.109024
Si Si3 0.155793 0.057498 0.112228
Si Si4 0.837958 0.440730 0.201794
Si Si5 0.163775 0.399930 0.601744
Si Si6 0.840058 0.280959 0.607075
Si Si7 0.662263 0.747679 0.225568
O O1 0.500000 0.138128 0.875287
O O2 0.743731 0.102074 0.847018
O O3 0.705030 0.203199 0.837428
O O4 0.695330 0.159942 0.000000
O O5 0.500000 0.631592 0.130477
O O6 0.753379 0.596317 0.132389
O O7 0.707161 0.695537 0.170123
O O8 0.679407 0.660901 0.000000
O O9 0.000000 0.069604 0.146261
O O10 0.201636 0.000000 0.149014
O O11 0.163439 0.057673 0.000000
O O12 0.811372 0.500000 0.170317
O O13 0.783597 0.434017 0.309925
O O14 0.000000 0.426199 0.194682
O O15 0.223194 0.420328 0.500000
O O16 0.210375 0.340507 0.616865
O O17 0.000000 0.402564 0.595913
O O18 0.817990 0.261163 0.500000
O O19 0.745634 0.247045 0.676759
O O20 0.000000 0.275259 0.636828
O O21 0.500000 0.747384 0.247995
#
# Coordination Sequence:
#
# PCOD8195377 Si02
#       7
#     8   8   8   8   8   8   8
#     4   9  17  28  42  63  92 124 158 194 228 262
#     4  10  21  36  51  65  85 118 154 184 221 269
#     4   8  14  25  40  59  87 123 160 195 228 262
#     4  10  20  33  50  71  91 111 142 185 226 266
#     4   8  14  27  47  69  91 112 135 168 215 270
#     4   9  17  30  49  70  91 116 145 178 219 271
#     4  10  19  31  48  69  92 118 150 189 227 264
#
# _framework density 15.969579
#
# number of rings (size 3 to 8) (size 9 to 14) (size 15 to 20)
#    0.000    2.857    1.429    1.714    0.000    4.000 
#    0.000    4.286    0.000    3.000    0.000    1.000 
#    0.000    0.571    0.000    6.286    0.000    4.857 
#
# Total GULP energy -694175.570233 kJ/mol
# GULP energy per Si atom -12395.992326 kJ/mol
# Density = 1.593323 g / cm^3
# Si number density = 15.969579 Si / 1000 Ang^3
#
#
#
# Elastic Constant Matrix: (Units=GPa)
#
#
# Indices 1 2 3 4 5 6 
#
# 1 56.0549 53.2298 36.8909 0.0000 0.0000 0.0000
# 2 53.2298 104.8222 38.0718 0.0000 0.0000 0.0000
# 3 36.8909 38.0718 69.5453 0.0000 0.0000 0.0000
# 4 0.0000 0.0000 0.0000 88.9631 0.0000 0.0000
# 5 0.0000 0.0000 0.0000 0.0000 24.2072 0.0000
# 6 0.0000 0.0000 0.0000 0.0000 0.0000 27.1486
#
#
#
# Elastic Compliance Matrix: (Units=1/GPa)
#
#
# Indices 1 2 3 4 5 6 
#
# 1 0.042569 -0.016745 -0.013414 0.000000 0.000000 0.000000
# 2 -0.016745 0.018494 -0.001242 0.000000 0.000000 0.000000
# 3 -0.013414 -0.001242 0.022175 0.000000 0.000000 0.000000
# 4 0.000000 0.000000 0.000000 0.011241 0.000000 0.000000
# 5 0.000000 0.000000 0.000000 0.000000 0.041310 0.000000
# 6 0.000000 0.000000 0.000000 0.000000 0.000000 0.036834
#
#
# Mechanical properties :
#
#
# Convention : Reuss Voigt Hill
#
# Bulk Modulus (GPa) = 48.93411 54.08972 51.51192
# Shear Modulus (GPa) = 20.64100 34.87910 27.76005
#
# Velocity S-wave (km/s) = 3.59906 4.67850 4.17383
# Velocity P-wave (km/s) = 6.92673 7.94535 7.45346
#
# Compressibility (1/GPa) = 0.02043564
#
# Stress axis : x y z
#
# Youngs Moduli (GPa) = 23.49151 54.07090 45.09638
#
# Poissons Ratio (x) = 0.90540 0.60493
# Poissons Ratio (y) = 0.39336 0.05601
# Poissons Ratio (z) = 0.31512 0.06716
#
# Static dielectric constant tensor:
#      x y z
#    x 2.905800 0.000000 0.000000 
#    y 0.000000 3.069030 0.000000 
#    z 0.000000 0.000000 3.378750 
# 
# 
# High freq. dielectric constant tensor:
#      x y z
#    x 1.598930 0.000000 0.000000 
#    y 0.000000 1.601200 0.000000 
#    z 0.000000 0.000000 1.595770 
# 
# From -- ./inp_files/16530.got.cif
#   From: 2010.03.12/outbox.cif.g09.slc.cpg/sg47_9_cif.got.tgz:16530.got - 2010.04.14 03:12:58.
