data_PCOD8195511
_publ_section_title
;
Structure prediction by ZEFSAII (Michael W. Deem and Ramdas Pophale) SiO2 
 PCOD8195511
Probable space group: P M M M
;
_chemical_formula_sum "Si O2"
_cell_formula_units_Z 52
_cell_length_a 15.705216
_cell_length_b 20.403045
_cell_length_c 9.127308
_cell_angle_alpha 90.000000
_cell_angle_beta 90.000000
_cell_angle_gamma 90.000000
_cell_volume 2924.701900
_symmetry_space_group_name_H-M "P M M M"
_symmetry_group_IT_number 47
_symmetry_cell_setting 'orthorhombic'
loop_
_space_group_symop_operation_xyz
x,y,z
-x,-y,z
x,-y,-z
-x,y,-z
-x,-y,-z
x,y,-z
-x,y,z
x,-y,z
loop_
_atom_site_type_symbol
_atom_site_label
_atom_site_fract_x
_atom_site_fract_y
_atom_site_fract_z
Si Si1 0.399699 0.071307 0.337196
Si Si2 0.904513 0.704162 0.672005
Si Si3 0.311965 0.182391 0.162551
Si Si4 0.405227 0.426317 0.173926
Si Si5 0.262948 0.325565 0.175450
Si Si6 0.000000 0.923264 0.336078
Si Si7 0.878461 0.161040 0.834388
O O1 0.361221 0.077471 0.500000
O O2 0.500000 0.071744 0.343864
O O3 0.374134 0.135820 0.250261
O O4 0.370153 0.000000 0.270577
O O5 0.883950 0.709262 0.500000
O O6 0.829573 0.661425 0.749905
O O7 0.904762 0.775440 0.743356
O O8 0.000000 0.673629 0.695746
O O9 0.301263 0.255674 0.228098
O O10 0.221168 0.147520 0.162288
O O11 0.350120 0.188612 0.000000
O O12 0.500000 0.403978 0.227809
O O13 0.386803 0.500000 0.230051
O O14 0.330351 0.379441 0.233214
O O15 0.403899 0.424481 0.000000
O O16 0.249761 0.326217 0.000000
O O17 0.917221 0.901217 0.246827
O O18 0.000000 0.893086 0.500000
O O19 0.000000 0.000000 0.345183
O O20 0.913383 0.168684 0.000000
#
# Coordination Sequence:
#
# PCOD8195511 Si02
#       7
#     8   8   8   8   8   4   8
#     4   9  19  35  51  66  87 120 162 203 245 296
#     4  10  19  31  50  73  98 129 167 209 253 304
#     4   9  19  32  47  72  99 123 155 199 252 300
#     4   8  14  27  50  79 109 141 175 211 253 302
#     4   9  18  31  49  77 107 133 167 210 255 303
#     4  11  23  35  47  67  95 127 164 203 246 301
#     4  10  20  34  51  69  93 124 159 203 252 300
#
# _framework density 17.779589000000001
#
# number of rings (size 3 to 8) (size 9 to 14) (size 15 to 20)
#    0.000    2.692    0.769    3.000    0.000    6.462 
#    0.000    5.385    0.000    1.385    0.000    4.308 
#    0.000    0.000    0.000    0.000    0.000    0.000 
#
# Total GULP energy -644301.327826 kJ/mol
# GULP energy per Si atom -12390.410150 kJ/mol
# Density = 1.773912 g / cm^3
# Si number density = 17.779589 Si / 1000 Ang^3
#
#
#
# Elastic Constant Matrix: (Units=GPa)
#
#
# Indices 1 2 3 4 5 6 
#
# 1 99.5734 59.0210 40.1748 0.0000 0.0000 0.0000
# 2 59.0210 87.7833 34.6957 0.0000 0.0000 0.0000
# 3 40.1748 34.6957 74.7285 0.0000 0.0000 0.0000
# 4 0.0000 0.0000 0.0000 11.2653 0.0000 0.0000
# 5 0.0000 0.0000 0.0000 0.0000 25.9935 0.0000
# 6 0.0000 0.0000 0.0000 0.0000 0.0000 31.8359
#
#
#
# Elastic Compliance Matrix: (Units=1/GPa)
#
#
# Indices 1 2 3 4 5 6 
#
# 1 0.018103 -0.010196 -0.004999 0.000000 0.000000 0.000000
# 2 -0.010196 0.019695 -0.003663 0.000000 0.000000 0.000000
# 3 -0.004999 -0.003663 0.017770 0.000000 0.000000 0.000000
# 4 0.000000 0.000000 0.000000 0.088768 0.000000 0.000000
# 5 0.000000 0.000000 0.000000 0.000000 0.038471 0.000000
# 6 0.000000 0.000000 0.000000 0.000000 0.000000 0.031411
#
#
# Mechanical properties :
#
#
# Convention : Reuss Voigt Hill
#
# Bulk Modulus (GPa) = 56.01265 58.87425 57.44345
# Shear Modulus (GPa) = 19.38866 22.36519 20.87693
#
# Velocity S-wave (km/s) = 3.30586 3.55056 3.43039
# Velocity P-wave (km/s) = 6.79293 7.07063 6.93317
#
# Compressibility (1/GPa) = 0.01785311
#
# Stress axis : x y z
#
# Youngs Moduli (GPa) = 55.23894 50.77548 56.27618
#
# Poissons Ratio (x) = 0.51771 0.28130
# Poissons Ratio (y) = 0.56322 0.20611
# Poissons Ratio (z) = 0.27611 0.18597
#
# Static dielectric constant tensor:
#      x y z
#    x 3.510620 0.000000 0.000000 
#    y 0.000000 3.215670 0.000000 
#    z 0.000000 0.000000 3.304430 
# 
# 
# High freq. dielectric constant tensor:
#      x y z
#    x 1.693000 0.000000 0.000000 
#    y 0.000000 1.664350 0.000000 
#    z 0.000000 0.000000 1.673520 
# 
# From -- ./inp_files/7066.got.cif
#   From: 2010.03.12/outbox.cif.g09.slc.cpg/sg47_4_cif.got.tgz:7066.got - 2010.04.14 03:12:58.
