data_PCOD8195860
_publ_section_title
;
Structure prediction by ZEFSAII (Michael W. Deem and Ramdas Pophale) SiO2 
 PCOD8195860
Probable space group: P M M M
;
_chemical_formula_sum "Si O2"
_cell_formula_units_Z 52
_cell_length_a 9.663604
_cell_length_b 20.817585
_cell_length_c 14.666108
_cell_angle_alpha 90.000000
_cell_angle_beta 90.000000
_cell_angle_gamma 90.000000
_cell_volume 2950.423444
_symmetry_space_group_name_H-M "P M M M"
_symmetry_group_IT_number 47
_symmetry_cell_setting 'orthorhombic'
loop_
_space_group_symop_operation_xyz
x,y,z
-x,-y,z
x,-y,-z
-x,y,-z
-x,-y,-z
x,y,-z
-x,y,z
x,-y,z
loop_
_atom_site_type_symbol
_atom_site_label
_atom_site_fract_x
_atom_site_fract_y
_atom_site_fract_z
Si Si1 0.152667 0.924051 0.000000
Si Si2 0.157749 0.259022 0.602400
Si Si3 0.661949 0.569371 0.205952
Si Si4 0.345947 0.927872 0.160391
Si Si5 0.343589 0.201224 0.747861
Si Si6 0.342609 0.382969 0.399758
Si Si7 0.336170 0.694952 0.896695
O O1 0.236305 0.901798 0.912119
O O2 0.000000 0.892666 0.000000
O O3 0.142430 0.000000 0.000000
O O4 0.162118 0.231599 0.500000
O O5 0.237459 0.209479 0.665979
O O6 0.234482 0.326197 0.608660
O O7 0.000000 0.267743 0.635666
O O8 0.500000 0.570729 0.187044
O O9 0.721841 0.500000 0.171845
O O10 0.690400 0.570745 0.315085
O O11 0.726611 0.630214 0.151403
O O12 0.500000 0.928456 0.116575
O O13 0.339864 0.875486 0.239468
O O14 0.309620 0.000000 0.196240
O O15 0.500000 0.222879 0.721829
O O16 0.294854 0.242760 0.836330
O O17 0.325102 0.416668 0.500000
O O18 0.500000 0.356472 0.390360
O O19 0.500000 0.689634 0.902132
O O20 0.275998 0.701712 0.000000
#
# Coordination Sequence:
#
# PCOD8195860 Si02
#       7
#     4   8   8   8   8   8   8
#     4   9  17  29  45  67  99 137 172 203 240 292
#     4  10  20  33  51  75 101 127 158 201 251 299
#     4   9  16  26  42  67  98 129 162 200 243 289
#     4   9  18  31  48  72 101 132 167 207 252 300
#     4  10  19  32  53  75  98 130 165 203 247 295
#     4   9  16  28  47  70  97 126 158 199 248 300
#     4   9  17  28  43  67  98 128 162 203 243 282
#
# _framework density 17.624589
#
# number of rings (size 3 to 8) (size 9 to 14) (size 15 to 20)
#    0.000    2.692    1.538    0.692    1.077    3.077 
#    0.000    3.077    0.000    0.923    0.000    5.385 
#    0.000    1.231    0.000    0.000    0.000    0.000 
#
# Total GULP energy -644180.505442 kJ/mol
# GULP energy per Si atom -12388.086643 kJ/mol
# Density = 1.758447 g / cm^3
# Si number density = 17.624589 Si / 1000 Ang^3
#
#
#
# Elastic Constant Matrix: (Units=GPa)
#
#
# Indices 1 2 3 4 5 6 
#
# 1 81.6693 23.7989 33.9566 0.0000 0.0000 0.0000
# 2 23.7989 101.6066 39.6387 0.0000 0.0000 0.0000
# 3 33.9566 39.6387 86.0490 0.0000 0.0000 0.0000
# 4 0.0000 0.0000 0.0000 16.2099 0.0000 0.0000
# 5 0.0000 0.0000 0.0000 0.0000 21.8310 0.0000
# 6 0.0000 0.0000 0.0000 0.0000 0.0000 5.9949
#
#
#
# Elastic Compliance Matrix: (Units=1/GPa)
#
#
# Indices 1 2 3 4 5 6 
#
# 1 0.014821 -0.001450 -0.005181 0.000000 0.000000 0.000000
# 2 -0.001450 0.012140 -0.005020 0.000000 0.000000 0.000000
# 3 -0.005181 -0.005020 0.015978 0.000000 0.000000 0.000000
# 4 0.000000 0.000000 0.000000 0.061691 0.000000 0.000000
# 5 0.000000 0.000000 0.000000 0.000000 0.045806 0.000000
# 6 0.000000 0.000000 0.000000 0.000000 0.000000 0.166808
#
#
# Mechanical properties :
#
#
# Convention : Reuss Voigt Hill
#
# Bulk Modulus (GPa) = 50.92348 51.56815 51.24581
# Shear Modulus (GPa) = 14.40538 20.26920 17.33729
#
# Velocity S-wave (km/s) = 2.86203 3.39492 3.13980
# Velocity P-wave (km/s) = 6.31488 6.68506 6.50261
#
# Compressibility (1/GPa) = 0.01963731
#
# Stress axis : x y z
#
# Youngs Moduli (GPa) = 67.47111 82.37234 62.58571
#
# Poissons Ratio (x) = 0.11948 0.32423
# Poissons Ratio (y) = 0.09786 0.31418
# Poissons Ratio (z) = 0.34954 0.41350
#
# Static dielectric constant tensor:
#      x y z
#    x 3.199170 0.000000 0.000000 
#    y 0.000000 3.252760 0.000000 
#    z 0.000000 0.000000 3.442700 
# 
# 
# High freq. dielectric constant tensor:
#      x y z
#    x 1.646140 0.000000 0.000000 
#    y 0.000000 1.671650 0.000000 
#    z 0.000000 0.000000 1.672050 
# 
# From -- ./inp_files/21437.got.cif
#   From: 2010.03.12/outbox.cif.g09.slc.cpg/sg47_11_cif.got.tgz:21437.got - 2010.04.14 03:12:58.
