data_PCOD8195963
_publ_section_title
;
Structure prediction by ZEFSAII (Michael W. Deem and Ramdas Pophale) SiO2 
 PCOD8195963
Probable space group: P M M M
;
_chemical_formula_sum "Si O2"
_cell_formula_units_Z 60
_cell_length_a 20.376143
_cell_length_b 9.726723
_cell_length_c 17.153073
_cell_angle_alpha 90.000000
_cell_angle_beta 90.000000
_cell_angle_gamma 90.000000
_cell_volume 3399.620691
_symmetry_space_group_name_H-M "P M M M"
_symmetry_group_IT_number 47
_symmetry_cell_setting 'orthorhombic'
loop_
_space_group_symop_operation_xyz
x,y,z
-x,-y,z
x,-y,-z
-x,y,-z
-x,-y,-z
x,y,-z
-x,y,z
x,-y,z
loop_
_atom_site_type_symbol
_atom_site_label
_atom_site_fract_x
_atom_site_fract_y
_atom_site_fract_z
Si Si1 0.232787 0.848704 0.637347
Si Si2 0.573787 0.162960 0.806958
Si Si3 0.874661 0.658207 0.585116
Si Si4 0.615179 0.843648 0.365085
Si Si5 0.426301 0.351610 0.500000
Si Si6 0.812653 0.841564 0.809155
Si Si7 0.074365 0.339959 0.750910
Si Si8 0.307777 0.163757 0.088216
O O1 0.193382 0.740071 0.586163
O O2 0.308236 0.836267 0.617738
O O3 0.225350 0.822425 0.728780
O O4 0.206015 0.000000 0.615686
O O5 0.500000 0.219329 0.825254
O O6 0.595955 0.207334 0.720881
O O7 0.627872 0.223440 0.867320
O O8 0.573557 0.000000 0.813734
O O9 0.908989 0.684989 0.500000
O O10 0.855879 0.500000 0.593352
O O11 0.919233 0.702549 0.659007
O O12 0.583921 0.738094 0.423666
O O13 0.589725 0.000000 0.378540
O O14 0.387155 0.500000 0.500000
O O15 0.500000 0.396675 0.500000
O O16 0.878440 0.748850 0.806954
O O17 0.761362 0.787199 0.874152
O O18 0.833218 0.000000 0.824168
O O19 0.091689 0.500000 0.762117
O O20 0.000000 0.308735 0.776285
O O21 0.309549 0.000000 0.092638
O O22 0.310170 0.218465 0.000000
#
# Coordination Sequence:
#
# PCOD8195963 Si02
#       8
#     8   8   8   8   4   8   8   8
#     4   9  17  29  46  66  90 121 159 199 238 281
#     4   9  16  27  46  72 101 133 169 206 245 297
#     4   9  18  30  44  66  96 125 156 195 243 295
#     4  10  19  33  52  71  92 126 170 210 249 298
#     4  11  25  39  47  63  93 125 162 213 266 305
#     4   9  16  30  50  72  99 128 160 197 236 285
#     4   9  18  32  50  72  97 127 164 203 243 291
#     4   9  16  27  46  74 106 135 163 200 249 299
#
# _framework density 17.649028999999999
#
# number of rings (size 3 to 8) (size 9 to 14) (size 15 to 20)
#    0.000    2.733    1.333    0.600    0.933    2.667 
#    0.000    2.667    0.000    0.800    0.000    6.533 
#    0.000    0.000    0.000    4.000    0.000    4.000 
#
# Total GULP energy -743543.566891 kJ/mol
# GULP energy per Si atom -12392.392782 kJ/mol
# Density = 1.760886 g / cm^3
# Si number density = 17.649029 Si / 1000 Ang^3
#
#
#
# Elastic Constant Matrix: (Units=GPa)
#
#
# Indices 1 2 3 4 5 6 
#
# 1 108.2917 39.4623 51.7638 0.0000 0.0000 0.0000
# 2 39.4623 54.4298 36.4367 0.0000 0.0000 0.0000
# 3 51.7638 36.4367 105.8846 0.0000 0.0000 0.0000
# 4 0.0000 0.0000 0.0000 10.3647 0.0000 0.0000
# 5 0.0000 0.0000 0.0000 0.0000 -1.9336 0.0000
# 6 0.0000 0.0000 0.0000 0.0000 0.0000 17.4778
#
#
#
# Elastic Compliance Matrix: (Units=1/GPa)
#
#
# Indices 1 2 3 4 5 6 
#
# 1 0.013928 -0.007198 -0.004332 0.000000 0.000000 0.000000
# 2 -0.007198 0.027591 -0.005976 0.000000 0.000000 0.000000
# 3 -0.004332 -0.005976 0.013618 0.000000 0.000000 0.000000
# 4 0.000000 0.000000 0.000000 0.096481 0.000000 0.000000
# 5 0.000000 0.000000 0.000000 0.000000 -0.517183 0.000000
# 6 0.000000 0.000000 0.000000 0.000000 0.000000 0.057215
#
#
# Mechanical properties :
#
#
# Convention : Reuss Voigt Hill
#
# Bulk Modulus (GPa) = 49.68669 58.21463 53.95066
# Shear Modulus (GPa) = -18.75267 14.57803 -2.08732
#
# Velocity S-wave (km/s) = -3.26319 2.87713 -1.08869
# Velocity P-wave (km/s) = 3.74378 6.64029 5.39024
#
# Compressibility (1/GPa) = 0.02012611
#
# Stress axis : x y z
#
# Youngs Moduli (GPa) = 71.79747 36.24342 73.43015
#
# Poissons Ratio (x) = 0.26088 0.31810
# Poissons Ratio (y) = 0.51680 0.43880
# Poissons Ratio (z) = 0.31103 0.21658
#
# Static dielectric constant tensor:
#      x y z
#    x 3.335050 0.000000 0.000000 
#    y 0.000000 3.065000 0.000000 
#    z 0.000000 0.000000 3.347670 
# 
# 
# High freq. dielectric constant tensor:
#      x y z
#    x 1.680810 0.000000 0.000000 
#    y 0.000000 1.649400 0.000000 
#    z 0.000000 0.000000 1.671070 
# 
# From -- ./inp_files/28776.got.cif
#   From: 2010.03.12/outbox.cif.g09.slc.cpg/sg47_15_cif.got.tgz:28776.got - 2010.04.14 03:12:58.
