data_PCOD8195100
_publ_section_title
;
Structure prediction by ZEFSAII (Michael W. Deem and Ramdas Pophale) SiO2 
 PCOD8195100
Probable space group: P M M M
;
_chemical_formula_sum "Si O2"
_cell_formula_units_Z 52
_cell_length_a 12.909798
_cell_length_b 31.491868
_cell_length_c 8.175538
_cell_angle_alpha 90.000000
_cell_angle_beta 90.000000
_cell_angle_gamma 90.000000
_cell_volume 3323.794852
_symmetry_space_group_name_H-M "P M M M"
_symmetry_group_IT_number 47
_symmetry_cell_setting 'orthorhombic'
loop_
_space_group_symop_operation_xyz
x,y,z
-x,-y,z
x,-y,-z
-x,y,-z
-x,-y,-z
x,y,-z
-x,y,z
x,-y,z
loop_
_atom_site_type_symbol
_atom_site_label
_atom_site_fract_x
_atom_site_fract_y
_atom_site_fract_z
Si Si1 0.617485 0.087270 0.308881
Si Si2 0.877779 0.450620 0.000000
Si Si3 0.382633 0.825771 0.810058
Si Si4 0.619494 0.650796 0.812600
Si Si5 0.387420 0.500000 0.308410
Si Si6 0.617345 0.000000 0.808219
Si Si7 0.621527 0.739073 0.683871
Si Si8 0.246182 0.422592 0.308705
O O1 0.621049 0.091918 0.500000
O O2 0.500000 0.085220 0.239641
O O3 0.673323 0.129465 0.235125
O O4 0.673577 0.043165 0.255467
O O5 0.842477 0.426975 0.169255
O O6 0.841864 0.500000 0.000000
O O7 0.000000 0.447386 0.000000
O O8 0.500000 0.829244 0.741701
O O9 0.326265 0.784326 0.732090
O O10 0.380520 0.817990 0.000000
O O11 0.500000 0.646320 0.751848
O O12 0.658075 0.699542 0.794631
O O13 0.694724 0.622165 0.702526
O O14 0.629631 0.636726 0.000000
O O15 0.500000 0.500000 0.221949
O O16 0.402277 0.500000 0.500000
O O17 0.327371 0.458232 0.254454
O O18 0.500000 0.000000 0.737816
O O19 0.620223 0.000000 0.000000
O O20 0.651758 0.727492 0.500000
O O21 0.500000 0.745278 0.709897
O O22 0.206909 0.428280 0.500000
#
# Coordination Sequence:
#
# PCOD8195100 Si02
#       8
#     8   4   8   8   4   4   8   8
#     4   9  15  21  28  37  49  68  96 135 183 234
#     4  11  24  42  60  78  98 120 154 196 234 267
#     4   9  15  22  31  42  58  82 114 150 187 230
#     4  10  19  30  46  69  97 126 152 178 212 258
#     4   9  18  31  49  74 103 131 156 182 212 254
#     4   9  15  21  27  35  47  63  89 129 181 237
#     4   9  16  25  36  52  75 104 135 164 195 236
#     4  11  21  36  55  76 100 126 156 186 222 265
#
# _framework density 15.644767999999999
#
# number of rings (size 3 to 8) (size 9 to 14) (size 15 to 20)
#    0.000    2.385    1.538    2.538    0.000    8.308 
#    0.000    1.154    0.000    0.000    0.000    0.000 
#    0.000    0.000    0.000    0.000    0.000    0.000 
#
# Total GULP energy -644255.632415 kJ/mol
# GULP energy per Si atom -12389.531393 kJ/mol
# Density = 1.560916 g / cm^3
# Si number density = 15.644768 Si / 1000 Ang^3
#
#
#
# Elastic Constant Matrix: (Units=GPa)
#
#
# Indices 1 2 3 4 5 6 
#
# 1 27.8420 18.6843 16.0951 0.0000 0.0000 0.0000
# 2 18.6843 130.3312 30.0111 0.0000 0.0000 0.0000
# 3 16.0951 30.0111 69.0339 0.0000 0.0000 0.0000
# 4 0.0000 0.0000 0.0000 30.9249 0.0000 0.0000
# 5 0.0000 0.0000 0.0000 0.0000 9.9689 0.0000
# 6 0.0000 0.0000 0.0000 0.0000 0.0000 2.4076
#
#
#
# Elastic Compliance Matrix: (Units=1/GPa)
#
#
# Indices 1 2 3 4 5 6 
#
# 1 0.043621 -0.004347 -0.008280 0.000000 0.000000 0.000000
# 2 -0.004347 0.008959 -0.002881 0.000000 0.000000 0.000000
# 3 -0.008280 -0.002881 0.017669 0.000000 0.000000 0.000000
# 4 0.000000 0.000000 0.000000 0.032336 0.000000 0.000000
# 5 0.000000 0.000000 0.000000 0.000000 0.100312 0.000000
# 6 0.000000 0.000000 0.000000 0.000000 0.000000 0.415358
#
#
# Mechanical properties :
#
#
# Convention : Reuss Voigt Hill
#
# Bulk Modulus (GPa) = 25.48959 39.64313 32.56636
# Shear Modulus (GPa) = 7.54888 19.48805 13.51846
#
# Velocity S-wave (km/s) = 2.19901 3.53322 2.94273
# Velocity P-wave (km/s) = 4.77238 6.48378 5.69276
#
# Compressibility (1/GPa) = 0.03923170
#
# Stress axis : x y z
#
# Youngs Moduli (GPa) = 22.92485 111.61428 56.59672
#
# Poissons Ratio (x) = 0.48516 0.46865
# Poissons Ratio (y) = 0.09965 0.16308
# Poissons Ratio (z) = 0.18983 0.32162
#
# Static dielectric constant tensor:
#      x y z
#    x 2.298280 0.000000 0.000000 
#    y 0.000000 3.474930 0.000000 
#    z 0.000000 0.000000 2.978210 
# 
# 
# High freq. dielectric constant tensor:
#      x y z
#    x 1.488300 0.000000 0.000000 
#    y 0.000000 1.628120 0.000000 
#    z 0.000000 0.000000 1.615180 
# 
# From -- ./inp_files/4625.got.cif
#   From: 2010.03.12/outbox.cif.g09.slc.cpg/sg47_3_cif.got.tgz:4625.got - 2010.04.14 03:12:58.
