data_PCOD8195204
_publ_section_title
;
Structure prediction by ZEFSAII (Michael W. Deem and Ramdas Pophale) SiO2 
 PCOD8195204
Probable space group: P M M M
;
_chemical_formula_sum "Si O2"
_cell_formula_units_Z 56
_cell_length_a 20.567631
_cell_length_b 9.259893
_cell_length_c 15.379500
_cell_angle_alpha 90.000000
_cell_angle_beta 90.000000
_cell_angle_gamma 90.000000
_cell_volume 2929.088252
_symmetry_space_group_name_H-M "P M M M"
_symmetry_group_IT_number 47
_symmetry_cell_setting 'orthorhombic'
loop_
_space_group_symop_operation_xyz
x,y,z
-x,-y,z
x,-y,-z
-x,y,-z
-x,-y,-z
x,y,-z
-x,y,z
x,-y,z
loop_
_atom_site_type_symbol
_atom_site_label
_atom_site_fract_x
_atom_site_fract_y
_atom_site_fract_z
Si Si1 0.181687 0.333507 0.098528
Si Si2 0.613692 0.333712 0.403957
Si Si3 0.428678 0.832980 0.757055
Si Si4 0.740216 0.164340 0.369088
Si Si5 0.928681 0.329657 0.773614
Si Si6 0.705242 0.837463 0.172264
Si Si7 0.866783 0.335423 0.404360
O O1 0.192543 0.500000 0.121998
O O2 0.126814 0.264639 0.162382
O O3 0.252151 0.259152 0.107843
O O4 0.157183 0.312784 0.000000
O O5 0.581418 0.322044 0.500000
O O6 0.621698 0.500000 0.376084
O O7 0.569234 0.254732 0.332893
O O8 0.683668 0.260078 0.409381
O O9 0.500000 0.814926 0.801693
O O10 0.370023 0.780381 0.820309
O O11 0.414382 0.000000 0.733323
O O12 0.739202 0.172364 0.265364
O O13 0.806775 0.227805 0.403978
O O14 0.732930 0.000000 0.401466
O O15 0.930007 0.500000 0.787618
O O16 0.915643 0.290245 0.672702
O O17 0.000000 0.265694 0.797459
O O18 0.705380 0.000000 0.135604
O O19 0.900548 0.322746 0.500000
O O20 0.842779 0.500000 0.388422
#
# Coordination Sequence:
#
# PCOD8195204 Si02
#       7
#     8   8   8   8   8   8   8
#     4  10  20  34  56  84 108 134 171 214 263 320
#     4  10  20  31  44  67 101 138 178 224 270 316
#     4   9  19  35  53  74 101 136 178 219 262 315
#     4  10  19  31  49  72  99 135 179 223 268 315
#     4   9  18  33  52  76 109 144 175 215 265 311
#     4   9  18  33  54  78 103 134 170 212 262 313
#     4  10  19  30  48  74 103 138 179 220 265 314
#
# _framework density 19.118577999999999
#
# number of rings (size 3 to 8) (size 9 to 14) (size 15 to 20)
#    0.000    2.429    1.429    2.143    0.000    6.857 
#    0.000    4.286    0.000    2.143    0.000    5.000 
#    0.000    0.000    0.000    0.000    0.000    0.000 
#
# Total GULP energy -694066.965971 kJ/mol
# GULP energy per Si atom -12394.052964 kJ/mol
# Density = 1.907506 g / cm^3
# Si number density = 19.118578 Si / 1000 Ang^3
#
#
#
# Elastic Constant Matrix: (Units=GPa)
#
#
# Indices 1 2 3 4 5 6 
#
# 1 136.9269 33.1136 46.4015 0.0000 0.0000 0.0000
# 2 33.1136 63.1354 22.2658 0.0000 0.0000 0.0000
# 3 46.4015 22.2658 80.5936 0.0000 0.0000 0.0000
# 4 0.0000 0.0000 0.0000 18.1015 0.0000 0.0000
# 5 0.0000 0.0000 0.0000 0.0000 7.6952 0.0000
# 6 0.0000 0.0000 0.0000 0.0000 0.0000 19.7781
#
#
#
# Elastic Compliance Matrix: (Units=1/GPa)
#
#
# Indices 1 2 3 4 5 6 
#
# 1 0.009710 -0.003458 -0.004635 0.000000 0.000000 0.000000
# 2 -0.003458 0.018780 -0.003197 0.000000 0.000000 0.000000
# 3 -0.004635 -0.003197 0.015960 0.000000 0.000000 0.000000
# 4 0.000000 0.000000 0.000000 0.055244 0.000000 0.000000
# 5 0.000000 0.000000 0.000000 0.000000 0.129951 0.000000
# 6 0.000000 0.000000 0.000000 0.000000 0.000000 0.050561
#
#
# Mechanical properties :
#
#
# Convention : Reuss Voigt Hill
#
# Bulk Modulus (GPa) = 45.72709 53.80197 49.76453
# Shear Modulus (GPa) = 16.12497 21.03996 18.58246
#
# Velocity S-wave (km/s) = 2.90732 3.32097 3.12101
# Velocity P-wave (km/s) = 5.93629 6.55038 6.25088
#
# Compressibility (1/GPa) = 0.02186888
#
# Stress axis : x y z
#
# Youngs Moduli (GPa) = 102.98391 53.24706 62.65647
#
# Poissons Ratio (x) = 0.18414 0.29043
# Poissons Ratio (y) = 0.35614 0.20034
# Poissons Ratio (z) = 0.47736 0.17026
#
# Static dielectric constant tensor:
#      x y z
#    x 3.550070 0.000000 0.000000 
#    y 0.000000 3.353020 0.000000 
#    z 0.000000 0.000000 3.379060 
# 
# 
# High freq. dielectric constant tensor:
#      x y z
#    x 1.737990 0.000000 0.000000 
#    y 0.000000 1.723320 0.000000 
#    z 0.000000 0.000000 1.726010 
# 
# From -- ./inp_files/25136.got.cif
#   From: 2010.03.12/outbox.cif.g09.slc.cpg/sg47_13_cif.got.tgz:25136.got - 2010.04.14 03:12:58.
