data_PCOD8195531
_publ_section_title
;
Structure prediction by ZEFSAII (Michael W. Deem and Ramdas Pophale) SiO2 
 PCOD8195531
Probable space group: P M M M
;
_chemical_formula_sum "Si O2"
_cell_formula_units_Z 64
_cell_length_a 9.093902
_cell_length_b 15.769762
_cell_length_c 23.489772
_cell_angle_alpha 90.000000
_cell_angle_beta 90.000000
_cell_angle_gamma 90.000000
_cell_volume 3368.636966
_symmetry_space_group_name_H-M "P M M M"
_symmetry_group_IT_number 47
_symmetry_cell_setting 'orthorhombic'
loop_
_space_group_symop_operation_xyz
x,y,z
-x,-y,z
x,-y,-z
-x,y,-z
-x,-y,-z
x,y,-z
-x,y,z
x,-y,z
loop_
_atom_site_type_symbol
_atom_site_label
_atom_site_fract_x
_atom_site_fract_y
_atom_site_fract_z
Si Si1 0.173402 0.756726 0.061698
Si Si2 0.174508 0.819656 0.180328
Si Si3 0.327054 0.403138 0.646420
Si Si4 0.326488 0.655788 0.227463
Si Si5 0.171639 0.096757 0.378474
Si Si6 0.340478 0.096209 0.731304
Si Si7 0.828023 0.731223 0.564497
Si Si8 0.167657 0.407569 0.123524
O O1 0.224988 0.816747 0.113891
O O2 0.221888 0.660906 0.077273
O O3 0.000000 0.762707 0.055724
O O4 0.243999 0.781690 0.000000
O O5 0.240952 0.743463 0.217736
O O6 0.247194 0.900765 0.209939
O O7 0.000000 0.820513 0.185284
O O8 0.500000 0.395477 0.637501
O O9 0.275174 0.500000 0.633369
O O10 0.284193 0.381138 0.711197
O O11 0.253088 0.335693 0.604607
O O12 0.500000 0.668718 0.220704
O O13 0.269390 0.591337 0.179325
O O14 0.249925 0.132426 0.321796
O O15 0.211445 0.168959 0.424768
O O16 0.000000 0.094910 0.365194
O O17 0.220792 0.000000 0.396822
O O18 0.500000 0.142961 0.736422
O O19 0.370636 0.000000 0.717583
O O20 0.780877 0.711333 0.500000
O O21 0.000000 0.717372 0.574195
O O22 0.176402 0.500000 0.094751
O O23 0.000000 0.384942 0.141947
#
# Coordination Sequence:
#
# PCOD8195531 Si02
#       8
#     8   8   8   8   8   8   8   8
#     4   8  15  28  45  66  92 124 164 207 247 286
#     4  10  19  31  50  75 101 129 163 204 249 298
#     4  10  22  38  54  73  98 133 177 219 259 304
#     4  10  19  32  51  73  98 128 163 205 255 307
#     4   9  18  34  57  83 110 139 168 201 246 302
#     4  10  20  33  51  77 107 134 160 194 239 293
#     4  10  22  38  55  78 106 135 170 211 254 301
#     4   9  17  28  44  69  98 126 159 201 248 297
#
# _framework density 18.998781000000001
#
# number of rings (size 3 to 8) (size 9 to 14) (size 15 to 20)
#    0.000    2.500    0.000    3.000    0.000    6.250 
#    0.000    3.750    0.000    9.750    0.000    8.750 
#    0.000    0.000    0.000    0.000    0.000    0.000 
#
# Total GULP energy -792929.617679 kJ/mol
# GULP energy per Si atom -12389.525276 kJ/mol
# Density = 1.895554 g / cm^3
# Si number density = 18.998781 Si / 1000 Ang^3
#
#
#
# Elastic Constant Matrix: (Units=GPa)
#
#
# Indices 1 2 3 4 5 6 
#
# 1 58.2728 23.5734 37.6623 0.0000 0.0000 0.0000
# 2 23.5734 66.0492 39.9196 0.0000 0.0000 0.0000
# 3 37.6623 39.9196 122.8085 0.0000 0.0000 0.0000
# 4 0.0000 0.0000 0.0000 19.0572 0.0000 0.0000
# 5 0.0000 0.0000 0.0000 0.0000 13.4951 0.0000
# 6 0.0000 0.0000 0.0000 0.0000 0.0000 23.3777
#
#
#
# Elastic Compliance Matrix: (Units=1/GPa)
#
#
# Indices 1 2 3 4 5 6 
#
# 1 0.022572 -0.004819 -0.005356 0.000000 0.000000 0.000000
# 2 -0.004819 0.019871 -0.004981 0.000000 0.000000 0.000000
# 3 -0.005356 -0.004981 0.011404 0.000000 0.000000 0.000000
# 4 0.000000 0.000000 0.000000 0.052473 0.000000 0.000000
# 5 0.000000 0.000000 0.000000 0.000000 0.074101 0.000000
# 6 0.000000 0.000000 0.000000 0.000000 0.000000 0.042776
#
#
# Mechanical properties :
#
#
# Convention : Reuss Voigt Hill
#
# Bulk Modulus (GPa) = 42.49014 49.93790 46.21402
# Shear Modulus (GPa) = 19.13117 20.91770 20.02443
#
# Velocity S-wave (km/s) = 3.17672 3.32174 3.25004
# Velocity P-wave (km/s) = 5.98904 6.40732 6.20171
#
# Compressibility (1/GPa) = 0.02353487
#
# Stress axis : x y z
#
# Youngs Moduli (GPa) = 44.30358 50.32509 87.68542
#
# Poissons Ratio (x) = 0.24252 0.46962
# Poissons Ratio (y) = 0.21350 0.43678
# Poissons Ratio (z) = 0.23728 0.25068
#
# Static dielectric constant tensor:
#      x y z
#    x 3.612500 0.000000 0.000000 
#    y 0.000000 3.568860 0.000000 
#    z 0.000000 0.000000 3.675590 
# 
# 
# High freq. dielectric constant tensor:
#      x y z
#    x 1.724980 0.000000 0.000000 
#    y 0.000000 1.733850 0.000000 
#    z 0.000000 0.000000 1.732700 
# 
# From -- ./inp_files/29950.got.cif
#   From: 2010.03.12/outbox.cif.g09.slc.cpg/sg47_15_cif.got.tgz:29950.got - 2010.04.14 03:12:58.
