data_PCOD8195252
_publ_section_title
;
Structure prediction by ZEFSAII (Michael W. Deem and Ramdas Pophale) SiO2 
 PCOD8195252
Probable space group: P M M M
;
_chemical_formula_sum "Si O2"
_cell_formula_units_Z 64
_cell_length_a 25.883297
_cell_length_b 14.466186
_cell_length_c 9.062256
_cell_angle_alpha 90.000000
_cell_angle_beta 90.000000
_cell_angle_gamma 90.000000
_cell_volume 3393.203973
_symmetry_space_group_name_H-M "P M M M"
_symmetry_group_IT_number 47
_symmetry_cell_setting 'orthorhombic'
loop_
_space_group_symop_operation_xyz
x,y,z
-x,-y,z
x,-y,-z
-x,y,-z
-x,-y,-z
x,y,-z
-x,y,z
x,-y,z
loop_
_atom_site_type_symbol
_atom_site_label
_atom_site_fract_x
_atom_site_fract_y
_atom_site_fract_z
Si Si1 0.250138 0.607425 0.827973
Si Si2 0.695828 0.108886 0.162666
Si Si3 0.058661 0.395346 0.327547
Si Si4 0.404542 0.893145 0.327080
Si Si5 0.442072 0.724352 0.169981
Si Si6 0.808973 0.898779 0.825009
Si Si7 0.645695 0.391683 0.672553
Si Si8 0.147955 0.711421 0.174113
O O1 0.241489 0.500000 0.794330
O O2 0.300783 0.645135 0.743564
O O3 0.199072 0.658982 0.768075
O O4 0.258779 0.627212 0.000000
O O5 0.652653 0.140959 0.278785
O O6 0.752128 0.135487 0.226958
O O7 0.693888 0.000000 0.144416
O O8 0.686110 0.153869 0.000000
O O9 0.069084 0.386677 0.500000
O O10 0.069180 0.500000 0.274853
O O11 0.096150 0.326952 0.243534
O O12 0.000000 0.367052 0.289562
O O13 0.410922 0.877387 0.500000
O O14 0.443704 0.827623 0.239209
O O15 0.415203 0.000000 0.284694
O O16 0.500000 0.683744 0.184560
O O17 0.403240 0.658486 0.256897
O O18 0.425033 0.730215 0.000000
O O19 0.849361 0.819636 0.778014
O O20 0.823991 0.000000 0.757953
O O21 0.806385 0.907646 0.000000
O O22 0.646903 0.369782 0.500000
O O23 0.639542 0.500000 0.705673
O O24 0.143961 0.699220 0.000000
#
# Coordination Sequence:
#
# PCOD8195252 Si02
#       8
#     8   8   8   8   8   8   8   8
#     4   9  18  32  50  77 113 145 173 212 264 321
#     4   8  14  27  48  72  99 136 179 215 252 307
#     4   9  19  36  55  75 104 143 183 224 275 333
#     4  10  21  36  55  81 112 142 173 217 272 325
#     4  11  25  42  60  81 104 136 181 228 271 324
#     4   8  15  28  46  72 108 146 181 218 261 308
#     4  10  22  40  61  84 110 141 176 217 270 330
#     4  10  19  30  51  83 112 142 183 227 267 310
#
# _framework density 18.861229000000002
#
# number of rings (size 3 to 8) (size 9 to 14) (size 15 to 20)
#    0.000    2.625    0.000    2.625    1.750    4.500 
#    0.000    5.000    0.000    1.500    0.000    2.625 
#    0.000    0.000    0.000    0.000    0.000    0.000 
#
# Total GULP energy -793380.214351 kJ/mol
# GULP energy per Si atom -12396.565849 kJ/mol
# Density = 1.881830 g / cm^3
# Si number density = 18.861229 Si / 1000 Ang^3
#
#
#
# Elastic Constant Matrix: (Units=GPa)
#
#
# Indices 1 2 3 4 5 6 
#
# 1 120.6139 60.4109 44.6754 0.0000 0.0000 0.0000
# 2 60.4109 75.8812 34.5611 0.0000 0.0000 0.0000
# 3 44.6754 34.5611 68.3964 0.0000 0.0000 0.0000
# 4 0.0000 0.0000 0.0000 22.6821 0.0000 0.0000
# 5 0.0000 0.0000 0.0000 0.0000 0.3094 0.0000
# 6 0.0000 0.0000 0.0000 0.0000 0.0000 31.9291
#
#
#
# Elastic Compliance Matrix: (Units=1/GPa)
#
#
# Indices 1 2 3 4 5 6 
#
# 1 0.014942 -0.009678 -0.004870 0.000000 0.000000 0.000000
# 2 -0.009678 0.023386 -0.005496 0.000000 0.000000 0.000000
# 3 -0.004870 -0.005496 0.020579 0.000000 0.000000 0.000000
# 4 0.000000 0.000000 0.000000 0.044088 0.000000 0.000000
# 5 0.000000 0.000000 0.000000 0.000000 3.232467 0.000000
# 6 0.000000 0.000000 0.000000 0.000000 0.000000 0.031319
#
#
# Mechanical properties :
#
#
# Convention : Reuss Voigt Hill
#
# Bulk Modulus (GPa) = 53.13415 60.46514 56.79964
# Shear Modulus (GPa) = 1.46493 19.33373 10.39933
#
# Velocity S-wave (km/s) = 0.88225 3.20512 2.35065
# Velocity P-wave (km/s) = 5.41018 6.76938 6.12759
#
# Compressibility (1/GPa) = 0.01882029
#
# Stress axis : x y z
#
# Youngs Moduli (GPa) = 66.92674 42.76017 48.59434
#
# Poissons Ratio (x) = 0.41381 0.23663
# Poissons Ratio (y) = 0.64769 0.26707
# Poissons Ratio (z) = 0.32590 0.23501
#
# Static dielectric constant tensor:
#      x y z
#    x 3.475950 0.000000 0.000000 
#    y 0.000000 3.597430 0.000000 
#    z 0.000000 0.000000 3.313660 
# 
# 
# High freq. dielectric constant tensor:
#      x y z
#    x 1.720930 0.000000 0.000000 
#    y 0.000000 1.735550 0.000000 
#    z 0.000000 0.000000 1.714470 
# 
# From -- ./inp_files/7779.got.cif
#   From: 2010.03.12/outbox.cif.g09.slc.cpg/sg47_4_cif.got.tgz:7779.got - 2010.04.14 03:12:58.
