data_PCOD8195844
_publ_section_title
;
Structure prediction by ZEFSAII (Michael W. Deem and Ramdas Pophale) SiO2 
 PCOD8195844
Probable space group: P M M M
;
_chemical_formula_sum "Si O2"
_cell_formula_units_Z 56
_cell_length_a 14.501509
_cell_length_b 8.974786
_cell_length_c 22.888451
_cell_angle_alpha 90.000000
_cell_angle_beta 90.000000
_cell_angle_gamma 90.000000
_cell_volume 2978.884746
_symmetry_space_group_name_H-M "P M M M"
_symmetry_group_IT_number 47
_symmetry_cell_setting 'orthorhombic'
loop_
_space_group_symop_operation_xyz
x,y,z
-x,-y,z
x,-y,-z
-x,y,-z
-x,-y,-z
x,y,-z
-x,y,z
x,-y,z
loop_
_atom_site_type_symbol
_atom_site_label
_atom_site_fract_x
_atom_site_fract_y
_atom_site_fract_z
Si Si1 0.104749 0.676647 0.722175
Si Si2 0.603742 0.825864 0.376220
Si Si3 0.890908 0.170219 0.500000
Si Si4 0.816744 0.175496 0.065732
Si Si5 0.000000 0.663870 0.931319
Si Si6 0.235686 0.327545 0.174902
Si Si7 0.209856 0.676709 0.605031
Si Si8 0.602056 0.665586 0.258589
O O1 0.100426 0.500000 0.720806
O O2 0.152434 0.729160 0.782868
O O3 0.169019 0.729128 0.667935
O O4 0.000000 0.741839 0.718051
O O5 0.500000 0.780608 0.398774
O O6 0.685897 0.735361 0.407418
O O7 0.611233 0.789536 0.307968
O O8 0.620085 0.000000 0.386442
O O9 0.856376 0.254048 0.557146
O O10 0.000000 0.177441 0.500000
O O11 0.855451 0.000000 0.500000
O O12 0.912084 0.244333 0.088699
O O13 0.748150 0.234954 0.115085
O O14 0.824402 0.000000 0.066202
O O15 0.790412 0.230302 0.000000
O O16 0.000000 0.500000 0.901440
O O17 0.000000 0.645761 0.000000
O O18 0.221314 0.500000 0.158911
O O19 0.331120 0.295267 0.206404
O O20 0.209933 0.500000 0.598756
O O21 0.500000 0.665475 0.231909
O O22 0.626502 0.500000 0.284543
#
# Coordination Sequence:
#
# PCOD8195844 Si02
#       8
#     8   8   4   8   4   8   8   8
#     4   9  18  32  51  79 113 143 176 224 274 318
#     4  10  20  34  55  84 117 151 185 228 285 342
#     4  11  25  43  62  87 120 157 195 236 280 327
#     4  10  21  35  49  69 102 141 179 223 272 323
#     4   9  17  31  51  71  91 127 177 220 259 310
#     4  10  19  32  52  79 106 138 181 225 276 331
#     4  11  21  38  62  86 114 152 196 237 278 328
#     4   9  17  32  54  80 109 140 180 230 280 332
#
# _framework density 18.798983
#
# number of rings (size 3 to 8) (size 9 to 14) (size 15 to 20)
#    0.000    2.143    1.429    2.143    1.000    4.286 
#    0.000    0.357    0.000    4.286    0.000    3.000 
#    0.000    0.000    0.000    0.000    0.000    0.000 
#
# Total GULP energy -694064.578014 kJ/mol
# GULP energy per Si atom -12394.010322 kJ/mol
# Density = 1.875620 g / cm^3
# Si number density = 18.798983 Si / 1000 Ang^3
#
#
#
# Elastic Constant Matrix: (Units=GPa)
#
#
# Indices 1 2 3 4 5 6 
#
# 1 102.5699 32.3439 26.5330 0.0000 0.0000 0.0000
# 2 32.3439 71.7326 33.6562 0.0000 0.0000 0.0000
# 3 26.5330 33.6562 90.5789 0.0000 0.0000 0.0000
# 4 0.0000 0.0000 0.0000 26.8144 0.0000 0.0000
# 5 0.0000 0.0000 0.0000 0.0000 22.5653 0.0000
# 6 0.0000 0.0000 0.0000 0.0000 0.0000 24.6871
#
#
#
# Elastic Compliance Matrix: (Units=1/GPa)
#
#
# Indices 1 2 3 4 5 6 
#
# 1 0.011593 -0.004401 -0.001761 0.000000 0.000000 0.000000
# 2 -0.004401 0.018555 -0.005605 0.000000 0.000000 0.000000
# 3 -0.001761 -0.005605 0.013639 0.000000 0.000000 0.000000
# 4 0.000000 0.000000 0.000000 0.037293 0.000000 0.000000
# 5 0.000000 0.000000 0.000000 0.000000 0.044316 0.000000
# 6 0.000000 0.000000 0.000000 0.000000 0.000000 0.040507
#
#
# Mechanical properties :
#
#
# Convention : Reuss Voigt Hill
#
# Bulk Modulus (GPa) = 49.37649 49.99417 49.68533
# Shear Modulus (GPa) = 25.48591 26.30326 25.89458
#
# Velocity S-wave (km/s) = 3.68599 3.74463 3.71542
# Velocity P-wave (km/s) = 6.66617 6.73410 6.70022
#
# Compressibility (1/GPa) = 0.02025255
#
# Stress axis : x y z
#
# Youngs Moduli (GPa) = 86.26140 53.89383 73.32172
#
# Poissons Ratio (x) = 0.23719 0.12908
# Poissons Ratio (y) = 0.37964 0.41099
# Poissons Ratio (z) = 0.15186 0.30209
#
# Static dielectric constant tensor:
#      x y z
#    x 3.741050 0.000000 0.000000 
#    y 0.000000 3.360130 0.000000 
#    z 0.000000 0.000000 3.383450 
# 
# 
# High freq. dielectric constant tensor:
#      x y z
#    x 1.733060 0.000000 0.000000 
#    y 0.000000 1.717340 0.000000 
#    z 0.000000 0.000000 1.717660 
# 
# From -- ./inp_files/31028.got.cif
#   From: 2010.03.12/outbox.cif.g09.slc.cpg/sg47_16_cif.got.tgz:31028.got - 2010.04.14 03:12:58.
