data_PCOD8195318
_publ_section_title
;
Structure prediction by ZEFSAII (Michael W. Deem and Ramdas Pophale) SiO2 
 PCOD8195318
Probable space group: P M M M
;
_chemical_formula_sum "Si O2"
_cell_formula_units_Z 52
_cell_length_a 13.709578
_cell_length_b 8.955493
_cell_length_c 26.295114
_cell_angle_alpha 90.000000
_cell_angle_beta 90.000000
_cell_angle_gamma 90.000000
_cell_volume 3228.409700
_symmetry_space_group_name_H-M "P M M M"
_symmetry_group_IT_number 47
_symmetry_cell_setting 'orthorhombic'
loop_
_space_group_symop_operation_xyz
x,y,z
-x,-y,z
x,-y,-z
-x,y,-z
-x,-y,-z
x,y,-z
-x,y,z
x,-y,z
loop_
_atom_site_type_symbol
_atom_site_label
_atom_site_fract_x
_atom_site_fract_y
_atom_site_fract_z
Si Si1 0.609977 0.828379 0.210877
Si Si2 0.208117 0.828805 0.147309
Si Si3 0.109140 0.323678 0.056671
Si Si4 0.386279 0.175598 0.397331
Si Si5 0.615563 0.332017 0.500000
Si Si6 0.111580 0.175100 0.251394
Si Si7 0.287673 0.323301 0.302092
O O1 0.500000 0.793277 0.193634
O O2 0.679745 0.797348 0.162828
O O3 0.637986 0.724118 0.257842
O O4 0.622311 0.000000 0.228987
O O5 0.186284 0.736303 0.097010
O O6 0.138190 0.778929 0.193687
O O7 0.189809 0.000000 0.133822
O O8 0.110858 0.500000 0.058959
O O9 0.000000 0.265542 0.069593
O O10 0.138801 0.269424 0.000000
O O11 0.500000 0.211854 0.387898
O O12 0.348499 0.243217 0.450440
O O13 0.322308 0.251894 0.354290
O O14 0.367159 0.000000 0.397719
O O15 0.658829 0.500000 0.500000
O O16 0.500000 0.337974 0.500000
O O17 0.178480 0.266302 0.290441
O O18 0.000000 0.217465 0.262351
O O19 0.132146 0.000000 0.259055
O O20 0.287446 0.500000 0.307251
#
# Coordination Sequence:
#
# PCOD8195318 Si02
#       7
#     8   8   8   8   4   8   8
#     4   9  18  33  49  64  88 122 155 186 223 269
#     4   9  17  29  47  70  90 111 145 186 225 264
#     4   9  18  31  45  63  89 119 147 176 217 270
#     4  10  19  31  47  66  92 127 162 192 226 272
#     4   9  17  29  45  67  94 121 152 193 237 275
#     4   9  18  33  50  67  91 122 153 185 224 273
#     4  11  21  30  44  69  97 122 152 191 231 269
#
# _framework density 16.107001
#
# number of rings (size 3 to 8) (size 9 to 14) (size 15 to 20)
#    0.000    2.538    0.000    4.385    0.000    8.000 
#    0.000    0.769    0.000    0.462    0.000    3.769 
#    0.000    4.308    0.000    0.000    0.000    0.000 
#
# Total GULP energy -644785.588720 kJ/mol
# GULP energy per Si atom -12399.722860 kJ/mol
# Density = 1.607034 g / cm^3
# Si number density = 16.107001 Si / 1000 Ang^3
#
#
#
# Elastic Constant Matrix: (Units=GPa)
#
#
# Indices 1 2 3 4 5 6 
#
# 1 107.8554 43.9340 62.0553 0.0000 0.0000 0.0000
# 2 43.9340 84.5190 58.9425 0.0000 0.0000 0.0000
# 3 62.0553 58.9425 130.2782 0.0000 0.0000 0.0000
# 4 0.0000 0.0000 0.0000 4.9844 0.0000 0.0000
# 5 0.0000 0.0000 0.0000 0.0000 24.2152 0.0000
# 6 0.0000 0.0000 0.0000 0.0000 0.0000 19.9042
#
#
#
# Elastic Compliance Matrix: (Units=1/GPa)
#
#
# Indices 1 2 3 4 5 6 
#
# 1 0.013523 -0.003707 -0.004764 0.000000 0.000000 0.000000
# 2 -0.003707 0.018302 -0.006515 0.000000 0.000000 0.000000
# 3 -0.004764 -0.006515 0.012893 0.000000 0.000000 0.000000
# 4 0.000000 0.000000 0.000000 0.200627 0.000000 0.000000
# 5 0.000000 0.000000 0.000000 0.000000 0.041296 0.000000
# 6 0.000000 0.000000 0.000000 0.000000 0.000000 0.050241
#
#
# Mechanical properties :
#
#
# Convention : Reuss Voigt Hill
#
# Bulk Modulus (GPa) = 67.81594 72.50182 70.15888
# Shear Modulus (GPa) = 13.44924 20.33547 16.89235
#
# Velocity S-wave (km/s) = 2.89276 3.55706 3.24197
# Velocity P-wave (km/s) = 7.30426 7.87277 7.59384
#
# Compressibility (1/GPa) = 0.01474579
#
# Stress axis : x y z
#
# Youngs Moduli (GPa) = 73.94969 54.63946 77.56332
#
# Poissons Ratio (x) = 0.20254 0.36953
# Poissons Ratio (y) = 0.27412 0.50530
# Poissons Ratio (z) = 0.35231 0.35596
#
# Static dielectric constant tensor:
#      x y z
#    x 3.039090 0.000000 0.000000 
#    y 0.000000 3.039810 0.000000 
#    z 0.000000 0.000000 3.036450 
# 
# 
# High freq. dielectric constant tensor:
#      x y z
#    x 1.601080 0.000000 0.000000 
#    y 0.000000 1.622020 0.000000 
#    z 0.000000 0.000000 1.611740 
# 
# From -- ./inp_files/7697.got.cif
#   From: 2010.03.12/outbox.cif.g09.slc.cpg/sg47_4_cif.got.tgz:7697.got - 2010.04.14 03:12:58.
