data_PCOD8195953
_publ_section_title
;
Structure prediction by ZEFSAII (Michael W. Deem and Ramdas Pophale) SiO2 
 PCOD8195953
Probable space group: P M M M
;
_chemical_formula_sum "Si O2"
_cell_formula_units_Z 52
_cell_length_a 8.909374
_cell_length_b 28.456240
_cell_length_c 11.737633
_cell_angle_alpha 90.000000
_cell_angle_beta 90.000000
_cell_angle_gamma 90.000000
_cell_volume 2975.810224
_symmetry_space_group_name_H-M "P M M M"
_symmetry_group_IT_number 47
_symmetry_cell_setting 'orthorhombic'
loop_
_space_group_symop_operation_xyz
x,y,z
-x,-y,z
x,-y,-z
-x,y,-z
-x,-y,-z
x,y,-z
-x,y,z
x,-y,z
loop_
_atom_site_type_symbol
_atom_site_label
_atom_site_fract_x
_atom_site_fract_y
_atom_site_fract_z
Si Si1 0.822474 0.139166 0.228504
Si Si2 0.178143 0.052018 0.627176
Si Si3 0.321749 0.169520 0.000000
Si Si4 0.327675 0.780243 0.366235
Si Si5 0.178221 0.601468 0.630897
Si Si6 0.324090 0.685849 0.760242
Si Si7 0.678201 0.723690 0.000000
Si Si8 0.823301 0.500000 0.370417
O O1 0.761223 0.091329 0.286512
O O2 0.739420 0.142415 0.109043
O O3 0.781688 0.182444 0.309399
O O4 0.000000 0.138378 0.209259
O O5 0.240971 0.062137 0.500000
O O6 0.000000 0.054353 0.623199
O O7 0.230492 0.000000 0.667644
O O8 0.500000 0.168233 0.000000
O O9 0.260247 0.222977 0.000000
O O10 0.301852 0.781413 0.500000
O O11 0.500000 0.791570 0.332660
O O12 0.282581 0.728973 0.321686
O O13 0.232545 0.609162 0.500000
O O14 0.244824 0.639681 0.714853
O O15 0.234529 0.550103 0.679563
O O16 0.000000 0.604650 0.634905
O O17 0.500000 0.676332 0.761347
O O18 0.263854 0.696833 0.887568
O O19 0.500000 0.726364 0.000000
O O20 0.772491 0.500000 0.500000
O O21 0.000000 0.500000 0.360087
#
# Coordination Sequence:
#
# PCOD8195953 Si02
#       8
#     8   8   4   8   8   8   4   4
#     4  11  21  33  53  81 105 128 169 222 261 292
#     4   8  15  30  52  77 106 138 167 200 252 312
#     4  11  21  39  58  70  96 141 180 209 251 311
#     4  10  20  33  50  73 103 139 171 199 248 317
#     4   9  17  30  49  74 102 131 162 201 251 301
#     4  10  19  33  51  71  95 129 172 209 242 291
#     4   9  18  35  55  67  87 131 179 207 237 290
#     4   7  12  26  47  68  95 132 166 193 238 307
#
# _framework density 17.474232000000001
#
# number of rings (size 3 to 8) (size 9 to 14) (size 15 to 20)
#    0.000    2.538    1.538    3.000    0.000    2.462 
#    0.000    1.154    0.000    6.000    0.000    8.615 
#    0.000    0.000    0.000    0.000    0.000    0.000 
#
# Total GULP energy -644505.863865 kJ/mol
# GULP energy per Si atom -12394.343536 kJ/mol
# Density = 1.743446 g / cm^3
# Si number density = 17.474232 Si / 1000 Ang^3
#
#
#
# Elastic Constant Matrix: (Units=GPa)
#
#
# Indices 1 2 3 4 5 6 
#
# 1 37.8677 38.1256 30.8093 0.0000 0.0000 0.0000
# 2 38.1256 161.2084 80.2809 0.0000 0.0000 0.0000
# 3 30.8093 80.2809 122.7214 0.0000 0.0000 0.0000
# 4 0.0000 0.0000 0.0000 12.6751 0.0000 0.0000
# 5 0.0000 0.0000 0.0000 0.0000 25.6815 0.0000
# 6 0.0000 0.0000 0.0000 0.0000 0.0000 -1.6044
#
#
#
# Elastic Compliance Matrix: (Units=1/GPa)
#
#
# Indices 1 2 3 4 5 6 
#
# 1 0.036817 -0.006087 -0.005261 0.000000 0.000000 0.000000
# 2 -0.006087 0.010207 -0.005149 0.000000 0.000000 0.000000
# 3 -0.005261 -0.005149 0.012837 0.000000 0.000000 0.000000
# 4 0.000000 0.000000 0.000000 0.078895 0.000000 0.000000
# 5 0.000000 0.000000 0.000000 0.000000 0.038938 0.000000
# 6 0.000000 0.000000 0.000000 0.000000 0.000000 -0.623278
#
#
# Mechanical properties :
#
#
# Convention : Reuss Voigt Hill
#
# Bulk Modulus (GPa) = 37.22000 68.91436 53.06718
# Shear Modulus (GPa) = -12.38746 18.85588 3.23421
#
# Velocity S-wave (km/s) = -2.66540 3.28848 1.36193
# Velocity P-wave (km/s) = 3.44582 7.34453 5.73654
#
# Compressibility (1/GPa) = 0.02686728
#
# Stress axis : x y z
#
# Youngs Moduli (GPa) = 27.16168 97.97317 77.89695
#
# Poissons Ratio (x) = 0.59639 0.40979
# Poissons Ratio (y) = 0.16534 0.40108
# Poissons Ratio (z) = 0.14289 0.50445
#
# Static dielectric constant tensor:
#      x y z
#    x 2.938120 0.000000 0.000000 
#    y 0.000000 3.602400 0.000000 
#    z 0.000000 0.000000 3.355600 
# 
# 
# High freq. dielectric constant tensor:
#      x y z
#    x 1.645480 0.000000 0.000000 
#    y 0.000000 1.686080 0.000000 
#    z 0.000000 0.000000 1.667500 
# 
# From -- ./inp_files/15529.got.cif
#   From: 2010.03.12/outbox.cif.g09.slc.cpg/sg47_8_cif.got.tgz:15529.got - 2010.04.14 03:12:58.
