data_PCOD8195815
_publ_section_title
;
Structure prediction by ZEFSAII (Michael W. Deem and Ramdas Pophale) SiO2 
 PCOD8195815
Probable space group: P M M M
;
_chemical_formula_sum "Si O2"
_cell_formula_units_Z 48
_cell_length_a 9.482850
_cell_length_b 34.444724
_cell_length_c 7.866355
_cell_angle_alpha 90.000000
_cell_angle_beta 90.000000
_cell_angle_gamma 90.000000
_cell_volume 2569.420187
_symmetry_space_group_name_H-M "P M M M"
_symmetry_group_IT_number 47
_symmetry_cell_setting 'orthorhombic'
loop_
_space_group_symop_operation_xyz
x,y,z
-x,-y,z
x,-y,-z
-x,y,-z
-x,-y,-z
x,y,-z
-x,y,z
x,-y,z
loop_
_atom_site_type_symbol
_atom_site_label
_atom_site_fract_x
_atom_site_fract_y
_atom_site_fract_z
Si Si1 0.332396 0.795991 0.500000
Si Si2 0.156993 0.581701 0.802581
Si Si3 0.158922 0.500000 0.300894
Si Si4 0.337624 0.152031 0.189628
Si Si5 0.334445 0.345430 0.196627
Si Si6 0.666854 0.709434 0.500000
Si Si7 0.832832 0.000000 0.191382
Si Si8 0.838154 0.082564 0.694422
O O1 0.500000 0.793671 0.500000
O O2 0.278600 0.817774 0.670347
O O3 0.267422 0.752677 0.500000
O O4 0.230625 0.539885 0.764494
O O5 0.256772 0.615915 0.735228
O O6 0.000000 0.584035 0.717354
O O7 0.140591 0.587531 0.000000
O O8 0.163827 0.500000 0.500000
O O9 0.000000 0.500000 0.227635
O O10 0.500000 0.142306 0.229606
O O11 0.252171 0.111995 0.193674
O O12 0.321041 0.170036 0.000000
O O13 0.500000 0.353305 0.213078
O O14 0.284075 0.311649 0.325555
O O15 0.295931 0.334598 0.000000
O O16 0.500000 0.711927 0.500000
O O17 0.777423 0.038929 0.283231
O O18 0.000000 0.000000 0.200596
O O19 0.776305 0.000000 0.000000
O O20 0.823638 0.095126 0.500000
O O21 0.000000 0.084648 0.756635
#
# Coordination Sequence:
#
# PCOD8195815 Si02
#       8
#     4   8   4   8   8   4   4   8
#     4   9  18  34  53  76 103 128 162 207 249 297
#     4   9  17  30  48  68  93 127 163 198 238 283
#     4   9  17  27  42  67  94 122 161 202 234 273
#     4  10  20  34  54  78 104 135 169 208 255 303
#     4   9  18  32  50  73  99 126 159 199 242 289
#     4   9  18  32  53  76  99 128 160 199 245 293
#     4   9  17  29  46  71 102 135 174 215 249 288
#     4  10  19  32  52  76 103 137 175 212 252 298
#
# _framework density 18.681256000000001
#
# number of rings (size 3 to 8) (size 9 to 14) (size 15 to 20)
#    0.000    2.667    0.833    1.000    1.167    3.667 
#    0.000    4.167    0.000    7.000    0.000    2.333 
#    0.000    0.000    0.000    0.000    0.000    0.000 
#
# Total GULP energy -594930.254569 kJ/mol
# GULP energy per Si atom -12394.380304 kJ/mol
# Density = 1.863874 g / cm^3
# Si number density = 18.681256 Si / 1000 Ang^3
#
#
#
# Elastic Constant Matrix: (Units=GPa)
#
#
# Indices 1 2 3 4 5 6 
#
# 1 34.0565 38.5483 23.7015 0.0000 0.0000 0.0000
# 2 38.5483 165.9785 63.7995 0.0000 0.0000 0.0000
# 3 23.7015 63.7995 100.9220 0.0000 0.0000 0.0000
# 4 0.0000 0.0000 0.0000 28.6493 0.0000 0.0000
# 5 0.0000 0.0000 0.0000 0.0000 15.5414 0.0000
# 6 0.0000 0.0000 0.0000 0.0000 0.0000 21.9429
#
#
#
# Elastic Compliance Matrix: (Units=1/GPa)
#
#
# Indices 1 2 3 4 5 6 
#
# 1 0.041544 -0.007792 -0.004831 0.000000 0.000000 0.000000
# 2 -0.007792 0.009420 -0.004125 0.000000 0.000000 0.000000
# 3 -0.004831 -0.004125 0.013651 0.000000 0.000000 0.000000
# 4 0.000000 0.000000 0.000000 0.034905 0.000000 0.000000
# 5 0.000000 0.000000 0.000000 0.000000 0.064344 0.000000
# 6 0.000000 0.000000 0.000000 0.000000 0.000000 0.045573
#
#
# Mechanical properties :
#
#
# Convention : Reuss Voigt Hill
#
# Bulk Modulus (GPa) = 32.13396 61.45063 46.79229
# Shear Modulus (GPa) = 19.73891 24.88725 22.31308
#
# Velocity S-wave (km/s) = 3.25409 3.65390 3.45977
# Velocity P-wave (km/s) = 5.59976 7.12509 6.40797
#
# Compressibility (1/GPa) = 0.03111973
#
# Stress axis : x y z
#
# Youngs Moduli (GPa) = 24.07058 106.15541 73.25433
#
# Poissons Ratio (x) = 0.82713 0.35390
# Poissons Ratio (y) = 0.18755 0.30219
# Poissons Ratio (z) = 0.11629 0.43792
#
# Static dielectric constant tensor:
#      x y z
#    x 3.181520 0.000000 0.000000 
#    y 0.000000 3.767780 0.000000 
#    z 0.000000 0.000000 3.492440 
# 
# 
# High freq. dielectric constant tensor:
#      x y z
#    x 1.674040 0.000000 0.000000 
#    y 0.000000 1.726920 0.000000 
#    z 0.000000 0.000000 1.735200 
# 
# From -- ./inp_files/2859.got.cif
#   From: 2010.03.12/outbox.cif.g09.slc.cpg/sg47_2_cif.got.tgz:2859.got - 2010.04.14 03:12:58.
