data_PCOD8195696
_publ_section_title
;
Structure prediction by ZEFSAII (Michael W. Deem and Ramdas Pophale) SiO2 
 PCOD8195696
Probable space group: P M M M
;
_chemical_formula_sum "Si O2"
_cell_formula_units_Z 48
_cell_length_a 14.071543
_cell_length_b 13.936370
_cell_length_c 15.506654
_cell_angle_alpha 90.000000
_cell_angle_beta 90.000000
_cell_angle_gamma 90.000000
_cell_volume 3040.951451
_symmetry_space_group_name_H-M "P M M M"
_symmetry_group_IT_number 47
_symmetry_cell_setting 'orthorhombic'
loop_
_space_group_symop_operation_xyz
x,y,z
-x,-y,z
x,-y,-z
-x,y,-z
-x,-y,-z
x,y,-z
-x,y,z
x,-y,z
loop_
_atom_site_type_symbol
_atom_site_label
_atom_site_fract_x
_atom_site_fract_y
_atom_site_fract_z
Si Si1 0.297983 0.111395 0.324587
Si Si2 0.892664 0.259870 0.097128
Si Si3 0.106430 0.890591 0.242108
Si Si4 0.392228 0.886256 0.500000
Si Si5 0.720371 0.391083 0.099892
Si Si6 0.612139 0.220687 0.166770
Si Si7 0.386698 0.891927 0.000000
O O1 0.183641 0.126147 0.318037
O O2 0.334403 0.150113 0.416554
O O3 0.350475 0.173033 0.253058
O O4 0.325637 0.000000 0.311516
O O5 0.864511 0.173827 0.160681
O O6 0.826724 0.351644 0.113952
O O7 0.000000 0.294780 0.113615
O O8 0.879652 0.220524 0.000000
O O9 0.000000 0.865800 0.276573
O O10 0.110606 0.000000 0.209736
O O11 0.500000 0.844932 0.500000
O O12 0.395873 0.000000 0.500000
O O13 0.717335 0.500000 0.133291
O O14 0.647459 0.329978 0.157765
O O15 0.689657 0.384940 0.000000
O O16 0.500000 0.219942 0.169516
O O17 0.652430 0.161828 0.084668
O O18 0.500000 0.891337 0.000000
O O19 0.347205 0.000000 0.000000
#
# Coordination Sequence:
#
# PCOD8195696 Si02
#       7
#     8   8   8   4   8   8   4
#     4  10  19  32  50  72  98 129 161 197 240 285
#     4   9  17  30  47  67  94 127 163 201 239 281
#     4   9  17  29  46  70 100 130 158 192 236 289
#     4   9  18  32  49  71  98 128 164 201 235 279
#     4  10  20  33  47  65  92 126 166 207 245 284
#     4  11  20  31  46  67  94 126 164 200 239 285
#     4   9  18  30  43  63  92 123 157 195 233 279
#
# _framework density 15.784533
#
# number of rings (size 3 to 8) (size 9 to 14) (size 15 to 20)
#    0.000    2.333    2.500    1.000    0.000    2.667 
#    0.000    4.583    0.000    2.500    0.000    0.583 
#    0.000    2.000    0.000    3.667    0.000    0.167 
#
# Total GULP energy -595130.856572 kJ/mol
# GULP energy per Si atom -12398.559512 kJ/mol
# Density = 1.574861 g / cm^3
# Si number density = 15.784533 Si / 1000 Ang^3
#
#
#
# Elastic Constant Matrix: (Units=GPa)
#
#
# Indices 1 2 3 4 5 6 
#
# 1 93.2180 40.9430 56.6875 0.0000 0.0000 0.0000
# 2 40.9430 91.2194 49.7989 0.0000 0.0000 0.0000
# 3 56.6875 49.7989 111.6938 0.0000 0.0000 0.0000
# 4 0.0000 0.0000 0.0000 10.2038 0.0000 0.0000
# 5 0.0000 0.0000 0.0000 0.0000 25.0668 0.0000
# 6 0.0000 0.0000 0.0000 0.0000 0.0000 20.1554
#
#
#
# Elastic Compliance Matrix: (Units=1/GPa)
#
#
# Indices 1 2 3 4 5 6 
#
# 1 0.016423 -0.003729 -0.006673 0.000000 0.000000 0.000000
# 2 -0.003729 0.015336 -0.004945 0.000000 0.000000 0.000000
# 3 -0.006673 -0.004945 0.014544 0.000000 0.000000 0.000000
# 4 0.000000 0.000000 0.000000 0.098003 0.000000 0.000000
# 5 0.000000 0.000000 0.000000 0.000000 0.039893 0.000000
# 6 0.000000 0.000000 0.000000 0.000000 0.000000 0.049614
#
#
# Mechanical properties :
#
#
# Convention : Reuss Voigt Hill
#
# Bulk Modulus (GPa) = 64.05989 65.66555 64.86272
# Shear Modulus (GPa) = 18.53842 20.99865 19.76854
#
# Velocity S-wave (km/s) = 3.43077 3.65133 3.54276
# Velocity P-wave (km/s) = 7.50770 7.71153 7.61030
#
# Compressibility (1/GPa) = 0.01561039
#
# Stress axis : x y z
#
# Youngs Moduli (GPa) = 60.89028 65.20698 68.75477
#
# Poissons Ratio (x) = 0.24312 0.45878
# Poissons Ratio (y) = 0.22703 0.34000
# Poissons Ratio (z) = 0.40630 0.32246
#
# Static dielectric constant tensor:
#      x y z
#    x 3.213360 0.000000 0.000000 
#    y 0.000000 2.858250 0.000000 
#    z 0.000000 0.000000 2.884260 
# 
# 
# High freq. dielectric constant tensor:
#      x y z
#    x 1.623290 0.000000 0.000000 
#    y 0.000000 1.581360 0.000000 
#    z 0.000000 0.000000 1.577110 
# 
# From -- ./inp_files/22731.got.cif
#   From: 2010.03.12/outbox.cif.g09.slc.cpg/sg47_12_cif.got.tgz:22731.got - 2010.04.14 03:12:58.
