data_PCOD8195730
_publ_section_title
;
Structure prediction by ZEFSAII (Michael W. Deem and Ramdas Pophale) SiO2 
 PCOD8195730
Probable space group: P M M M
;
_chemical_formula_sum "Si O2"
_cell_formula_units_Z 40
_cell_length_a 24.432359
_cell_length_b 8.861473
_cell_length_c 10.250888
_cell_angle_alpha 90.000000
_cell_angle_beta 90.000000
_cell_angle_gamma 90.000000
_cell_volume 2219.385826
_symmetry_space_group_name_H-M "P M M M"
_symmetry_group_IT_number 47
_symmetry_cell_setting 'orthorhombic'
loop_
_space_group_symop_operation_xyz
x,y,z
-x,-y,z
x,-y,-z
-x,y,-z
-x,-y,-z
x,y,-z
-x,y,z
x,-y,z
loop_
_atom_site_type_symbol
_atom_site_label
_atom_site_fract_x
_atom_site_fract_y
_atom_site_fract_z
Si Si1 0.382621 0.179172 0.752981
Si Si2 0.833897 0.832152 0.844996
Si Si3 0.940068 0.669757 0.155126
Si Si4 0.564106 0.677830 0.500000
Si Si5 0.435506 0.670202 0.000000
Si Si6 0.276202 0.675153 0.152971
O O1 0.408428 0.248857 0.624822
O O2 0.319640 0.229098 0.764830
O O3 0.386420 0.000000 0.747904
O O4 0.416660 0.240584 0.873971
O O5 0.891058 0.770274 0.785792
O O6 0.783926 0.726275 0.800839
O O7 0.824268 0.000000 0.790211
O O8 0.837573 0.833919 0.000000
O O9 0.932718 0.500000 0.207510
O O10 0.000000 0.732714 0.198409
O O11 0.936427 0.669500 0.000000
O O12 0.574943 0.500000 0.500000
O O13 0.500000 0.715078 0.500000
O O14 0.410382 0.500000 0.000000
O O15 0.500000 0.660147 0.000000
O O16 0.283208 0.500000 0.185276
O O17 0.285504 0.708351 0.000000
#
# Coordination Sequence:
#
# PCOD8195730 Si02
#       6
#     8   8   8   4   4   8
#     4  12  24  38  59  85 112 139 174 222 269 313
#     4   9  16  24  36  57  86 118 158 208 259 305
#     4   8  13  21  32  47  72 111 159 204 247 301
#     4  11  25  45  65  83 109 145 180 213 258 323
#     4  11  23  39  59  83 111 143 178 213 256 313
#     4  10  19  32  51  72  99 134 173 213 259 316
#
# _framework density 18.023004
#
# number of rings (size 3 to 8) (size 9 to 14) (size 15 to 20)
#    0.000    2.000    1.000    4.800    0.000    7.600 
#    0.000    2.000    0.000    0.000    0.000    0.000 
#    0.000    0.000    0.000    0.900    0.000   17.000 
#
# Total GULP energy -495947.023903 kJ/mol
# GULP energy per Si atom -12398.675598 kJ/mol
# Density = 1.798198 g / cm^3
# Si number density = 18.023004 Si / 1000 Ang^3
#
#
#
# Elastic Constant Matrix: (Units=GPa)
#
#
# Indices 1 2 3 4 5 6 
#
# 1 149.3024 73.8797 45.1649 0.0000 0.0000 0.0000
# 2 73.8797 133.0864 44.4571 0.0000 0.0000 0.0000
# 3 45.1649 44.4571 78.6335 0.0000 0.0000 0.0000
# 4 0.0000 0.0000 0.0000 20.3853 0.0000 0.0000
# 5 0.0000 0.0000 0.0000 0.0000 12.9362 0.0000
# 6 0.0000 0.0000 0.0000 0.0000 0.0000 25.6717
#
#
#
# Elastic Compliance Matrix: (Units=1/GPa)
#
#
# Indices 1 2 3 4 5 6 
#
# 1 0.009832 -0.004403 -0.003158 0.000000 0.000000 0.000000
# 2 -0.004403 0.011235 -0.003823 0.000000 0.000000 0.000000
# 3 -0.003158 -0.003823 0.016692 0.000000 0.000000 0.000000
# 4 0.000000 0.000000 0.000000 0.049055 0.000000 0.000000
# 5 0.000000 0.000000 0.000000 0.000000 0.077302 0.000000
# 6 0.000000 0.000000 0.000000 0.000000 0.000000 0.038953
#
#
# Mechanical properties :
#
#
# Convention : Reuss Voigt Hill
#
# Bulk Modulus (GPa) = 66.70372 76.44731 71.57551
# Shear Modulus (GPa) = 21.66048 24.96669 23.31358
#
# Velocity S-wave (km/s) = 3.47049 3.72596 3.60049
# Velocity P-wave (km/s) = 7.29039 7.81146 7.55542
#
# Compressibility (1/GPa) = 0.01499167
#
# Stress axis : x y z
#
# Youngs Moduli (GPa) = 101.71032 89.00548 59.90745
#
# Poissons Ratio (x) = 0.39190 0.18917
# Poissons Ratio (y) = 0.44784 0.22903
# Poissons Ratio (z) = 0.32118 0.34028
#
# Static dielectric constant tensor:
#      x y z
#    x 3.708430 0.000000 0.000000 
#    y 0.000000 3.551630 0.000000 
#    z 0.000000 0.000000 2.791420 
# 
# 
# High freq. dielectric constant tensor:
#      x y z
#    x 1.722020 0.000000 0.000000 
#    y 0.000000 1.712090 0.000000 
#    z 0.000000 0.000000 1.628810 
# 
# From -- ./inp_files/12984.got.cif
#   From: 2010.03.12/outbox.cif.g09.slc.cpg/sg47_7_cif.got.tgz:12984.got - 2010.04.14 03:12:58.
