data_PCOD8195731
_publ_section_title
;
Structure prediction by ZEFSAII (Michael W. Deem and Ramdas Pophale) SiO2 
 PCOD8195731
Probable space group: P M M M
;
_chemical_formula_sum "Si O2"
_cell_formula_units_Z 52
_cell_length_a 29.352222
_cell_length_b 8.024318
_cell_length_c 11.745868
_cell_angle_alpha 90.000000
_cell_angle_beta 90.000000
_cell_angle_gamma 90.000000
_cell_volume 2766.522653
_symmetry_space_group_name_H-M "P M M M"
_symmetry_group_IT_number 47
_symmetry_cell_setting 'orthorhombic'
loop_
_space_group_symop_operation_xyz
x,y,z
-x,-y,z
x,-y,-z
-x,y,-z
-x,-y,-z
x,y,-z
-x,y,z
x,-y,z
loop_
_atom_site_type_symbol
_atom_site_label
_atom_site_fract_x
_atom_site_fract_y
_atom_site_fract_z
Si Si1 0.722853 0.192103 0.500000
Si Si2 0.449102 0.500000 0.864959
Si Si3 0.050259 0.302196 0.872392
Si Si4 0.776920 0.808884 0.128961
Si Si5 0.137268 0.303542 0.741182
Si Si6 0.609836 0.186580 0.131944
Si Si7 0.175017 0.305561 0.500000
Si Si8 0.693050 0.686670 0.739731
O O1 0.777361 0.209084 0.500000
O O2 0.699296 0.275918 0.392349
O O3 0.710355 0.000000 0.500000
O O4 0.500000 0.500000 0.813162
O O5 0.424482 0.329861 0.823007
O O6 0.451427 0.500000 0.000000
O O7 0.049498 0.500000 0.872450
O O8 0.087546 0.238751 0.781164
O O9 0.000000 0.234907 0.837298
O O10 0.062588 0.239076 0.000000
O O11 0.826780 0.790317 0.180516
O O12 0.741864 0.699882 0.200544
O O13 0.761492 0.000000 0.136098
O O14 0.777338 0.743781 0.000000
O O15 0.142707 0.500000 0.760238
O O16 0.145057 0.255125 0.609515
O O17 0.656555 0.191563 0.202676
O O18 0.588735 0.000000 0.147896
O O19 0.621804 0.218962 0.000000
O O20 0.187170 0.500000 0.500000
O O21 0.674665 0.500000 0.755046
#
# Coordination Sequence:
#
# PCOD8195731 Si02
#       8
#     4   4   8   8   8   8   4   8
#     4  12  24  38  56  77 105 146 190 230 277 330
#     4   9  18  34  56  85 121 161 203 244 292 347
#     4   8  14  26  46  72  99 128 168 219 272 326
#     4  11  23  35  49  74 106 139 177 222 272 332
#     4  10  19  32  51  72  99 134 175 219 270 325
#     4  10  20  35  56  85 121 158 196 241 293 345
#     4  10  20  34  49  72 102 136 176 226 270 319
#     4  12  23  37  56  79 110 147 189 233 280 336
#
# _framework density 18.796158999999999
#
# number of rings (size 3 to 8) (size 9 to 14) (size 15 to 20)
#    0.000    1.769    2.308    3.923    0.000    4.000 
#    0.000    1.923    0.000    2.769    0.000    3.231 
#    0.000    3.692    0.000    0.000    0.000    0.000 
#
# Total GULP energy -644808.023917 kJ/mol
# GULP energy per Si atom -12400.154306 kJ/mol
# Density = 1.875338 g / cm^3
# Si number density = 18.796159 Si / 1000 Ang^3
#
#
#
# Elastic Constant Matrix: (Units=GPa)
#
#
# Indices 1 2 3 4 5 6 
#
# 1 117.1136 29.7957 45.5445 0.0000 0.0000 0.0000
# 2 29.7957 82.4796 27.3652 0.0000 0.0000 0.0000
# 3 45.5445 27.3652 115.7933 0.0000 0.0000 0.0000
# 4 0.0000 0.0000 0.0000 14.7942 0.0000 0.0000
# 5 0.0000 0.0000 0.0000 0.0000 7.2331 0.0000
# 6 0.0000 0.0000 0.0000 0.0000 0.0000 13.9017
#
#
#
# Elastic Compliance Matrix: (Units=1/GPa)
#
#
# Indices 1 2 3 4 5 6 
#
# 1 0.010589 -0.002651 -0.003538 0.000000 0.000000 0.000000
# 2 -0.002651 0.013820 -0.002223 0.000000 0.000000 0.000000
# 3 -0.003538 -0.002223 0.010553 0.000000 0.000000 0.000000
# 4 0.000000 0.000000 0.000000 0.067594 0.000000 0.000000
# 5 0.000000 0.000000 0.000000 0.000000 0.138254 0.000000
# 6 0.000000 0.000000 0.000000 0.000000 0.000000 0.071934
#
#
# Mechanical properties :
#
#
# Convention : Reuss Voigt Hill
#
# Bulk Modulus (GPa) = 55.13816 57.86638 56.50227
# Shear Modulus (GPa) = 14.89802 21.36452 18.13127
#
# Velocity S-wave (km/s) = 2.81839 3.37507 3.10921
# Velocity P-wave (km/s) = 6.32373 6.78537 6.55861
#
# Compressibility (1/GPa) = 0.01813626
#
# Stress axis : x y z
#
# Youngs Moduli (GPa) = 94.43439 72.36094 94.75775
#
# Poissons Ratio (x) = 0.19186 0.33530
# Poissons Ratio (y) = 0.25038 0.21066
# Poissons Ratio (z) = 0.33415 0.16087
#
# Static dielectric constant tensor:
#      x y z
#    x 3.480450 0.000000 0.000000 
#    y 0.000000 3.377410 0.000000 
#    z 0.000000 0.000000 3.447450 
# 
# 
# High freq. dielectric constant tensor:
#      x y z
#    x 1.716850 0.000000 0.000000 
#    y 0.000000 1.727470 0.000000 
#    z 0.000000 0.000000 1.717590 
# 
# From -- ./inp_files/19915.got.cif
#   From: 2010.03.12/outbox.cif.g09.slc.cpg/sg47_10_cif.got.tgz:19915.got - 2010.04.14 03:12:58.
