data_PCOD8195580
_publ_section_title
;
Structure prediction by ZEFSAII (Michael W. Deem and Ramdas Pophale) SiO2 
 PCOD8195580
Probable space group: P M M M
;
_chemical_formula_sum "Si O2"
_cell_formula_units_Z 40
_cell_length_a 9.489200
_cell_length_b 27.363670
_cell_length_c 8.076022
_cell_angle_alpha 90.000000
_cell_angle_beta 90.000000
_cell_angle_gamma 90.000000
_cell_volume 2097.014521
_symmetry_space_group_name_H-M "P M M M"
_symmetry_group_IT_number 47
_symmetry_cell_setting 'orthorhombic'
loop_
_space_group_symop_operation_xyz
x,y,z
-x,-y,z
x,-y,-z
-x,y,-z
-x,-y,-z
x,y,-z
-x,y,z
x,-y,z
loop_
_atom_site_type_symbol
_atom_site_label
_atom_site_fract_x
_atom_site_fract_y
_atom_site_fract_z
Si Si1 0.832888 0.695219 0.316840
Si Si2 0.837036 0.797033 0.188062
Si Si3 0.332693 0.945305 0.000000
Si Si4 0.336258 0.883000 0.314005
Si Si5 0.343333 0.500000 0.193938
Si Si6 0.843065 0.589350 0.303801
O O1 0.768352 0.702639 0.500000
O O2 0.783537 0.741042 0.206044
O O3 0.786506 0.642560 0.240367
O O4 0.000000 0.693581 0.328116
O O5 0.746790 0.832106 0.304944
O O6 0.000000 0.801292 0.241507
O O7 0.814208 0.813616 0.000000
O O8 0.279648 0.919208 0.169560
O O9 0.500000 0.947237 0.000000
O O10 0.269637 0.000000 0.000000
O O11 0.312887 0.905082 0.500000
O O12 0.500000 0.871826 0.283708
O O13 0.500000 0.500000 0.272481
O O14 0.264060 0.451742 0.249808
O O15 0.353804 0.500000 0.000000
O O16 0.851862 0.591604 0.500000
O O17 0.000000 0.577882 0.232819
#
# Coordination Sequence:
#
# PCOD8195580 Si02
#       6
#     8   8   4   8   4   8
#     4   8  15  29  49  74 102 129 162 208 255 302
#     4  10  19  31  51  79 109 142 177 212 257 313
#     4   9  18  34  55  79 109 141 177 226 273 312
#     4  10  20  34  54  79 107 141 180 221 268 319
#     4  11  24  37  48  68 100 133 166 205 252 308
#     4   9  18  34  56  78  97 122 163 211 256 304
#
# _framework density 19.074736000000001
#
# number of rings (size 3 to 8) (size 9 to 14) (size 15 to 20)
#    0.000    2.600    1.000    2.400    0.000    4.800 
#    0.000    5.000    0.000    2.400    0.000    1.400 
#    0.000    0.000    0.000    0.000    0.000    0.000 
#
# Total GULP energy -495721.080185 kJ/mol
# GULP energy per Si atom -12393.027005 kJ/mol
# Density = 1.903132 g / cm^3
# Si number density = 19.074736 Si / 1000 Ang^3
#
#
#
# Elastic Constant Matrix: (Units=GPa)
#
#
# Indices 1 2 3 4 5 6 
#
# 1 60.2674 49.8438 27.8427 0.0000 0.0000 0.0000
# 2 49.8438 156.7562 54.4307 0.0000 0.0000 0.0000
# 3 27.8427 54.4307 89.3157 0.0000 0.0000 0.0000
# 4 0.0000 0.0000 0.0000 30.2388 0.0000 0.0000
# 5 0.0000 0.0000 0.0000 0.0000 19.6824 0.0000
# 6 0.0000 0.0000 0.0000 0.0000 0.0000 60.9624
#
#
#
# Elastic Compliance Matrix: (Units=1/GPa)
#
#
# Indices 1 2 3 4 5 6 
#
# 1 0.023341 -0.006209 -0.003492 0.000000 0.000000 0.000000
# 2 -0.006209 0.009743 -0.004002 0.000000 0.000000 0.000000
# 3 -0.003492 -0.004002 0.014724 0.000000 0.000000 0.000000
# 4 0.000000 0.000000 0.000000 0.033070 0.000000 0.000000
# 5 0.000000 0.000000 0.000000 0.000000 0.050807 0.000000
# 6 0.000000 0.000000 0.000000 0.000000 0.000000 0.016404
#
#
# Mechanical properties :
#
#
# Convention : Reuss Voigt Hill
#
# Bulk Modulus (GPa) = 49.01646 63.39709 56.20677
# Shear Modulus (GPa) = 27.42778 33.79153 30.60966
#
# Velocity S-wave (km/s) = 3.79609 4.21353 4.01024
# Velocity P-wave (km/s) = 6.70572 7.54851 7.13956
#
# Compressibility (1/GPa) = 0.02040131
#
# Stress axis : x y z
#
# Youngs Moduli (GPa) = 42.84233 102.63399 67.91681
#
# Poissons Ratio (x) = 0.63728 0.23718
# Poissons Ratio (y) = 0.26602 0.27181
# Poissons Ratio (z) = 0.14962 0.41076
#
# Static dielectric constant tensor:
#      x y z
#    x 3.493010 0.000000 0.000000 
#    y 0.000000 3.676450 0.000000 
#    z 0.000000 0.000000 3.531000 
# 
# 
# High freq. dielectric constant tensor:
#      x y z
#    x 1.697570 0.000000 0.000000 
#    y 0.000000 1.749040 0.000000 
#    z 0.000000 0.000000 1.741520 
# 
# From -- ./inp_files/1761.got.cif
#   From: 2010.03.12/outbox.cif.g09.slc.cpg/sg47_1_cif.got.tgz:1761.got - 2010.04.14 03:12:58.
