data_PCOD8195224
_publ_section_title
;
Structure prediction by ZEFSAII (Michael W. Deem and Ramdas Pophale) SiO2 
 PCOD8195224
Probable space group: P M M M
;
_chemical_formula_sum "Si O2"
_cell_formula_units_Z 64
_cell_length_a 25.005564
_cell_length_b 8.958567
_cell_length_c 14.932760
_cell_angle_alpha 90.000000
_cell_angle_beta 90.000000
_cell_angle_gamma 90.000000
_cell_volume 3345.147604
_symmetry_space_group_name_H-M "P M M M"
_symmetry_group_IT_number 47
_symmetry_cell_setting 'orthorhombic'
loop_
_space_group_symop_operation_xyz
x,y,z
-x,-y,z
x,-y,-z
-x,y,-z
-x,-y,-z
x,y,-z
-x,y,z
x,-y,z
loop_
_atom_site_type_symbol
_atom_site_label
_atom_site_fract_x
_atom_site_fract_y
_atom_site_fract_z
Si Si1 0.362690 0.177517 0.253270
Si Si2 0.844885 0.676418 0.396469
Si Si3 0.249417 0.674003 0.265106
Si Si4 0.940096 0.825255 0.710337
Si Si5 0.208365 0.833926 0.900792
Si Si6 0.559736 0.822534 0.100239
Si Si7 0.917795 0.167885 0.904097
Si Si8 0.558898 0.822461 0.598597
O O1 0.304614 0.240202 0.272666
O O2 0.392296 0.237463 0.163406
O O3 0.398177 0.242511 0.333548
O O4 0.359033 0.000000 0.252009
O O5 0.838489 0.726935 0.500000
O O6 0.851027 0.500000 0.388740
O O7 0.792728 0.730409 0.340670
O O8 0.898528 0.746622 0.355505
O O9 0.259848 0.500000 0.276033
O O10 0.227301 0.707162 0.166570
O O11 0.938247 0.755533 0.811937
O O12 0.000000 0.800233 0.672355
O O13 0.925070 0.000000 0.714039
O O14 0.145338 0.832477 0.901815
O O15 0.228525 0.000000 0.871645
O O16 0.230825 0.797184 0.000000
O O17 0.500000 0.768143 0.130512
O O18 0.559763 0.000000 0.103212
O O19 0.571718 0.764706 0.000000
O O20 0.940221 0.000000 0.904735
O O21 0.936282 0.243563 0.000000
O O22 0.574420 0.765382 0.500000
O O23 0.500000 0.764088 0.625198
O O24 0.558897 0.000000 0.601907
#
# Coordination Sequence:
#
# PCOD8195224 Si02
#       8
#     8   8   8   8   8   8   8   8
#     4  10  19  30  49  76 103 132 169 212 260 316
#     4  10  23  43  61  74  96 139 189 228 267 320
#     4  11  23  37  53  75 104 139 179 224 270 314
#     4  10  20  34  57  89 118 139 167 215 269 318
#     4   9  17  32  56  80 102 134 174 211 249 302
#     4   8  14  26  46  73 103 134 171 213 251 291
#     4   8  14  27  50  80 112 142 168 197 241 300
#     4   8  14  26  46  73 102 128 159 207 264 316
#
# _framework density 19.132189
#
# number of rings (size 3 to 8) (size 9 to 14) (size 15 to 20)
#    0.000    2.750    1.250    2.250    0.000    4.250 
#    0.000    3.750    0.000    1.875    0.000    2.625 
#    0.000    0.000    0.000    0.000    0.000    0.000 
#
# Total GULP energy -792905.773771 kJ/mol
# GULP energy per Si atom -12389.152715 kJ/mol
# Density = 1.908864 g / cm^3
# Si number density = 19.132189 Si / 1000 Ang^3
#
#
#
# Elastic Constant Matrix: (Units=GPa)
#
#
# Indices 1 2 3 4 5 6 
#
# 1 136.0836 27.2002 86.1713 0.0000 0.0000 0.0000
# 2 27.2002 23.9489 28.0338 0.0000 0.0000 0.0000
# 3 86.1713 28.0338 151.4557 0.0000 0.0000 0.0000
# 4 0.0000 0.0000 0.0000 19.4298 0.0000 0.0000
# 5 0.0000 0.0000 0.0000 0.0000 11.1707 0.0000
# 6 0.0000 0.0000 0.0000 0.0000 0.0000 9.3898
#
#
#
# Elastic Compliance Matrix: (Units=1/GPa)
#
#
# Indices 1 2 3 4 5 6 
#
# 1 0.012452 -0.007467 -0.005702 0.000000 0.000000 0.000000
# 2 -0.007467 0.057783 -0.006447 0.000000 0.000000 0.000000
# 3 -0.005702 -0.006447 0.011040 0.000000 0.000000 0.000000
# 4 0.000000 0.000000 0.000000 0.051467 0.000000 0.000000
# 5 0.000000 0.000000 0.000000 0.000000 0.089520 0.000000
# 6 0.000000 0.000000 0.000000 0.000000 0.000000 0.106499
#
#
# Mechanical properties :
#
#
# Convention : Reuss Voigt Hill
#
# Bulk Modulus (GPa) = 23.78562 66.03319 44.90941
# Shear Modulus (GPa) = 13.08872 19.33692 16.21282
#
# Velocity S-wave (km/s) = 2.61841 3.18260 2.91419
# Velocity P-wave (km/s) = 4.64765 6.93501 5.90318
#
# Compressibility (1/GPa) = 0.04204220
#
# Stress axis : x y z
#
# Youngs Moduli (GPa) = 80.30943 17.30610 90.57765
#
# Poissons Ratio (x) = 0.12923 0.51651
# Poissons Ratio (y) = 0.59969 0.58394
# Poissons Ratio (z) = 0.45795 0.11157
#
# Static dielectric constant tensor:
#      x y z
#    x 3.707690 0.000000 0.000000 
#    y 0.000000 3.015540 0.000000 
#    z 0.000000 0.000000 -0.051950 
# 
# 
# High freq. dielectric constant tensor:
#      x y z
#    x 1.748810 0.000000 0.000000 
#    y 0.000000 1.682970 0.000000 
#    z 0.000000 0.000000 1.757390 
# 
# From -- ./inp_files/25531.got.cif
#   From: 2010.03.12/outbox.cif.g09.slc.cpg/sg47_13_cif.got.tgz:25531.got - 2010.04.14 03:12:58.
