data_PCOD8195793
_publ_section_title
;
Structure prediction by ZEFSAII (Michael W. Deem and Ramdas Pophale) SiO2 
 PCOD8195793
Probable space group: P M M M
;
_chemical_formula_sum "Si O2"
_cell_formula_units_Z 64
_cell_length_a 25.675904
_cell_length_b 9.499348
_cell_length_c 14.239230
_cell_angle_alpha 90.000000
_cell_angle_beta 90.000000
_cell_angle_gamma 90.000000
_cell_volume 3473.010099
_symmetry_space_group_name_H-M "P M M M"
_symmetry_group_IT_number 47
_symmetry_cell_setting 'orthorhombic'
loop_
_space_group_symop_operation_xyz
x,y,z
-x,-y,z
x,-y,-z
-x,y,-z
-x,-y,-z
x,y,-z
-x,y,z
x,-y,z
loop_
_atom_site_type_symbol
_atom_site_label
_atom_site_fract_x
_atom_site_fract_y
_atom_site_fract_z
Si Si1 0.168557 0.165304 0.699317
Si Si2 0.057003 0.836589 0.725620
Si Si3 0.326625 0.837568 0.106709
Si Si4 0.640804 0.666908 0.723641
Si Si5 0.742508 0.661799 0.607873
Si Si6 0.792577 0.833956 0.102088
Si Si7 0.560134 0.159391 0.609253
Si Si8 0.061038 0.653109 0.898215
O O1 0.108518 0.192914 0.662388
O O2 0.206675 0.246603 0.630377
O O3 0.175027 0.221222 0.807524
O O4 0.181933 0.000000 0.694293
O O5 0.074129 0.772852 0.824531
O O6 0.000000 0.778484 0.687836
O O7 0.050639 0.000000 0.743095
O O8 0.360440 0.737580 0.173800
O O9 0.267033 0.788726 0.116766
O O10 0.333374 0.000000 0.137375
O O11 0.346120 0.816591 0.000000
O O12 0.634987 0.500000 0.732711
O O13 0.694012 0.710336 0.670779
O O14 0.592335 0.726220 0.666375
O O15 0.726983 0.686581 0.500000
O O16 0.756745 0.500000 0.627324
O O17 0.796270 0.000000 0.096577
O O18 0.812068 0.772843 0.000000
O O19 0.569198 0.188896 0.500000
O O20 0.500000 0.179640 0.635906
O O21 0.577861 0.000000 0.634056
O O22 0.083819 0.500000 0.867157
O O23 0.000000 0.637577 0.906980
O O24 0.084217 0.696740 0.000000
#
# Coordination Sequence:
#
# PCOD8195793 Si02
#       8
#     8   8   8   8   8   8   8   8
#     4  10  19  32  52  74  97 128 168 211 253 305
#     4   9  18  30  44  66  94 122 155 199 253 310
#     4   9  17  31  52  76 105 143 184 223 262 307
#     4  11  21  33  54  83 115 147 177 215 267 323
#     4  10  22  38  53  74 106 137 164 204 261 317
#     4   8  14  26  45  69  97 129 166 208 250 294
#     4   9  19  36  57  82 113 150 192 233 267 305
#     4   8  14  25  40  58  83 117 156 194 230 276
#
# _framework density 18.427817999999998
#
# number of rings (size 3 to 8) (size 9 to 14) (size 15 to 20)
#    0.000    2.750    1.250    2.250    0.000    3.250 
#    0.000    3.125    0.000    1.125    0.000    5.250 
#    0.000    0.000    0.000    0.000    0.000    0.000 
#
# Total GULP energy -792888.338641 kJ/mol
# GULP energy per Si atom -12388.880291 kJ/mol
# Density = 1.838588 g / cm^3
# Si number density = 18.427818 Si / 1000 Ang^3
#
#
#
# Elastic Constant Matrix: (Units=GPa)
#
#
# Indices 1 2 3 4 5 6 
#
# 1 91.2460 48.7319 38.1202 0.0000 0.0000 0.0000
# 2 48.7319 57.3169 35.1611 0.0000 0.0000 0.0000
# 3 38.1202 35.1611 69.5471 0.0000 0.0000 0.0000
# 4 0.0000 0.0000 0.0000 30.2343 0.0000 0.0000
# 5 0.0000 0.0000 0.0000 0.0000 10.7074 0.0000
# 6 0.0000 0.0000 0.0000 0.0000 0.0000 21.3220
#
#
#
# Elastic Compliance Matrix: (Units=1/GPa)
#
#
# Indices 1 2 3 4 5 6 
#
# 1 0.020660 -0.015393 -0.003542 0.000000 0.000000 0.000000
# 2 -0.015393 0.036759 -0.010147 0.000000 0.000000 0.000000
# 3 -0.003542 -0.010147 0.021450 0.000000 0.000000 0.000000
# 4 0.000000 0.000000 0.000000 0.033075 0.000000 0.000000
# 5 0.000000 0.000000 0.000000 0.000000 0.093393 0.000000
# 6 0.000000 0.000000 0.000000 0.000000 0.000000 0.046900
#
#
# Mechanical properties :
#
#
# Convention : Reuss Voigt Hill
#
# Bulk Modulus (GPa) = 48.29679 51.34852 49.82265
# Shear Modulus (GPa) = 15.75781 18.85918 17.30850
#
# Velocity S-wave (km/s) = 2.92740 3.20255 3.06806
# Velocity P-wave (km/s) = 6.13936 6.44982 6.29651
#
# Compressibility (1/GPa) = 0.02070531
#
# Stress axis : x y z
#
# Youngs Moduli (GPa) = 48.40295 27.20442 46.61918
#
# Poissons Ratio (x) = 0.41875 0.16513
# Poissons Ratio (y) = 0.74505 0.47306
# Poissons Ratio (z) = 0.17145 0.27605
#
# Static dielectric constant tensor:
#      x y z
#    x 3.374090 0.000000 0.000000 
#    y 0.000000 3.280050 0.000000 
#    z 0.000000 0.000000 3.621180 
# 
# 
# High freq. dielectric constant tensor:
#      x y z
#    x 1.706430 0.000000 0.000000 
#    y 0.000000 1.700730 0.000000 
#    z 0.000000 0.000000 1.694700 
# 
# From -- ./inp_files/25602.got.cif
#   From: 2010.03.12/outbox.cif.g09.slc.cpg/sg47_13_cif.got.tgz:25602.got - 2010.04.14 03:12:58.
