data_PCOD8195677
_publ_section_title
;
Structure prediction by ZEFSAII (Michael W. Deem and Ramdas Pophale) SiO2 
 PCOD8195677
Probable space group: P M M M
;
_chemical_formula_sum "Si O2"
_cell_formula_units_Z 64
_cell_length_a 9.287554
_cell_length_b 20.123631
_cell_length_c 18.125714
_cell_angle_alpha 90.000000
_cell_angle_beta 90.000000
_cell_angle_gamma 90.000000
_cell_volume 3387.683432
_symmetry_space_group_name_H-M "P M M M"
_symmetry_group_IT_number 47
_symmetry_cell_setting 'orthorhombic'
loop_
_space_group_symop_operation_xyz
x,y,z
-x,-y,z
x,-y,-z
-x,y,-z
-x,-y,-z
x,y,-z
-x,y,z
x,-y,z
loop_
_atom_site_type_symbol
_atom_site_label
_atom_site_fract_x
_atom_site_fract_y
_atom_site_fract_z
Si Si1 0.163062 0.742367 0.146800
Si Si2 0.161180 0.113904 0.916876
Si Si3 0.833878 0.924888 0.649531
Si Si4 0.665081 0.372950 0.918058
Si Si5 0.344476 0.924795 0.785737
Si Si6 0.165963 0.788590 0.583650
Si Si7 0.327300 0.286879 0.289422
Si Si8 0.331932 0.571312 0.235684
O O1 0.164739 0.808886 0.100547
O O2 0.230185 0.689162 0.091438
O O3 0.259878 0.752554 0.220182
O O4 0.000000 0.722294 0.169162
O O5 0.270195 0.075439 0.864848
O O6 0.000000 0.085850 0.905337
O O7 0.213121 0.101669 0.000000
O O8 0.754601 0.894768 0.721470
O O9 0.803466 0.868439 0.588235
O O10 0.000000 0.928080 0.671055
O O11 0.784422 0.000000 0.624476
O O12 0.500000 0.348503 0.910003
O O13 0.700326 0.424252 0.852281
O O14 0.690283 0.404262 0.000000
O O15 0.500000 0.887894 0.787996
O O16 0.369875 0.000000 0.762713
O O17 0.198416 0.767058 0.500000
O O18 0.267851 0.743755 0.634905
O O19 0.000000 0.774646 0.605083
O O20 0.500000 0.281086 0.287832
O O21 0.273972 0.364207 0.280311
O O22 0.500000 0.568712 0.250011
O O23 0.264479 0.500000 0.262353
#
# Coordination Sequence:
#
# PCOD8195677 Si02
#       8
#     8   8   8   8   8   8   8   8
#     4  10  19  32  50  70  95 129 168 207 250 301
#     4  10  21  34  47  65  89 121 164 210 253 297
#     4   9  18  34  56  79 103 134 170 203 236 283
#     4   9  17  28  44  70 102 133 167 209 256 303
#     4  10  21  35  50  69  93 122 158 201 249 299
#     4  10  21  36  55  81 111 139 165 197 242 295
#     4  10  20  34  54  79 104 132 169 211 253 300
#     4   8  15  29  49  73 100 132 173 219 262 301
#
# _framework density 18.891966
#
# number of rings (size 3 to 8) (size 9 to 14) (size 15 to 20)
#    0.000    2.500    0.000    3.000    0.000    7.250 
#    0.000    3.750    0.000    9.750    0.000    8.750 
#    0.000    0.000    0.000    0.000    0.000    0.000 
#
# Total GULP energy -793009.746237 kJ/mol
# GULP energy per Si atom -12390.777285 kJ/mol
# Density = 1.884897 g / cm^3
# Si number density = 18.891966 Si / 1000 Ang^3
#
#
#
# Elastic Constant Matrix: (Units=GPa)
#
#
# Indices 1 2 3 4 5 6 
#
# 1 77.9956 24.5058 34.5853 0.0000 0.0000 0.0000
# 2 24.5058 72.0437 28.0785 0.0000 0.0000 0.0000
# 3 34.5853 28.0785 90.8418 0.0000 0.0000 0.0000
# 4 0.0000 0.0000 0.0000 12.4605 0.0000 0.0000
# 5 0.0000 0.0000 0.0000 0.0000 23.9915 0.0000
# 6 0.0000 0.0000 0.0000 0.0000 0.0000 17.5166
#
#
#
# Elastic Compliance Matrix: (Units=1/GPa)
#
#
# Indices 1 2 3 4 5 6 
#
# 1 0.016177 -0.003527 -0.005069 0.000000 0.000000 0.000000
# 2 -0.003527 0.016551 -0.003773 0.000000 0.000000 0.000000
# 3 -0.005069 -0.003773 0.014104 0.000000 0.000000 0.000000
# 4 0.000000 0.000000 0.000000 0.080254 0.000000 0.000000
# 5 0.000000 0.000000 0.000000 0.000000 0.041681 0.000000
# 6 0.000000 0.000000 0.000000 0.000000 0.000000 0.057089
#
#
# Mechanical properties :
#
#
# Convention : Reuss Voigt Hill
#
# Bulk Modulus (GPa) = 45.26037 46.13559 45.69798
# Shear Modulus (GPa) = 19.38301 21.04115 20.21208
#
# Velocity S-wave (km/s) = 3.20659 3.34093 3.27445
# Velocity P-wave (km/s) = 6.14159 6.27345 6.20787
#
# Compressibility (1/GPa) = 0.02209439
#
# Stress axis : x y z
#
# Youngs Moduli (GPa) = 61.81600 60.42057 70.90158
#
# Poissons Ratio (x) = 0.21311 0.35938
# Poissons Ratio (y) = 0.21803 0.26750
# Poissons Ratio (z) = 0.31333 0.22796
#
# Static dielectric constant tensor:
#      x y z
#    x 3.597910 0.000000 0.000000 
#    y 0.000000 3.598700 0.000000 
#    z 0.000000 0.000000 3.287450 
# 
# 
# High freq. dielectric constant tensor:
#      x y z
#    x 1.724140 0.000000 0.000000 
#    y 0.000000 1.726460 0.000000 
#    z 0.000000 0.000000 1.716000 
# 
# From -- ./inp_files/27027.got.cif
#   From: 2010.03.12/outbox.cif.g09.slc.cpg/sg47_14_cif.got.tgz:27027.got - 2010.04.14 03:12:58.
