data_PCOD8195385
_publ_section_title
;
Structure prediction by ZEFSAII (Michael W. Deem and Ramdas Pophale) SiO2 
 PCOD8195385
Probable space group: P M M M
;
_chemical_formula_sum "Si O2"
_cell_formula_units_Z 52
_cell_length_a 9.082034
_cell_length_b 18.527374
_cell_length_c 18.922652
_cell_angle_alpha 90.000000
_cell_angle_beta 90.000000
_cell_angle_gamma 90.000000
_cell_volume 3184.043514
_symmetry_space_group_name_H-M "P M M M"
_symmetry_group_IT_number 47
_symmetry_cell_setting 'orthorhombic'
loop_
_space_group_symop_operation_xyz
x,y,z
-x,-y,z
x,-y,-z
-x,y,-z
-x,-y,-z
x,y,-z
-x,y,z
x,-y,z
loop_
_atom_site_type_symbol
_atom_site_label
_atom_site_fract_x
_atom_site_fract_y
_atom_site_fract_z
Si Si1 0.171965 0.651518 0.079505
Si Si2 0.668399 0.082994 0.918517
Si Si3 0.327111 0.416948 0.500000
Si Si4 0.673755 0.722226 0.286154
Si Si5 0.671348 0.419139 0.204231
Si Si6 0.828226 0.205011 0.838998
Si Si7 0.168729 0.304654 0.422350
O O1 0.248927 0.593397 0.129716
O O2 0.207428 0.732665 0.104452
O O3 0.000000 0.635727 0.082573
O O4 0.232789 0.642579 0.000000
O O5 0.500000 0.107157 0.905716
O O6 0.777708 0.129185 0.870663
O O7 0.689443 0.000000 0.896707
O O8 0.711365 0.094194 0.000000
O O9 0.289317 0.500000 0.500000
O O10 0.500000 0.401120 0.500000
O O11 0.252750 0.381798 0.430127
O O12 0.500000 0.731769 0.292534
O O13 0.720002 0.641025 0.261594
O O14 0.736909 0.780719 0.232077
O O15 0.747972 0.739833 0.361719
O O16 0.500000 0.410567 0.188954
O O17 0.709418 0.500000 0.231934
O O18 0.000000 0.201763 0.820229
O O19 0.178253 0.265232 0.500000
O O20 0.000000 0.317275 0.400156
#
# Coordination Sequence:
#
# PCOD8195385 Si02
#       7
#     8   8   4   8   8   8   8
#     4   9  18  31  45  62  84 111 146 188 233 279
#     4   9  18  32  49  71 101 134 165 198 237 282
#     4   9  17  29  45  65  89 119 154 189 230 285
#     4  10  19  32  50  68  90 122 158 194 237 287
#     4   9  19  33  45  60  82 109 146 191 236 280
#     4  10  19  31  48  69  95 124 158 196 236 281
#     4   9  19  32  47  67  93 118 146 189 236 282
#
# _framework density 16.331434000000002
#
# number of rings (size 3 to 8) (size 9 to 14) (size 15 to 20)
#    0.462    2.231    0.000    2.308    0.000    4.615 
#    0.000    3.846    0.000    0.000    0.000    0.000 
#    0.000    0.615    0.000    6.462    0.000    2.769 
#
# Total GULP energy -644591.488422 kJ/mol
# GULP energy per Si atom -12395.990162 kJ/mol
# Density = 1.629426 g / cm^3
# Si number density = 16.331434 Si / 1000 Ang^3
#
#
#
# Elastic Constant Matrix: (Units=GPa)
#
#
# Indices 1 2 3 4 5 6 
#
# 1 77.1860 26.6279 44.2685 0.0000 0.0000 0.0000
# 2 26.6279 57.0939 24.0580 0.0000 0.0000 0.0000
# 3 44.2685 24.0580 97.1448 0.0000 0.0000 0.0000
# 4 0.0000 0.0000 0.0000 17.2401 0.0000 0.0000
# 5 0.0000 0.0000 0.0000 0.0000 30.4301 0.0000
# 6 0.0000 0.0000 0.0000 0.0000 0.0000 23.4963
#
#
#
# Elastic Compliance Matrix: (Units=1/GPa)
#
#
# Indices 1 2 3 4 5 6 
#
# 1 0.019152 -0.005867 -0.007274 0.000000 0.000000 0.000000
# 2 -0.005867 0.021353 -0.002615 0.000000 0.000000 0.000000
# 3 -0.007274 -0.002615 0.014256 0.000000 0.000000 0.000000
# 4 0.000000 0.000000 0.000000 0.058004 0.000000 0.000000
# 5 0.000000 0.000000 0.000000 0.000000 0.032862 0.000000
# 6 0.000000 0.000000 0.000000 0.000000 0.000000 0.042560
#
#
# Mechanical properties :
#
#
# Convention : Reuss Voigt Hill
#
# Bulk Modulus (GPa) = 43.01203 46.81482 44.91343
# Shear Modulus (GPa) = 21.98292 23.33131 22.65712
#
# Velocity S-wave (km/s) = 3.67284 3.78380 3.72873
# Velocity P-wave (km/s) = 6.66186 6.91500 6.78961
#
# Compressibility (1/GPa) = 0.02324931
#
# Stress axis : x y z
#
# Youngs Moduli (GPa) = 52.21434 46.83188 70.14411
#
# Poissons Ratio (x) = 0.27476 0.51026
# Poissons Ratio (y) = 0.30634 0.18340
# Poissons Ratio (z) = 0.37983 0.12245
#
# Static dielectric constant tensor:
#      x y z
#    x 3.092030 0.000000 0.000000 
#    y 0.000000 2.808100 0.000000 
#    z 0.000000 0.000000 3.084300 
# 
# 
# High freq. dielectric constant tensor:
#      x y z
#    x 1.639160 0.000000 0.000000 
#    y 0.000000 1.591610 0.000000 
#    z 0.000000 0.000000 1.621010 
# 
# From -- ./inp_files/26953.got.cif
#   From: 2010.03.12/outbox.cif.g09.slc.cpg/sg47_14_cif.got.tgz:26953.got - 2010.04.14 03:12:58.
