data_PCOD8195155
_publ_section_title
;
Structure prediction by ZEFSAII (Michael W. Deem and Ramdas Pophale) SiO2 
 PCOD8195155
Probable space group: P M M M
;
_chemical_formula_sum "Si O2"
_cell_formula_units_Z 40
_cell_length_a 27.563200
_cell_length_b 9.439632
_cell_length_c 7.715725
_cell_angle_alpha 90.000000
_cell_angle_beta 90.000000
_cell_angle_gamma 90.000000
_cell_volume 2007.527211
_symmetry_space_group_name_H-M "P M M M"
_symmetry_group_IT_number 47
_symmetry_cell_setting 'orthorhombic'
loop_
_space_group_symop_operation_xyz
x,y,z
-x,-y,z
x,-y,-z
-x,y,-z
-x,-y,-z
x,y,-z
-x,y,z
x,-y,z
loop_
_atom_site_type_symbol
_atom_site_label
_atom_site_fract_x
_atom_site_fract_y
_atom_site_fract_z
Si Si1 0.053923 0.332190 0.500000
Si Si2 0.122455 0.337643 0.194401
Si Si3 0.785862 0.162953 0.705263
Si Si4 0.695901 0.658664 0.294145
Si Si5 0.500000 0.159119 0.707165
Si Si6 0.411329 0.658964 0.706033
O O1 0.049660 0.500000 0.500000
O O2 0.082108 0.280073 0.328193
O O3 0.000000 0.264723 0.500000
O O4 0.136399 0.500000 0.240116
O O5 0.169967 0.242414 0.204937
O O6 0.101039 0.326865 0.000000
O O7 0.790646 0.180260 0.500000
O O8 0.736095 0.232411 0.776317
O O9 0.786274 0.000000 0.762611
O O10 0.696405 0.658712 0.500000
O O11 0.707660 0.500000 0.226571
O O12 0.642326 0.705958 0.228891
O O13 0.500000 0.162141 0.500000
O O14 0.547934 0.236300 0.781872
O O15 0.500000 0.000000 0.778724
O O16 0.412804 0.662444 0.500000
O O17 0.422546 0.500000 0.771168
#
# Coordination Sequence:
#
# PCOD8195155 Si02
#       6
#     4   8   8   8   4   8
#     4   9  18  34  57  85 115 143 175 222 269 306
#     4  10  20  34  55  81 108 142 180 217 262 314
#     4  10  19  30  47  71  99 133 170 211 262 316
#     4   8  14  24  39  58  81 113 156 206 257 311
#     4   9  15  19  25  39  63  99 142 193 250 304
#     4   8  13  21  31  44  65  99 145 194 246 305
#
# _framework density 19.925011000000001
#
# number of rings (size 3 to 8) (size 9 to 14) (size 15 to 20)
#    0.000    3.000    1.000    2.100    0.000    3.600 
#    0.000    6.000    0.000    1.200    0.000    1.400 
#    0.000    0.000    0.000    0.900    0.000   18.400 
#
# Total GULP energy -495820.662506 kJ/mol
# GULP energy per Si atom -12395.516563 kJ/mol
# Density = 1.987966 g / cm^3
# Si number density = 19.925011 Si / 1000 Ang^3
#
#
#
# Elastic Constant Matrix: (Units=GPa)
#
#
# Indices 1 2 3 4 5 6 
#
# 1 183.3011 84.9605 41.0948 0.0000 0.0000 0.0000
# 2 84.9605 114.8368 26.1396 0.0000 0.0000 0.0000
# 3 41.0948 26.1396 59.6817 0.0000 0.0000 0.0000
# 4 0.0000 0.0000 0.0000 7.0993 0.0000 0.0000
# 5 0.0000 0.0000 0.0000 0.0000 -2.6412 0.0000
# 6 0.0000 0.0000 0.0000 0.0000 0.0000 8.5858
#
#
#
# Elastic Compliance Matrix: (Units=1/GPa)
#
#
# Indices 1 2 3 4 5 6 
#
# 1 0.008958 -0.005802 -0.003627 0.000000 0.000000 0.000000
# 2 -0.005802 0.013430 -0.001887 0.000000 0.000000 0.000000
# 3 -0.003627 -0.001887 0.020080 0.000000 0.000000 0.000000
# 4 0.000000 0.000000 0.000000 0.140859 0.000000 0.000000
# 5 0.000000 0.000000 0.000000 0.000000 -0.378620 0.000000
# 6 0.000000 0.000000 0.000000 0.000000 0.000000 0.116471
#
#
# Mechanical properties :
#
#
# Convention : Reuss Voigt Hill
#
# Bulk Modulus (GPa) = 50.41483 73.57880 61.99682
# Shear Modulus (GPa) = -100.84803 16.31711 -42.26546
#
# Velocity S-wave (km/s) = -7.12206 2.86479 -4.61067
# Velocity P-wave (km/s) = 6.50187 6.92465 1.68470
#
# Compressibility (1/GPa) = 0.01983543
#
# Stress axis : x y z
#
# Youngs Moduli (GPa) = 111.63542 74.46086 49.80195
#
# Poissons Ratio (x) = 0.43200 0.18063
# Poissons Ratio (y) = 0.64767 0.09399
# Poissons Ratio (z) = 0.40490 0.14052
#
# Static dielectric constant tensor:
#      x y z
#    x 3.922870 0.000000 0.000000 
#    y 0.000000 3.575710 0.000000 
#    z 0.000000 0.000000 3.211410 
# 
# 
# High freq. dielectric constant tensor:
#      x y z
#    x 1.780060 0.000000 0.000000 
#    y 0.000000 1.755530 0.000000 
#    z 0.000000 0.000000 1.745250 
# 
# From -- ./inp_files/13086.got.cif
#   From: 2010.03.12/outbox.cif.g09.slc.cpg/sg47_7_cif.got.tgz:13086.got - 2010.04.14 03:12:58.
