data_PCOD8195064
_publ_section_title
;
Structure prediction by ZEFSAII (Michael W. Deem and Ramdas Pophale) SiO2 
 PCOD8195064
Probable space group: P M M M
;
_chemical_formula_sum "Si O2"
_cell_formula_units_Z 64
_cell_length_a 9.049557
_cell_length_b 22.678471
_cell_length_c 18.551433
_cell_angle_alpha 90.000000
_cell_angle_beta 90.000000
_cell_angle_gamma 90.000000
_cell_volume 3807.312746
_symmetry_space_group_name_H-M "P M M M"
_symmetry_group_IT_number 47
_symmetry_cell_setting 'orthorhombic'
loop_
_space_group_symop_operation_xyz
x,y,z
-x,-y,z
x,-y,-z
-x,y,-z
-x,-y,-z
x,y,-z
-x,y,z
x,-y,z
loop_
_atom_site_type_symbol
_atom_site_label
_atom_site_fract_x
_atom_site_fract_y
_atom_site_fract_z
Si Si1 0.670014 0.184703 0.580893
Si Si2 0.826265 0.066499 0.617126
Si Si3 0.335431 0.934758 0.236350
Si Si4 0.834805 0.160678 0.168700
Si Si5 0.660851 0.239903 0.921444
Si Si6 0.334481 0.659436 0.194525
Si Si7 0.170026 0.254969 0.705449
Si Si8 0.675612 0.432817 0.919198
O O1 0.681453 0.210532 0.500000
O O2 0.500000 0.178644 0.605533
O O3 0.740952 0.119013 0.577226
O O4 0.749681 0.231431 0.633469
O O5 0.782860 0.070570 0.700195
O O6 0.000000 0.077955 0.608832
O O7 0.786197 0.000000 0.587840
O O8 0.500000 0.916703 0.263156
O O9 0.279969 0.892651 0.173471
O O10 0.337926 0.000000 0.203971
O O11 0.791074 0.194367 0.096123
O O12 0.815036 0.203030 0.237098
O O13 0.000000 0.136618 0.161900
O O14 0.500000 0.208285 0.919571
O O15 0.658307 0.291362 0.865176
O O16 0.693201 0.266796 0.000000
O O17 0.500000 0.644256 0.222861
O O18 0.240144 0.683968 0.262811
O O19 0.261389 0.604668 0.149566
O O20 0.000000 0.268466 0.686846
O O21 0.500000 0.425811 0.918307
O O22 0.724162 0.500000 0.905682
O O23 0.731729 0.413250 0.000000
#
# Coordination Sequence:
#
# PCOD8195064 Si02
#       8
#     8   8   8   8   8   8   8   8
#     4  11  23  36  51  70  93 122 155 194 240 288
#     4  10  20  33  49  69  93 121 152 186 227 280
#     4  10  19  30  47  68  87 110 143 184 227 273
#     4  10  19  30  46  66  87 113 144 183 231 279
#     4   9  17  28  43  64  89 118 152 189 230 275
#     4   9  16  27  46  69  95 128 164 203 237 269
#     4  10  20  33  48  67  91 121 157 195 236 283
#     4   8  13  22  40  70 106 140 174 209 241 274
#
# _framework density 16.809757000000001
#
# number of rings (size 3 to 8) (size 9 to 14) (size 15 to 20)
#    0.000    2.375    1.250    2.625    0.000    5.500 
#    0.000    1.250    0.000    1.875    0.000    3.500 
#    0.000    0.500    0.000    5.750    0.000    1.625 
#
# Total GULP energy -792879.464029 kJ/mol
# GULP energy per Si atom -12388.741625 kJ/mol
# Density = 1.677150 g / cm^3
# Si number density = 16.809757 Si / 1000 Ang^3
#
#
#
# Elastic Constant Matrix: (Units=GPa)
#
#
# Indices 1 2 3 4 5 6 
#
# 1 88.4964 37.3300 34.8575 0.0000 0.0000 0.0000
# 2 37.3300 74.1473 37.1428 0.0000 0.0000 0.0000
# 3 34.8575 37.1428 69.1056 0.0000 0.0000 0.0000
# 4 0.0000 0.0000 0.0000 23.6057 0.0000 0.0000
# 5 0.0000 0.0000 0.0000 0.0000 14.9118 0.0000
# 6 0.0000 0.0000 0.0000 0.0000 0.0000 14.4817
#
#
#
# Elastic Compliance Matrix: (Units=1/GPa)
#
#
# Indices 1 2 3 4 5 6 
#
# 1 0.015496 -0.005318 -0.004958 0.000000 0.000000 0.000000
# 2 -0.005318 0.020281 -0.008218 0.000000 0.000000 0.000000
# 3 -0.004958 -0.008218 0.021389 0.000000 0.000000 0.000000
# 4 0.000000 0.000000 0.000000 0.042363 0.000000 0.000000
# 5 0.000000 0.000000 0.000000 0.000000 0.067061 0.000000
# 6 0.000000 0.000000 0.000000 0.000000 0.000000 0.069053
#
#
# Mechanical properties :
#
#
# Convention : Reuss Voigt Hill
#
# Bulk Modulus (GPa) = 49.56090 50.04553 49.80322
# Shear Modulus (GPa) = 17.89835 18.76110 18.32973
#
# Velocity S-wave (km/s) = 3.26661 3.34441 3.30574
# Velocity P-wave (km/s) = 6.61627 6.68953 6.65300
#
# Compressibility (1/GPa) = 0.02017720
#
# Stress axis : x y z
#
# Youngs Moduli (GPa) = 64.53257 49.30792 46.75403
#
# Poissons Ratio (x) = 0.26222 0.23181
# Poissons Ratio (y) = 0.34318 0.38423
# Poissons Ratio (z) = 0.31996 0.40522
#
# Static dielectric constant tensor:
#      x y z
#    x 3.247300 0.000000 0.000000 
#    y 0.000000 3.227890 0.000000 
#    z 0.000000 0.000000 3.056430 
# 
# 
# High freq. dielectric constant tensor:
#      x y z
#    x 1.645610 0.000000 0.000000 
#    y 0.000000 1.622120 0.000000 
#    z 0.000000 0.000000 1.623800 
# 
# From -- ./inp_files/27092.got.cif
#   From: 2010.03.12/outbox.cif.g09.slc.cpg/sg47_14_cif.got.tgz:27092.got - 2010.04.14 03:12:58.
