data_PCOD8195867
_publ_section_title
;
Structure prediction by ZEFSAII (Michael W. Deem and Ramdas Pophale) SiO2 
 PCOD8195867
Probable space group: P M M M
;
_chemical_formula_sum "Si O2"
_cell_formula_units_Z 64
_cell_length_a 19.900046
_cell_length_b 19.900073
_cell_length_c 9.044028
_cell_angle_alpha 90.000000
_cell_angle_beta 90.000000
_cell_angle_gamma 90.000000
_cell_volume 3581.546945
_symmetry_space_group_name_H-M "P M M M"
_symmetry_group_IT_number 47
_symmetry_cell_setting 'orthorhombic'
loop_
_space_group_symop_operation_xyz
x,y,z
-x,-y,z
x,-y,-z
-x,y,-z
-x,-y,-z
x,y,-z
-x,y,z
x,-y,z
loop_
_atom_site_type_symbol
_atom_site_label
_atom_site_fract_x
_atom_site_fract_y
_atom_site_fract_z
Si Si1 0.818395 0.818394 0.323925
Si Si2 0.074688 0.074688 0.324361
Si Si3 0.679556 0.173062 0.172307
Si Si4 0.574753 0.574753 0.674710
Si Si5 0.422144 0.077421 0.669808
Si Si6 0.077421 0.422144 0.330192
Si Si7 0.326741 0.673259 0.831954
Si Si8 0.173062 0.679556 0.827693
O O1 0.815238 0.815237 0.500000
O O2 0.872072 0.872072 0.262844
O O3 0.746720 0.842293 0.263210
O O4 0.842294 0.746720 0.263210
O O5 0.075650 0.075650 0.500000
O O6 0.000000 0.093993 0.267773
O O7 0.093994 0.000000 0.267773
O O8 0.620909 0.123607 0.222426
O O9 0.656662 0.249269 0.202941
O O10 0.695110 0.162380 0.000000
O O11 0.575712 0.575712 0.500000
O O12 0.500000 0.593794 0.731757
O O13 0.593794 0.500000 0.731756
O O14 0.628092 0.628093 0.728796
O O15 0.406313 0.095731 0.500000
O O16 0.500000 0.090571 0.705147
O O17 0.403790 0.000000 0.700533
O O18 0.095731 0.406313 0.500000
O O19 0.090572 0.500000 0.294853
O O20 0.123607 0.379091 0.222426
O O21 0.000000 0.403790 0.299466
O O22 0.249269 0.656663 0.797056
O O23 0.344321 0.655678 0.000000
O O24 0.162380 0.695109 0.000000
#
# Coordination Sequence:
#
# PCOD8195867 Si02
#       8
#     8   8   8   8   8   8   8   8
#     4  10  19  32  53  78 103 135 174 215 257 303
#     4   8  15  29  49  74 102 129 161 205 254 300
#     4  10  21  36  52  74 106 139 171 211 259 311
#     4   9  19  35  53  75 102 129 161 204 251 298
#     4   9  19  36  56  78 104 134 172 217 260 307
#     4   9  19  36  56  78 104 134 172 217 260 307
#     4   9  20  36  51  71 101 135 170 206 245 297
#     4  10  21  36  52  74 106 139 171 211 259 311
#
# _framework density 17.869374000000001
#
# number of rings (size 3 to 8) (size 9 to 14) (size 15 to 20)
#    0.000    2.750    0.000    3.375    0.000    6.500 
#    0.000    9.375    0.000    2.250    0.000    3.500 
#    0.000    0.000    0.000    0.000    0.000    0.000 
#
# Total GULP energy -793565.557076 kJ/mol
# GULP energy per Si atom -12399.461829 kJ/mol
# Density = 1.782870 g / cm^3
# Si number density = 17.869374 Si / 1000 Ang^3
#
#
#
# Elastic Constant Matrix: (Units=GPa)
#
#
# Indices 1 2 3 4 5 6 
#
# 1 106.6239 81.5455 50.2362 0.0000 0.0000 0.0000
# 2 81.5455 106.6252 50.2367 0.0000 0.0000 0.0000
# 3 50.2362 50.2367 71.4531 0.0000 0.0000 0.0000
# 4 0.0000 0.0000 0.0000 17.1196 0.0000 0.0000
# 5 0.0000 0.0000 0.0000 0.0000 17.1188 0.0000
# 6 0.0000 0.0000 0.0000 0.0000 0.0000 39.3405
#
#
#
# Elastic Compliance Matrix: (Units=1/GPa)
#
#
# Indices 1 2 3 4 5 6 
#
# 1 0.024191 -0.015683 -0.005982 0.000000 0.000000 0.000000
# 2 -0.015683 0.024191 -0.005982 0.000000 0.000000 0.000000
# 3 -0.005982 -0.005982 0.022407 0.000000 0.000000 0.000000
# 4 0.000000 0.000000 0.000000 0.058413 0.000000 0.000000
# 5 0.000000 0.000000 0.000000 0.000000 0.058415 0.000000
# 6 0.000000 0.000000 0.000000 0.000000 0.000000 0.025419
#
#
# Mechanical properties :
#
#
# Convention : Reuss Voigt Hill
#
# Bulk Modulus (GPa) = 64.53472 72.08210 68.30841
# Shear Modulus (GPa) = 18.28190 21.56137 19.92163
#
# Velocity S-wave (km/s) = 3.20204 3.47740 3.34256
# Velocity P-wave (km/s) = 7.06143 7.51991 7.29427
#
# Compressibility (1/GPa) = 0.01549554
#
# Stress axis : x y z
#
# Youngs Moduli (GPa) = 41.33723 41.33755 44.62949
#
# Poissons Ratio (x) = 0.64829 0.26697
# Poissons Ratio (y) = 0.64828 0.26698
# Poissons Ratio (z) = 0.24728 0.24728
#
# Static dielectric constant tensor:
#      x y z
#    x 3.373580 0.000000 0.000000 
#    y 0.000000 3.373600 0.000000 
#    z 0.000000 0.000000 3.142310 
# 
# 
# High freq. dielectric constant tensor:
#      x y z
#    x 1.695060 0.000000 0.000000 
#    y 0.000000 1.695060 0.000000 
#    z 0.000000 0.000000 1.681830 
# 
# From -- ./inp_files/11594.got.cif
#   From: 2010.03.12/outbox.cif.g09.slc.cpg/sg47_6_cif.got.tgz:11594.got - 2010.04.14 03:12:58.
