data_PCOD8195503
_publ_section_title
;
Structure prediction by ZEFSAII (Michael W. Deem and Ramdas Pophale) SiO2 
 PCOD8195503
Probable space group: P M M M
;
_chemical_formula_sum "Si O2"
_cell_formula_units_Z 64
_cell_length_a 18.709786
_cell_length_b 20.616887
_cell_length_c 8.664431
_cell_angle_alpha 90.000000
_cell_angle_beta 90.000000
_cell_angle_gamma 90.000000
_cell_volume 3342.196332
_symmetry_space_group_name_H-M "P M M M"
_symmetry_group_IT_number 47
_symmetry_cell_setting 'orthorhombic'
loop_
_space_group_symop_operation_xyz
x,y,z
-x,-y,z
x,-y,-z
-x,y,-z
-x,-y,-z
x,y,-z
-x,y,z
x,-y,z
loop_
_atom_site_type_symbol
_atom_site_label
_atom_site_fract_x
_atom_site_fract_y
_atom_site_fract_z
Si Si1 0.330604 0.692341 0.682975
Si Si2 0.919293 0.812939 0.684223
Si Si3 0.830036 0.690674 0.315785
Si Si4 0.582026 0.190797 0.180070
Si Si5 0.419618 0.571825 0.316451
Si Si6 0.919986 0.571681 0.683605
Si Si7 0.338360 0.074906 0.679501
Si Si8 0.176955 0.928568 0.683545
O O1 0.328686 0.688203 0.500000
O O2 0.250249 0.695974 0.749460
O O3 0.372585 0.756407 0.728829
O O4 0.368299 0.627684 0.751974
O O5 0.919842 0.813541 0.500000
O O6 0.876904 0.750502 0.746585
O O7 0.879133 0.876571 0.749866
O O8 0.000000 0.811881 0.748823
O O9 0.829634 0.690822 0.500000
O O10 0.865120 0.624659 0.249989
O O11 0.500000 0.197422 0.231284
O O12 0.608497 0.118883 0.221732
O O13 0.591565 0.202990 0.000000
O O14 0.419087 0.574628 0.500000
O O15 0.500000 0.584713 0.255898
O O16 0.393802 0.500000 0.262125
O O17 0.919851 0.574199 0.500000
O O18 0.896208 0.500000 0.740028
O O19 0.000000 0.587291 0.743216
O O20 0.347320 0.092175 0.500000
O O21 0.257354 0.089525 0.734684
O O22 0.357889 0.000000 0.710132
O O23 0.174757 0.929435 0.500000
O O24 0.156089 0.000000 0.746806
#
# Coordination Sequence:
#
# PCOD8195503 Si02
#       8
#     8   8   8   8   8   8   8   8
#     4  10  19  31  50  72  94 125 163 202 244 290
#     4   9  15  21  31  50  81 120 153 181 219 265
#     4   9  16  24  36  57  84 115 155 199 234 268
#     4  11  24  38  51  70  98 129 159 196 240 285
#     4   8  14  25  42  66  93 116 143 187 241 290
#     4   8  13  21  33  52  86 131 165 187 226 289
#     4   9  18  34  56  78  99 125 157 194 236 283
#     4   8  14  25  41  62  88 116 147 184 223 264
#
# _framework density 19.149084999999999
#
# number of rings (size 3 to 8) (size 9 to 14) (size 15 to 20)
#    0.000    3.000    0.000    3.375    0.000    6.250 
#    0.000    5.000    0.000    0.375    0.000    1.750 
#    0.000   12.500    0.000   12.375    0.000   12.250 
#
# Total GULP energy -793339.081010 kJ/mol
# GULP energy per Si atom -12395.923141 kJ/mol
# Density = 1.910550 g / cm^3
# Si number density = 19.149085 Si / 1000 Ang^3
#
#
#
# Elastic Constant Matrix: (Units=GPa)
#
#
# Indices 1 2 3 4 5 6 
#
# 1 154.0847 92.8400 11.1063 0.0000 0.0000 0.0000
# 2 92.8400 152.4785 7.5979 0.0000 0.0000 0.0000
# 3 11.1063 7.5979 5.6599 0.0000 0.0000 0.0000
# 4 0.0000 0.0000 0.0000 2.8533 0.0000 0.0000
# 5 0.0000 0.0000 0.0000 0.0000 3.5873 0.0000
# 6 0.0000 0.0000 0.0000 0.0000 0.0000 44.9645
#
#
#
# Elastic Compliance Matrix: (Units=1/GPa)
#
#
# Indices 1 2 3 4 5 6 
#
# 1 0.011160 -0.006113 -0.013693 0.000000 0.000000 0.000000
# 2 -0.006113 0.010377 -0.001935 0.000000 0.000000 0.000000
# 3 -0.013693 -0.001935 0.206148 0.000000 0.000000 0.000000
# 4 0.000000 0.000000 0.000000 0.350468 0.000000 0.000000
# 5 0.000000 0.000000 0.000000 0.000000 0.278764 0.000000
# 6 0.000000 0.000000 0.000000 0.000000 0.000000 0.022240
#
#
# Mechanical properties :
#
#
# Convention : Reuss Voigt Hill
#
# Bulk Modulus (GPa) = 5.42879 59.47907 32.45393
# Shear Modulus (GPa) = 5.08110 23.65960 14.37035
#
# Velocity S-wave (km/s) = 1.63071 3.51885 2.74240
# Velocity P-wave (km/s) = 2.52721 6.90204 5.19735
#
# Compressibility (1/GPa) = 0.18420319
#
# Stress axis : x y z
#
# Youngs Moduli (GPa) = 89.60586 96.37107 4.85088
#
# Poissons Ratio (x) = 0.58909 0.06642
# Poissons Ratio (y) = 0.54773 0.00939
# Poissons Ratio (z) = 1.22699 0.18646
#
# Static dielectric constant tensor:
#      x y z
#    x 3.738120 0.000000 0.000000 
#    y 0.000000 3.860240 0.000000 
#    z 0.000000 0.000000 2.728820 
# 
# 
# High freq. dielectric constant tensor:
#      x y z
#    x 1.749910 0.000000 0.000000 
#    y 0.000000 1.763270 0.000000 
#    z 0.000000 0.000000 1.666000 
# 
# From -- ./inp_files/9908.got.cif
#   From: 2010.03.12/outbox.cif.g09.slc.cpg/sg47_5_cif.got.tgz:9908.got - 2010.04.14 03:12:58.
