data_PCOD8195467
_publ_section_title
;
Structure prediction by ZEFSAII (Michael W. Deem and Ramdas Pophale) SiO2 
 PCOD8195467
Probable space group: P M M M
;
_chemical_formula_sum "Si O2"
_cell_formula_units_Z 56
_cell_length_a 8.676923
_cell_length_b 18.659119
_cell_length_c 18.934921
_cell_angle_alpha 90.000000
_cell_angle_beta 90.000000
_cell_angle_gamma 90.000000
_cell_volume 3065.634504
_symmetry_space_group_name_H-M "P M M M"
_symmetry_group_IT_number 47
_symmetry_cell_setting 'orthorhombic'
loop_
_space_group_symop_operation_xyz
x,y,z
-x,-y,z
x,-y,-z
-x,y,-z
-x,-y,-z
x,y,-z
-x,y,z
x,-y,z
loop_
_atom_site_type_symbol
_atom_site_label
_atom_site_fract_x
_atom_site_fract_y
_atom_site_fract_z
Si Si1 0.823796 0.341449 0.579421
Si Si2 0.679759 0.190020 0.579209
Si Si3 0.320037 0.715340 0.791153
Si Si4 0.678034 0.580246 0.296701
Si Si5 0.819861 0.151349 0.283148
Si Si6 0.320254 0.081294 0.845660
Si Si7 0.181017 0.785937 0.919512
O O1 0.801281 0.371240 0.500000
O O2 0.716199 0.273147 0.592705
O O3 0.777117 0.403471 0.633606
O O4 0.000000 0.317824 0.592207
O O5 0.730677 0.167626 0.500000
O O6 0.500000 0.177993 0.590888
O O7 0.771073 0.140830 0.635207
O O8 0.500000 0.733303 0.783905
O O9 0.281657 0.634379 0.767287
O O10 0.225384 0.768672 0.740970
O O11 0.267434 0.726586 0.872020
O O12 0.500000 0.587381 0.317924
O O13 0.718042 0.500000 0.270769
O O14 0.731990 0.093422 0.235118
O O15 0.000000 0.139109 0.274240
O O16 0.500000 0.098634 0.852126
O O17 0.228531 0.133705 0.897724
O O18 0.283551 0.000000 0.867975
O O19 0.000000 0.777702 0.908053
O O20 0.229545 0.772091 0.000000
#
# Coordination Sequence:
#
# PCOD8195467 Si02
#       7
#     8   8   8   8   8   8   8
#     4  10  20  32  47  70 100 134 173 218 268 317
#     4  10  19  31  49  72  99 133 174 220 266 310
#     4  10  19  33  54  76 101 133 173 217 255 304
#     4  10  21  35  51  72 100 137 177 218 267 318
#     4  11  20  31  52  77 104 136 172 216 261 307
#     4  10  21  36  55  80 110 143 176 207 243 296
#     4  10  21  36  56  82 110 139 169 205 252 305
#
# _framework density 18.267019000000001
#
# number of rings (size 3 to 8) (size 9 to 14) (size 15 to 20)
#    0.000    1.857    1.429    5.143    0.000    5.429 
#    0.000    2.857    0.000    0.857    0.000    6.000 
#    0.000    0.000    0.000    0.000    0.000    0.000 
#
# Total GULP energy -694462.122949 kJ/mol
# GULP energy per Si atom -12401.109338 kJ/mol
# Density = 1.822544 g / cm^3
# Si number density = 18.267019 Si / 1000 Ang^3
#
#
#
# Elastic Constant Matrix: (Units=GPa)
#
#
# Indices 1 2 3 4 5 6 
#
# 1 44.5116 13.5096 25.2952 0.0000 0.0000 0.0000
# 2 13.5096 62.1030 31.3483 0.0000 0.0000 0.0000
# 3 25.2952 31.3483 118.8710 0.0000 0.0000 0.0000
# 4 0.0000 0.0000 0.0000 19.3937 0.0000 0.0000
# 5 0.0000 0.0000 0.0000 0.0000 32.0413 0.0000
# 6 0.0000 0.0000 0.0000 0.0000 0.0000 9.4902
#
#
#
# Elastic Compliance Matrix: (Units=1/GPa)
#
#
# Indices 1 2 3 4 5 6 
#
# 1 0.026137 -0.003320 -0.004686 0.000000 0.000000 0.000000
# 2 -0.003320 0.018997 -0.004303 0.000000 0.000000 0.000000
# 3 -0.004686 -0.004303 0.010545 0.000000 0.000000 0.000000
# 4 0.000000 0.000000 0.000000 0.051563 0.000000 0.000000
# 5 0.000000 0.000000 0.000000 0.000000 0.031210 0.000000
# 6 0.000000 0.000000 0.000000 0.000000 0.000000 0.105372
#
#
# Mechanical properties :
#
#
# Convention : Reuss Voigt Hill
#
# Bulk Modulus (GPa) = 32.19698 40.64352 36.42025
# Shear Modulus (GPa) = 17.93432 22.54055 20.23744
#
# Velocity S-wave (km/s) = 3.13675 3.51657 3.33208
# Velocity P-wave (km/s) = 5.54824 6.22787 5.89785
#
# Compressibility (1/GPa) = 0.03105881
#
# Stress axis : x y z
#
# Youngs Moduli (GPa) = 38.26022 52.64070 94.83604
#
# Poissons Ratio (x) = 0.17478 0.44442
# Poissons Ratio (y) = 0.12703 0.40810
# Poissons Ratio (z) = 0.17929 0.22653
#
# Static dielectric constant tensor:
#      x y z
#    x 3.425230 0.000000 0.000000 
#    y 0.000000 3.148440 0.000000 
#    z 0.000000 0.000000 3.521570 
# 
# 
# High freq. dielectric constant tensor:
#      x y z
#    x 1.721200 0.000000 0.000000 
#    y 0.000000 1.674370 0.000000 
#    z 0.000000 0.000000 1.708030 
# 
# From -- ./inp_files/26935.got.cif
#   From: 2010.03.12/outbox.cif.g09.slc.cpg/sg47_14_cif.got.tgz:26935.got - 2010.04.14 03:12:58.
