data_PCOD8195150
_publ_section_title
;
Structure prediction by ZEFSAII (Michael W. Deem and Ramdas Pophale) SiO2 
 PCOD8195150
Probable space group: P M M M
;
_chemical_formula_sum "Si O2"
_cell_formula_units_Z 64
_cell_length_a 8.957117
_cell_length_b 23.220497
_cell_length_c 18.916858
_cell_angle_alpha 90.000000
_cell_angle_beta 90.000000
_cell_angle_gamma 90.000000
_cell_volume 3934.492863
_symmetry_space_group_name_H-M "P M M M"
_symmetry_group_IT_number 47
_symmetry_cell_setting 'orthorhombic'
loop_
_space_group_symop_operation_xyz
x,y,z
-x,-y,z
x,-y,-z
-x,y,-z
-x,-y,-z
x,y,-z
-x,y,z
x,-y,z
loop_
_atom_site_type_symbol
_atom_site_label
_atom_site_fract_x
_atom_site_fract_y
_atom_site_fract_z
Si Si1 0.829656 0.840785 0.790181
Si Si2 0.675879 0.333581 0.157664
Si Si3 0.827087 0.232175 0.080253
Si Si4 0.171827 0.433622 0.081229
Si Si5 0.172382 0.278361 0.712779
Si Si6 0.171599 0.121749 0.579335
Si Si7 0.328215 0.934640 0.295449
Si Si8 0.673951 0.243408 0.579509
O O1 0.785568 0.821776 0.869739
O O2 0.803761 0.787111 0.738113
O O3 0.724745 0.893228 0.767704
O O4 0.000000 0.861971 0.786519
O O5 0.500000 0.329665 0.165067
O O6 0.730356 0.287653 0.099620
O O7 0.722872 0.396728 0.132080
O O8 0.747435 0.321991 0.234031
O O9 0.000000 0.249048 0.092657
O O10 0.794646 0.213706 0.000000
O O11 0.197499 0.500000 0.100882
O O12 0.000000 0.416076 0.093366
O O13 0.216200 0.422248 0.000000
O O14 0.243571 0.285286 0.634906
O O15 0.000000 0.295387 0.709542
O O16 0.187019 0.096867 0.500000
O O17 0.233160 0.074540 0.633374
O O18 0.265582 0.179292 0.588245
O O19 0.000000 0.136063 0.597632
O O20 0.500000 0.921662 0.312499
O O21 0.304431 0.000000 0.270003
O O22 0.704819 0.266196 0.500000
O O23 0.500000 0.242612 0.597216
#
# Coordination Sequence:
#
# PCOD8195150 Si02
#       8
#     8   8   8   8   8   8   8   8
#     4   9  18  32  50  70  89 114 149 189 232 282
#     4  11  21  30  45  72 104 133 163 202 243 282
#     4   9  18  33  52  72  95 122 152 190 237 288
#     4   9  18  33  51  69  95 136 179 212 243 282
#     4  10  19  32  50  70  94 126 163 199 236 281
#     4  10  20  33  49  68  90 119 154 189 226 275
#     4  11  23  35  48  66  89 118 151 191 238 286
#     4  10  19  30  47  71  98 126 154 189 236 287
#
# _framework density 16.266390000000001
#
# number of rings (size 3 to 8) (size 9 to 14) (size 15 to 20)
#    0.000    2.125    1.250    4.125    0.000    7.000 
#    0.000    1.875    0.000    0.375    0.000    2.625 
#    0.000    0.500    0.000    5.250    0.000    2.250 
#
# Total GULP energy -793707.616179 kJ/mol
# GULP energy per Si atom -12401.681503 kJ/mol
# Density = 1.622937 g / cm^3
# Si number density = 16.266390 Si / 1000 Ang^3
#
#
#
# Elastic Constant Matrix: (Units=GPa)
#
#
# Indices 1 2 3 4 5 6 
#
# 1 108.9044 44.0671 60.3649 0.0000 0.0000 0.0000
# 2 44.0671 69.6354 47.5548 0.0000 0.0000 0.0000
# 3 60.3649 47.5548 120.8142 0.0000 0.0000 0.0000
# 4 0.0000 0.0000 0.0000 24.4271 0.0000 0.0000
# 5 0.0000 0.0000 0.0000 0.0000 24.7028 0.0000
# 6 0.0000 0.0000 0.0000 0.0000 0.0000 23.9675
#
#
#
# Elastic Compliance Matrix: (Units=1/GPa)
#
#
# Indices 1 2 3 4 5 6 
#
# 1 0.014155 -0.005645 -0.004851 0.000000 0.000000 0.000000
# 2 -0.005645 0.021891 -0.005796 0.000000 0.000000 0.000000
# 3 -0.004851 -0.005796 0.012982 0.000000 0.000000 0.000000
# 4 0.000000 0.000000 0.000000 0.040938 0.000000 0.000000
# 5 0.000000 0.000000 0.000000 0.000000 0.040481 0.000000
# 6 0.000000 0.000000 0.000000 0.000000 0.000000 0.041723
#
#
# Mechanical properties :
#
#
# Convention : Reuss Voigt Hill
#
# Bulk Modulus (GPa) = 60.80982 67.03640 63.92311
# Shear Modulus (GPa) = 23.78265 24.44395 24.11330
#
# Velocity S-wave (km/s) = 3.82785 3.88071 3.85437
# Velocity P-wave (km/s) = 7.54993 7.83460 7.69358
#
# Compressibility (1/GPa) = 0.01644471
#
# Stress axis : x y z
#
# Youngs Moduli (GPa) = 70.64463 45.68027 77.02821
#
# Poissons Ratio (x) = 0.25788 0.37363
# Poissons Ratio (y) = 0.39881 0.44647
# Poissons Ratio (z) = 0.34267 0.26477
#
# Static dielectric constant tensor:
#      x y z
#    x 3.139470 0.000000 0.000000 
#    y 0.000000 2.755710 0.000000 
#    z 0.000000 0.000000 3.232010 
# 
# 
# High freq. dielectric constant tensor:
#      x y z
#    x 1.636250 0.000000 0.000000 
#    y 0.000000 1.586630 0.000000 
#    z 0.000000 0.000000 1.627190 
# 
# From -- ./inp_files/27091.got.cif
#   From: 2010.03.12/outbox.cif.g09.slc.cpg/sg47_14_cif.got.tgz:27091.got - 2010.04.14 03:12:58.
