data_PCOD8195278
_publ_section_title
;
Structure prediction by ZEFSAII (Michael W. Deem and Ramdas Pophale) SiO2 
 PCOD8195278
Probable space group: P M M M
;
_chemical_formula_sum "Si O2"
_cell_formula_units_Z 36
_cell_length_a 7.871460
_cell_length_b 18.632169
_cell_length_c 15.679045
_cell_angle_alpha 90.000000
_cell_angle_beta 90.000000
_cell_angle_gamma 90.000000
_cell_volume 2299.525946
_symmetry_space_group_name_H-M "P M M M"
_symmetry_group_IT_number 47
_symmetry_cell_setting 'orthorhombic'
loop_
_space_group_symop_operation_xyz
x,y,z
-x,-y,z
x,-y,-z
-x,y,-z
-x,-y,-z
x,y,-z
-x,y,z
x,-y,z
loop_
_atom_site_type_symbol
_atom_site_label
_atom_site_fract_x
_atom_site_fract_y
_atom_site_fract_z
Si Si1 0.199084 0.418410 0.500000
Si Si2 0.000000 0.080144 0.101154
Si Si3 0.302105 0.580493 0.319959
Si Si4 0.803967 0.584110 0.000000
Si Si5 0.303949 0.819295 0.899129
Si Si6 0.304127 0.332634 0.163210
O O1 0.265168 0.500000 0.500000
O O2 0.269552 0.383019 0.587238
O O3 0.000000 0.411646 0.500000
O O4 0.825930 0.118878 0.131740
O O5 0.000000 0.000000 0.140049
O O6 0.000000 0.077006 0.000000
O O7 0.500000 0.574150 0.301835
O O8 0.220564 0.500000 0.316146
O O9 0.217677 0.630648 0.246718
O O10 0.717260 0.615464 0.083418
O O11 0.772973 0.500000 0.000000
O O12 0.000000 0.605452 0.000000
O O13 0.500000 0.838303 0.873684
O O14 0.232206 0.746726 0.855187
O O15 0.293350 0.807036 0.000000
O O16 0.500000 0.321507 0.181945
#
# Coordination Sequence:
#
# PCOD8195278 Si02
#       6
#     4   4   8   4   8   8
#     4   9  17  29  43  59  81 107 137 182 235 274
#     4   9  18  30  46  66  86 115 148 181 221 258
#     4   9  17  29  45  62  80 108 149 190 226 267
#     4  11  23  31  39  59  85 116 153 192 228 260
#     4   9  17  29  45  65  88 117 150 182 220 266
#     4  10  19  31  46  62  82 115 152 187 226 264
#
# _framework density 15.6554
#
# number of rings (size 3 to 8) (size 9 to 14) (size 15 to 20)
#    0.000    2.556    1.111    1.333    1.556    4.444 
#    0.000    4.444    0.000    0.000    0.000    0.000 
#    0.000    0.000    0.000    2.000    0.000   16.889 
#
# Total GULP energy -446139.560511 kJ/mol
# GULP energy per Si atom -12392.765570 kJ/mol
# Density = 1.561977 g / cm^3
# Si number density = 15.655400 Si / 1000 Ang^3
#
#
#
# Elastic Constant Matrix: (Units=GPa)
#
#
# Indices 1 2 3 4 5 6 
#
# 1 50.6162 36.9648 13.5386 0.0000 0.0000 0.0000
# 2 36.9648 99.7676 42.3643 0.0000 0.0000 0.0000
# 3 13.5386 42.3643 102.6426 0.0000 0.0000 0.0000
# 4 0.0000 0.0000 0.0000 9.9175 0.0000 0.0000
# 5 0.0000 0.0000 0.0000 0.0000 -6.1688 0.0000
# 6 0.0000 0.0000 0.0000 0.0000 0.0000 20.8919
#
#
#
# Elastic Compliance Matrix: (Units=1/GPa)
#
#
# Indices 1 2 3 4 5 6 
#
# 1 0.027126 -0.010344 0.000691 0.000000 0.000000 0.000000
# 2 -0.010344 0.016098 -0.005280 0.000000 0.000000 0.000000
# 3 0.000691 -0.005280 0.011830 0.000000 0.000000 0.000000
# 4 0.000000 0.000000 0.000000 0.100831 0.000000 0.000000
# 5 0.000000 0.000000 0.000000 0.000000 -0.162105 0.000000
# 6 0.000000 0.000000 0.000000 0.000000 0.000000 0.047865
#
#
# Mechanical properties :
#
#
# Convention : Reuss Voigt Hill
#
# Bulk Modulus (GPa) = 39.69922 48.75133 44.22528
# Shear Modulus (GPa) = 62.57274 15.60536 39.08905
#
# Velocity S-wave (km/s) = 6.32895 3.16064 5.00226
# Velocity P-wave (km/s) = 8.87810 6.67289 7.85328
#
# Compressibility (1/GPa) = 0.02518941
#
# Stress axis : x y z
#
# Youngs Moduli (GPa) = 36.86541 62.12045 84.52736
#
# Poissons Ratio (x) = 0.64257 -0.05844
# Poissons Ratio (y) = 0.38133 0.44628
# Poissons Ratio (z) = -0.02549 0.32798
#
# Static dielectric constant tensor:
#      x y z
#    x 2.979690 0.000000 0.000000 
#    y 0.000000 3.041920 0.000000 
#    z 0.000000 0.000000 3.065190 
# 
# 
# High freq. dielectric constant tensor:
#      x y z
#    x 1.604670 0.000000 0.000000 
#    y 0.000000 1.568790 0.000000 
#    z 0.000000 0.000000 1.576340 
# 
# From -- ./inp_files/5606.got.cif
#   From: 2010.03.12/outbox.cif.g09.slc.cpg/sg47_3_cif.got.tgz:5606.got - 2010.04.14 03:12:58.
