data_PCOD8195826
_publ_section_title
;
Structure prediction by ZEFSAII (Michael W. Deem and Ramdas Pophale) SiO2 
 PCOD8195826
Probable space group: P M M M
;
_chemical_formula_sum "Si O2"
_cell_formula_units_Z 52
_cell_length_a 9.320376
_cell_length_b 19.044168
_cell_length_c 15.849065
_cell_angle_alpha 90.000000
_cell_angle_beta 90.000000
_cell_angle_gamma 90.000000
_cell_volume 2813.190120
_symmetry_space_group_name_H-M "P M M M"
_symmetry_group_IT_number 47
_symmetry_cell_setting 'orthorhombic'
loop_
_space_group_symop_operation_xyz
x,y,z
-x,-y,z
x,-y,-z
-x,y,-z
-x,-y,-z
x,y,-z
-x,y,z
x,-y,z
loop_
_atom_site_type_symbol
_atom_site_label
_atom_site_fract_x
_atom_site_fract_y
_atom_site_fract_z
Si Si1 0.169635 0.839663 0.334444
Si Si2 0.334610 0.718264 0.594447
Si Si3 0.663525 0.421330 0.318202
Si Si4 0.166925 0.918130 0.835759
Si Si5 0.336619 0.083446 0.000000
Si Si6 0.170528 0.921416 0.500000
Si Si7 0.159786 0.582941 0.156143
Si Si8 0.338728 0.416025 0.000000
O O1 0.241959 0.763012 0.339128
O O2 0.217418 0.877207 0.248034
O O3 0.226174 0.883668 0.415093
O O4 0.000000 0.830485 0.337520
O O5 0.281573 0.734985 0.500000
O O6 0.500000 0.738799 0.606643
O O7 0.312749 0.634772 0.607818
O O8 0.500000 0.420028 0.284780
O O9 0.702088 0.500000 0.350808
O O10 0.766287 0.396961 0.243309
O O11 0.256465 0.889204 0.915773
O O12 0.000000 0.905008 0.855038
O O13 0.197096 0.000000 0.819352
O O14 0.500000 0.111254 0.000000
O O15 0.330937 0.000000 0.000000
O O16 0.000000 0.923185 0.500000
O O17 0.233322 0.000000 0.500000
O O18 0.150674 0.500000 0.145437
O O19 0.000000 0.615709 0.153207
O O20 0.255273 0.614341 0.080891
O O21 0.342215 0.500000 0.000000
O O22 0.500000 0.385979 0.000000
#
# Coordination Sequence:
#
# PCOD8195826 Si02
#       8
#     8   8   8   8   4   4   8   4
#     4  10  19  32  52  77 104 138 176 214 257 305
#     4  10  21  36  53  73 100 133 167 208 259 314
#     4   9  18  33  52  72  94 124 166 213 259 310
#     4   9  17  30  50  77 107 140 180 222 259 297
#     4   9  17  29  47  74 107 142 178 217 263 309
#     4   9  16  28  49  77 106 135 172 214 249 289
#     4   9  16  26  42  67  97 124 152 192 243 294
#     4   9  15  23  39  64  95 130 161 187 225 287
#
# _framework density 18.484354
#
# number of rings (size 3 to 8) (size 9 to 14) (size 15 to 20)
#    0.000    2.692    0.769    1.385    0.000    7.077 
#    0.000    1.538    0.000    2.769    0.000    7.538 
#    0.000    0.000    0.000    0.000    0.000    0.000 
#
# Total GULP energy -644682.928139 kJ/mol
# GULP energy per Si atom -12397.748618 kJ/mol
# Density = 1.844228 g / cm^3
# Si number density = 18.484354 Si / 1000 Ang^3
#
#
#
# Elastic Constant Matrix: (Units=GPa)
#
#
# Indices 1 2 3 4 5 6 
#
# 1 86.4639 29.8348 58.2850 0.0000 0.0000 0.0000
# 2 29.8348 76.1732 47.7588 0.0000 0.0000 0.0000
# 3 58.2850 47.7588 138.3813 0.0000 0.0000 0.0000
# 4 0.0000 0.0000 0.0000 18.9365 0.0000 0.0000
# 5 0.0000 0.0000 0.0000 0.0000 25.5634 0.0000
# 6 0.0000 0.0000 0.0000 0.0000 0.0000 21.1611
#
#
#
# Elastic Compliance Matrix: (Units=1/GPa)
#
#
# Indices 1 2 3 4 5 6 
#
# 1 0.016575 -0.002699 -0.006050 0.000000 0.000000 0.000000
# 2 -0.002699 0.017193 -0.004797 0.000000 0.000000 0.000000
# 3 -0.006050 -0.004797 0.011430 0.000000 0.000000 0.000000
# 4 0.000000 0.000000 0.000000 0.052808 0.000000 0.000000
# 5 0.000000 0.000000 0.000000 0.000000 0.039118 0.000000
# 6 0.000000 0.000000 0.000000 0.000000 0.000000 0.047257
#
#
# Mechanical properties :
#
#
# Convention : Reuss Voigt Hill
#
# Bulk Modulus (GPa) = 55.22859 63.64174 59.43517
# Shear Modulus (GPa) = 22.98779 24.14152 23.56465
#
# Velocity S-wave (km/s) = 3.53035 3.61785 3.57437
# Velocity P-wave (km/s) = 6.82358 7.20809 7.01847
#
# Compressibility (1/GPa) = 0.01810656
#
# Stress axis : x y z
#
# Youngs Moduli (GPa) = 60.33226 58.16470 87.48881
#
# Poissons Ratio (x) = 0.15698 0.52929
# Poissons Ratio (y) = 0.16283 0.41967
# Poissons Ratio (z) = 0.36500 0.27901
#
# Static dielectric constant tensor:
#      x y z
#    x 3.391260 0.000000 0.000000 
#    y 0.000000 3.085890 0.000000 
#    z 0.000000 0.000000 3.454230 
# 
# 
# High freq. dielectric constant tensor:
#      x y z
#    x 1.709680 0.000000 0.000000 
#    y 0.000000 1.681550 0.000000 
#    z 0.000000 0.000000 1.719600 
# 
# From -- ./inp_files/21552.got.cif
#   From: 2010.03.12/outbox.cif.g09.slc.cpg/sg47_11_cif.got.tgz:21552.got - 2010.04.14 03:12:58.
