data_PCOD8195475
_publ_section_title
;
Structure prediction by ZEFSAII (Michael W. Deem and Ramdas Pophale) SiO2 
 PCOD8195475
Probable space group: P M M M
;
_chemical_formula_sum "Si O2"
_cell_formula_units_Z 64
_cell_length_a 19.401548
_cell_length_b 19.487580
_cell_length_c 9.070162
_cell_angle_alpha 90.000000
_cell_angle_beta 90.000000
_cell_angle_gamma 90.000000
_cell_volume 3429.330465
_symmetry_space_group_name_H-M "P M M M"
_symmetry_group_IT_number 47
_symmetry_cell_setting 'orthorhombic'
loop_
_space_group_symop_operation_xyz
x,y,z
-x,-y,z
x,-y,-z
-x,y,-z
-x,-y,-z
x,y,-z
-x,y,z
x,-y,z
loop_
_atom_site_type_symbol
_atom_site_label
_atom_site_fract_x
_atom_site_fract_y
_atom_site_fract_z
Si Si1 0.923340 0.080693 0.837036
Si Si2 0.178779 0.302600 0.825665
Si Si3 0.576642 0.574779 0.175350
Si Si4 0.818275 0.162732 0.328159
Si Si5 0.689474 0.923365 0.327500
Si Si6 0.663265 0.699237 0.174319
Si Si7 0.421309 0.818041 0.672306
Si Si8 0.078094 0.577178 0.824925
O O1 0.877291 0.107941 0.703968
O O2 0.000000 0.110729 0.818055
O O3 0.924959 0.000000 0.822428
O O4 0.894898 0.101702 0.000000
O O5 0.156522 0.231031 0.754691
O O6 0.258067 0.311457 0.778361
O O7 0.132142 0.365853 0.763482
O O8 0.169865 0.297598 0.000000
O O9 0.500000 0.590039 0.234350
O O10 0.601539 0.500000 0.230528
O O11 0.626855 0.631833 0.239607
O O12 0.576930 0.576582 0.000000
O O13 0.811823 0.178989 0.500000
O O14 0.747041 0.129623 0.264484
O O15 0.703649 0.930440 0.500000
O O16 0.613305 0.892408 0.297303
O O17 0.694217 0.000000 0.255850
O O18 0.626623 0.763807 0.246396
O O19 0.655225 0.706981 0.000000
O O20 0.420564 0.800641 0.500000
O O21 0.500000 0.818254 0.732716
O O22 0.097948 0.500000 0.769133
O O23 0.000000 0.595297 0.772812
O O24 0.081157 0.577602 0.000000
#
# Coordination Sequence:
#
# PCOD8195475 Si02
#       8
#     8   8   8   8   8   8   8   8
#     4   9  19  36  56  78 106 139 173 212 260 313
#     4  10  20  32  50  77 105 135 175 217 261 314
#     4   8  14  25  42  66  95 126 161 202 252 308
#     4  11  21  34  53  76 107 143 176 218 261 307
#     4   9  18  33  52  74  99 129 168 214 263 308
#     4  10  19  31  49  73 103 135 168 212 260 309
#     4  10  20  34  53  75  99 131 170 212 262 319
#     4   8  15  30  52  77 105 137 174 217 262 306
#
# _framework density 18.662535999999999
#
# number of rings (size 3 to 8) (size 9 to 14) (size 15 to 20)
#    0.000    2.625    1.250    2.250    0.000    3.000 
#    0.000    5.625    0.000    1.875    0.000    5.250 
#    0.000    0.000    0.000    0.000    0.000    0.000 
#
# Total GULP energy -793124.781980 kJ/mol
# GULP energy per Si atom -12392.574718 kJ/mol
# Density = 1.862006 g / cm^3
# Si number density = 18.662536 Si / 1000 Ang^3
#
#
#
# Elastic Constant Matrix: (Units=GPa)
#
#
# Indices 1 2 3 4 5 6 
#
# 1 126.6582 70.6528 22.7599 0.0000 0.0000 0.0000
# 2 70.6528 118.8420 17.5021 0.0000 0.0000 0.0000
# 3 22.7599 17.5021 15.9241 0.0000 0.0000 0.0000
# 4 0.0000 0.0000 0.0000 12.7484 0.0000 0.0000
# 5 0.0000 0.0000 0.0000 0.0000 19.5053 0.0000
# 6 0.0000 0.0000 0.0000 0.0000 0.0000 -214.6560
#
#
#
# Elastic Compliance Matrix: (Units=1/GPa)
#
#
# Indices 1 2 3 4 5 6 
#
# 1 0.013658 -0.006258 -0.012643 0.000000 0.000000 0.000000
# 2 -0.006258 0.012907 -0.005242 0.000000 0.000000 0.000000
# 3 -0.012643 -0.005242 0.086629 0.000000 0.000000 0.000000
# 4 0.000000 0.000000 0.000000 0.078442 0.000000 0.000000
# 5 0.000000 0.000000 0.000000 0.000000 0.051268 0.000000
# 6 0.000000 0.000000 0.000000 0.000000 0.000000 -0.004659
#
#
# Mechanical properties :
#
#
# Convention : Reuss Voigt Hill
#
# Bulk Modulus (GPa) = 15.40616 53.69487 34.55051
# Shear Modulus (GPa) = 16.22500 -26.44650 -5.11075
#
# Velocity S-wave (km/s) = 2.95174 -3.76851 -1.65664
# Velocity P-wave (km/s) = 4.45983 3.14617 3.85930
#
# Compressibility (1/GPa) = 0.06490911
#
# Stress axis : x y z
#
# Youngs Moduli (GPa) = 73.21773 77.47851 11.54344
#
# Poissons Ratio (x) = 0.48485 0.14594
# Poissons Ratio (y) = 0.45818 0.06051
# Poissons Ratio (z) = 0.92569 0.40612
#
# Static dielectric constant tensor:
#      x y z
#    x 3.660860 0.000000 0.000000 
#    y 0.000000 3.708020 0.000000 
#    z 0.000000 0.000000 2.990960 
# 
# 
# High freq. dielectric constant tensor:
#      x y z
#    x 1.730640 0.000000 0.000000 
#    y 0.000000 1.733360 0.000000 
#    z 0.000000 0.000000 1.674650 
# 
# From -- ./inp_files/11573.got.cif
#   From: 2010.03.12/outbox.cif.g09.slc.cpg/sg47_6_cif.got.tgz:11573.got - 2010.04.14 03:12:58.
