data_PCOD8195876
_publ_section_title
;
Structure prediction by ZEFSAII (Michael W. Deem and Ramdas Pophale) SiO2 
 PCOD8195876
Probable space group: P M M M
;
_chemical_formula_sum "Si O2"
_cell_formula_units_Z 64
_cell_length_a 15.208950
_cell_length_b 9.578755
_cell_length_c 23.565816
_cell_angle_alpha 90.000000
_cell_angle_beta 90.000000
_cell_angle_gamma 90.000000
_cell_volume 3433.134197
_symmetry_space_group_name_H-M "P M M M"
_symmetry_group_IT_number 47
_symmetry_cell_setting 'orthorhombic'
loop_
_space_group_symop_operation_xyz
x,y,z
-x,-y,z
x,-y,-z
-x,y,-z
-x,-y,-z
x,y,-z
-x,y,z
x,-y,z
loop_
_atom_site_type_symbol
_atom_site_label
_atom_site_fract_x
_atom_site_fract_y
_atom_site_fract_z
Si Si1 0.902203 0.338818 0.780277
Si Si2 0.665234 0.150272 0.652572
Si Si3 0.401098 0.665716 0.936632
Si Si4 0.276055 0.664517 0.837764
Si Si5 0.896300 0.343606 0.563576
Si Si6 0.403255 0.158007 0.231814
Si Si7 0.859060 0.841042 0.327568
Si Si8 0.599171 0.660257 0.437394
O O1 0.886150 0.500000 0.762474
O O2 0.827091 0.294640 0.826920
O O3 0.902763 0.246330 0.723245
O O4 0.000000 0.321542 0.807875
O O5 0.591063 0.172751 0.700055
O O6 0.756482 0.154144 0.686465
O O7 0.666199 0.266199 0.604392
O O8 0.651759 0.000000 0.622622
O O9 0.500000 0.714979 0.917289
O O10 0.399751 0.500000 0.937067
O O11 0.321342 0.721362 0.896262
O O12 0.382069 0.722950 0.000000
O O13 0.287461 0.500000 0.834764
O O14 0.332636 0.730622 0.788068
O O15 0.861604 0.300715 0.500000
O O16 0.860654 0.500000 0.578554
O O17 0.869537 0.231124 0.611025
O O18 0.000000 0.349039 0.561788
O O19 0.500000 0.193291 0.207522
O O20 0.375927 0.000000 0.214416
O O21 0.897643 0.000000 0.329381
O O22 0.610084 0.723772 0.500000
O O23 0.500000 0.683450 0.415796
O O24 0.624631 0.500000 0.438205
#
# Coordination Sequence:
#
# PCOD8195876 Si02
#       8
#     8   8   8   8   8   8   8   8
#     4  10  21  36  53  74 103 139 177 220 270 319
#     4  10  21  35  49  68  97 129 162 201 250 312
#     4   8  14  26  47  78 114 146 176 215 261 304
#     4  10  19  32  53  79 105 137 181 224 255 298
#     4   9  19  36  55  73  95 125 160 201 258 327
#     4  10  20  34  51  72 104 141 169 204 259 312
#     4  11  22  35  52  74 100 129 167 216 263 314
#     4   9  19  35  52  70  92 120 160 209 254 298
#
# _framework density 18.641857000000002
#
# number of rings (size 3 to 8) (size 9 to 14) (size 15 to 20)
#    0.000    2.375    1.250    2.625    0.000    6.000 
#    0.000    3.750    0.000    0.750    0.000    4.375 
#    0.000    0.000    0.000    2.250    0.000    2.625 
#
# Total GULP energy -792857.435063 kJ/mol
# GULP energy per Si atom -12388.397423 kJ/mol
# Density = 1.859943 g / cm^3
# Si number density = 18.641857 Si / 1000 Ang^3
#
#
#
# Elastic Constant Matrix: (Units=GPa)
#
#
# Indices 1 2 3 4 5 6 
#
# 1 106.6161 31.0912 51.0114 0.0000 0.0000 0.0000
# 2 31.0912 52.4954 38.7521 0.0000 0.0000 0.0000
# 3 51.0114 38.7521 96.1310 0.0000 0.0000 0.0000
# 4 0.0000 0.0000 0.0000 51.5649 0.0000 0.0000
# 5 0.0000 0.0000 0.0000 0.0000 26.3976 0.0000
# 6 0.0000 0.0000 0.0000 0.0000 0.0000 17.1776
#
#
#
# Elastic Compliance Matrix: (Units=1/GPa)
#
#
# Indices 1 2 3 4 5 6 
#
# 1 0.013065 -0.003730 -0.005429 0.000000 0.000000 0.000000
# 2 -0.003730 0.028185 -0.009382 0.000000 0.000000 0.000000
# 3 -0.005429 -0.009382 0.017066 0.000000 0.000000 0.000000
# 4 0.000000 0.000000 0.000000 0.019393 0.000000 0.000000
# 5 0.000000 0.000000 0.000000 0.000000 0.037882 0.000000
# 6 0.000000 0.000000 0.000000 0.000000 0.000000 0.058215
#
#
# Mechanical properties :
#
#
# Convention : Reuss Voigt Hill
#
# Bulk Modulus (GPa) = 47.09898 55.21689 51.15794
# Shear Modulus (GPa) = 22.93936 27.98720 25.46328
#
# Velocity S-wave (km/s) = 3.51170 3.87888 3.69984
# Velocity P-wave (km/s) = 6.46241 7.05302 6.76416
#
# Compressibility (1/GPa) = 0.02123188
#
# Stress axis : x y z
#
# Youngs Moduli (GPa) = 76.54150 35.48045 58.59745
#
# Poissons Ratio (x) = 0.13234 0.31813
# Poissons Ratio (y) = 0.28550 0.54978
# Poissons Ratio (z) = 0.41555 0.33289
#
# Static dielectric constant tensor:
#      x y z
#    x 3.606340 0.000000 0.000000 
#    y 0.000000 3.364620 0.000000 
#    z 0.000000 0.000000 3.435750 
# 
# 
# High freq. dielectric constant tensor:
#      x y z
#    x 1.728070 0.000000 0.000000 
#    y 0.000000 1.708040 0.000000 
#    z 0.000000 0.000000 1.699360 
# 
# From -- ./inp_files/32091.got.cif
#   From: 2010.03.12/outbox.cif.g09.slc.cpg/sg47_17_cif.got.tgz:32091.got - 2010.04.14 03:12:58.
