data_PCOD8195197
_publ_section_title
;
Structure prediction by ZEFSAII (Michael W. Deem and Ramdas Pophale) SiO2 
 PCOD8195197
Probable space group: P M M M
;
_chemical_formula_sum "Si O2"
_cell_formula_units_Z 64
_cell_length_a 23.141476
_cell_length_b 15.561467
_cell_length_c 9.492103
_cell_angle_alpha 90.000000
_cell_angle_beta 90.000000
_cell_angle_gamma 90.000000
_cell_volume 3418.251663
_symmetry_space_group_name_H-M "P M M M"
_symmetry_group_IT_number 47
_symmetry_cell_setting 'orthorhombic'
loop_
_space_group_symop_operation_xyz
x,y,z
-x,-y,z
x,-y,-z
-x,y,-z
-x,-y,-z
x,y,-z
-x,y,z
x,-y,z
loop_
_atom_site_type_symbol
_atom_site_label
_atom_site_fract_x
_atom_site_fract_y
_atom_site_fract_z
Si Si1 0.330567 0.174684 0.838965
Si Si2 0.434642 0.232485 0.335251
Si Si3 0.065981 0.746979 0.838129
Si Si4 0.619141 0.407564 0.659008
Si Si5 0.112516 0.099301 0.334071
Si Si6 0.760228 0.901667 0.651727
Si Si7 0.850433 0.403197 0.167406
Si Si8 0.277599 0.639711 0.160750
O O1 0.391545 0.175284 0.757458
O O2 0.289632 0.104750 0.767742
O O3 0.294131 0.261128 0.823074
O O4 0.343195 0.150130 0.000000
O O5 0.423274 0.215221 0.500000
O O6 0.500000 0.208082 0.294422
O O7 0.424637 0.332517 0.294365
O O8 0.071997 0.835485 0.751317
O O9 0.104355 0.667995 0.775516
O O10 0.000000 0.716245 0.827137
O O11 0.083506 0.765794 0.000000
O O12 0.639463 0.389695 0.500000
O O13 0.587041 0.500000 0.671977
O O14 0.676581 0.414382 0.751500
O O15 0.099838 0.107715 0.500000
O O16 0.177485 0.133156 0.297820
O O17 0.101551 0.000000 0.285899
O O18 0.742001 0.859218 0.500000
O O19 0.772291 0.000000 0.622249
O O20 0.865354 0.500000 0.222386
O O21 0.786403 0.376744 0.220580
O O22 0.852089 0.402732 0.000000
O O23 0.281919 0.608816 0.000000
#
# Coordination Sequence:
#
# PCOD8195197 Si02
#       8
#     8   8   8   8   8   8   8   8
#     4  10  19  30  48  74 102 130 159 197 245 293
#     4   9  18  32  48  65  89 127 171 207 240 281
#     4  10  21  35  51  74 103 134 172 217 259 299
#     4   9  17  28  43  66  94 120 151 197 247 290
#     4   9  19  36  57  80 105 134 166 200 245 305
#     4   9  18  33  53  77 103 128 155 189 233 290
#     4   9  17  30  49  71  96 130 172 215 255 297
#     4   9  17  29  46  68  93 123 159 197 243 299
#
# _framework density 18.723020999999999
#
# number of rings (size 3 to 8) (size 9 to 14) (size 15 to 20)
#    0.000    2.750    0.000    2.250    0.000    4.500 
#    0.000    5.625    0.000    1.500    0.000    7.000 
#    0.000    0.000    0.000    0.000    0.000    0.000 
#
# Total GULP energy -793178.552741 kJ/mol
# GULP energy per Si atom -12393.414887 kJ/mol
# Density = 1.868041 g / cm^3
# Si number density = 18.723021 Si / 1000 Ang^3
#
#
#
# Elastic Constant Matrix: (Units=GPa)
#
#
# Indices 1 2 3 4 5 6 
#
# 1 95.9581 26.8839 36.9125 0.0000 0.0000 0.0000
# 2 26.8839 55.6027 18.7338 0.0000 0.0000 0.0000
# 3 36.9125 18.7338 59.2431 0.0000 0.0000 0.0000
# 4 0.0000 0.0000 0.0000 20.6635 0.0000 0.0000
# 5 0.0000 0.0000 0.0000 0.0000 25.6550 0.0000
# 6 0.0000 0.0000 0.0000 0.0000 0.0000 19.4075
#
#
#
# Elastic Compliance Matrix: (Units=1/GPa)
#
#
# Indices 1 2 3 4 5 6 
#
# 1 0.014641 -0.004483 -0.007705 0.000000 0.000000 0.000000
# 2 -0.004483 0.021502 -0.004006 0.000000 0.000000 0.000000
# 3 -0.007705 -0.004006 0.022947 0.000000 0.000000 0.000000
# 4 0.000000 0.000000 0.000000 0.048395 0.000000 0.000000
# 5 0.000000 0.000000 0.000000 0.000000 0.038979 0.000000
# 6 0.000000 0.000000 0.000000 0.000000 0.000000 0.051527
#
#
# Mechanical properties :
#
#
# Convention : Reuss Voigt Hill
#
# Bulk Modulus (GPa) = 37.45000 41.76270 39.60635
# Shear Modulus (GPa) = 20.89617 21.69678 21.29647
#
# Velocity S-wave (km/s) = 3.34439 3.40785 3.37627
# Velocity P-wave (km/s) = 5.91259 6.15130 6.03313
#
# Compressibility (1/GPa) = 0.02670227
#
# Stress axis : x y z
#
# Youngs Moduli (GPa) = 68.30148 46.50724 43.57874
#
# Poissons Ratio (x) = 0.20849 0.33576
# Poissons Ratio (y) = 0.30620 0.17458
# Poissons Ratio (z) = 0.52624 0.18631
#
# Static dielectric constant tensor:
#      x y z
#    x 3.366560 0.000000 0.000000 
#    y 0.000000 3.330180 0.000000 
#    z 0.000000 0.000000 3.298970 
# 
# 
# High freq. dielectric constant tensor:
#      x y z
#    x 1.720640 0.000000 0.000000 
#    y 0.000000 1.717160 0.000000 
#    z 0.000000 0.000000 1.708280 
# 
# From -- ./inp_files/11637.got.cif
#   From: 2010.03.12/outbox.cif.g09.slc.cpg/sg47_6_cif.got.tgz:11637.got - 2010.04.14 03:12:58.
