data_PCOD8195883
_publ_section_title
;
Structure prediction by ZEFSAII (Michael W. Deem and Ramdas Pophale) SiO2 
 PCOD8195883
Probable space group: P M M M
;
_chemical_formula_sum "Si O2"
_cell_formula_units_Z 44
_cell_length_a 29.902702
_cell_length_b 7.863831
_cell_length_c 9.212745
_cell_angle_alpha 90.000000
_cell_angle_beta 90.000000
_cell_angle_gamma 90.000000
_cell_volume 2166.375098
_symmetry_space_group_name_H-M "P M M M"
_symmetry_group_IT_number 47
_symmetry_cell_setting 'orthorhombic'
loop_
_space_group_symop_operation_xyz
x,y,z
-x,-y,z
x,-y,-z
-x,y,-z
-x,-y,-z
x,y,-z
-x,y,z
x,-y,z
loop_
_atom_site_type_symbol
_atom_site_label
_atom_site_fract_x
_atom_site_fract_y
_atom_site_fract_z
Si Si1 0.450196 0.500000 0.327984
Si Si2 0.949708 0.200108 0.663993
Si Si3 0.133238 0.304230 0.159563
Si Si4 0.610686 0.190904 0.667310
Si Si5 0.216083 0.702514 0.662875
Si Si6 0.696205 0.699215 0.168916
O O1 0.500000 0.500000 0.260064
O O2 0.453486 0.500000 0.500000
O O3 0.424969 0.329301 0.274474
O O4 0.940422 0.262131 0.500000
O O5 0.915554 0.290059 0.771017
O O6 0.000000 0.251445 0.710239
O O7 0.943212 0.000000 0.674865
O O8 0.145367 0.500000 0.140984
O O9 0.171573 0.221008 0.260676
O O10 0.133313 0.217372 0.000000
O O11 0.622985 0.230527 0.500000
O O12 0.655101 0.200219 0.762578
O O13 0.590593 0.000000 0.682857
O O14 0.218699 0.776826 0.500000
O O15 0.214183 0.500000 0.657752
O O16 0.258906 0.764332 0.753386
O O17 0.688649 0.500000 0.195643
O O18 0.700059 0.743507 0.000000
#
# Coordination Sequence:
#
# PCOD8195883 Si02
#       6
#     4   8   8   8   8   8
#     4   9  18  34  57  85 117 151 189 237 288 335
#     4   9  19  36  55  73  95 128 172 219 267 321
#     4  10  20  33  50  76 109 139 171 214 264 320
#     4  10  20  34  55  83 114 149 190 235 282 334
#     4   9  17  30  51  77 105 140 179 218 263 317
#     4  10  19  32  53  79 108 144 183 223 272 328
#
# _framework density 20.310427000000001
#
# number of rings (size 3 to 8) (size 9 to 14) (size 15 to 20)
#    0.000    2.455    0.909    2.182    0.000    5.818 
#    0.000    5.455    0.000    6.545    0.000    1.273 
#    0.000    0.000    0.000    0.000    0.000    0.000 
#
# Total GULP energy -545566.361471 kJ/mol
# GULP energy per Si atom -12399.235488 kJ/mol
# Density = 2.026420 g / cm^3
# Si number density = 20.310427 Si / 1000 Ang^3
#
#
#
# Elastic Constant Matrix: (Units=GPa)
#
#
# Indices 1 2 3 4 5 6 
#
# 1 162.4020 38.5098 74.6307 0.0000 0.0000 0.0000
# 2 38.5098 62.9747 28.7261 0.0000 0.0000 0.0000
# 3 74.6307 28.7261 132.5164 0.0000 0.0000 0.0000
# 4 0.0000 0.0000 0.0000 13.9759 0.0000 0.0000
# 5 0.0000 0.0000 0.0000 0.0000 12.3694 0.0000
# 6 0.0000 0.0000 0.0000 0.0000 0.0000 5.1640
#
#
#
# Elastic Compliance Matrix: (Units=1/GPa)
#
#
# Indices 1 2 3 4 5 6 
#
# 1 0.008962 -0.003527 -0.004283 0.000000 0.000000 0.000000
# 2 -0.003527 0.019010 -0.002135 0.000000 0.000000 0.000000
# 3 -0.004283 -0.002135 0.010421 0.000000 0.000000 0.000000
# 4 0.000000 0.000000 0.000000 0.071552 0.000000 0.000000
# 5 0.000000 0.000000 0.000000 0.000000 0.080844 0.000000
# 6 0.000000 0.000000 0.000000 0.000000 0.000000 0.193648
#
#
# Mechanical properties :
#
#
# Convention : Reuss Voigt Hill
#
# Bulk Modulus (GPa) = 54.04105 71.29183 62.66644
# Shear Modulus (GPa) = 12.18047 20.70362 16.44205
#
# Velocity S-wave (km/s) = 2.45156 3.19620 2.84832
# Velocity P-wave (km/s) = 5.88888 6.98558 6.46054
#
# Compressibility (1/GPa) = 0.01850445
#
# Stress axis : x y z
#
# Youngs Moduli (GPa) = 111.58315 52.60456 95.96114
#
# Poissons Ratio (x) = 0.18552 0.41097
# Poissons Ratio (y) = 0.39353 0.20484
# Poissons Ratio (z) = 0.47787 0.11229
#
# Static dielectric constant tensor:
#      x y z
#    x 3.774600 0.000000 0.000000 
#    y 0.000000 3.390170 0.000000 
#    z 0.000000 0.000000 3.736800 
# 
# 
# High freq. dielectric constant tensor:
#      x y z
#    x 1.793920 0.000000 0.000000 
#    y 0.000000 1.771050 0.000000 
#    z 0.000000 0.000000 1.786300 
# 
# From -- ./inp_files/2226.got.cif
#   From: 2010.03.12/outbox.cif.g09.slc.cpg/sg47_2_cif.got.tgz:2226.got - 2010.04.14 03:12:58.
