data_PCOD8195296
_publ_section_title
;
Structure prediction by ZEFSAII (Michael W. Deem and Ramdas Pophale) SiO2 
 PCOD8195296
Probable space group: P M M M
;
_chemical_formula_sum "Si O2"
_cell_formula_units_Z 52
_cell_length_a 9.524216
_cell_length_b 18.339863
_cell_length_c 17.683534
_cell_angle_alpha 90.000000
_cell_angle_beta 90.000000
_cell_angle_gamma 90.000000
_cell_volume 3088.832692
_symmetry_space_group_name_H-M "P M M M"
_symmetry_group_IT_number 47
_symmetry_cell_setting 'orthorhombic'
loop_
_space_group_symop_operation_xyz
x,y,z
-x,-y,z
x,-y,-z
-x,y,-z
-x,-y,-z
x,y,-z
-x,y,z
x,-y,z
loop_
_atom_site_type_symbol
_atom_site_label
_atom_site_fract_x
_atom_site_fract_y
_atom_site_fract_z
Si Si1 0.654617 0.085594 0.915170
Si Si2 0.346427 0.586519 0.000000
Si Si3 0.338568 0.214261 0.583730
Si Si4 0.838704 0.156701 0.204897
Si Si5 0.335386 0.712889 0.264661
Si Si6 0.161573 0.082798 0.360836
Si Si7 0.332699 0.581167 0.836378
O O1 0.500000 0.105217 0.881256
O O2 0.782062 0.120525 0.870444
O O3 0.676139 0.000000 0.914530
O O4 0.663720 0.115972 0.000000
O O5 0.271925 0.608006 0.080633
O O6 0.361511 0.500000 0.000000
O O7 0.500000 0.623498 0.000000
O O8 0.311439 0.247329 0.500000
O O9 0.500000 0.191834 0.594604
O O10 0.297519 0.275930 0.646082
O O11 0.251259 0.139825 0.590949
O O12 0.749583 0.228816 0.217289
O O13 0.818571 0.099115 0.272388
O O14 0.000000 0.178763 0.194303
O O15 0.500000 0.724832 0.250650
O O16 0.287170 0.634057 0.232693
O O17 0.000000 0.092193 0.385014
O O18 0.212394 0.000000 0.376752
O O19 0.500000 0.579023 0.843905
O O20 0.275981 0.500000 0.816795
#
# Coordination Sequence:
#
# PCOD8195296 Si02
#       7
#     8   4   8   8   8   8   8
#     4   9  18  32  48  65  86 115 154 197 234 267
#     4   7  10  18  34  60  91 113 132 167 214 257
#     4   9  18  31  45  62  87 119 151 183 222 271
#     4  10  19  31  46  64  90 120 151 186 227 276
#     4   9  17  30  47  66  89 118 152 186 225 272
#     4   9  18  31  46  65  87 112 145 186 230 273
#     4   8  13  23  42  67  92 117 147 184 224 267
#
# _framework density 16.834837
#
# number of rings (size 3 to 8) (size 9 to 14) (size 15 to 20)
#    0.000    3.154    0.000    2.308    0.000    2.769 
#    1.385    2.308    0.000    0.923    0.000    3.231 
#    0.000    1.846    0.000    7.692    0.000    8.000 
#
# Total GULP energy -644258.619183 kJ/mol
# GULP energy per Si atom -12389.588830 kJ/mol
# Density = 1.679652 g / cm^3
# Si number density = 16.834837 Si / 1000 Ang^3
#
#
#
# Elastic Constant Matrix: (Units=GPa)
#
#
# Indices 1 2 3 4 5 6 
#
# 1 39.6365 22.4352 31.3307 0.0000 0.0000 0.0000
# 2 22.4352 81.2640 60.2031 0.0000 0.0000 0.0000
# 3 31.3307 60.2031 115.1478 0.0000 0.0000 0.0000
# 4 0.0000 0.0000 0.0000 19.5622 0.0000 0.0000
# 5 0.0000 0.0000 0.0000 0.0000 18.5686 0.0000
# 6 0.0000 0.0000 0.0000 0.0000 0.0000 8.5216
#
#
#
# Elastic Compliance Matrix: (Units=1/GPa)
#
#
# Indices 1 2 3 4 5 6 
#
# 1 0.032921 -0.004003 -0.006864 0.000000 0.000000 0.000000
# 2 -0.004003 0.020572 -0.009666 0.000000 0.000000 0.000000
# 3 -0.006864 -0.009666 0.015606 0.000000 0.000000 0.000000
# 4 0.000000 0.000000 0.000000 0.051119 0.000000 0.000000
# 5 0.000000 0.000000 0.000000 0.000000 0.053854 0.000000
# 6 0.000000 0.000000 0.000000 0.000000 0.000000 0.117349
#
#
# Mechanical properties :
#
#
# Convention : Reuss Voigt Hill
#
# Bulk Modulus (GPa) = 35.67499 51.55407 43.61453
# Shear Modulus (GPa) = 14.62696 17.46910 16.04803
#
# Velocity S-wave (km/s) = 2.95083 3.22479 3.09085
# Velocity P-wave (km/s) = 5.73123 6.67500 6.22104
#
# Compressibility (1/GPa) = 0.02803084
#
# Stress axis : x y z
#
# Youngs Moduli (GPa) = 30.37547 48.60957 64.07705
#
# Poissons Ratio (x) = 0.19460 0.43986
# Poissons Ratio (y) = 0.12161 0.61940
# Poissons Ratio (z) = 0.20851 0.46988
#
# Static dielectric constant tensor:
#      x y z
#    x 2.993900 0.000000 0.000000 
#    y 0.000000 3.078900 0.000000 
#    z 0.000000 0.000000 3.382970 
# 
# 
# High freq. dielectric constant tensor:
#      x y z
#    x 1.622660 0.000000 0.000000 
#    y 0.000000 1.623190 0.000000 
#    z 0.000000 0.000000 1.653590 
# 
# From -- ./inp_files/26734.got.cif
#   From: 2010.03.12/outbox.cif.g09.slc.cpg/sg47_14_cif.got.tgz:26734.got - 2010.04.14 03:12:58.
