data_PCOD8195435
_publ_section_title
;
Structure prediction by ZEFSAII (Michael W. Deem and Ramdas Pophale) SiO2 
 PCOD8195435
Probable space group: P M M M
;
_chemical_formula_sum "Si O2"
_cell_formula_units_Z 64
_cell_length_a 17.700845
_cell_length_b 9.060056
_cell_length_c 23.084724
_cell_angle_alpha 90.000000
_cell_angle_beta 90.000000
_cell_angle_gamma 90.000000
_cell_volume 3702.112122
_symmetry_space_group_name_H-M "P M M M"
_symmetry_group_IT_number 47
_symmetry_cell_setting 'orthorhombic'
loop_
_space_group_symop_operation_xyz
x,y,z
-x,-y,z
x,-y,-z
-x,y,-z
-x,-y,-z
x,y,-z
-x,y,z
x,-y,z
loop_
_atom_site_type_symbol
_atom_site_label
_atom_site_fract_x
_atom_site_fract_y
_atom_site_fract_z
Si Si1 0.584506 0.326384 0.234577
Si Si2 0.193936 0.825636 0.066597
Si Si3 0.709023 0.674997 0.674066
Si Si4 0.184912 0.165606 0.756385
Si Si5 0.317047 0.162611 0.849274
Si Si6 0.911522 0.671098 0.155996
Si Si7 0.079622 0.836174 0.568442
Si Si8 0.756396 0.176122 0.433879
O O1 0.500000 0.264720 0.244558
O O2 0.584217 0.500000 0.229464
O O3 0.636034 0.275324 0.288580
O O4 0.616536 0.268144 0.173213
O O5 0.277466 0.782148 0.091221
O O6 0.128152 0.739201 0.099599
O O7 0.180614 0.000000 0.075676
O O8 0.190971 0.778494 0.000000
O O9 0.716313 0.500000 0.671195
O O10 0.785315 0.743096 0.701262
O O11 0.698403 0.742845 0.609595
O O12 0.250213 0.158823 0.803291
O O13 0.113454 0.248061 0.784723
O O14 0.161686 0.000000 0.736983
O O15 0.352310 0.000000 0.857349
O O16 0.888978 0.500000 0.160966
O O17 0.000000 0.693943 0.147808
O O18 0.079851 0.850486 0.500000
O O19 0.159722 0.761262 0.584551
O O20 0.000000 0.755384 0.588246
O O21 0.078513 0.000000 0.595457
O O22 0.736101 0.219897 0.500000
O O23 0.752366 0.000000 0.426543
#
# Coordination Sequence:
#
# PCOD8195435 Si02
#       8
#     8   8   8   8   8   8   8   8
#     4   9  18  32  50  72  95 118 147 186 233 286
#     4   9  18  32  49  69  95 130 170 205 235 276
#     4  10  19  31  49  71  95 121 150 190 238 286
#     4   9  17  31  50  68  88 118 157 197 237 285
#     4   8  15  28  47  71  94 116 148 191 233 272
#     4  10  20  32  46  67  97 129 162 206 254 290
#     4   7  10  19  37  59  80 104 139 181 217 247
#     4   9  17  29  46  68  94 125 160 196 232 275
#
# _framework density 17.287428999999999
#
# number of rings (size 3 to 8) (size 9 to 14) (size 15 to 20)
#    0.000    3.125    0.000    3.000    0.000    5.500 
#    0.000    1.875    0.000    3.375    0.000    7.000 
#    0.000    0.000    0.000    0.000    0.000    0.000 
#
# Total GULP energy -792892.540827 kJ/mol
# GULP energy per Si atom -12388.945950 kJ/mol
# Density = 1.724808 g / cm^3
# Si number density = 17.287429 Si / 1000 Ang^3
#
#
#
# Elastic Constant Matrix: (Units=GPa)
#
#
# Indices 1 2 3 4 5 6 
#
# 1 93.8413 41.1319 50.5708 0.0000 0.0000 0.0000
# 2 41.1319 63.7967 41.3624 0.0000 0.0000 0.0000
# 3 50.5708 41.3624 96.4405 0.0000 0.0000 0.0000
# 4 0.0000 0.0000 0.0000 23.2903 0.0000 0.0000
# 5 0.0000 0.0000 0.0000 0.0000 17.6605 0.0000
# 6 0.0000 0.0000 0.0000 0.0000 0.0000 19.9671
#
#
#
# Elastic Compliance Matrix: (Units=1/GPa)
#
#
# Indices 1 2 3 4 5 6 
#
# 1 0.016916 -0.007141 -0.005808 0.000000 0.000000 0.000000
# 2 -0.007141 0.024727 -0.006861 0.000000 0.000000 0.000000
# 3 -0.005808 -0.006861 0.016357 0.000000 0.000000 0.000000
# 4 0.000000 0.000000 0.000000 0.042936 0.000000 0.000000
# 5 0.000000 0.000000 0.000000 0.000000 0.056624 0.000000
# 6 0.000000 0.000000 0.000000 0.000000 0.000000 0.050082
#
#
# Mechanical properties :
#
#
# Convention : Reuss Voigt Hill
#
# Bulk Modulus (GPa) = 54.40274 57.80095 56.10185
# Shear Modulus (GPa) = 19.73265 20.25115 19.99190
#
# Velocity S-wave (km/s) = 3.38219 3.42634 3.40434
# Velocity P-wave (km/s) = 6.84033 7.01148 6.92644
#
# Compressibility (1/GPa) = 0.01838143
#
# Stress axis : x y z
#
# Youngs Moduli (GPa) = 59.11583 40.44195 61.13649
#
# Poissons Ratio (x) = 0.28879 0.35506
# Poissons Ratio (y) = 0.42214 0.41943
# Poissons Ratio (z) = 0.34332 0.27745
#
# Static dielectric constant tensor:
#      x y z
#    x 3.361340 0.000000 0.000000 
#    y 0.000000 3.126440 0.000000 
#    z 0.000000 0.000000 3.276600 
# 
# 
# High freq. dielectric constant tensor:
#      x y z
#    x 1.647680 0.000000 0.000000 
#    y 0.000000 1.653180 0.000000 
#    z 0.000000 0.000000 1.655940 
# 
# From -- ./inp_files/32918.got.cif
#   From: 2010.03.12/outbox.cif.g09.slc.cpg/sg47_17_cif.got.tgz:32918.got - 2010.04.14 03:12:58.
