data_PCOD8195678
_publ_section_title
;
Structure prediction by ZEFSAII (Michael W. Deem and Ramdas Pophale) SiO2 
 PCOD8195678
Probable space group: P M M M
;
_chemical_formula_sum "Si O2"
_cell_formula_units_Z 64
_cell_length_a 20.105535
_cell_length_b 18.034455
_cell_length_c 9.176660
_cell_angle_alpha 90.000000
_cell_angle_beta 90.000000
_cell_angle_gamma 90.000000
_cell_volume 3327.386863
_symmetry_space_group_name_H-M "P M M M"
_symmetry_group_IT_number 47
_symmetry_cell_setting 'orthorhombic'
loop_
_space_group_symop_operation_xyz
x,y,z
-x,-y,z
x,-y,-z
-x,y,-z
-x,-y,-z
x,y,-z
-x,y,z
x,-y,z
loop_
_atom_site_type_symbol
_atom_site_label
_atom_site_fract_x
_atom_site_fract_y
_atom_site_fract_z
Si Si1 0.576671 0.126528 0.672738
Si Si2 0.702938 0.083243 0.167310
Si Si3 0.928687 0.738495 0.329662
Si Si4 0.786222 0.208110 0.325059
Si Si5 0.123254 0.582251 0.667283
Si Si6 0.383353 0.580485 0.164068
Si Si7 0.240778 0.646222 0.834348
Si Si8 0.575161 0.712756 0.654430
O O1 0.583521 0.111774 0.500000
O O2 0.500000 0.110483 0.722207
O O3 0.628980 0.077536 0.762384
O O4 0.604070 0.209564 0.713676
O O5 0.754143 0.134673 0.257111
O O6 0.732283 0.000000 0.172940
O O7 0.697967 0.111144 0.000000
O O8 0.930049 0.752225 0.500000
O O9 0.863705 0.782494 0.270671
O O10 0.926333 0.649921 0.296204
O O11 0.000000 0.766681 0.263139
O O12 0.780512 0.205374 0.500000
O O13 0.748236 0.280693 0.264728
O O14 0.147172 0.589558 0.500000
O O15 0.091346 0.500000 0.693809
O O16 0.185921 0.591041 0.771984
O O17 0.396607 0.500000 0.237468
O O18 0.306348 0.598009 0.172990
O O19 0.425023 0.644423 0.238333
O O20 0.408773 0.577821 0.000000
O O21 0.223594 0.669835 0.000000
O O22 0.609625 0.690835 0.500000
O O23 0.500000 0.735274 0.622203
#
# Coordination Sequence:
#
# PCOD8195678 Si02
#       8
#     8   8   8   8   8   8   8   8
#     4   9  19  37  60  84 110 141 177 216 257 305
#     4  11  24  39  56  82 115 146 174 207 251 307
#     4   8  15  29  50  77 106 136 175 225 277 322
#     4  10  20  35  57  82 106 135 174 219 264 314
#     4   9  17  28  44  70 103 138 177 219 262 310
#     4  10  21  33  44  63  91 124 165 211 257 303
#     4  10  19  32  50  70  96 132 172 213 261 315
#     4   9  19  35  52  70  92 120 158 203 250 300
#
# _framework density 19.234311999999999
#
# number of rings (size 3 to 8) (size 9 to 14) (size 15 to 20)
#    0.000    2.500    0.000    3.750    0.000    6.750 
#    0.000    5.000    0.000    9.750    0.000    6.125 
#    0.000    0.000    0.000    0.000    0.000    0.000 
#
# Total GULP energy -792837.224437 kJ/mol
# GULP energy per Si atom -12388.081632 kJ/mol
# Density = 1.919053 g / cm^3
# Si number density = 19.234312 Si / 1000 Ang^3
#
#
#
# Elastic Constant Matrix: (Units=GPa)
#
#
# Indices 1 2 3 4 5 6 
#
# 1 69.2186 27.5152 29.0570 0.0000 0.0000 0.0000
# 2 27.5152 96.2695 35.4589 0.0000 0.0000 0.0000
# 3 29.0570 35.4589 75.9722 0.0000 0.0000 0.0000
# 4 0.0000 0.0000 0.0000 28.3896 0.0000 0.0000
# 5 0.0000 0.0000 0.0000 0.0000 6.9509 0.0000
# 6 0.0000 0.0000 0.0000 0.0000 0.0000 12.0855
#
#
#
# Elastic Compliance Matrix: (Units=1/GPa)
#
#
# Indices 1 2 3 4 5 6 
#
# 1 0.017965 -0.003144 -0.005404 0.000000 0.000000 0.000000
# 2 -0.003144 0.013094 -0.004909 0.000000 0.000000 0.000000
# 3 -0.005404 -0.004909 0.017521 0.000000 0.000000 0.000000
# 4 0.000000 0.000000 0.000000 0.035224 0.000000 0.000000
# 5 0.000000 0.000000 0.000000 0.000000 0.143867 0.000000
# 6 0.000000 0.000000 0.000000 0.000000 0.000000 0.082744
#
#
# Mechanical properties :
#
#
# Convention : Reuss Voigt Hill
#
# Bulk Modulus (GPa) = 46.15455 47.28029 46.71742
# Shear Modulus (GPa) = 14.51163 19.44714 16.97939
#
# Velocity S-wave (km/s) = 2.74973 3.18317 2.97436
# Velocity P-wave (km/s) = 5.84204 6.17614 6.01141
#
# Compressibility (1/GPa) = 0.02166634
#
# Stress axis : x y z
#
# Youngs Moduli (GPa) = 55.66300 76.36882 57.07582
#
# Poissons Ratio (x) = 0.24014 0.30841
# Poissons Ratio (y) = 0.17503 0.28018
# Poissons Ratio (z) = 0.30078 0.37489
#
# Static dielectric constant tensor:
#      x y z
#    x 3.610970 0.000000 0.000000 
#    y 0.000000 3.445440 0.000000 
#    z 0.000000 0.000000 3.493990 
# 
# 
# High freq. dielectric constant tensor:
#      x y z
#    x 1.738710 0.000000 0.000000 
#    y 0.000000 1.740480 0.000000 
#    z 0.000000 0.000000 1.734040 
# 
# From -- ./inp_files/12775.got.cif
#   From: 2010.03.12/outbox.cif.g09.slc.cpg/sg47_7_cif.got.tgz:12775.got - 2010.04.14 03:12:58.
