data_PCOD8195269
_publ_section_title
;
Structure prediction by ZEFSAII (Michael W. Deem and Ramdas Pophale) SiO2 
 PCOD8195269
Probable space group: P M M M
;
_chemical_formula_sum "Si O2"
_cell_formula_units_Z 36
_cell_length_a 8.114030
_cell_length_b 19.114329
_cell_length_c 15.420669
_cell_angle_alpha 90.000000
_cell_angle_beta 90.000000
_cell_angle_gamma 90.000000
_cell_volume 2391.656922
_symmetry_space_group_name_H-M "P M M M"
_symmetry_group_IT_number 47
_symmetry_cell_setting 'orthorhombic'
loop_
_space_group_symop_operation_xyz
x,y,z
-x,-y,z
x,-y,-z
-x,y,-z
-x,-y,-z
x,y,-z
-x,y,z
x,-y,z
loop_
_atom_site_type_symbol
_atom_site_label
_atom_site_fract_x
_atom_site_fract_y
_atom_site_fract_z
Si Si1 0.813312 0.582890 0.906282
Si Si2 0.317343 0.837436 0.602984
Si Si3 0.188164 0.691093 0.597240
Si Si4 0.000000 0.920423 0.603405
Si Si5 0.311830 0.420013 0.273963
O O1 0.804903 0.500000 0.909578
O O2 0.707560 0.609661 0.824353
O O3 0.000000 0.608479 0.892585
O O4 0.746989 0.611595 0.000000
O O5 0.309244 0.841919 0.500000
O O6 0.500000 0.862423 0.635393
O O7 0.294278 0.756705 0.631658
O O8 0.167737 0.884598 0.640900
O O9 0.243382 0.669344 0.500000
O O10 0.206075 0.624872 0.659460
O O11 0.000000 0.716194 0.596617
O O12 0.000000 0.915779 0.500000
O O13 0.000000 0.000000 0.635985
O O14 0.500000 0.414520 0.302138
O O15 0.248063 0.500000 0.279102
#
# Coordination Sequence:
#
# PCOD8195269 Si02
#       5
#     8   8   8   4   8
#     4   8  14  26  43  59  75  97 125 160 205 255
#     4   9  16  27  42  58  78 105 136 168 204 247
#     4  10  19  31  45  57  74 105 144 181 215 252
#     4   9  16  26  40  60  83 103 130 167 203 241
#     4  10  20  30  40  58  81 103 134 177 218 255
#
# _framework density 15.052325
#
# number of rings (size 3 to 8) (size 9 to 14) (size 15 to 20)
#    0.000    2.778    1.111    2.000    0.000    4.000 
#    0.000    6.667    0.000    0.000    0.000    0.000 
#    0.000    0.000    0.000    0.000    0.000    2.222 
#
# Total GULP energy -446079.760307 kJ/mol
# GULP energy per Si atom -12391.104453 kJ/mol
# Density = 1.501807 g / cm^3
# Si number density = 15.052325 Si / 1000 Ang^3
#
#
#
# Elastic Constant Matrix: (Units=GPa)
#
#
# Indices 1 2 3 4 5 6 
#
# 1 86.3405 36.8586 18.6795 0.0000 0.0000 0.0000
# 2 36.8586 65.9113 31.3390 0.0000 0.0000 0.0000
# 3 18.6795 31.3390 60.5517 0.0000 0.0000 0.0000
# 4 0.0000 0.0000 0.0000 0.2113 0.0000 0.0000
# 5 0.0000 0.0000 0.0000 0.0000 15.1044 0.0000
# 6 0.0000 0.0000 0.0000 0.0000 0.0000 18.2070
#
#
#
# Elastic Compliance Matrix: (Units=1/GPa)
#
#
# Indices 1 2 3 4 5 6 
#
# 1 0.015221 -0.008329 -0.000385 0.000000 0.000000 0.000000
# 2 -0.008329 0.024682 -0.010205 0.000000 0.000000 0.000000
# 3 -0.000385 -0.010205 0.021915 0.000000 0.000000 0.000000
# 4 0.000000 0.000000 0.000000 4.732340 0.000000 0.000000
# 5 0.000000 0.000000 0.000000 0.000000 0.066206 0.000000
# 6 0.000000 0.000000 0.000000 0.000000 0.000000 0.054924
#
#
# Mechanical properties :
#
#
# Convention : Reuss Voigt Hill
#
# Bulk Modulus (GPa) = 41.70018 42.95086 42.32552
# Shear Modulus (GPa) = 1.00784 15.09964 8.05374
#
# Velocity S-wave (km/s) = 0.81915 3.17068 2.31562
# Velocity P-wave (km/s) = 5.35335 6.48079 5.94386
#
# Compressibility (1/GPa) = 0.02398071
#
# Stress axis : x y z
#
# Youngs Moduli (GPa) = 65.69942 40.51603 45.63061
#
# Poissons Ratio (x) = 0.33745 0.01756
# Poissons Ratio (y) = 0.54719 0.46565
# Poissons Ratio (z) = 0.02528 0.41346
#
# Static dielectric constant tensor:
#      x y z
#    x 3.072170 0.000000 0.000000 
#    y 0.000000 2.645880 0.000000 
#    z 0.000000 0.000000 3.002400 
# 
# 
# High freq. dielectric constant tensor:
#      x y z
#    x 1.591120 0.000000 0.000000 
#    y 0.000000 1.537100 0.000000 
#    z 0.000000 0.000000 1.534110 
# 
# From -- ./inp_files/5957.got.cif
#   From: 2010.03.12/outbox.cif.g09.slc.cpg/sg47_3_cif.got.tgz:5957.got - 2010.04.14 03:12:58.
