data_PCOD8195172
_publ_section_title
;
Structure prediction by ZEFSAII (Michael W. Deem and Ramdas Pophale) SiO2 
 PCOD8195172
Probable space group: P M M M
;
_chemical_formula_sum "Si O2"
_cell_formula_units_Z 64
_cell_length_a 14.497660
_cell_length_b 13.263361
_cell_length_c 18.191259
_cell_angle_alpha 90.000000
_cell_angle_beta 90.000000
_cell_angle_gamma 90.000000
_cell_volume 3497.955321
_symmetry_space_group_name_H-M "P M M M"
_symmetry_group_IT_number 47
_symmetry_cell_setting 'orthorhombic'
loop_
_space_group_symop_operation_xyz
x,y,z
-x,-y,z
x,-y,-z
-x,y,-z
-x,-y,-z
x,y,-z
-x,y,z
x,-y,z
loop_
_atom_site_type_symbol
_atom_site_label
_atom_site_fract_x
_atom_site_fract_y
_atom_site_fract_z
Si Si1 0.600959 0.806203 0.829331
Si Si2 0.397249 0.883887 0.327698
Si Si3 0.354793 0.384739 0.917094
Si Si4 0.898556 0.607331 0.229135
Si Si5 0.110693 0.814458 0.714835
Si Si6 0.795103 0.888076 0.856072
Si Si7 0.778085 0.881281 0.418426
Si Si8 0.851653 0.685203 0.080407
O O1 0.500000 0.853636 0.849143
O O2 0.613571 0.809158 0.741408
O O3 0.599826 0.690941 0.858396
O O4 0.685002 0.869452 0.863462
O O5 0.500000 0.873573 0.362017
O O6 0.322257 0.849853 0.387690
O O7 0.379804 0.000000 0.302308
O O8 0.378291 0.500000 0.894759
O O9 0.246221 0.368584 0.915137
O O10 0.391474 0.362729 0.000000
O O11 0.845259 0.500000 0.240435
O O12 0.850980 0.700630 0.270505
O O13 0.912008 0.632815 0.142810
O O14 0.000000 0.594881 0.262417
O O15 0.166431 0.884189 0.772219
O O16 0.138481 0.841883 0.632247
O O17 0.000000 0.824875 0.725789
O O18 0.846551 0.805684 0.905627
O O19 0.815139 0.000000 0.886636
O O20 0.789312 0.834385 0.500000
O O21 0.786467 0.000000 0.422800
O O22 0.896394 0.669053 0.000000
#
# Coordination Sequence:
#
# PCOD8195172 Si02
#       8
#     8   8   8   8   8   8   8   8
#     4  10  19  30  48  72  95 125 168 211 251 292
#     4   9  17  31  51  73 100 133 166 203 245 286
#     4   9  18  32  48  67  96 133 168 206 254 301
#     4   9  18  32  51  74  96 123 162 206 254 302
#     4  10  20  34  52  74 102 133 163 200 243 288
#     4  10  19  32  50  69  94 132 172 205 242 291
#     4  10  20  33  51  77 106 134 165 199 238 289
#     4   9  18  31  46  68  98 128 163 209 254 295
#
# _framework density 18.296402
#
# number of rings (size 3 to 8) (size 9 to 14) (size 15 to 20)
#    0.000    2.500    1.250    1.125    0.000    4.000 
#    0.000    3.125    0.000    1.500    0.000   12.250 
#    0.000    0.000    0.000    3.875    0.000    0.250 
#
# Total GULP energy -792950.876682 kJ/mol
# GULP energy per Si atom -12389.857448 kJ/mol
# Density = 1.825476 g / cm^3
# Si number density = 18.296402 Si / 1000 Ang^3
#
#
#
# Elastic Constant Matrix: (Units=GPa)
#
#
# Indices 1 2 3 4 5 6 
#
# 1 68.6891 18.1741 16.0686 0.0000 0.0000 0.0000
# 2 18.1741 90.6186 22.7638 0.0000 0.0000 0.0000
# 3 16.0686 22.7638 86.9038 0.0000 0.0000 0.0000
# 4 0.0000 0.0000 0.0000 18.4238 0.0000 0.0000
# 5 0.0000 0.0000 0.0000 0.0000 12.9812 0.0000
# 6 0.0000 0.0000 0.0000 0.0000 0.0000 14.6646
#
#
#
# Elastic Compliance Matrix: (Units=1/GPa)
#
#
# Indices 1 2 3 4 5 6 
#
# 1 0.015769 -0.002601 -0.002234 0.000000 0.000000 0.000000
# 2 -0.002601 0.012242 -0.002726 0.000000 0.000000 0.000000
# 3 -0.002234 -0.002726 0.012634 0.000000 0.000000 0.000000
# 4 0.000000 0.000000 0.000000 0.054278 0.000000 0.000000
# 5 0.000000 0.000000 0.000000 0.000000 0.077034 0.000000
# 6 0.000000 0.000000 0.000000 0.000000 0.000000 0.068191
#
#
# Mechanical properties :
#
#
# Convention : Reuss Voigt Hill
#
# Bulk Modulus (GPa) = 39.18127 40.02494 39.60311
# Shear Modulus (GPa) = 18.95531 21.82760 20.39146
#
# Velocity S-wave (km/s) = 3.22221 3.45773 3.34204
# Velocity P-wave (km/s) = 5.94178 6.15342 6.04852
#
# Compressibility (1/GPa) = 0.02552240
#
# Stress axis : x y z
#
# Youngs Moduli (GPa) = 63.41433 81.68827 79.15105
#
# Poissons Ratio (x) = 0.21250 0.17685
# Poissons Ratio (y) = 0.16496 0.21574
# Poissons Ratio (z) = 0.14169 0.22265
#
# Static dielectric constant tensor:
#      x y z
#    x 3.389310 0.000000 0.000000 
#    y 0.000000 3.473670 0.000000 
#    z 0.000000 0.000000 3.333080 
# 
# 
# High freq. dielectric constant tensor:
#      x y z
#    x 1.710120 0.000000 0.000000 
#    y 0.000000 1.697610 0.000000 
#    z 0.000000 0.000000 1.679260 
# 
# From -- ./inp_files/28242.got.cif
#   From: 2010.03.12/outbox.cif.g09.slc.cpg/sg47_15_cif.got.tgz:28242.got - 2010.04.14 03:12:58.
