data_PCOD8195038
_publ_section_title
;
Structure prediction by ZEFSAII (Michael W. Deem and Ramdas Pophale) SiO2 
 PCOD8195038
Probable space group: P M M M
;
_chemical_formula_sum "Si O2"
_cell_formula_units_Z 52
_cell_length_a 9.188384
_cell_length_b 12.433512
_cell_length_c 28.034540
_cell_angle_alpha 90.000000
_cell_angle_beta 90.000000
_cell_angle_gamma 90.000000
_cell_volume 3202.774700
_symmetry_space_group_name_H-M "P M M M"
_symmetry_group_IT_number 47
_symmetry_cell_setting 'orthorhombic'
loop_
_space_group_symop_operation_xyz
x,y,z
-x,-y,z
x,-y,-z
-x,y,-z
-x,-y,-z
x,y,-z
-x,y,z
x,-y,z
loop_
_atom_site_type_symbol
_atom_site_label
_atom_site_fract_x
_atom_site_fract_y
_atom_site_fract_z
Si Si1 0.334676 0.500000 0.281735
Si Si2 0.171185 0.287508 0.719718
Si Si3 0.327458 0.879761 0.550415
Si Si4 0.668245 0.127999 0.653664
Si Si5 0.336724 0.500000 0.168334
Si Si6 0.664437 0.127959 0.000000
Si Si7 0.831643 0.707033 0.170303
Si Si8 0.169275 0.877320 0.907663
O O1 0.500000 0.500000 0.301353
O O2 0.251128 0.605950 0.300296
O O3 0.331862 0.500000 0.225088
O O4 0.229708 0.183455 0.692389
O O5 0.208924 0.268100 0.775102
O O6 0.000000 0.300987 0.711303
O O7 0.278420 0.821241 0.500000
O O8 0.500000 0.885958 0.552048
O O9 0.279497 0.827705 0.601009
O O10 0.263864 0.000000 0.548705
O O11 0.500000 0.158152 0.663476
O O12 0.689925 0.000000 0.656769
O O13 0.500000 0.500000 0.148446
O O14 0.256834 0.393753 0.149342
O O15 0.744012 0.171293 0.952662
O O16 0.500000 0.170800 0.000000
O O17 0.672815 0.000000 0.000000
O O18 0.789624 0.811123 0.139520
O O19 0.000000 0.676921 0.165581
O O20 0.000000 0.868345 0.920206
O O21 0.214772 0.000000 0.897152
#
# Coordination Sequence:
#
# PCOD8195038 Si02
#       8
#     4   8   8   8   4   4   8   8
#     4   9  17  31  49  65  83 111 151 193 225 258
#     4  10  19  30  45  66  92 120 150 184 222 264
#     4   7  10  19  37  59  81 108 146 188 221 251
#     4   9  17  28  42  63  92 123 152 182 220 266
#     4   9  17  29  47  68  88 112 144 183 224 261
#     4   9  17  29  45  66  91 116 143 179 221 259
#     4   9  18  31  47  66  89 118 150 182 214 255
#     4   9  17  30  48  68  89 116 150 182 212 251
#
# _framework density 16.235921999999999
#
# number of rings (size 3 to 8) (size 9 to 14) (size 15 to 20)
#    0.000    3.154    0.000    2.538    0.000    4.923 
#    0.000    1.538    0.000    2.769    0.000    5.923 
#    0.000    4.308    0.000    0.000    0.000    0.000 
#
# Total GULP energy -644335.688339 kJ/mol
# GULP energy per Si atom -12391.070930 kJ/mol
# Density = 1.619897 g / cm^3
# Si number density = 16.235922 Si / 1000 Ang^3
#
#
#
# Elastic Constant Matrix: (Units=GPa)
#
#
# Indices 1 2 3 4 5 6 
#
# 1 75.0684 42.2475 47.9109 0.0000 0.0000 0.0000
# 2 42.2475 72.6114 49.7279 0.0000 0.0000 0.0000
# 3 47.9109 49.7279 99.6566 0.0000 0.0000 0.0000
# 4 0.0000 0.0000 0.0000 3.0029 0.0000 0.0000
# 5 0.0000 0.0000 0.0000 0.0000 18.0814 0.0000
# 6 0.0000 0.0000 0.0000 0.0000 0.0000 25.2203
#
#
#
# Elastic Compliance Matrix: (Units=1/GPa)
#
#
# Indices 1 2 3 4 5 6 
#
# 1 0.022224 -0.008527 -0.006429 0.000000 0.000000 0.000000
# 2 -0.008527 0.024194 -0.007973 0.000000 0.000000 0.000000
# 3 -0.006429 -0.007973 0.017104 0.000000 0.000000 0.000000
# 4 0.000000 0.000000 0.000000 0.333015 0.000000 0.000000
# 5 0.000000 0.000000 0.000000 0.000000 0.055305 0.000000
# 6 0.000000 0.000000 0.000000 0.000000 0.000000 0.039651
#
#
# Mechanical properties :
#
#
# Convention : Reuss Voigt Hill
#
# Bulk Modulus (GPa) = 56.61786 58.56768 57.59277
# Shear Modulus (GPa) = 9.20408 16.42424 12.81416
#
# Velocity S-wave (km/s) = 2.38354 3.18402 2.81240
# Velocity P-wave (km/s) = 6.52094 7.04759 6.78937
#
# Compressibility (1/GPa) = 0.01766227
#
# Stress axis : x y z
#
# Youngs Moduli (GPa) = 44.99738 41.33322 58.46693
#
# Poissons Ratio (x) = 0.35246 0.37589
# Poissons Ratio (y) = 0.38371 0.46615
# Poissons Ratio (z) = 0.28929 0.32954
#
# Static dielectric constant tensor:
#      x y z
#    x 2.994550 0.000000 0.000000 
#    y 0.000000 2.872620 0.000000 
#    z 0.000000 0.000000 3.237190 
# 
# 
# High freq. dielectric constant tensor:
#      x y z
#    x 1.614980 0.000000 0.000000 
#    y 0.000000 1.593970 0.000000 
#    z 0.000000 0.000000 1.618070 
# 
# From -- ./inp_files/4601.got.cif
#   From: 2010.03.12/outbox.cif.g09.slc.cpg/sg47_3_cif.got.tgz:4601.got - 2010.04.14 03:12:58.
