data_PCOD8195915
_publ_section_title
;
Structure prediction by ZEFSAII (Michael W. Deem and Ramdas Pophale) SiO2 
 PCOD8195915
Probable space group: P M M M
;
_chemical_formula_sum "Si O2"
_cell_formula_units_Z 44
_cell_length_a 31.271454
_cell_length_b 9.002698
_cell_length_c 7.865896
_cell_angle_alpha 90.000000
_cell_angle_beta 90.000000
_cell_angle_gamma 90.000000
_cell_volume 2214.465693
_symmetry_space_group_name_H-M "P M M M"
_symmetry_group_IT_number 47
_symmetry_cell_setting 'orthorhombic'
loop_
_space_group_symop_operation_xyz
x,y,z
-x,-y,z
x,-y,-z
-x,y,-z
-x,-y,-z
x,y,-z
-x,y,z
x,-y,z
loop_
_atom_site_type_symbol
_atom_site_label
_atom_site_fract_x
_atom_site_fract_y
_atom_site_fract_z
Si Si1 0.952156 0.676196 0.188859
Si Si2 0.500000 0.674922 0.305757
Si Si3 0.894867 0.322440 0.500000
Si Si4 0.583855 0.833762 0.194318
Si Si5 0.664098 0.664821 0.692046
Si Si6 0.245309 0.673705 0.808440
Si Si7 0.197017 0.176696 0.500000
O O1 0.953447 0.500000 0.197007
O O2 0.920034 0.734971 0.332843
O O3 0.000000 0.737473 0.224625
O O4 0.936871 0.727568 0.000000
O O5 0.500000 0.500000 0.286503
O O6 0.500000 0.726559 0.500000
O O7 0.541924 0.735775 0.215696
O O8 0.888915 0.500000 0.500000
O O9 0.849925 0.242977 0.500000
O O10 0.623794 0.772808 0.298727
O O11 0.573684 0.000000 0.257647
O O12 0.597957 0.831314 0.000000
O O13 0.681015 0.663654 0.500000
O O14 0.649018 0.500000 0.748545
O O15 0.704376 0.716885 0.804277
O O16 0.239510 0.500000 0.763071
O O17 0.219933 0.770469 0.672201
O O18 0.228569 0.707074 0.000000
O O19 0.195714 0.000000 0.500000
#
# Coordination Sequence:
#
# PCOD8195915 Si02
#       7
#     8   4   4   8   8   8   4
#     4   8  14  26  48  81 115 144 184 244 305 351
#     4  11  24  41  60  82 108 143 190 237 282 332
#     4  10  19  32  54  80 110 150 199 245 292 351
#     4  11  24  39  56  83 118 152 186 225 275 339
#     4  10  20  37  63  91 117 144 183 234 286 344
#     4  10  21  41  68  91 114 150 199 254 306 358
#     4  12  26  41  57  83 124 165 201 248 304 365
#
# _framework density 19.869353
#
# number of rings (size 3 to 8) (size 9 to 14) (size 15 to 20)
#    0.000    1.909    0.909    3.818    0.000    9.455 
#    0.000    1.818    0.000    1.091    0.000    1.273 
#    0.000    0.000    0.000    0.000    0.000    0.000 
#
# Total GULP energy -545565.098483 kJ/mol
# GULP energy per Si atom -12399.206784 kJ/mol
# Density = 1.982413 g / cm^3
# Si number density = 19.869353 Si / 1000 Ang^3
#
#
#
# Elastic Constant Matrix: (Units=GPa)
#
#
# Indices 1 2 3 4 5 6 
#
# 1 127.0665 45.4135 62.8796 0.0000 0.0000 0.0000
# 2 45.4135 70.8302 42.0098 0.0000 0.0000 0.0000
# 3 62.8796 42.0098 124.9635 0.0000 0.0000 0.0000
# 4 0.0000 0.0000 0.0000 20.9054 0.0000 0.0000
# 5 0.0000 0.0000 0.0000 0.0000 15.1629 0.0000
# 6 0.0000 0.0000 0.0000 0.0000 0.0000 106.7240
#
#
#
# Elastic Compliance Matrix: (Units=1/GPa)
#
#
# Indices 1 2 3 4 5 6 
#
# 1 0.011760 -0.005034 -0.004225 0.000000 0.000000 0.000000
# 2 -0.005034 0.019789 -0.004120 0.000000 0.000000 0.000000
# 3 -0.004225 -0.004120 0.011513 0.000000 0.000000 0.000000
# 4 0.000000 0.000000 0.000000 0.047835 0.000000 0.000000
# 5 0.000000 0.000000 0.000000 0.000000 0.065950 0.000000
# 6 0.000000 0.000000 0.000000 0.000000 0.000000 0.009370
#
#
# Mechanical properties :
#
#
# Convention : Reuss Voigt Hill
#
# Bulk Modulus (GPa) = 61.33121 69.27399 65.30260
# Shear Modulus (GPa) = 25.20038 40.06228 32.63133
#
# Velocity S-wave (km/s) = 3.56519 4.49518 4.05692
# Velocity P-wave (km/s) = 6.91966 7.86655 7.40825
#
# Compressibility (1/GPa) = 0.01630491
#
# Stress axis : x y z
#
# Youngs Moduli (GPa) = 85.03519 50.53239 86.85657
#
# Poissons Ratio (x) = 0.25438 0.36697
# Poissons Ratio (y) = 0.42807 0.35782
# Poissons Ratio (z) = 0.35928 0.20818
#
# Static dielectric constant tensor:
#      x y z
#    x 3.579720 0.000000 0.000000 
#    y 0.000000 3.389340 0.000000 
#    z 0.000000 0.000000 3.961650 
# 
# 
# High freq. dielectric constant tensor:
#      x y z
#    x 1.773480 0.000000 0.000000 
#    y 0.000000 1.744370 0.000000 
#    z 0.000000 0.000000 1.791410 
# 
# From -- ./inp_files/13762.got.cif
#   From: 2010.03.12/outbox.cif.g09.slc.cpg/sg47_7_cif.got.tgz:13762.got - 2010.04.14 03:12:58.
