data_PCOD8195564
_publ_section_title
;
Structure prediction by ZEFSAII (Michael W. Deem and Ramdas Pophale) SiO2 
 PCOD8195564
Probable space group: P M M M
;
_chemical_formula_sum "Si O2"
_cell_formula_units_Z 64
_cell_length_a 8.913350
_cell_length_b 14.961190
_cell_length_c 24.081977
_cell_angle_alpha 90.000000
_cell_angle_beta 90.000000
_cell_angle_gamma 90.000000
_cell_volume 3211.435737
_symmetry_space_group_name_H-M "P M M M"
_symmetry_group_IT_number 47
_symmetry_cell_setting 'orthorhombic'
loop_
_space_group_symop_operation_xyz
x,y,z
-x,-y,z
x,-y,-z
-x,y,-z
-x,-y,-z
x,y,-z
-x,y,z
x,-y,z
loop_
_atom_site_type_symbol
_atom_site_label
_atom_site_fract_x
_atom_site_fract_y
_atom_site_fract_z
Si Si1 0.663646 0.903827 0.435429
Si Si2 0.173104 0.269910 0.440092
Si Si3 0.175546 0.602293 0.894384
Si Si4 0.822843 0.598243 0.768335
Si Si5 0.328193 0.229347 0.936608
Si Si6 0.824799 0.897089 0.849022
Si Si7 0.323265 0.897492 0.266579
Si Si8 0.820789 0.735506 0.678405
O O1 0.643020 0.917919 0.500000
O O2 0.500000 0.872014 0.411262
O O3 0.796402 0.833728 0.425919
O O4 0.706095 0.000000 0.408072
O O5 0.251592 0.298906 0.500000
O O6 0.223856 0.313066 0.381174
O O7 0.000000 0.286647 0.449437
O O8 0.219767 0.500000 0.908279
O O9 0.217542 0.626052 0.830874
O O10 0.269385 0.668923 0.932660
O O11 0.000000 0.616936 0.905226
O O12 0.755609 0.500000 0.755138
O O13 0.755493 0.670381 0.725781
O O14 0.000000 0.594039 0.761076
O O15 0.500000 0.225778 0.917048
O O16 0.231337 0.162755 0.899553
O O17 0.311679 0.197818 0.000000
O O18 0.744868 0.867545 0.792376
O O19 0.000000 0.879887 0.840674
O O20 0.788833 0.000000 0.863313
O O21 0.500000 0.885746 0.263378
O O22 0.256788 0.832747 0.314388
O O23 0.278284 0.000000 0.280055
O O24 0.000000 0.748072 0.681645
#
# Coordination Sequence:
#
# PCOD8195564 Si02
#       8
#     8   8   8   8   8   8   8   8
#     4   8  14  25  40  56  75 105 149 196 236 278
#     4   9  18  30  42  61  92 128 165 205 250 300
#     4   9  18  34  57  82 106 135 175 225 278 330
#     4   8  15  30  53  79 101 122 158 210 264 314
#     4  11  24  38  53  78 113 151 187 223 265 314
#     4  10  21  38  60  82 105 138 181 227 271 315
#     4  10  21  36  54  78 108 138 168 209 264 320
#     4  10  19  31  51  75  99 133 173 213 258 309
#
# _framework density 19.928781000000001
#
# number of rings (size 3 to 8) (size 9 to 14) (size 15 to 20)
#    0.000    2.625    0.000    3.000    0.000    5.500 
#    0.000    6.250    0.000    1.500    0.000    2.625 
#    0.000    0.000    0.000    4.250    0.000    4.500 
#
# Total GULP energy -792872.942273 kJ/mol
# GULP energy per Si atom -12388.639723 kJ/mol
# Density = 1.988342 g / cm^3
# Si number density = 19.928781 Si / 1000 Ang^3
#
#
#
# Elastic Constant Matrix: (Units=GPa)
#
#
# Indices 1 2 3 4 5 6 
#
# 1 44.0920 17.6333 26.0959 0.0000 0.0000 0.0000
# 2 17.6333 53.1311 25.2139 0.0000 0.0000 0.0000
# 3 26.0959 25.2139 100.4908 0.0000 0.0000 0.0000
# 4 0.0000 0.0000 0.0000 13.5509 0.0000 0.0000
# 5 0.0000 0.0000 0.0000 0.0000 16.3731 0.0000
# 6 0.0000 0.0000 0.0000 0.0000 0.0000 17.1096
#
#
#
# Elastic Compliance Matrix: (Units=1/GPa)
#
#
# Indices 1 2 3 4 5 6 
#
# 1 0.028827 -0.006828 -0.005773 0.000000 0.000000 0.000000
# 2 -0.006828 0.022982 -0.003993 0.000000 0.000000 0.000000
# 3 -0.005773 -0.003993 0.012452 0.000000 0.000000 0.000000
# 4 0.000000 0.000000 0.000000 0.073796 0.000000 0.000000
# 5 0.000000 0.000000 0.000000 0.000000 0.061076 0.000000
# 6 0.000000 0.000000 0.000000 0.000000 0.000000 0.058447
#
#
# Mechanical properties :
#
#
# Convention : Reuss Voigt Hill
#
# Bulk Modulus (GPa) = 32.18133 37.28890 34.73511
# Shear Modulus (GPa) = 16.60433 17.99143 17.29788
#
# Velocity S-wave (km/s) = 2.88962 3.00790 2.94935
# Velocity P-wave (km/s) = 5.22651 5.55112 5.39126
#
# Compressibility (1/GPa) = 0.03107392
#
# Stress axis : x y z
#
# Youngs Moduli (GPa) = 34.68972 43.51139 80.30677
#
# Poissons Ratio (x) = 0.29708 0.46359
# Poissons Ratio (y) = 0.23685 0.32070
# Poissons Ratio (z) = 0.20026 0.17376
#
# Static dielectric constant tensor:
#      x y z
#    x 3.405440 0.000000 0.000000 
#    y 0.000000 3.716770 0.000000 
#    z 0.000000 0.000000 3.870940 
# 
# 
# High freq. dielectric constant tensor:
#      x y z
#    x 1.753330 0.000000 0.000000 
#    y 0.000000 1.755590 0.000000 
#    z 0.000000 0.000000 1.791320 
# 
# From -- ./inp_files/7922.got.cif
#   From: 2010.03.12/outbox.cif.g09.slc.cpg/sg47_4_cif.got.tgz:7922.got - 2010.04.14 03:12:58.
