data_PCOD8195972
_publ_section_title
;
Structure prediction by ZEFSAII (Michael W. Deem and Ramdas Pophale) SiO2 
 PCOD8195972
Probable space group: P M M M
;
_chemical_formula_sum "Si O2"
_cell_formula_units_Z 52
_cell_length_a 17.949542
_cell_length_b 17.102597
_cell_length_c 8.941189
_cell_angle_alpha 90.000000
_cell_angle_beta 90.000000
_cell_angle_gamma 90.000000
_cell_volume 2744.800025
_symmetry_space_group_name_H-M "P M M M"
_symmetry_group_IT_number 47
_symmetry_cell_setting 'orthorhombic'
loop_
_space_group_symop_operation_xyz
x,y,z
-x,-y,z
x,-y,-z
-x,y,-z
-x,-y,-z
x,y,-z
-x,y,z
x,-y,z
loop_
_atom_site_type_symbol
_atom_site_label
_atom_site_fract_x
_atom_site_fract_y
_atom_site_fract_z
Si Si1 0.287181 0.087341 0.176980
Si Si2 0.143432 0.177043 0.176381
Si Si3 0.823868 0.650318 0.824023
Si Si4 0.582670 0.500000 0.677751
Si Si5 0.585732 0.797732 0.174265
Si Si6 0.663981 0.653839 0.322893
Si Si7 0.000000 0.088538 0.178666
Si Si8 0.915740 0.500000 0.822172
O O1 0.219353 0.139549 0.243402
O O2 0.365687 0.126792 0.220752
O O3 0.284484 0.000000 0.245994
O O4 0.279243 0.082245 0.000000
O O5 0.134708 0.268612 0.215912
O O6 0.072669 0.131791 0.244309
O O7 0.145193 0.165568 0.000000
O O8 0.745689 0.653927 0.743218
O O9 0.873072 0.577609 0.764331
O O10 0.809602 0.642495 0.000000
O O11 0.500000 0.500000 0.746092
O O12 0.579366 0.500000 0.500000
O O13 0.625094 0.424225 0.737467
O O14 0.500000 0.816122 0.212586
O O15 0.613700 0.725019 0.269177
O O16 0.596910 0.777909 0.000000
O O17 0.669506 0.656326 0.500000
O O18 0.000000 0.000000 0.237215
O O19 0.000000 0.091456 0.000000
O O20 0.000000 0.500000 0.757832
O O21 0.918623 0.500000 0.000000
#
# Coordination Sequence:
#
# PCOD8195972 Si02
#       8
#     8   8   8   4   8   8   4   4
#     4   9  16  28  47  71 101 136 172 210 255 308
#     4   9  16  26  44  69 101 136 166 205 255 305
#     4  10  19  33  52  75 105 138 173 213 258 310
#     4   9  19  34  51  73  98 125 162 208 254 303
#     4  10  20  34  52  77 108 138 172 216 265 316
#     4  11  21  35  56  77 101 135 176 217 260 312
#     4   9  16  24  38  69 106 132 161 207 261 307
#     4   9  19  32  51  81 112 141 174 215 264 320
#
# _framework density 18.944913
#
# number of rings (size 3 to 8) (size 9 to 14) (size 15 to 20)
#    0.000    2.385    1.538    1.846    1.077    3.077 
#    0.000    2.692    0.000    4.154    0.000    1.077 
#    0.000    0.615    0.000    0.000    0.000    0.000 
#
# Total GULP energy -644718.555208 kJ/mol
# GULP energy per Si atom -12398.433754 kJ/mol
# Density = 1.890179 g / cm^3
# Si number density = 18.944913 Si / 1000 Ang^3
#
#
#
# Elastic Constant Matrix: (Units=GPa)
#
#
# Indices 1 2 3 4 5 6 
#
# 1 169.6085 85.9572 20.1150 0.0000 0.0000 0.0000
# 2 85.9572 180.6727 21.8991 0.0000 0.0000 0.0000
# 3 20.1150 21.8991 20.4893 0.0000 0.0000 0.0000
# 4 0.0000 0.0000 0.0000 6.6493 0.0000 0.0000
# 5 0.0000 0.0000 0.0000 0.0000 7.9642 0.0000
# 6 0.0000 0.0000 0.0000 0.0000 0.0000 -455.2611
#
#
#
# Elastic Compliance Matrix: (Units=1/GPa)
#
#
# Indices 1 2 3 4 5 6 
#
# 1 0.008101 -0.003320 -0.004404 0.000000 0.000000 0.000000
# 2 -0.003320 0.007719 -0.004991 0.000000 0.000000 0.000000
# 3 -0.004404 -0.004991 0.058464 0.000000 0.000000 0.000000
# 4 0.000000 0.000000 0.000000 0.150391 0.000000 0.000000
# 5 0.000000 0.000000 0.000000 0.000000 0.125562 0.000000
# 6 0.000000 0.000000 0.000000 0.000000 0.000000 -0.002197
#
#
# Mechanical properties :
#
#
# Convention : Reuss Voigt Hill
#
# Bulk Modulus (GPa) = 20.46932 69.63477 45.05205
# Shear Modulus (GPa) = 12.82851 -71.94290 -29.55719
#
# Velocity S-wave (km/s) = 2.60503 -6.16905 -3.95418
# Velocity P-wave (km/s) = 4.45829 3.72917 1.72766
#
# Compressibility (1/GPa) = 0.04885361
#
# Stress axis : x y z
#
# Youngs Moduli (GPa) = 123.44190 129.54214 17.10449
#
# Poissons Ratio (x) = 0.43012 0.07533
# Poissons Ratio (y) = 0.40986 0.08537
# Poissons Ratio (z) = 0.54367 0.64654
#
# Static dielectric constant tensor:
#      x y z
#    x 3.731120 0.000000 0.000000 
#    y 0.000000 3.508910 0.000000 
#    z 0.000000 0.000000 2.866750 
# 
# 
# High freq. dielectric constant tensor:
#      x y z
#    x 1.751120 0.000000 0.000000 
#    y 0.000000 1.753660 0.000000 
#    z 0.000000 0.000000 1.669920 
# 
# From -- ./inp_files/9621.got.cif
#   From: 2010.03.12/outbox.cif.g09.slc.cpg/sg47_5_cif.got.tgz:9621.got - 2010.04.14 03:12:58.
