data_PCOD8195832
_publ_section_title
;
Structure prediction by ZEFSAII (Michael W. Deem and Ramdas Pophale) SiO2 
 PCOD8195832
Probable space group: P M M M
;
_chemical_formula_sum "Si O2"
_cell_formula_units_Z 48
_cell_length_a 14.819302
_cell_length_b 17.824358
_cell_length_c 9.425742
_cell_angle_alpha 90.000000
_cell_angle_beta 90.000000
_cell_angle_gamma 90.000000
_cell_volume 2489.758324
_symmetry_space_group_name_H-M "P M M M"
_symmetry_group_IT_number 47
_symmetry_cell_setting 'orthorhombic'
loop_
_space_group_symop_operation_xyz
x,y,z
-x,-y,z
x,-y,-z
-x,y,-z
-x,-y,-z
x,y,-z
-x,y,z
x,-y,z
loop_
_atom_site_type_symbol
_atom_site_label
_atom_site_fract_x
_atom_site_fract_y
_atom_site_fract_z
Si Si1 0.665096 0.913918 0.161222
Si Si2 0.396558 0.500000 0.330489
Si Si3 0.000000 0.915718 0.347412
Si Si4 0.140859 0.842240 0.162146
Si Si5 0.398976 0.784947 0.339602
Si Si6 0.708278 0.356612 0.665527
Si Si7 0.101777 0.695211 0.336946
O O1 0.757847 0.869275 0.172749
O O2 0.598636 0.863849 0.255565
O O3 0.671714 0.000000 0.217137
O O4 0.630087 0.914958 0.000000
O O5 0.500000 0.500000 0.276659
O O6 0.392946 0.500000 0.500000
O O7 0.343756 0.427644 0.267337
O O8 0.913091 0.901852 0.252953
O O9 0.000000 0.870576 0.500000
O O10 0.000000 0.000000 0.392654
O O11 0.120975 0.762223 0.230454
O O12 0.107455 0.840049 0.000000
O O13 0.368598 0.803370 0.500000
O O14 0.500000 0.751463 0.335550
O O15 0.332094 0.721734 0.272021
O O16 0.685892 0.355733 0.500000
O O17 0.816844 0.364094 0.692950
O O18 0.109456 0.722683 0.500000
O O19 0.000000 0.662258 0.309609
#
# Coordination Sequence:
#
# PCOD8195832 Si02
#       7
#     8   4   4   8   8   8   8
#     4  10  22  38  53  72 102 140 182 228 279 331
#     4   9  16  28  51  83 116 149 183 221 273 331
#     4  11  23  35  49  73 105 140 179 228 289 343
#     4  11  21  34  53  75 101 137 185 236 278 325
#     4  10  20  34  54  79 105 137 180 228 278 331
#     4   9  17  31  51  78 113 146 178 223 273 323
#     4  10  19  32  52  77 108 144 181 221 271 329
#
# _framework density 19.278980000000001
#
# number of rings (size 3 to 8) (size 9 to 14) (size 15 to 20)
#    0.000    2.000    2.500    1.750    0.000    5.000 
#    0.000    2.083    0.000    2.500    0.000    2.333 
#    0.000    5.333    0.000    0.000    0.000    0.000 
#
# Total GULP energy -594721.972783 kJ/mol
# GULP energy per Si atom -12390.041100 kJ/mol
# Density = 1.923510 g / cm^3
# Si number density = 19.278980 Si / 1000 Ang^3
#
#
#
# Elastic Constant Matrix: (Units=GPa)
#
#
# Indices 1 2 3 4 5 6 
#
# 1 129.2063 55.7220 30.1759 0.0000 0.0000 0.0000
# 2 55.7220 112.5226 28.3579 0.0000 0.0000 0.0000
# 3 30.1759 28.3579 71.6820 0.0000 0.0000 0.0000
# 4 0.0000 0.0000 0.0000 -5.3300 0.0000 0.0000
# 5 0.0000 0.0000 0.0000 0.0000 19.3799 0.0000
# 6 0.0000 0.0000 0.0000 0.0000 0.0000 33.7553
#
#
#
# Elastic Compliance Matrix: (Units=1/GPa)
#
#
# Indices 1 2 3 4 5 6 
#
# 1 0.010248 -0.004429 -0.002562 0.000000 0.000000 0.000000
# 2 -0.004429 0.011786 -0.002798 0.000000 0.000000 0.000000
# 3 -0.002562 -0.002798 0.016136 0.000000 0.000000 0.000000
# 4 0.000000 0.000000 0.000000 -0.187616 0.000000 0.000000
# 5 0.000000 0.000000 0.000000 0.000000 0.051600 0.000000
# 6 0.000000 0.000000 0.000000 0.000000 0.000000 0.029625
#
#
# Mechanical properties :
#
#
# Convention : Reuss Voigt Hill
#
# Bulk Modulus (GPa) = 53.78809 60.21360 57.00085
# Shear Modulus (GPa) = -117.79707 22.83803 -47.47952
#
# Velocity S-wave (km/s) = -7.82521 3.44555 -4.96801
# Velocity P-wave (km/s) = 7.32699 6.86510 1.81041
#
# Compressibility (1/GPa) = 0.01859148
#
# Stress axis : x y z
#
# Youngs Moduli (GPa) = 97.57940 84.84912 61.97384
#
# Poissons Ratio (x) = 0.37582 0.15877
# Poissons Ratio (y) = 0.43221 0.17340
# Poissons Ratio (z) = 0.24999 0.23740
#
# Static dielectric constant tensor:
#      x y z
#    x 3.475160 0.000000 0.000000 
#    y 0.000000 3.462100 0.000000 
#    z 0.000000 0.000000 3.368250 
# 
# 
# High freq. dielectric constant tensor:
#      x y z
#    x 1.765130 0.000000 0.000000 
#    y 0.000000 1.730470 0.000000 
#    z 0.000000 0.000000 1.718480 
# 
# From -- ./inp_files/6448.got.cif
#   From: 2010.03.12/outbox.cif.g09.slc.cpg/sg47_4_cif.got.tgz:6448.got - 2010.04.14 03:12:58.
