data_PCOD8195109
_publ_section_title
;
Structure prediction by ZEFSAII (Michael W. Deem and Ramdas Pophale) SiO2 
 PCOD8195109
Probable space group: P M M M
;
_chemical_formula_sum "Si O2"
_cell_formula_units_Z 64
_cell_length_a 20.266870
_cell_length_b 19.823257
_cell_length_c 8.790235
_cell_angle_alpha 90.000000
_cell_angle_beta 90.000000
_cell_angle_gamma 90.000000
_cell_volume 3531.524138
_symmetry_space_group_name_H-M "P M M M"
_symmetry_group_IT_number 47
_symmetry_cell_setting 'orthorhombic'
loop_
_space_group_symop_operation_xyz
x,y,z
-x,-y,z
x,-y,-z
-x,y,-z
-x,-y,-z
x,y,-z
-x,y,z
x,-y,z
loop_
_atom_site_type_symbol
_atom_site_label
_atom_site_fract_x
_atom_site_fract_y
_atom_site_fract_z
Si Si1 0.266167 0.702393 0.823485
Si Si2 0.736017 0.572889 0.323320
Si Si3 0.575697 0.922190 0.324750
Si Si4 0.813333 0.077802 0.322408
Si Si5 0.877270 0.293454 0.320722
Si Si6 0.925675 0.162337 0.825950
Si Si7 0.691964 0.848779 0.175051
Si Si8 0.121503 0.426606 0.821644
O O1 0.303076 0.638082 0.742452
O O2 0.194719 0.715430 0.751548
O O3 0.310046 0.768565 0.795775
O O4 0.257408 0.686276 0.000000
O O5 0.752354 0.584353 0.500000
O O6 0.699334 0.500000 0.300639
O O7 0.802751 0.571480 0.227634
O O8 0.590133 0.904822 0.500000
O O9 0.500000 0.906937 0.283949
O O10 0.620230 0.876207 0.217543
O O11 0.592527 0.000000 0.292912
O O12 0.825677 0.088257 0.500000
O O13 0.876762 0.105470 0.235035
O O14 0.747409 0.116991 0.277745
O O15 0.803895 0.000000 0.278928
O O16 0.870752 0.293802 0.500000
O O17 0.921631 0.231156 0.269135
O O18 0.912103 0.363620 0.265731
O O19 0.000000 0.134171 0.811001
O O20 0.907141 0.178334 0.000000
O O21 0.707982 0.865014 0.000000
O O22 0.089169 0.500000 0.781368
O O23 0.116192 0.412968 0.000000
#
# Coordination Sequence:
#
# PCOD8195109 Si02
#       8
#     8   8   8   8   8   8   8   8
#     4  10  19  30  46  70 102 137 173 212 256 306
#     4   9  16  25  39  63  95 130 169 211 255 303
#     4   9  19  36  56  78 107 144 183 221 262 310
#     4  11  24  40  59  82 106 134 169 211 261 316
#     4  11  20  31  51  74  99 131 167 211 260 310
#     4  11  24  41  59  77  99 130 169 214 265 321
#     4  11  22  34  53  81 112 144 178 218 259 305
#     4   9  16  26  43  67  96 130 165 203 250 304
#
# _framework density 18.122487
#
# number of rings (size 3 to 8) (size 9 to 14) (size 15 to 20)
#    0.000    1.875    1.250    5.625    0.000    7.250 
#    0.000    1.875    0.000    0.375    0.000    2.625 
#    0.000    0.500    0.000    5.500    0.000    4.000 
#
# Total GULP energy -793338.228961 kJ/mol
# GULP energy per Si atom -12395.909828 kJ/mol
# Density = 1.808124 g / cm^3
# Si number density = 18.122487 Si / 1000 Ang^3
#
#
#
# Elastic Constant Matrix: (Units=GPa)
#
#
# Indices 1 2 3 4 5 6 
#
# 1 57.4639 35.5333 23.8627 0.0000 0.0000 0.0000
# 2 35.5333 126.7523 52.2887 0.0000 0.0000 0.0000
# 3 23.8627 52.2887 75.5221 0.0000 0.0000 0.0000
# 4 0.0000 0.0000 0.0000 34.9768 0.0000 0.0000
# 5 0.0000 0.0000 0.0000 0.0000 20.6554 0.0000
# 6 0.0000 0.0000 0.0000 0.0000 0.0000 13.8565
#
#
#
# Elastic Compliance Matrix: (Units=1/GPa)
#
#
# Indices 1 2 3 4 5 6 
#
# 1 0.021771 -0.004571 -0.003714 0.000000 0.000000 0.000000
# 2 -0.004571 0.012003 -0.006866 0.000000 0.000000 0.000000
# 3 -0.003714 -0.006866 0.019169 0.000000 0.000000 0.000000
# 4 0.000000 0.000000 0.000000 0.028590 0.000000 0.000000
# 5 0.000000 0.000000 0.000000 0.000000 0.048414 0.000000
# 6 0.000000 0.000000 0.000000 0.000000 0.000000 0.072168
#
#
# Mechanical properties :
#
#
# Convention : Reuss Voigt Hill
#
# Bulk Modulus (GPa) = 44.16952 53.67861 48.92407
# Shear Modulus (GPa) = 20.83632 23.76797 22.30214
#
# Velocity S-wave (km/s) = 3.39447 3.62542 3.51184
# Velocity P-wave (km/s) = 6.30785 6.87089 6.59538
#
# Compressibility (1/GPa) = 0.02264005
#
# Stress axis : x y z
#
# Youngs Moduli (GPa) = 45.93235 83.30976 52.16817
#
# Poissons Ratio (x) = 0.38081 0.19376
# Poissons Ratio (y) = 0.20996 0.35821
# Poissons Ratio (z) = 0.17060 0.57204
#
# Static dielectric constant tensor:
#      x y z
#    x 2.898110 0.000000 0.000000 
#    y 0.000000 4.103340 0.000000 
#    z 0.000000 0.000000 3.460780 
# 
# 
# High freq. dielectric constant tensor:
#      x y z
#    x 1.642340 0.000000 0.000000 
#    y 0.000000 1.722810 0.000000 
#    z 0.000000 0.000000 1.718820 
# 
# From -- ./inp_files/10071.got.cif
#   From: 2010.03.12/outbox.cif.g09.slc.cpg/sg47_6_cif.got.tgz:10071.got - 2010.04.14 03:12:58.
