data_PCOD8195398
_publ_section_title
;
Structure prediction by ZEFSAII (Michael W. Deem and Ramdas Pophale) SiO2 
 PCOD8195398
Probable space group: P M M M
;
_chemical_formula_sum "Si O2"
_cell_formula_units_Z 52
_cell_length_a 9.091311
_cell_length_b 10.782651
_cell_length_c 29.655940
_cell_angle_alpha 90.000000
_cell_angle_beta 90.000000
_cell_angle_gamma 90.000000
_cell_volume 2907.125346
_symmetry_space_group_name_H-M "P M M M"
_symmetry_group_IT_number 47
_symmetry_cell_setting 'orthorhombic'
loop_
_space_group_symop_operation_xyz
x,y,z
-x,-y,z
x,-y,-z
-x,y,-z
-x,-y,-z
x,y,-z
-x,y,z
x,-y,z
loop_
_atom_site_type_symbol
_atom_site_label
_atom_site_fract_x
_atom_site_fract_y
_atom_site_fract_z
Si Si1 0.164720 0.353545 0.292633
Si Si2 0.825420 0.500000 0.949448
Si Si3 0.674176 0.642678 0.615980
Si Si4 0.661275 0.143352 0.951161
Si Si5 0.172138 0.717795 0.884804
Si Si6 0.330166 0.646513 0.204545
Si Si7 0.674516 0.138409 0.449243
O O1 0.156507 0.500000 0.288605
O O2 0.251767 0.316409 0.337458
O O3 0.251717 0.301034 0.249438
O O4 0.000000 0.297137 0.294011
O O5 0.770218 0.384044 0.920424
O O6 0.000000 0.500000 0.952657
O O7 0.757473 0.500000 0.000000
O O8 0.500000 0.651073 0.622169
O O9 0.717586 0.500000 0.602094
O O10 0.733285 0.744986 0.580160
O O11 0.500000 0.200194 0.938600
O O12 0.780324 0.159092 0.911111
O O13 0.641790 0.000000 0.957575
O O14 0.714679 0.198508 0.000000
O O15 0.254968 0.711276 0.837697
O O16 0.000000 0.709811 0.874814
O O17 0.500000 0.684322 0.206941
O O18 0.309085 0.500000 0.199976
O O19 0.734141 0.157692 0.500000
O O20 0.500000 0.142783 0.449200
O O21 0.724768 0.000000 0.431827
#
# Coordination Sequence:
#
# PCOD8195398 Si02
#       7
#     8   4   8   8   8   8   8
#     4   9  17  29  46  67  93 124 157 194 240 289
#     4   9  18  30  43  65  99 131 153 181 226 277
#     4   9  16  26  43  69  97 123 158 205 251 289
#     4   9  19  36  54  70  91 121 158 199 240 282
#     4  11  20  31  49  72 100 128 157 193 235 285
#     4  10  19  31  48  70  98 128 160 195 236 288
#     4   8  14  25  42  66  97 132 167 201 239 287
#
# _framework density 17.887086
#
# number of rings (size 3 to 8) (size 9 to 14) (size 15 to 20)
#    0.000    2.692    0.769    2.769    0.000    4.000 
#    0.000    2.308    0.000    3.692    0.000    5.385 
#    0.000    0.000    0.000    0.000    0.000    0.000 
#
# Total GULP energy -644292.841104 kJ/mol
# GULP energy per Si atom -12390.246944 kJ/mol
# Density = 1.784637 g / cm^3
# Si number density = 17.887086 Si / 1000 Ang^3
#
#
#
# Elastic Constant Matrix: (Units=GPa)
#
#
# Indices 1 2 3 4 5 6 
#
# 1 67.5565 24.7763 49.1541 0.0000 0.0000 0.0000
# 2 24.7763 66.2469 59.1121 0.0000 0.0000 0.0000
# 3 49.1541 59.1121 153.8420 0.0000 0.0000 0.0000
# 4 0.0000 0.0000 0.0000 13.1211 0.0000 0.0000
# 5 0.0000 0.0000 0.0000 0.0000 17.6353 0.0000
# 6 0.0000 0.0000 0.0000 0.0000 0.0000 13.9956
#
#
#
# Elastic Compliance Matrix: (Units=1/GPa)
#
#
# Indices 1 2 3 4 5 6 
#
# 1 0.019587 -0.002650 -0.005240 0.000000 0.000000 0.000000
# 2 -0.002650 0.023329 -0.008117 0.000000 0.000000 0.000000
# 3 -0.005240 -0.008117 0.011293 0.000000 0.000000 0.000000
# 4 0.000000 0.000000 0.000000 0.076213 0.000000 0.000000
# 5 0.000000 0.000000 0.000000 0.000000 0.056705 0.000000
# 6 0.000000 0.000000 0.000000 0.000000 0.000000 0.071451
#
#
# Mechanical properties :
#
#
# Convention : Reuss Voigt Hill
#
# Bulk Modulus (GPa) = 45.05497 61.52560 53.29028
# Shear Modulus (GPa) = 16.77902 19.25725 18.01813
#
# Velocity S-wave (km/s) = 3.06609 3.28472 3.17728
# Velocity P-wave (km/s) = 6.14636 6.98979 6.58160
#
# Compressibility (1/GPa) = 0.02219511
#
# Stress axis : x y z
#
# Youngs Moduli (GPa) = 51.05451 42.86488 88.54709
#
# Poissons Ratio (x) = 0.11358 0.46399
# Poissons Ratio (y) = 0.13528 0.71877
# Poissons Ratio (z) = 0.26753 0.34795
#
# Static dielectric constant tensor:
#      x y z
#    x 3.204730 0.000000 0.000000 
#    y 0.000000 3.192340 0.000000 
#    z 0.000000 0.000000 3.457800 
# 
# 
# High freq. dielectric constant tensor:
#      x y z
#    x 1.677130 0.000000 0.000000 
#    y 0.000000 1.659610 0.000000 
#    z 0.000000 0.000000 1.697910 
# 
# From -- ./inp_files/4535.got.cif
#   From: 2010.03.12/outbox.cif.g09.slc.cpg/sg47_3_cif.got.tgz:4535.got - 2010.04.14 03:12:58.
