data_PCOD8195327
_publ_section_title
;
Structure prediction by ZEFSAII (Michael W. Deem and Ramdas Pophale) SiO2 
 PCOD8195327
Probable space group: P M M M
;
_chemical_formula_sum "Si O2"
_cell_formula_units_Z 48
_cell_length_a 8.984673
_cell_length_b 23.424609
_cell_length_c 12.076708
_cell_angle_alpha 90.000000
_cell_angle_beta 90.000000
_cell_angle_gamma 90.000000
_cell_volume 2541.693578
_symmetry_space_group_name_H-M "P M M M"
_symmetry_group_IT_number 47
_symmetry_cell_setting 'orthorhombic'
loop_
_space_group_symop_operation_xyz
x,y,z
-x,-y,z
x,-y,-z
-x,y,-z
-x,-y,-z
x,y,-z
-x,y,z
x,-y,z
loop_
_atom_site_type_symbol
_atom_site_label
_atom_site_fract_x
_atom_site_fract_y
_atom_site_fract_z
Si Si1 0.822567 0.393780 0.500000
Si Si2 0.676717 0.936038 0.500000
Si Si3 0.676969 0.000000 0.124729
Si Si4 0.176508 0.776540 0.264733
Si Si5 0.822835 0.436953 0.266609
Si Si6 0.176526 0.265786 0.500000
Si Si7 0.822699 0.331760 0.875368
Si Si8 0.323389 0.107693 0.735041
O O1 0.763034 0.425743 0.390765
O O2 0.758462 0.329661 0.500000
O O3 0.000000 0.392675 0.500000
O O4 0.500000 0.940107 0.500000
O O5 0.732458 0.903334 0.609472
O O6 0.743000 0.000000 0.500000
O O7 0.734708 0.056218 0.187956
O O8 0.500000 0.000000 0.124711
O O9 0.740499 0.000000 0.000000
O O10 0.232400 0.766737 0.390541
O O11 0.233521 0.724083 0.189786
O O12 0.250544 0.834305 0.219674
O O13 0.000000 0.782343 0.257886
O O14 0.769332 0.500000 0.228301
O O15 0.759315 0.388877 0.183500
O O16 0.000000 0.433635 0.266917
O O17 0.000000 0.269708 0.500000
O O18 0.000000 0.333187 0.874729
O O19 0.760045 0.329722 0.000000
O O20 0.500000 0.113174 0.740923
#
# Coordination Sequence:
#
# PCOD8195327 Si02
#       8
#     4   4   4   8   8   4   8   8
#     4   9  13  21  36  55  80 113 151 187 226 273
#     4   9  15  28  51  74  93 117 148 181 224 277
#     4   9  18  33  52  72  93 119 152 188 226 269
#     4  10  19  31  47  67  93 124 155 185 223 272
#     4   9  15  22  35  56  82 114 152 192 230 269
#     4   9  15  26  44  62  86 122 156 183 220 273
#     4   9  17  28  40  56  83 121 158 187 223 274
#     4  10  19  32  52  74  94 118 150 188 228 269
#
# _framework density 18.885047
#
# number of rings (size 3 to 8) (size 9 to 14) (size 15 to 20)
#    0.000    2.667    2.500    0.750    0.000    2.000 
#    0.000    2.083    0.000    1.000    0.000    0.000 
#    0.000    0.667    0.000    3.000    0.000    3.333 
#
# Total GULP energy -595052.681157 kJ/mol
# GULP energy per Si atom -12396.930857 kJ/mol
# Density = 1.884206 g / cm^3
# Si number density = 18.885047 Si / 1000 Ang^3
#
#
#
# Elastic Constant Matrix: (Units=GPa)
#
#
# Indices 1 2 3 4 5 6 
#
# 1 8.4417 19.0775 12.7511 0.0000 0.0000 0.0000
# 2 19.0775 197.0001 87.5477 0.0000 0.0000 0.0000
# 3 12.7511 87.5477 162.4858 0.0000 0.0000 0.0000
# 4 0.0000 0.0000 0.0000 18.0408 0.0000 0.0000
# 5 0.0000 0.0000 0.0000 0.0000 5.6838 0.0000
# 6 0.0000 0.0000 0.0000 0.0000 0.0000 -1.3070
#
#
#
# Elastic Compliance Matrix: (Units=1/GPa)
#
#
# Indices 1 2 3 4 5 6 
#
# 1 0.155124 -0.012639 -0.005364 0.000000 0.000000 0.000000
# 2 -0.012639 0.007704 -0.003159 0.000000 0.000000 0.000000
# 3 -0.005364 -0.003159 0.008277 0.000000 0.000000 0.000000
# 4 0.000000 0.000000 0.000000 0.055430 0.000000 0.000000
# 5 0.000000 0.000000 0.000000 0.000000 0.175939 0.000000
# 6 0.000000 0.000000 0.000000 0.000000 0.000000 -0.765139
#
#
# Mechanical properties :
#
#
# Convention : Reuss Voigt Hill
#
# Bulk Modulus (GPa) = 7.76502 67.40890 37.58696
# Shear Modulus (GPa) = -18.02356 21.05361 1.51502
#
# Velocity S-wave (km/s) = -3.09266 3.34253 0.89665
# Velocity P-wave (km/s) = 2.93804 7.11818 4.58456
#
# Compressibility (1/GPa) = 0.12878260
#
# Stress axis : x y z
#
# Youngs Moduli (GPa) = 6.44646 129.80302 120.81036
#
# Poissons Ratio (x) = 1.64052 0.64799
# Poissons Ratio (y) = 0.08147 0.38165
# Poissons Ratio (z) = 0.03458 0.41006
#
# Static dielectric constant tensor:
#      x y z
#    x 2.620250 0.000000 0.000000 
#    y 0.000000 3.655580 0.000000 
#    z 0.000000 0.000000 3.700720 
# 
# 
# High freq. dielectric constant tensor:
#      x y z
#    x 1.646550 0.000000 0.000000 
#    y 0.000000 1.752480 0.000000 
#    z 0.000000 0.000000 1.738060 
# 
# From -- ./inp_files/16685.got.cif
#   From: 2010.03.12/outbox.cif.g09.slc.cpg/sg47_9_cif.got.tgz:16685.got - 2010.04.14 03:12:58.
