data_PCOD8195799
_publ_section_title
;
Structure prediction by ZEFSAII (Michael W. Deem and Ramdas Pophale) SiO2 
 PCOD8195799
Probable space group: P M M M
;
_chemical_formula_sum "Si O2"
_cell_formula_units_Z 52
_cell_length_a 9.299203
_cell_length_b 13.940816
_cell_length_c 21.349950
_cell_angle_alpha 90.000000
_cell_angle_beta 90.000000
_cell_angle_gamma 90.000000
_cell_volume 2767.775023
_symmetry_space_group_name_H-M "P M M M"
_symmetry_group_IT_number 47
_symmetry_cell_setting 'orthorhombic'
loop_
_space_group_symop_operation_xyz
x,y,z
-x,-y,z
x,-y,-z
-x,y,-z
-x,-y,-z
x,y,-z
-x,y,z
x,-y,z
loop_
_atom_site_type_symbol
_atom_site_label
_atom_site_fract_x
_atom_site_fract_y
_atom_site_fract_z
Si Si1 0.161680 0.113484 0.739167
Si Si2 0.167642 0.609420 0.817256
Si Si3 0.333759 0.391947 0.304778
Si Si4 0.332418 0.796166 0.372146
Si Si5 0.165925 0.743674 0.070269
Si Si6 0.665370 0.112606 0.859521
Si Si7 0.329831 0.109167 0.500000
O O1 0.241940 0.143542 0.676790
O O2 0.248266 0.152151 0.799235
O O3 0.000000 0.156127 0.741014
O O4 0.157099 0.000000 0.741052
O O5 0.212160 0.500000 0.828407
O O6 0.248315 0.648219 0.755467
O O7 0.216067 0.663722 0.880078
O O8 0.000000 0.621558 0.804294
O O9 0.500000 0.392774 0.286081
O O10 0.283356 0.500000 0.324042
O O11 0.305777 0.318251 0.362302
O O12 0.500000 0.821500 0.362985
O O13 0.276905 0.830036 0.440059
O O14 0.264292 0.837550 0.079946
O O15 0.000000 0.772278 0.080440
O O16 0.190798 0.704211 0.000000
O O17 0.500000 0.142460 0.851804
O O18 0.682505 0.000000 0.868634
O O19 0.500000 0.102609 0.500000
O O20 0.266660 0.000000 0.500000
#
# Coordination Sequence:
#
# PCOD8195799 Si02
#       7
#     8   8   8   8   8   8   4
#     4  10  20  33  51  76 103 129 161 207 260 307
#     4   9  18  33  53  76 101 130 165 205 250 302
#     4   9  18  32  50  74 102 129 162 208 257 299
#     4  10  19  32  52  75 101 137 175 208 247 296
#     4  10  21  35  51  73 101 133 168 207 253 303
#     4  10  21  36  53  73  98 130 169 212 256 303
#     4   9  18  32  50  74 104 137 175 215 250 291
#
# _framework density 18.787654
#
# number of rings (size 3 to 8) (size 9 to 14) (size 15 to 20)
#    0.000    2.385    0.000    2.308    0.000    7.077 
#    0.000    3.846    0.000    3.692    0.000    3.231 
#    0.000    3.692    0.000    0.000    0.000    0.000 
#
# Total GULP energy -644776.564220 kJ/mol
# GULP energy per Si atom -12399.549312 kJ/mol
# Density = 1.874489 g / cm^3
# Si number density = 18.787654 Si / 1000 Ang^3
#
#
#
# Elastic Constant Matrix: (Units=GPa)
#
#
# Indices 1 2 3 4 5 6 
#
# 1 67.3657 36.0055 40.8918 0.0000 0.0000 0.0000
# 2 36.0055 73.3806 68.1044 0.0000 0.0000 0.0000
# 3 40.8918 68.1044 132.5056 0.0000 0.0000 0.0000
# 4 0.0000 0.0000 0.0000 29.9303 0.0000 0.0000
# 5 0.0000 0.0000 0.0000 0.0000 20.8549 0.0000
# 6 0.0000 0.0000 0.0000 0.0000 0.0000 23.8080
#
#
#
# Elastic Compliance Matrix: (Units=1/GPa)
#
#
# Indices 1 2 3 4 5 6 
#
# 1 0.020453 -0.007988 -0.002206 0.000000 0.000000 0.000000
# 2 -0.007988 0.029177 -0.012531 0.000000 0.000000 0.000000
# 3 -0.002206 -0.012531 0.014668 0.000000 0.000000 0.000000
# 4 0.000000 0.000000 0.000000 0.033411 0.000000 0.000000
# 5 0.000000 0.000000 0.000000 0.000000 0.047950 0.000000
# 6 0.000000 0.000000 0.000000 0.000000 0.000000 0.042003
#
#
# Mechanical properties :
#
#
# Convention : Reuss Voigt Hill
#
# Bulk Modulus (GPa) = 53.05681 62.58392 57.82036
# Shear Modulus (GPa) = 20.88588 23.46863 22.17725
#
# Velocity S-wave (km/s) = 3.33781 3.53817 3.43945
# Velocity P-wave (km/s) = 6.56933 7.07637 6.82756
#
# Compressibility (1/GPa) = 0.01884772
#
# Stress axis : x y z
#
# Youngs Moduli (GPa) = 48.89263 34.27335 68.17365
#
# Poissons Ratio (x) = 0.27377 0.15041
# Poissons Ratio (y) = 0.39055 0.85430
# Poissons Ratio (z) = 0.10787 0.42949
#
# Static dielectric constant tensor:
#      x y z
#    x 3.424360 0.000000 0.000000 
#    y 0.000000 3.604950 0.000000 
#    z 0.000000 0.000000 3.485330 
# 
# 
# High freq. dielectric constant tensor:
#      x y z
#    x 1.720330 0.000000 0.000000 
#    y 0.000000 1.737040 0.000000 
#    z 0.000000 0.000000 1.717110 
# 
# From -- ./inp_files/6966.got.cif
#   From: 2010.03.12/outbox.cif.g09.slc.cpg/sg47_4_cif.got.tgz:6966.got - 2010.04.14 03:12:58.
