data_PCOD8195629
_publ_section_title
;
Structure prediction by ZEFSAII (Michael W. Deem and Ramdas Pophale) SiO2 
 PCOD8195629
Probable space group: P M M M
;
_chemical_formula_sum "Si O2"
_cell_formula_units_Z 40
_cell_length_a 18.446647
_cell_length_b 8.827558
_cell_length_c 16.698880
_cell_angle_alpha 90.000000
_cell_angle_beta 90.000000
_cell_angle_gamma 90.000000
_cell_volume 2719.226354
_symmetry_space_group_name_H-M "P M M M"
_symmetry_group_IT_number 47
_symmetry_cell_setting 'orthorhombic'
loop_
_space_group_symop_operation_xyz
x,y,z
-x,-y,z
x,-y,-z
-x,y,-z
-x,-y,-z
x,y,-z
-x,y,z
x,-y,z
loop_
_atom_site_type_symbol
_atom_site_label
_atom_site_fract_x
_atom_site_fract_y
_atom_site_fract_z
Si Si1 0.266428 0.824661 0.095313
Si Si2 0.086082 0.670343 0.500000
Si Si3 0.000000 0.828718 0.094689
Si Si4 0.423394 0.179551 0.910542
Si Si5 0.866184 0.678160 0.179129
Si Si6 0.915548 0.177577 0.337503
O O1 0.346429 0.771358 0.128298
O O2 0.210333 0.717390 0.139857
O O3 0.250372 0.000000 0.116592
O O4 0.261330 0.801204 0.000000
O O5 0.116915 0.500000 0.500000
O O6 0.113880 0.756763 0.421245
O O7 0.000000 0.670696 0.500000
O O8 0.928744 0.745424 0.124039
O O9 0.000000 0.000000 0.128936
O O10 0.000000 0.829161 0.000000
O O11 0.500000 0.230650 0.866983
O O12 0.421073 0.000000 0.915446
O O13 0.425827 0.246155 0.000000
O O14 0.876394 0.500000 0.184378
O O15 0.868999 0.746497 0.267799
O O16 0.000000 0.217156 0.323641
O O17 0.902011 0.000000 0.337744
#
# Coordination Sequence:
#
# PCOD8195629 Si02
#       6
#     8   4   4   8   8   8
#     4   9  17  29  44  61  83 112 145 180 218 259
#     4   9  17  29  47  69  91 107 128 165 211 258
#     4  11  23  37  49  58  73 104 147 189 225 259
#     4   7  10  19  38  62  82 101 132 174 214 252
#     4  12  23  32  44  61  84 111 143 182 221 256
#     4  10  19  32  49  65  83 108 141 175 211 256
#
# _framework density 14.710065999999999
#
# number of rings (size 3 to 8) (size 9 to 14) (size 15 to 20)
#    0.000    2.400    1.000    5.400    0.000    5.600 
#    0.000    0.000    0.000    0.600    0.000    2.800 
#    0.000    0.000    0.000    0.900    0.000   18.600 
#
# Total GULP energy -495637.254732 kJ/mol
# GULP energy per Si atom -12390.931368 kJ/mol
# Density = 1.467659 g / cm^3
# Si number density = 14.710066 Si / 1000 Ang^3
#
#
#
# Elastic Constant Matrix: (Units=GPa)
#
#
# Indices 1 2 3 4 5 6 
#
# 1 107.4752 33.1603 34.4234 0.0000 0.0000 0.0000
# 2 33.1603 82.6419 36.0224 0.0000 0.0000 0.0000
# 3 34.4234 36.0224 71.2228 0.0000 0.0000 0.0000
# 4 0.0000 0.0000 0.0000 0.1407 0.0000 0.0000
# 5 0.0000 0.0000 0.0000 0.0000 0.4057 0.0000
# 6 0.0000 0.0000 0.0000 0.0000 0.0000 -2.0592
#
#
#
# Elastic Compliance Matrix: (Units=1/GPa)
#
#
# Indices 1 2 3 4 5 6 
#
# 1 0.011496 -0.002810 -0.004135 0.000000 0.000000 0.000000
# 2 -0.002810 0.016210 -0.006840 0.000000 0.000000 0.000000
# 3 -0.004135 -0.006840 0.019498 0.000000 0.000000 0.000000
# 4 0.000000 0.000000 0.000000 7.105894 0.000000 0.000000
# 5 0.000000 0.000000 0.000000 0.000000 2.464888 0.000000
# 6 0.000000 0.000000 0.000000 0.000000 0.000000 -0.485636
#
#
# Mechanical properties :
#
#
# Convention : Reuss Voigt Hill
#
# Bulk Modulus (GPa) = 50.93358 52.06132 51.49745
# Shear Modulus (GPa) = 0.54547 10.21305 5.37926
#
# Velocity S-wave (km/s) = 0.60960 2.63780 1.91436
# Velocity P-wave (km/s) = 5.93259 6.68923 6.32224
#
# Compressibility (1/GPa) = 0.01963341
#
# Stress axis : x y z
#
# Youngs Moduli (GPa) = 86.98719 61.69206 51.28652
#
# Poissons Ratio (x) = 0.17339 0.21206
# Poissons Ratio (y) = 0.24448 0.35080
# Poissons Ratio (z) = 0.35967 0.42197
#
# Static dielectric constant tensor:
#      x y z
#    x 2.862800 0.000000 0.000000 
#    y 0.000000 2.811970 0.000000 
#    z 0.000000 0.000000 2.724430 
# 
# 
# High freq. dielectric constant tensor:
#      x y z
#    x 1.549170 0.000000 0.000000 
#    y 0.000000 1.559190 0.000000 
#    z 0.000000 0.000000 1.532570 
# 
# From -- ./inp_files/28393.got.cif
#   From: 2010.03.12/outbox.cif.g09.slc.cpg/sg47_15_cif.got.tgz:28393.got - 2010.04.14 03:12:58.
