data_PCOD8195548
_publ_section_title
;
Structure prediction by ZEFSAII (Michael W. Deem and Ramdas Pophale) SiO2 
 PCOD8195548
Probable space group: P M M M
;
_chemical_formula_sum "Si O2"
_cell_formula_units_Z 52
_cell_length_a 23.367595
_cell_length_b 9.094083
_cell_length_c 13.952104
_cell_angle_alpha 90.000000
_cell_angle_beta 90.000000
_cell_angle_gamma 90.000000
_cell_volume 2964.917650
_symmetry_space_group_name_H-M "P M M M"
_symmetry_group_IT_number 47
_symmetry_cell_setting 'orthorhombic'
loop_
_space_group_symop_operation_xyz
x,y,z
-x,-y,z
x,-y,-z
-x,y,-z
-x,-y,-z
x,y,-z
-x,y,z
x,-y,z
loop_
_atom_site_type_symbol
_atom_site_label
_atom_site_fract_x
_atom_site_fract_y
_atom_site_fract_z
Si Si1 0.065050 0.326703 0.310951
Si Si2 0.932831 0.162023 0.500000
Si Si3 0.650776 0.666551 0.757685
Si Si4 0.728794 0.826964 0.388605
Si Si5 0.567245 0.830922 0.892144
Si Si6 0.757283 0.336049 0.108957
Si Si7 0.170058 0.829376 0.248235
O O1 0.069717 0.500000 0.320713
O O2 0.086467 0.253579 0.408981
O O3 0.111056 0.262649 0.237622
O O4 0.000000 0.280953 0.283255
O O5 0.000000 0.141636 0.500000
O O6 0.903266 0.000000 0.500000
O O7 0.635410 0.500000 0.727804
O O8 0.675196 0.747710 0.662845
O O9 0.595527 0.742463 0.804350
O O10 0.696611 0.671266 0.841374
O O11 0.731805 0.778721 0.500000
O O12 0.789055 0.782770 0.337712
O O13 0.718736 0.000000 0.377959
O O14 0.500000 0.813011 0.877867
O O15 0.586052 0.000000 0.882479
O O16 0.584004 0.774720 0.000000
O O17 0.783958 0.500000 0.122013
O O18 0.798160 0.210578 0.150520
O O19 0.746948 0.295243 0.000000
O O20 0.154481 0.000000 0.252122
#
# Coordination Sequence:
#
# PCOD8195548 Si02
#       7
#     8   4   8   8   8   8   8
#     4  10  20  33  48  68  96 129 163 197 240 298
#     4   9  17  29  45  65  89 119 155 193 232 275
#     4  10  19  31  50  77 105 133 167 205 249 296
#     4   9  19  35  52  71  98 133 170 207 247 293
#     4   9  18  32  50  74 105 140 174 206 244 293
#     4   9  18  33  51  71  99 132 163 199 245 298
#     4  10  20  32  50  75  99 126 162 205 250 293
#
# _framework density 17.538430999999999
#
# number of rings (size 3 to 8) (size 9 to 14) (size 15 to 20)
#    0.000    2.538    0.000    2.538    1.077    4.923 
#    0.000    0.769    0.000    0.923    0.000    6.462 
#    0.000    0.000    0.000    0.000    0.000    0.000 
#
# Total GULP energy -644528.528442 kJ/mol
# GULP energy per Si atom -12394.779393 kJ/mol
# Density = 1.749851 g / cm^3
# Si number density = 17.538431 Si / 1000 Ang^3
#
#
#
# Elastic Constant Matrix: (Units=GPa)
#
#
# Indices 1 2 3 4 5 6 
#
# 1 65.5593 37.6463 26.9086 0.0000 0.0000 0.0000
# 2 37.6463 78.1359 30.4262 0.0000 0.0000 0.0000
# 3 26.9086 30.4262 91.2440 0.0000 0.0000 0.0000
# 4 0.0000 0.0000 0.0000 27.1228 0.0000 0.0000
# 5 0.0000 0.0000 0.0000 0.0000 18.2381 0.0000
# 6 0.0000 0.0000 0.0000 0.0000 0.0000 29.7841
#
#
#
# Elastic Compliance Matrix: (Units=1/GPa)
#
#
# Indices 1 2 3 4 5 6 
#
# 1 0.021963 -0.009262 -0.003388 0.000000 0.000000 0.000000
# 2 -0.009262 0.018614 -0.003476 0.000000 0.000000 0.000000
# 3 -0.003388 -0.003476 0.013118 0.000000 0.000000 0.000000
# 4 0.000000 0.000000 0.000000 0.036869 0.000000 0.000000
# 5 0.000000 0.000000 0.000000 0.000000 0.054830 0.000000
# 6 0.000000 0.000000 0.000000 0.000000 0.000000 0.033575
#
#
# Mechanical properties :
#
#
# Convention : Reuss Voigt Hill
#
# Bulk Modulus (GPa) = 46.63674 47.21125 46.92400
# Shear Modulus (GPa) = 22.89693 24.35954 23.62823
#
# Velocity S-wave (km/s) = 3.61713 3.73087 3.67444
# Velocity P-wave (km/s) = 6.64031 6.74806 6.69440
#
# Compressibility (1/GPa) = 0.02144232
#
# Stress axis : x y z
#
# Youngs Moduli (GPa) = 45.53128 53.72216 76.23206
#
# Poissons Ratio (x) = 0.49760 0.25830
# Poissons Ratio (y) = 0.42173 0.26495
# Poissons Ratio (z) = 0.15428 0.18671
#
# Static dielectric constant tensor:
#      x y z
#    x 3.135570 0.000000 0.000000 
#    y 0.000000 3.365320 0.000000 
#    z 0.000000 0.000000 3.163770 
# 
# 
# High freq. dielectric constant tensor:
#      x y z
#    x 1.666640 0.000000 0.000000 
#    y 0.000000 1.684760 0.000000 
#    z 0.000000 0.000000 1.658930 
# 
# From -- ./inp_files/6940.got.cif
#   From: 2010.03.12/outbox.cif.g09.slc.cpg/sg47_4_cif.got.tgz:6940.got - 2010.04.14 03:12:58.
