data_PCOD8195476
_publ_section_title
;
Structure prediction by ZEFSAII (Michael W. Deem and Ramdas Pophale) SiO2 
 PCOD8195476
Probable space group: P M M M
;
_chemical_formula_sum "Si O2"
_cell_formula_units_Z 44
_cell_length_a 13.837988
_cell_length_b 22.878387
_cell_length_c 7.951822
_cell_angle_alpha 90.000000
_cell_angle_beta 90.000000
_cell_angle_gamma 90.000000
_cell_volume 2517.474044
_symmetry_space_group_name_H-M "P M M M"
_symmetry_group_IT_number 47
_symmetry_cell_setting 'orthorhombic'
loop_
_space_group_symop_operation_xyz
x,y,z
-x,-y,z
x,-y,-z
-x,y,-z
-x,-y,-z
x,y,-z
-x,y,z
x,-y,z
loop_
_atom_site_type_symbol
_atom_site_label
_atom_site_fract_x
_atom_site_fract_y
_atom_site_fract_z
Si Si1 0.611786 0.142564 0.311905
Si Si2 0.788986 0.436117 0.698110
Si Si3 0.108232 0.321674 0.699623
Si Si4 0.614513 0.934834 0.000000
Si Si5 0.288473 0.253372 0.189271
Si Si6 0.608352 0.634545 0.695978
O O1 0.623382 0.115499 0.500000
O O2 0.500000 0.158853 0.276629
O O3 0.649692 0.097405 0.170511
O O4 0.675338 0.201242 0.307318
O O5 0.803459 0.440271 0.500000
O O6 0.811864 0.500000 0.778500
O O7 0.859414 0.385544 0.770036
O O8 0.678262 0.419357 0.742111
O O9 0.114256 0.322415 0.500000
O O10 0.178838 0.271260 0.765752
O O11 0.000000 0.308512 0.763735
O O12 0.500000 0.938639 0.000000
O O13 0.659313 0.000000 0.000000
O O14 0.359982 0.308112 0.204377
O O15 0.291889 0.229958 0.000000
O O16 0.617514 0.650084 0.500000
O O17 0.500000 0.616558 0.746942
#
# Coordination Sequence:
#
# PCOD8195476 Si02
#       6
#     8   8   8   4   8   8
#     4  10  19  31  49  73 103 139 175 209 244 282
#     4   8  14  25  42  65  89 112 145 191 242 297
#     4   9  18  32  48  66  89 116 148 193 250 306
#     4   9  18  32  48  72 107 143 180 211 235 273
#     4  11  20  30  46  67  93 122 158 202 245 296
#     4   9  17  28  42  62  88 118 152 192 241 293
#
# _framework density 17.477836
#
# number of rings (size 3 to 8) (size 9 to 14) (size 15 to 20)
#    0.000    2.636    0.909    3.273    0.000    4.000 
#    0.000    5.455    0.000    8.727    0.000   10.182 
#    0.000    1.455    0.000    3.818    0.000    0.182 
#
# Total GULP energy -545388.597228 kJ/mol
# GULP energy per Si atom -12395.195392 kJ/mol
# Density = 1.743806 g / cm^3
# Si number density = 17.477836 Si / 1000 Ang^3
#
#
#
# Elastic Constant Matrix: (Units=GPa)
#
#
# Indices 1 2 3 4 5 6 
#
# 1 92.8784 28.0297 21.1927 0.0000 0.0000 0.0000
# 2 28.0297 101.5272 32.4273 0.0000 0.0000 0.0000
# 3 21.1927 32.4273 74.4754 0.0000 0.0000 0.0000
# 4 0.0000 0.0000 0.0000 18.5825 0.0000 0.0000
# 5 0.0000 0.0000 0.0000 0.0000 13.8351 0.0000
# 6 0.0000 0.0000 0.0000 0.0000 0.0000 14.6962
#
#
#
# Elastic Compliance Matrix: (Units=1/GPa)
#
#
# Indices 1 2 3 4 5 6 
#
# 1 0.012077 -0.002598 -0.002305 0.000000 0.000000 0.000000
# 2 -0.002598 0.011999 -0.004485 0.000000 0.000000 0.000000
# 3 -0.002305 -0.004485 0.016036 0.000000 0.000000 0.000000
# 4 0.000000 0.000000 0.000000 0.053814 0.000000 0.000000
# 5 0.000000 0.000000 0.000000 0.000000 0.072280 0.000000
# 6 0.000000 0.000000 0.000000 0.000000 0.000000 0.068045
#
#
# Mechanical properties :
#
#
# Convention : Reuss Voigt Hill
#
# Bulk Modulus (GPa) = 46.87111 48.02005 47.44558
# Shear Modulus (GPa) = 19.22039 21.90485 20.56262
#
# Velocity S-wave (km/s) = 3.31977 3.54403 3.43373
# Velocity P-wave (km/s) = 6.44749 6.65442 6.55177
#
# Compressibility (1/GPa) = 0.02133510
#
# Stress axis : x y z
#
# Youngs Moduli (GPa) = 82.80328 83.33744 62.35860
#
# Poissons Ratio (x) = 0.21650 0.14376
# Poissons Ratio (y) = 0.21511 0.27970
# Poissons Ratio (z) = 0.19090 0.37380
#
# Static dielectric constant tensor:
#      x y z
#    x 3.226040 0.000000 0.000000 
#    y 0.000000 3.201740 0.000000 
#    z 0.000000 0.000000 3.131480 
# 
# 
# High freq. dielectric constant tensor:
#      x y z
#    x 1.651820 0.000000 0.000000 
#    y 0.000000 1.651240 0.000000 
#    z 0.000000 0.000000 1.668840 
# 
# From -- ./inp_files/6804.got.cif
#   From: 2010.03.12/outbox.cif.g09.slc.cpg/sg47_4_cif.got.tgz:6804.got - 2010.04.14 03:12:58.
