data_PCOD8195807
_publ_section_title
;
Structure prediction by ZEFSAII (Michael W. Deem and Ramdas Pophale) SiO2 
 PCOD8195807
Probable space group: P M M M
;
_chemical_formula_sum "Si O2"
_cell_formula_units_Z 52
_cell_length_a 21.790208
_cell_length_b 9.352100
_cell_length_c 13.995849
_cell_angle_alpha 90.000000
_cell_angle_beta 90.000000
_cell_angle_gamma 90.000000
_cell_volume 2852.132951
_symmetry_space_group_name_H-M "P M M M"
_symmetry_group_IT_number 47
_symmetry_cell_setting 'orthorhombic'
loop_
_space_group_symop_operation_xyz
x,y,z
-x,-y,z
x,-y,-z
-x,y,-z
-x,-y,-z
x,y,-z
-x,y,z
x,-y,z
loop_
_atom_site_type_symbol
_atom_site_label
_atom_site_fract_x
_atom_site_fract_y
_atom_site_fract_z
Si Si1 0.930199 0.836684 0.607865
Si Si2 0.320672 0.667524 0.605521
Si Si3 0.746614 0.333010 0.792312
Si Si4 0.569755 0.666615 0.737268
Si Si5 0.884495 0.665982 0.774076
Si Si6 0.642253 0.833665 0.889057
Si Si7 0.000000 0.329719 0.893573
O O1 0.907112 0.818981 0.500000
O O2 0.886164 0.741735 0.672089
O O3 0.000000 0.782310 0.617876
O O4 0.925633 0.000000 0.640985
O O5 0.311295 0.739783 0.500000
O O6 0.316950 0.500000 0.590872
O O7 0.268924 0.714937 0.682795
O O8 0.387401 0.710360 0.647771
O O9 0.729773 0.500000 0.805215
O O10 0.817618 0.304438 0.818303
O O11 0.707324 0.240425 0.866071
O O12 0.500000 0.701128 0.708663
O O13 0.578864 0.500000 0.763025
O O14 0.588008 0.758610 0.829875
O O15 0.895100 0.500000 0.755639
O O16 0.938367 0.727340 0.841932
O O17 0.646202 0.000000 0.861209
O O18 0.627079 0.813220 0.000000
O O19 0.000000 0.500000 0.896686
O O20 0.000000 0.265934 0.000000
#
# Coordination Sequence:
#
# PCOD8195807 Si02
#       7
#     8   8   8   8   8   8   4
#     4   9  18  32  49  70  99 135 168 198 242 302
#     4   8  14  27  47  71 101 133 164 201 241 284
#     4   9  19  33  51  76 101 129 168 211 255 304
#     4   9  18  32  51  77 105 133 169 209 249 298
#     4  10  19  32  52  76 100 129 167 213 262 308
#     4  10  21  36  53  73  99 133 171 211 255 303
#     4   9  18  32  48  69  98 128 161 205 260 319
#
# _framework density 18.231968999999999
#
# number of rings (size 3 to 8) (size 9 to 14) (size 15 to 20)
#    0.000    2.846    0.769    1.846    0.000    4.308 
#    0.000    6.923    0.000    8.308    0.000    4.308 
#    0.000    0.000    0.000    0.000    0.000    0.000 
#
# Total GULP energy -644596.294320 kJ/mol
# GULP energy per Si atom -12396.082583 kJ/mol
# Density = 1.819047 g / cm^3
# Si number density = 18.231969 Si / 1000 Ang^3
#
#
#
# Elastic Constant Matrix: (Units=GPa)
#
#
# Indices 1 2 3 4 5 6 
#
# 1 108.5360 20.2162 28.5898 0.0000 0.0000 0.0000
# 2 20.2162 44.1210 24.7152 0.0000 0.0000 0.0000
# 3 28.5898 24.7152 87.1212 0.0000 0.0000 0.0000
# 4 0.0000 0.0000 0.0000 21.2240 0.0000 0.0000
# 5 0.0000 0.0000 0.0000 0.0000 13.4085 0.0000
# 6 0.0000 0.0000 0.0000 0.0000 0.0000 16.7437
#
#
#
# Elastic Compliance Matrix: (Units=1/GPa)
#
#
# Indices 1 2 3 4 5 6 
#
# 1 0.010504 -0.003426 -0.002475 0.000000 0.000000 0.000000
# 2 -0.003426 0.028065 -0.006837 0.000000 0.000000 0.000000
# 3 -0.002475 -0.006837 0.014230 0.000000 0.000000 0.000000
# 4 0.000000 0.000000 0.000000 0.047116 0.000000 0.000000
# 5 0.000000 0.000000 0.000000 0.000000 0.074580 0.000000
# 6 0.000000 0.000000 0.000000 0.000000 0.000000 0.059724
#
#
# Mechanical properties :
#
#
# Convention : Reuss Voigt Hill
#
# Bulk Modulus (GPa) = 36.60109 42.98006 39.79057
# Shear Modulus (GPa) = 18.60099 21.35905 19.98002
#
# Velocity S-wave (km/s) = 3.19759 3.42646 3.31400
# Velocity P-wave (km/s) = 5.80961 6.26732 6.04280
#
# Compressibility (1/GPa) = 0.02732159
#
# Stress axis : x y z
#
# Youngs Moduli (GPa) = 95.20498 35.63161 70.27379
#
# Poissons Ratio (x) = 0.12209 0.17392
# Poissons Ratio (y) = 0.32621 0.48048
# Poissons Ratio (z) = 0.23562 0.24362
#
# Static dielectric constant tensor:
#      x y z
#    x 3.400590 0.000000 0.000000 
#    y 0.000000 3.088150 0.000000 
#    z 0.000000 0.000000 3.457150 
# 
# 
# High freq. dielectric constant tensor:
#      x y z
#    x 1.706890 0.000000 0.000000 
#    y 0.000000 1.676330 0.000000 
#    z 0.000000 0.000000 1.703080 
# 
# From -- ./inp_files/25046.got.cif
#   From: 2010.03.12/outbox.cif.g09.slc.cpg/sg47_13_cif.got.tgz:25046.got - 2010.04.14 03:12:58.
