data_PCOD8195338
_publ_section_title
;
Structure prediction by ZEFSAII (Michael W. Deem and Ramdas Pophale) SiO2 
 PCOD8195338
Probable space group: P M M M
;
_chemical_formula_sum "Si O2"
_cell_formula_units_Z 52
_cell_length_a 12.645956
_cell_length_b 9.493221
_cell_length_c 25.653201
_cell_angle_alpha 90.000000
_cell_angle_beta 90.000000
_cell_angle_gamma 90.000000
_cell_volume 3079.688715
_symmetry_space_group_name_H-M "P M M M"
_symmetry_group_IT_number 47
_symmetry_cell_setting 'orthorhombic'
loop_
_space_group_symop_operation_xyz
x,y,z
-x,-y,z
x,-y,-z
-x,y,-z
-x,-y,-z
x,y,-z
-x,y,z
x,-y,z
loop_
_atom_site_type_symbol
_atom_site_label
_atom_site_fract_x
_atom_site_fract_y
_atom_site_fract_z
Si Si1 0.500000 0.834772 0.220203
Si Si2 0.623648 0.833691 0.500000
Si Si3 0.309454 0.337506 0.598412
Si Si4 0.120472 0.836895 0.771235
Si Si5 0.120030 0.338093 0.671534
Si Si6 0.378623 0.663266 0.059184
Si Si7 0.301248 0.164250 0.151232
Si Si8 0.500000 0.662042 0.325258
O O1 0.602667 0.787912 0.188019
O O2 0.500000 0.757392 0.274808
O O3 0.500000 0.000000 0.231781
O O4 0.500000 0.796936 0.500000
O O5 0.678003 0.765986 0.550128
O O6 0.644150 0.000000 0.500000
O O7 0.320576 0.500000 0.580135
O O8 0.194124 0.306495 0.622241
O O9 0.396864 0.301170 0.641365
O O10 0.158603 0.752008 0.720732
O O11 0.191957 0.795597 0.820488
O O12 0.000000 0.799416 0.785951
O O13 0.134828 0.000000 0.757144
O O14 0.129835 0.500000 0.688503
O O15 0.000000 0.298867 0.655552
O O16 0.500000 0.710377 0.066657
O O17 0.365704 0.500000 0.073024
O O18 0.303965 0.752836 0.096944
O O19 0.342559 0.692592 0.000000
O O20 0.308810 0.000000 0.138191
O O21 0.500000 0.500000 0.307653
#
# Coordination Sequence:
#
# PCOD8195338 Si02
#       8
#     4   4   8   8   8   8   8   4
#     4  10  20  30  42  68 102 129 151 191 246 289
#     4  11  23  37  54  77 100 126 165 206 245 292
#     4  10  20  35  54  74  99 131 163 200 243 290
#     4   9  18  32  50  72 100 135 169 200 239 287
#     4   9  18  33  53  77 102 129 165 204 241 286
#     4   9  18  32  49  70  96 127 163 203 249 298
#     4  10  19  31  47  70 100 130 163 201 242 291
#     4  10  20  31  47  71  96 126 164 194 230 289
#
# _framework density 16.884823000000001
#
# number of rings (size 3 to 8) (size 9 to 14) (size 15 to 20)
#    0.000    2.385    1.538    1.615    0.000    3.077 
#    0.000    1.154    0.000    2.769    0.000    3.231 
#    0.000    0.000    0.000    0.000    0.000    0.000 
#
# Total GULP energy -644944.314355 kJ/mol
# GULP energy per Si atom -12402.775276 kJ/mol
# Density = 1.684639 g / cm^3
# Si number density = 16.884823 Si / 1000 Ang^3
#
#
#
# Elastic Constant Matrix: (Units=GPa)
#
#
# Indices 1 2 3 4 5 6 
#
# 1 87.7991 41.9845 57.2209 0.0000 0.0000 0.0000
# 2 41.9845 68.5345 69.6729 0.0000 0.0000 0.0000
# 3 57.2209 69.6729 127.9174 0.0000 0.0000 0.0000
# 4 0.0000 0.0000 0.0000 49.2925 0.0000 0.0000
# 5 0.0000 0.0000 0.0000 0.0000 35.4394 0.0000
# 6 0.0000 0.0000 0.0000 0.0000 0.0000 18.4501
#
#
#
# Elastic Compliance Matrix: (Units=1/GPa)
#
#
# Indices 1 2 3 4 5 6 
#
# 1 0.017130 -0.006059 -0.004363 0.000000 0.000000 0.000000
# 2 -0.006059 0.034838 -0.016265 0.000000 0.000000 0.000000
# 3 -0.004363 -0.016265 0.018628 0.000000 0.000000 0.000000
# 4 0.000000 0.000000 0.000000 0.020287 0.000000 0.000000
# 5 0.000000 0.000000 0.000000 0.000000 0.028217 0.000000
# 6 0.000000 0.000000 0.000000 0.000000 0.000000 0.054200
#
#
# Mechanical properties :
#
#
# Convention : Reuss Voigt Hill
#
# Bulk Modulus (GPa) = 58.06086 69.11196 63.58641
# Shear Modulus (GPa) = 21.51322 28.32791 24.92057
#
# Velocity S-wave (km/s) = 3.57335 4.10043 3.84593
# Velocity P-wave (km/s) = 7.17539 7.96482 7.58039
#
# Compressibility (1/GPa) = 0.01722331
#
# Stress axis : x y z
#
# Youngs Moduli (GPa) = 58.37642 28.70427 53.68212
#
# Poissons Ratio (x) = 0.17391 0.23420
# Poissons Ratio (y) = 0.35369 0.87314
# Poissons Ratio (z) = 0.25468 0.46687
#
# Static dielectric constant tensor:
#      x y z
#    x 3.243930 0.000000 0.000000 
#    y 0.000000 3.130250 0.000000 
#    z 0.000000 0.000000 3.054700 
# 
# 
# High freq. dielectric constant tensor:
#      x y z
#    x 1.646870 0.000000 0.000000 
#    y 0.000000 1.650670 0.000000 
#    z 0.000000 0.000000 1.645060 
# 
# From -- ./inp_files/33612.got.cif
#   From: 2010.03.12/outbox.cif.g09.slc.cpg/sg47_17_cif.got.tgz:33612.got - 2010.04.14 03:12:58.
