data_PCOD8195227
_publ_section_title
;
Structure prediction by ZEFSAII (Michael W. Deem and Ramdas Pophale) SiO2 
 PCOD8195227
Probable space group: P M M M
;
_chemical_formula_sum "Si O2"
_cell_formula_units_Z 64
_cell_length_a 9.058549
_cell_length_b 28.493882
_cell_length_c 13.848682
_cell_angle_alpha 90.000000
_cell_angle_beta 90.000000
_cell_angle_gamma 90.000000
_cell_volume 3574.527991
_symmetry_space_group_name_H-M "P M M M"
_symmetry_group_IT_number 47
_symmetry_cell_setting 'orthorhombic'
loop_
_space_group_symop_operation_xyz
x,y,z
-x,-y,z
x,-y,-z
-x,y,-z
-x,-y,-z
x,y,-z
-x,y,z
x,-y,z
loop_
_atom_site_type_symbol
_atom_site_label
_atom_site_fract_x
_atom_site_fract_y
_atom_site_fract_z
Si Si1 0.327608 0.814762 0.888115
Si Si2 0.174655 0.867436 0.724053
Si Si3 0.174932 0.727798 0.204931
Si Si4 0.826283 0.222421 0.393909
Si Si5 0.672052 0.448052 0.790857
Si Si6 0.670016 0.945596 0.389728
Si Si7 0.835115 0.444271 0.604746
Si Si8 0.328460 0.644354 0.890289
O O1 0.500000 0.811195 0.862619
O O2 0.252767 0.856191 0.825936
O O3 0.252435 0.764881 0.865659
O O4 0.302848 0.827001 0.000000
O O5 0.223617 0.828102 0.646530
O O6 0.227519 0.917257 0.683955
O O7 0.000000 0.867912 0.741023
O O8 0.220903 0.737891 0.316429
O O9 0.229036 0.675881 0.179396
O O10 0.000000 0.732299 0.190757
O O11 0.753493 0.231263 0.500000
O O12 0.000000 0.222768 0.405806
O O13 0.500000 0.453581 0.777508
O O14 0.739034 0.500000 0.815741
O O15 0.732244 0.426387 0.690737
O O16 0.710905 0.410588 0.873883
O O17 0.717009 0.934941 0.500000
O O18 0.500000 0.931489 0.373846
O O19 0.694342 0.000000 0.366154
O O20 0.777419 0.426085 0.500000
O O21 0.835874 0.500000 0.604227
O O22 0.000000 0.425034 0.622520
O O23 0.500000 0.653740 0.867413
O O24 0.290042 0.656816 0.000000
#
# Coordination Sequence:
#
# PCOD8195227 Si02
#       8
#     8   8   8   8   8   8   8   8
#     4  10  20  34  53  75 100 132 168 207 254 307
#     4  10  19  30  49  77 105 134 171 217 263 305
#     4  10  20  33  52  77 101 127 161 201 242 286
#     4   8  15  29  48  71 100 130 158 191 235 288
#     4   9  18  32  50  72  95 120 156 201 241 279
#     4   9  18  32  49  71 103 143 183 221 261 307
#     4   8  14  26  45  68  93 120 148 179 219 268
#     4  10  21  36  52  69  93 126 159 194 242 297
#
# _framework density 17.904463
#
# number of rings (size 3 to 8) (size 9 to 14) (size 15 to 20)
#    0.000    2.750    0.000    3.375    0.000    4.750 
#    0.000    3.750    0.000   10.125    0.000    5.250 
#    0.000    0.000    0.000    0.000    0.000    0.000 
#
# Total GULP energy -793310.698083 kJ/mol
# GULP energy per Si atom -12395.479658 kJ/mol
# Density = 1.786371 g / cm^3
# Si number density = 17.904463 Si / 1000 Ang^3
#
#
#
# Elastic Constant Matrix: (Units=GPa)
#
#
# Indices 1 2 3 4 5 6 
#
# 1 69.4659 43.6085 47.5073 0.0000 0.0000 0.0000
# 2 43.6085 88.2050 54.4949 0.0000 0.0000 0.0000
# 3 47.5073 54.4949 119.3761 0.0000 0.0000 0.0000
# 4 0.0000 0.0000 0.0000 27.2556 0.0000 0.0000
# 5 0.0000 0.0000 0.0000 0.0000 25.2343 0.0000
# 6 0.0000 0.0000 0.0000 0.0000 0.0000 24.9226
#
#
#
# Elastic Compliance Matrix: (Units=1/GPa)
#
#
# Indices 1 2 3 4 5 6 
#
# 1 0.023271 -0.008056 -0.005584 0.000000 0.000000 0.000000
# 2 -0.008056 0.018579 -0.005276 0.000000 0.000000 0.000000
# 3 -0.005584 -0.005276 0.013007 0.000000 0.000000 0.000000
# 4 0.000000 0.000000 0.000000 0.036690 0.000000 0.000000
# 5 0.000000 0.000000 0.000000 0.000000 0.039629 0.000000
# 6 0.000000 0.000000 0.000000 0.000000 0.000000 0.040124
#
#
# Mechanical properties :
#
#
# Convention : Reuss Voigt Hill
#
# Bulk Modulus (GPa) = 58.72658 63.14092 60.93375
# Shear Modulus (GPa) = 23.27680 24.24492 23.76086
#
# Velocity S-wave (km/s) = 3.60954 3.68384 3.64688
# Velocity P-wave (km/s) = 7.08822 7.31001 7.19997
#
# Compressibility (1/GPa) = 0.01702806
#
# Stress axis : x y z
#
# Youngs Moduli (GPa) = 42.97143 53.82357 76.87984
#
# Poissons Ratio (x) = 0.43358 0.42928
# Poissons Ratio (y) = 0.34616 0.40559
# Poissons Ratio (z) = 0.23994 0.28395
#
# Static dielectric constant tensor:
#      x y z
#    x 3.243980 0.000000 0.000000 
#    y 0.000000 3.170880 0.000000 
#    z 0.000000 0.000000 3.582550 
# 
# 
# High freq. dielectric constant tensor:
#      x y z
#    x 1.683020 0.000000 0.000000 
#    y 0.000000 1.673520 0.000000 
#    z 0.000000 0.000000 1.694170 
# 
# From -- ./inp_files/22184.got.cif
#   From: 2010.03.12/outbox.cif.g09.slc.cpg/sg47_12_cif.got.tgz:22184.got - 2010.04.14 03:12:58.
