data_PCOD8195700
_publ_section_title
;
Structure prediction by ZEFSAII (Michael W. Deem and Ramdas Pophale) SiO2 
 PCOD8195700
Probable space group: P M M M
;
_chemical_formula_sum "Si O2"
_cell_formula_units_Z 52
_cell_length_a 26.231176
_cell_length_b 8.745874
_cell_length_c 12.539858
_cell_angle_alpha 90.000000
_cell_angle_beta 90.000000
_cell_angle_gamma 90.000000
_cell_volume 2876.826008
_symmetry_space_group_name_H-M "P M M M"
_symmetry_group_IT_number 47
_symmetry_cell_setting 'orthorhombic'
loop_
_space_group_symop_operation_xyz
x,y,z
-x,-y,z
x,-y,-z
-x,y,-z
-x,-y,-z
x,y,-z
-x,y,z
x,-y,z
loop_
_atom_site_type_symbol
_atom_site_label
_atom_site_fract_x
_atom_site_fract_y
_atom_site_fract_z
Si Si1 0.395933 0.822140 0.625345
Si Si2 0.941059 0.820783 0.706520
Si Si3 0.232318 0.178036 0.876195
Si Si4 0.705613 0.320461 0.304823
Si Si5 0.118355 0.818543 0.500000
Si Si6 0.233910 0.818697 0.500000
Si Si7 0.500000 0.327796 0.626655
Si Si8 0.873649 0.677120 0.877431
O O1 0.389068 0.791121 0.500000
O O2 0.352872 0.730604 0.688454
O O3 0.450158 0.761172 0.667602
O O4 0.391604 0.000000 0.652220
O O5 0.910366 0.756991 0.604605
O O6 0.922113 0.731589 0.810481
O O7 0.000000 0.783225 0.688292
O O8 0.931791 0.000000 0.723743
O O9 0.273882 0.273201 0.810898
O O10 0.175830 0.228014 0.840756
O O11 0.238739 0.000000 0.850698
O O12 0.241354 0.215840 0.000000
O O13 0.709591 0.500000 0.321449
O O14 0.738611 0.238657 0.394712
O O15 0.176086 0.757211 0.500000
O O16 0.116454 0.000000 0.500000
O O17 0.235988 0.000000 0.500000
O O18 0.500000 0.500000 0.672158
O O19 0.500000 0.329421 0.500000
O O20 0.862061 0.500000 0.857222
O O21 0.886963 0.710309 0.000000
#
# Coordination Sequence:
#
# PCOD8195700 Si02
#       8
#     8   8   8   8   4   4   4   8
#     4  10  19  32  50  73 106 147 190 228 266 318
#     4  10  20  35  56  79 102 132 172 214 256 309
#     4  10  21  38  59  80 104 137 178 221 266 321
#     4  12  23  34  52  79 113 146 179 223 272 320
#     4   9  19  35  54  74  99 133 171 211 254 301
#     4  11  21  34  53  77 107 144 183 220 264 321
#     4   9  17  29  47  71 104 143 184 229 276 323
#     4  10  21  37  56  78 105 134 166 210 265 319
#
# _framework density 18.075475999999998
#
# number of rings (size 3 to 8) (size 9 to 14) (size 15 to 20)
#    0.000    1.769    0.769    4.385    0.000    6.154 
#    0.000    2.692    0.000    0.923    0.000    0.538 
#    0.000    4.308    0.000    0.000    0.000    0.000 
#
# Total GULP energy -645068.472058 kJ/mol
# GULP energy per Si atom -12405.162924 kJ/mol
# Density = 1.803434 g / cm^3
# Si number density = 18.075476 Si / 1000 Ang^3
#
#
#
# Elastic Constant Matrix: (Units=GPa)
#
#
# Indices 1 2 3 4 5 6 
#
# 1 139.6904 43.9020 53.7918 0.0000 0.0000 0.0000
# 2 43.9020 82.6792 32.2634 0.0000 0.0000 0.0000
# 3 53.7918 32.2634 75.1859 0.0000 0.0000 0.0000
# 4 0.0000 0.0000 0.0000 24.8849 0.0000 0.0000
# 5 0.0000 0.0000 0.0000 0.0000 11.9495 0.0000
# 6 0.0000 0.0000 0.0000 0.0000 0.0000 24.0963
#
#
#
# Elastic Compliance Matrix: (Units=1/GPa)
#
#
# Indices 1 2 3 4 5 6 
#
# 1 0.010536 -0.003187 -0.006171 0.000000 0.000000 0.000000
# 2 -0.003187 0.015491 -0.004368 0.000000 0.000000 0.000000
# 3 -0.006171 -0.004368 0.019589 0.000000 0.000000 0.000000
# 4 0.000000 0.000000 0.000000 0.040185 0.000000 0.000000
# 5 0.000000 0.000000 0.000000 0.000000 0.083686 0.000000
# 6 0.000000 0.000000 0.000000 0.000000 0.000000 0.041500
#
#
# Mechanical properties :
#
#
# Convention : Reuss Voigt Hill
#
# Bulk Modulus (GPa) = 55.04502 61.94110 58.49306
# Shear Modulus (GPa) = 20.45035 23.35935 21.90485
#
# Velocity S-wave (km/s) = 3.36726 3.59879 3.48495
# Velocity P-wave (km/s) = 6.75551 7.18407 6.97308
#
# Compressibility (1/GPa) = 0.01816695
#
# Stress axis : x y z
#
# Youngs Moduli (GPa) = 94.90820 64.55171 51.04776
#
# Poissons Ratio (x) = 0.20571 0.31501
# Poissons Ratio (y) = 0.30245 0.22296
# Poissons Ratio (z) = 0.58566 0.28194
#
# Static dielectric constant tensor:
#      x y z
#    x 3.451070 0.000000 0.000000 
#    y 0.000000 3.346620 0.000000 
#    z 0.000000 0.000000 3.252200 
# 
# 
# High freq. dielectric constant tensor:
#      x y z
#    x 1.705930 0.000000 0.000000 
#    y 0.000000 1.705470 0.000000 
#    z 0.000000 0.000000 1.679890 
# 
# From -- ./inp_files/19847.got.cif
#   From: 2010.03.12/outbox.cif.g09.slc.cpg/sg47_10_cif.got.tgz:19847.got - 2010.04.14 03:12:58.
