data_PCOD8195314
_publ_section_title
;
Structure prediction by ZEFSAII (Michael W. Deem and Ramdas Pophale) SiO2 
 PCOD8195314
Probable space group: P M M M
;
_chemical_formula_sum "Si O2"
_cell_formula_units_Z 52
_cell_length_a 19.062187
_cell_length_b 9.018796
_cell_length_c 18.842162
_cell_angle_alpha 90.000000
_cell_angle_beta 90.000000
_cell_angle_gamma 90.000000
_cell_volume 3239.306352
_symmetry_space_group_name_H-M "P M M M"
_symmetry_group_IT_number 47
_symmetry_cell_setting 'orthorhombic'
loop_
_space_group_symop_operation_xyz
x,y,z
-x,-y,z
x,-y,-z
-x,y,-z
-x,-y,-z
x,y,-z
-x,y,z
x,-y,z
loop_
_atom_site_type_symbol
_atom_site_label
_atom_site_fract_x
_atom_site_fract_y
_atom_site_fract_z
Si Si1 0.716208 0.173642 0.292176
Si Si2 0.920368 0.327627 0.081891
Si Si3 0.842911 0.823567 0.203748
Si Si4 0.187247 0.172537 0.579959
Si Si5 0.417323 0.664819 0.500000
Si Si6 0.918458 0.669634 0.670694
Si Si7 0.578792 0.175929 0.356713
O O1 0.764599 0.235267 0.227433
O O2 0.750050 0.218259 0.367552
O O3 0.634553 0.227596 0.295317
O O4 0.716206 0.000000 0.282717
O O5 0.912642 0.500000 0.099998
O O6 0.863073 0.237494 0.126652
O O7 0.000000 0.276288 0.099572
O O8 0.903465 0.296444 0.000000
O O9 0.898944 0.765230 0.260342
O O10 0.845961 0.000000 0.202284
O O11 0.210288 0.212023 0.500000
O O12 0.119046 0.267149 0.600698
O O13 0.168207 0.000000 0.588067
O O14 0.383582 0.500000 0.500000
O O15 0.500000 0.651196 0.500000
O O16 0.394459 0.753400 0.430009
O O17 0.896118 0.500000 0.684161
O O18 0.000000 0.684521 0.656298
O O19 0.500000 0.227966 0.335260
O O20 0.580977 0.000000 0.367436
#
# Coordination Sequence:
#
# PCOD8195314 Si02
#       7
#     8   8   8   8   4   8   8
#     4   8  16  29  44  62  85 111 140 178 220 258
#     4   9  18  32  49  70  97 125 147 171 208 250
#     4  10  19  31  47  66  89 117 146 177 213 252
#     4   9  18  31  45  59  77 106 140 178 226 270
#     4   9  17  27  37  55  85 111 132 171 226 269
#     4  10  20  32  45  60  80 108 141 180 223 260
#     4   9  16  27  45  64  80 107 147 181 213 263
#
# _framework density 16.052821000000002
#
# number of rings (size 3 to 8) (size 9 to 14) (size 15 to 20)
#    0.000    2.846    0.000    3.000    1.077    5.231 
#    0.000    6.154    0.000    0.000    0.000    0.000 
#    0.000    0.615    0.000    7.692    0.000    1.231 
#
# Total GULP energy -644353.108749 kJ/mol
# GULP energy per Si atom -12391.405937 kJ/mol
# Density = 1.601628 g / cm^3
# Si number density = 16.052821 Si / 1000 Ang^3
#
#
#
# Elastic Constant Matrix: (Units=GPa)
#
#
# Indices 1 2 3 4 5 6 
#
# 1 108.9659 34.4853 50.6453 0.0000 0.0000 0.0000
# 2 34.4853 48.3004 28.8214 0.0000 0.0000 0.0000
# 3 50.6453 28.8214 81.3673 0.0000 0.0000 0.0000
# 4 0.0000 0.0000 0.0000 22.7707 0.0000 0.0000
# 5 0.0000 0.0000 0.0000 0.0000 21.3236 0.0000
# 6 0.0000 0.0000 0.0000 0.0000 0.0000 9.2672
#
#
#
# Elastic Compliance Matrix: (Units=1/GPa)
#
#
# Indices 1 2 3 4 5 6 
#
# 1 0.014234 -0.006183 -0.006669 0.000000 0.000000 0.000000
# 2 -0.006183 0.028938 -0.006402 0.000000 0.000000 0.000000
# 3 -0.006669 -0.006402 0.018709 0.000000 0.000000 0.000000
# 4 0.000000 0.000000 0.000000 0.043916 0.000000 0.000000
# 5 0.000000 0.000000 0.000000 0.000000 0.046896 0.000000
# 6 0.000000 0.000000 0.000000 0.000000 0.000000 0.107907
#
#
# Mechanical properties :
#
#
# Convention : Reuss Voigt Hill
#
# Bulk Modulus (GPa) = 42.78549 51.83753 47.31151
# Shear Modulus (GPa) = 16.29197 18.98441 17.63819
#
# Velocity S-wave (km/s) = 3.18920 3.44266 3.31835
# Velocity P-wave (km/s) = 6.34603 6.94006 6.64968
#
# Compressibility (1/GPa) = 0.02337241
#
# Stress axis : x y z
#
# Youngs Moduli (GPa) = 70.25566 34.55637 53.45062
#
# Poissons Ratio (x) = 0.21365 0.35649
# Poissons Ratio (y) = 0.43438 0.34219
# Poissons Ratio (z) = 0.46857 0.22123
#
# Static dielectric constant tensor:
#      x y z
#    x 3.325460 0.000000 0.000000 
#    y 0.000000 3.053490 0.000000 
#    z 0.000000 0.000000 2.964160 
# 
# 
# High freq. dielectric constant tensor:
#      x y z
#    x 1.610890 0.000000 0.000000 
#    y 0.000000 1.609760 0.000000 
#    z 0.000000 0.000000 1.586620 
# 
# From -- ./inp_files/28740.got.cif
#   From: 2010.03.12/outbox.cif.g09.slc.cpg/sg47_15_cif.got.tgz:28740.got - 2010.04.14 03:12:58.
