data_PCOD8195213
_publ_section_title
;
Structure prediction by ZEFSAII (Michael W. Deem and Ramdas Pophale) SiO2 
 PCOD8195213
Probable space group: P M M M
;
_chemical_formula_sum "Si O2"
_cell_formula_units_Z 44
_cell_length_a 31.961872
_cell_length_b 7.898692
_cell_length_c 9.481074
_cell_angle_alpha 90.000000
_cell_angle_beta 90.000000
_cell_angle_gamma 90.000000
_cell_volume 2393.563335
_symmetry_space_group_name_H-M "P M M M"
_symmetry_group_IT_number 47
_symmetry_cell_setting 'orthorhombic'
loop_
_space_group_symop_operation_xyz
x,y,z
-x,-y,z
x,-y,-z
-x,y,-z
-x,-y,-z
x,y,-z
-x,y,z
x,-y,z
loop_
_atom_site_type_symbol
_atom_site_label
_atom_site_fract_x
_atom_site_fract_y
_atom_site_fract_z
Si Si1 0.000000 0.802368 0.157770
Si Si2 0.748394 0.804458 0.336646
Si Si3 0.825901 0.195595 0.843304
Si Si4 0.397951 0.500000 0.168552
Si Si5 0.913285 0.303372 0.158826
Si Si6 0.313128 0.500000 0.336420
Si Si7 0.453097 0.188058 0.832637
O O1 0.957206 0.743213 0.237051
O O2 0.000000 0.000000 0.150243
O O3 0.000000 0.720508 0.000000
O O4 0.760210 0.794770 0.500000
O O5 0.788852 0.733158 0.253638
O O6 0.711517 0.673378 0.300239
O O7 0.736065 0.000000 0.296349
O O8 0.871478 0.225550 0.770367
O O9 0.817530 0.000000 0.859033
O O10 0.824627 0.280975 0.000000
O O11 0.352792 0.500000 0.236519
O O12 0.422212 0.666968 0.224595
O O13 0.393632 0.500000 0.000000
O O14 0.906685 0.500000 0.159861
O O15 0.916216 0.228474 0.000000
O O16 0.326402 0.500000 0.500000
O O17 0.500000 0.222355 0.775091
O O18 0.437988 0.000000 0.783741
O O19 0.454060 0.196253 0.000000
#
# Coordination Sequence:
#
# PCOD8195213 Si02
#       7
#     4   8   8   4   8   4   8
#     4   9  15  23  35  51  80 121 154 177 208 262
#     4   9  19  36  54  69  89 121 160 198 236 286
#     4   9  17  29  46  69  93 115 145 189 238 280
#     4  10  19  30  48  76 102 128 165 207 242 281
#     4   9  16  24  36  58  87 117 146 179 221 271
#     4  10  22  37  51  69  96 129 163 196 241 295
#     4   8  14  26  46  73 104 135 166 202 242 281
#
# _framework density 18.382635000000001
#
# number of rings (size 3 to 8) (size 9 to 14) (size 15 to 20)
#    0.000    3.000    0.000    1.636    1.273    5.818 
#    0.000    0.000    0.000    1.091    0.000    1.909 
#    0.000    5.091    0.000    0.000    0.000    0.000 
#
# Total GULP energy -545124.353338 kJ/mol
# GULP energy per Si atom -12389.189849 kJ/mol
# Density = 1.834080 g / cm^3
# Si number density = 18.382635 Si / 1000 Ang^3
#
#
#
# Elastic Constant Matrix: (Units=GPa)
#
#
# Indices 1 2 3 4 5 6 
#
# 1 163.7216 72.7694 44.2704 0.0000 0.0000 0.0000
# 2 72.7694 102.8691 25.1369 0.0000 0.0000 0.0000
# 3 44.2704 25.1369 28.3095 0.0000 0.0000 0.0000
# 4 0.0000 0.0000 0.0000 11.2333 0.0000 0.0000
# 5 0.0000 0.0000 0.0000 0.0000 1.3126 0.0000
# 6 0.0000 0.0000 0.0000 0.0000 0.0000 29.4894
#
#
#
# Elastic Compliance Matrix: (Units=1/GPa)
#
#
# Indices 1 2 3 4 5 6 
#
# 1 0.012408 -0.005154 -0.014827 0.000000 0.000000 0.000000
# 2 -0.005154 0.014556 -0.004864 0.000000 0.000000 0.000000
# 3 -0.014827 -0.004864 0.062830 0.000000 0.000000 0.000000
# 4 0.000000 0.000000 0.000000 0.089021 0.000000 0.000000
# 5 0.000000 0.000000 0.000000 0.000000 0.761859 0.000000
# 6 0.000000 0.000000 0.000000 0.000000 0.000000 0.033911
#
#
# Mechanical properties :
#
#
# Convention : Reuss Voigt Hill
#
# Bulk Modulus (GPa) = 24.93633 64.36152 44.64893
# Shear Modulus (GPa) = 4.81861 18.58862 11.70362
#
# Velocity S-wave (km/s) = 1.62079 3.18340 2.52596
# Velocity P-wave (km/s) = 4.13488 6.97138 5.73138
#
# Compressibility (1/GPa) = 0.04010213
#
# Stress axis : x y z
#
# Youngs Moduli (GPa) = 80.59204 68.70064 15.91607
#
# Poissons Ratio (x) = 0.35411 0.23599
# Poissons Ratio (y) = 0.41540 0.07742
# Poissons Ratio (z) = 1.19495 0.33417
#
# Static dielectric constant tensor:
#      x y z
#    x 3.755170 0.000000 0.000000 
#    y 0.000000 3.566400 0.000000 
#    z 0.000000 0.000000 3.003340 
# 
# 
# High freq. dielectric constant tensor:
#      x y z
#    x 1.721370 0.000000 0.000000 
#    y 0.000000 1.724660 0.000000 
#    z 0.000000 0.000000 1.640580 
# 
# From -- ./inp_files/13765.got.cif
#   From: 2010.03.12/outbox.cif.g09.slc.cpg/sg47_7_cif.got.tgz:13765.got - 2010.04.14 03:12:58.
