data_PCOD8195105
_publ_section_title
;
Structure prediction by ZEFSAII (Michael W. Deem and Ramdas Pophale) SiO2 
 PCOD8195105
Probable space group: P M M M
;
_chemical_formula_sum "Si O2"
_cell_formula_units_Z 56
_cell_length_a 15.358409
_cell_length_b 20.379304
_cell_length_c 9.285354
_cell_angle_alpha 90.000000
_cell_angle_beta 90.000000
_cell_angle_gamma 90.000000
_cell_volume 2906.257174
_symmetry_space_group_name_H-M "P M M M"
_symmetry_group_IT_number 47
_symmetry_cell_setting 'orthorhombic'
loop_
_space_group_symop_operation_xyz
x,y,z
-x,-y,z
x,-y,-z
-x,y,-z
-x,-y,-z
x,y,-z
-x,y,z
x,-y,z
loop_
_atom_site_type_symbol
_atom_site_label
_atom_site_fract_x
_atom_site_fract_y
_atom_site_fract_z
Si Si1 0.595886 0.866831 0.834737
Si Si2 0.366917 0.261763 0.665169
Si Si3 0.829077 0.698909 0.333506
Si Si4 0.773872 0.928028 0.829604
Si Si5 0.901387 0.815346 0.165495
Si Si6 0.406593 0.385453 0.836874
Si Si7 0.219081 0.427230 0.167265
O O1 0.500000 0.900269 0.816076
O O2 0.597521 0.802354 0.740149
O O3 0.673437 0.914923 0.784590
O O4 0.611493 0.846367 0.000000
O O5 0.393703 0.258506 0.500000
O O6 0.263977 0.267628 0.686971
O O7 0.413949 0.323572 0.733584
O O8 0.855383 0.690896 0.500000
O O9 0.895519 0.747745 0.254646
O O10 0.831363 0.626634 0.261868
O O11 0.838402 0.871856 0.768126
O O12 0.799045 0.000000 0.767110
O O13 0.784212 0.929267 0.000000
O O14 0.000000 0.841428 0.176947
O O15 0.875871 0.800285 0.000000
O O16 0.500000 0.423737 0.821223
O O17 0.322791 0.429168 0.796389
O O18 0.395017 0.360016 0.000000
O O19 0.183148 0.500000 0.204598
O O20 0.203150 0.410682 0.000000
#
# Coordination Sequence:
#
# PCOD8195105 Si02
#       7
#     8   8   8   8   8   8   8
#     4  10  19  30  48  73 102 140 182 221 264 312
#     4  10  19  30  46  69  98 135 179 224 268 311
#     4  10  20  34  54  78 106 141 178 219 266 316
#     4   9  18  33  53  79 112 144 174 217 268 315
#     4  10  20  35  59  87 110 136 172 215 267 325
#     4   9  17  28  43  66  98 135 176 222 270 318
#     4   9  18  32  51  75 104 141 181 221 268 320
#
# _framework density 19.26877
#
# number of rings (size 3 to 8) (size 9 to 14) (size 15 to 20)
#    0.000    2.429    1.429    1.286    0.000    4.857 
#    0.000    4.286    0.000    2.143    0.000    9.000 
#    0.000    0.000    0.000    0.000    0.000    0.000 
#
# Total GULP energy -694073.250518 kJ/mol
# GULP energy per Si atom -12394.165188 kJ/mol
# Density = 1.922491 g / cm^3
# Si number density = 19.268770 Si / 1000 Ang^3
#
#
#
# Elastic Constant Matrix: (Units=GPa)
#
#
# Indices 1 2 3 4 5 6 
#
# 1 79.1445 42.8030 26.4476 0.0000 0.0000 0.0000
# 2 42.8030 128.6734 46.2779 0.0000 0.0000 0.0000
# 3 26.4476 46.2779 71.7359 0.0000 0.0000 0.0000
# 4 0.0000 0.0000 0.0000 -8.0920 0.0000 0.0000
# 5 0.0000 0.0000 0.0000 0.0000 15.9455 0.0000
# 6 0.0000 0.0000 0.0000 0.0000 0.0000 55.7916
#
#
#
# Elastic Compliance Matrix: (Units=1/GPa)
#
#
# Indices 1 2 3 4 5 6 
#
# 1 0.015952 -0.004155 -0.003200 0.000000 0.000000 0.000000
# 2 -0.004155 0.011202 -0.005695 0.000000 0.000000 0.000000
# 3 -0.003200 -0.005695 0.018794 0.000000 0.000000 0.000000
# 4 0.000000 0.000000 0.000000 -0.123579 0.000000 0.000000
# 5 0.000000 0.000000 0.000000 0.000000 0.062714 0.000000
# 6 0.000000 0.000000 0.000000 0.000000 0.000000 0.017924
#
#
# Mechanical properties :
#
#
# Convention : Reuss Voigt Hill
#
# Bulk Modulus (GPa) = 50.38609 56.73451 53.56030
# Shear Modulus (GPa) = 139.97026 23.66405 81.81716
#
# Velocity S-wave (km/s) = 8.53221 3.50823 6.52328
# Velocity P-wave (km/s) = 11.10274 6.77628 9.19752
#
# Compressibility (1/GPa) = 0.01984675
#
# Stress axis : x y z
#
# Youngs Moduli (GPa) = 62.68846 89.27022 53.20954
#
# Poissons Ratio (x) = 0.37094 0.17030
# Poissons Ratio (y) = 0.26049 0.30301
# Poissons Ratio (z) = 0.20063 0.50836
#
# Static dielectric constant tensor:
#      x y z
#    x 3.502340 0.000000 0.000000 
#    y 0.000000 3.524770 0.000000 
#    z 0.000000 0.000000 3.324780 
# 
# 
# High freq. dielectric constant tensor:
#      x y z
#    x 1.743370 0.000000 0.000000 
#    y 0.000000 1.736080 0.000000 
#    z 0.000000 0.000000 1.725030 
# 
# From -- ./inp_files/7215.got.cif
#   From: 2010.03.12/outbox.cif.g09.slc.cpg/sg47_4_cif.got.tgz:7215.got - 2010.04.14 03:12:58.
