data_PCOD8195567
_publ_section_title
;
Structure prediction by ZEFSAII (Michael W. Deem and Ramdas Pophale) SiO2 
 PCOD8195567
Probable space group: P M M M
;
_chemical_formula_sum "Si O2"
_cell_formula_units_Z 52
_cell_length_a 9.460688
_cell_length_b 14.368209
_cell_length_c 21.050629
_cell_angle_alpha 90.000000
_cell_angle_beta 90.000000
_cell_angle_gamma 90.000000
_cell_volume 2861.478151
_symmetry_space_group_name_H-M "P M M M"
_symmetry_group_IT_number 47
_symmetry_cell_setting 'orthorhombic'
loop_
_space_group_symop_operation_xyz
x,y,z
-x,-y,z
x,-y,-z
-x,y,-z
-x,-y,-z
x,y,-z
-x,y,z
x,-y,z
loop_
_atom_site_type_symbol
_atom_site_label
_atom_site_fract_x
_atom_site_fract_y
_atom_site_fract_z
Si Si1 0.167952 0.603829 0.813976
Si Si2 0.667738 0.893653 0.500000
Si Si3 0.337187 0.106671 0.259686
Si Si4 0.166129 0.391572 0.671495
Si Si5 0.834602 0.719379 0.930880
Si Si6 0.163013 0.896553 0.860797
Si Si7 0.666272 0.772469 0.380560
O O1 0.220371 0.500000 0.827621
O O2 0.217616 0.634050 0.743379
O O3 0.234754 0.664914 0.871262
O O4 0.000000 0.609936 0.814851
O O5 0.500000 0.901323 0.500000
O O6 0.720109 0.835132 0.439178
O O7 0.729295 0.000000 0.500000
O O8 0.500000 0.119132 0.241772
O O9 0.247478 0.140875 0.199817
O O10 0.293626 0.169123 0.318720
O O11 0.302328 0.000000 0.277075
O O12 0.199649 0.500000 0.656986
O O13 0.251734 0.326225 0.622422
O O14 0.000000 0.372669 0.663295
O O15 0.808217 0.829229 0.920251
O O16 0.000000 0.696412 0.932639
O O17 0.768697 0.692419 0.000000
O O18 0.000000 0.894262 0.840707
O O19 0.211973 0.000000 0.880739
O O20 0.500000 0.751563 0.386091
#
# Coordination Sequence:
#
# PCOD8195567 Si02
#       7
#     8   4   8   8   8   8   8
#     4   8  14  25  41  61  85 114 148 184 224 273
#     4   9  18  34  54  75 102 134 163 189 226 281
#     4   9  17  29  46  69  94 118 149 191 236 280
#     4   9  18  33  52  72  96 128 161 193 235 283
#     4   9  16  24  36  57  84 113 145 183 227 272
#     4   9  17  28  42  61  85 115 151 188 227 272
#     4  10  19  31  51  76  98 124 158 195 233 272
#
# _framework density 18.172426000000002
#
# number of rings (size 3 to 8) (size 9 to 14) (size 15 to 20)
#    0.000    3.000    0.000    2.308    0.000    4.615 
#    0.000    3.846    0.000    4.615    0.000    2.154 
#    0.000    0.000    0.000   13.231    0.000   10.769 
#
# Total GULP energy -644436.200198 kJ/mol
# GULP energy per Si atom -12393.003850 kJ/mol
# Density = 1.813106 g / cm^3
# Si number density = 18.172426 Si / 1000 Ang^3
#
#
#
# Elastic Constant Matrix: (Units=GPa)
#
#
# Indices 1 2 3 4 5 6 
#
# 1 25.2464 27.0727 23.5502 0.0000 0.0000 0.0000
# 2 27.0727 110.2694 66.4693 0.0000 0.0000 0.0000
# 3 23.5502 66.4693 99.5340 0.0000 0.0000 0.0000
# 4 0.0000 0.0000 0.0000 25.8037 0.0000 0.0000
# 5 0.0000 0.0000 0.0000 0.0000 17.9857 0.0000
# 6 0.0000 0.0000 0.0000 0.0000 0.0000 23.3913
#
#
#
# Elastic Compliance Matrix: (Units=1/GPa)
#
#
# Indices 1 2 3 4 5 6 
#
# 1 0.056432 -0.009719 -0.006862 0.000000 0.000000 0.000000
# 2 -0.009719 0.016853 -0.008955 0.000000 0.000000 0.000000
# 3 -0.006862 -0.008955 0.017650 0.000000 0.000000 0.000000
# 4 0.000000 0.000000 0.000000 0.038754 0.000000 0.000000
# 5 0.000000 0.000000 0.000000 0.000000 0.055600 0.000000
# 6 0.000000 0.000000 0.000000 0.000000 0.000000 0.042751
#
#
# Mechanical properties :
#
#
# Convention : Reuss Voigt Hill
#
# Bulk Modulus (GPa) = 25.08497 52.13712 38.61104
# Shear Modulus (GPa) = 17.09995 21.30000 19.19998
#
# Velocity S-wave (km/s) = 3.07087 3.42732 3.25398
# Velocity P-wave (km/s) = 5.13882 6.66442 5.95072
#
# Compressibility (1/GPa) = 0.03986451
#
# Stress axis : x y z
#
# Youngs Moduli (GPa) = 17.72042 59.33798 56.65570
#
# Poissons Ratio (x) = 0.57668 0.38877
# Poissons Ratio (y) = 0.17222 0.50734
# Poissons Ratio (z) = 0.12160 0.53136
#
# Static dielectric constant tensor:
#      x y z
#    x 2.882140 0.000000 0.000000 
#    y 0.000000 3.530190 0.000000 
#    z 0.000000 0.000000 3.496610 
# 
# 
# High freq. dielectric constant tensor:
#      x y z
#    x 1.649930 0.000000 0.000000 
#    y 0.000000 1.715370 0.000000 
#    z 0.000000 0.000000 1.698540 
# 
# From -- ./inp_files/21487.got.cif
#   From: 2010.03.12/outbox.cif.g09.slc.cpg/sg47_11_cif.got.tgz:21487.got - 2010.04.14 03:12:58.
