data_PCOD8195364
_publ_section_title
;
Structure prediction by ZEFSAII (Michael W. Deem and Ramdas Pophale) SiO2 
 PCOD8195364
Probable space group: P M M M
;
_chemical_formula_sum "Si O2"
_cell_formula_units_Z 44
_cell_length_a 8.856172
_cell_length_b 21.484527
_cell_length_c 13.770815
_cell_angle_alpha 90.000000
_cell_angle_beta 90.000000
_cell_angle_gamma 90.000000
_cell_volume 2620.182148
_symmetry_space_group_name_H-M "P M M M"
_symmetry_group_IT_number 47
_symmetry_cell_setting 'orthorhombic'
loop_
_space_group_symop_operation_xyz
x,y,z
-x,-y,z
x,-y,-z
-x,y,-z
-x,-y,-z
x,y,-z
-x,y,z
x,-y,z
loop_
_atom_site_type_symbol
_atom_site_label
_atom_site_fract_x
_atom_site_fract_y
_atom_site_fract_z
Si Si1 0.824613 0.761812 0.390639
Si Si2 0.179604 0.568069 0.889819
Si Si3 0.823002 0.689555 0.207977
Si Si4 0.179091 0.814898 0.109883
Si Si5 0.678403 0.875053 0.712203
Si Si6 0.679453 0.000000 0.390287
O O1 0.786161 0.741342 0.500000
O O2 0.784126 0.703664 0.320600
O O3 0.726940 0.821308 0.362082
O O4 0.000000 0.779920 0.377791
O O5 0.239104 0.500000 0.854585
O O6 0.250248 0.623501 0.823750
O O7 0.000000 0.568203 0.883890
O O8 0.231769 0.580126 0.000000
O O9 0.762129 0.746453 0.141821
O O10 0.000000 0.684333 0.190559
O O11 0.250306 0.866338 0.181012
O O12 0.000000 0.818684 0.119935
O O13 0.232147 0.828240 0.000000
O O14 0.500000 0.874581 0.722984
O O15 0.738102 0.939682 0.667609
O O16 0.500000 0.000000 0.395454
O O17 0.745448 0.000000 0.500000
#
# Coordination Sequence:
#
# PCOD8195364 Si02
#       6
#     8   8   8   8   8   4
#     4   9  17  29  44  62  85 112 142 176 215 258
#     4   8  12  17  28  50  79 108 138 172 208 247
#     4   8  13  22  37  56  79 110 144 173 205 248
#     4   9  17  30  47  65  88 118 147 174 208 252
#     4  10  19  31  48  68  88 110 139 176 215 254
#     4   9  18  32  48  65  86 112 139 169 212 263
#
# _framework density 16.792726999999999
#
# number of rings (size 3 to 8) (size 9 to 14) (size 15 to 20)
#    0.000    3.182    0.000    3.273    0.000    3.636 
#    0.000    2.273    0.000    6.545    0.000    3.818 
#    0.000   11.636    0.000   46.545    0.000   43.636 
#
# Total GULP energy -545294.937026 kJ/mol
# GULP energy per Si atom -12393.066751 kJ/mol
# Density = 1.675451 g / cm^3
# Si number density = 16.792727 Si / 1000 Ang^3
#
#
#
# Elastic Constant Matrix: (Units=GPa)
#
#
# Indices 1 2 3 4 5 6 
#
# 1 20.7816 17.3110 22.9074 0.0000 0.0000 0.0000
# 2 17.3110 146.7428 86.3443 0.0000 0.0000 0.0000
# 3 22.9074 86.3443 162.0422 0.0000 0.0000 0.0000
# 4 0.0000 0.0000 0.0000 26.9264 0.0000 0.0000
# 5 0.0000 0.0000 0.0000 0.0000 17.7404 0.0000
# 6 0.0000 0.0000 0.0000 0.0000 0.0000 0.9753
#
#
#
# Elastic Compliance Matrix: (Units=1/GPa)
#
#
# Indices 1 2 3 4 5 6 
#
# 1 0.057855 -0.002932 -0.006617 0.000000 0.000000 0.000000
# 2 -0.002932 0.010076 -0.004954 0.000000 0.000000 0.000000
# 3 -0.006617 -0.004954 0.009747 0.000000 0.000000 0.000000
# 4 0.000000 0.000000 0.000000 0.037138 0.000000 0.000000
# 5 0.000000 0.000000 0.000000 0.000000 0.056369 0.000000
# 6 0.000000 0.000000 0.000000 0.000000 0.000000 1.025327
#
#
# Mechanical properties :
#
#
# Convention : Reuss Voigt Hill
#
# Bulk Modulus (GPa) = 20.54579 64.74354 42.64466
# Shear Modulus (GPa) = 4.02661 22.66202 13.34431
#
# Velocity S-wave (km/s) = 1.55017 3.67756 2.82201
# Velocity P-wave (km/s) = 3.93262 7.52800 6.00568
#
# Compressibility (1/GPa) = 0.04867178
#
# Stress axis : x y z
#
# Youngs Moduli (GPa) = 17.28457 99.24875 102.60060
#
# Poissons Ratio (x) = 0.29098 0.67886
# Poissons Ratio (y) = 0.05068 0.50832
# Poissons Ratio (z) = 0.11436 0.49172
#
# Static dielectric constant tensor:
#      x y z
#    x 2.712410 0.000000 0.000000 
#    y 0.000000 3.435330 0.000000 
#    z 0.000000 0.000000 3.314230 
# 
# 
# High freq. dielectric constant tensor:
#      x y z
#    x 1.602080 0.000000 0.000000 
#    y 0.000000 1.640900 0.000000 
#    z 0.000000 0.000000 1.649000 
# 
# From -- ./inp_files/21300.got.cif
#   From: 2010.03.12/outbox.cif.g09.slc.cpg/sg47_11_cif.got.tgz:21300.got - 2010.04.14 03:12:58.
