data_PCOD8195587
_publ_section_title
;
Structure prediction by ZEFSAII (Michael W. Deem and Ramdas Pophale) SiO2 
 PCOD8195587
Probable space group: P M M M
;
_chemical_formula_sum "Si O2"
_cell_formula_units_Z 40
_cell_length_a 21.771976
_cell_length_b 11.642910
_cell_length_c 9.951510
_cell_angle_alpha 90.000000
_cell_angle_beta 90.000000
_cell_angle_gamma 90.000000
_cell_volume 2522.599882
_symmetry_space_group_name_H-M "P M M M"
_symmetry_group_IT_number 47
_symmetry_cell_setting 'orthorhombic'
loop_
_space_group_symop_operation_xyz
x,y,z
-x,-y,z
x,-y,-z
-x,y,-z
-x,-y,-z
x,y,-z
-x,y,z
x,-y,z
loop_
_atom_site_type_symbol
_atom_site_label
_atom_site_fract_x
_atom_site_fract_y
_atom_site_fract_z
Si Si1 0.278514 0.135514 0.159310
Si Si2 0.378953 0.257717 0.340407
Si Si3 0.568981 0.500000 0.342352
Si Si4 0.143922 0.136282 0.245228
Si Si5 0.929390 0.862854 0.500000
Si Si6 0.500000 0.125935 0.658462
Si Si7 0.932067 0.137397 0.000000
O O1 0.326018 0.208505 0.246234
O O2 0.213728 0.175454 0.222441
O O3 0.289825 0.000000 0.181479
O O4 0.281803 0.164569 0.000000
O O5 0.364046 0.241509 0.500000
O O6 0.390667 0.389954 0.301315
O O7 0.439852 0.191856 0.294677
O O8 0.500000 0.500000 0.276859
O O9 0.558139 0.500000 0.500000
O O10 0.110889 0.185215 0.377089
O O11 0.103018 0.187369 0.127009
O O12 0.141957 0.000000 0.245215
O O13 0.000000 0.816088 0.500000
O O14 0.932258 0.000000 0.500000
O O15 0.500000 0.116307 0.500000
O O16 0.500000 0.000000 0.725190
O O17 0.000000 0.188252 0.000000
O O18 0.932775 0.000000 0.000000
#
# Coordination Sequence:
#
# PCOD8195587 Si02
#       7
#     8   8   4   8   4   4   4
#     4  10  20  33  45  63  96 134 167 197 237 285
#     4  10  19  31  52  74  93 122 156 198 240 285
#     4   9  16  32  55  77  97 117 150 197 248 293
#     4   9  16  26  38  55  84 122 159 194 230 273
#     4   9  16  24  36  58  86 116 155 202 240 268
#     4   9  16  27  44  72  99 117 150 191 226 270
#     4   9  14  22  38  56  76 114 165 198 218 258
#
# _framework density 15.856655999999999
#
# number of rings (size 3 to 8) (size 9 to 14) (size 15 to 20)
#    0.000    2.600    2.000    1.200    1.400    3.600 
#    0.000    1.000    0.000    2.400    0.000    0.000 
#    0.000    0.000    0.000    5.400    0.000    2.500 
#
# Total GULP energy -495629.617172 kJ/mol
# GULP energy per Si atom -12390.740429 kJ/mol
# Density = 1.582057 g / cm^3
# Si number density = 15.856656 Si / 1000 Ang^3
#
#
#
# Elastic Constant Matrix: (Units=GPa)
#
#
# Indices 1 2 3 4 5 6 
#
# 1 167.1774 51.4915 81.3880 0.0000 0.0000 0.0000
# 2 51.4915 72.4748 32.3710 0.0000 0.0000 0.0000
# 3 81.3880 32.3710 115.3833 0.0000 0.0000 0.0000
# 4 0.0000 0.0000 0.0000 10.5944 0.0000 0.0000
# 5 0.0000 0.0000 0.0000 0.0000 32.0505 0.0000
# 6 0.0000 0.0000 0.0000 0.0000 0.0000 -1.8973
#
#
#
# Elastic Compliance Matrix: (Units=1/GPa)
#
#
# Indices 1 2 3 4 5 6 
#
# 1 0.010329 -0.004669 -0.005976 0.000000 0.000000 0.000000
# 2 -0.004669 0.017886 -0.001724 0.000000 0.000000 0.000000
# 3 -0.005976 -0.001724 0.013366 0.000000 0.000000 0.000000
# 4 0.000000 0.000000 0.000000 0.094389 0.000000 0.000000
# 5 0.000000 0.000000 0.000000 0.000000 0.031201 0.000000
# 6 0.000000 0.000000 0.000000 0.000000 0.000000 -0.527066
#
#
# Mechanical properties :
#
#
# Convention : Reuss Voigt Hill
#
# Bulk Modulus (GPa) = 59.37727 76.17074 67.77401
# Shear Modulus (GPa) = -15.17250 20.80187 2.81468
#
# Velocity S-wave (km/s) = -3.09666 3.62590 1.33377
# Velocity P-wave (km/s) = 4.97412 8.10376 6.72357
#
# Compressibility (1/GPa) = 0.01684146
#
# Stress axis : x y z
#
# Youngs Moduli (GPa) = 96.81336 55.91114 74.81858
#
# Poissons Ratio (x) = 0.26108 0.44710
# Poissons Ratio (y) = 0.45207 0.12900
# Poissons Ratio (z) = 0.57854 0.09640
#
# Static dielectric constant tensor:
#      x y z
#    x 3.222140 0.000000 0.000000 
#    y 0.000000 2.797240 0.000000 
#    z 0.000000 0.000000 2.996650 
# 
# 
# High freq. dielectric constant tensor:
#      x y z
#    x 1.624980 0.000000 0.000000 
#    y 0.000000 1.551280 0.000000 
#    z 0.000000 0.000000 1.601350 
# 
# From -- ./inp_files/10763.got.cif
#   From: 2010.03.12/outbox.cif.g09.slc.cpg/sg47_6_cif.got.tgz:10763.got - 2010.04.14 03:12:58.
