data_PCOD8195745
_publ_section_title
;
Structure prediction by ZEFSAII (Michael W. Deem and Ramdas Pophale) SiO2 
 PCOD8195745
Probable space group: P M M M
;
_chemical_formula_sum "Si O2"
_cell_formula_units_Z 52
_cell_length_a 9.254642
_cell_length_b 12.323352
_cell_length_c 25.363981
_cell_angle_alpha 90.000000
_cell_angle_beta 90.000000
_cell_angle_gamma 90.000000
_cell_volume 2892.716657
_symmetry_space_group_name_H-M "P M M M"
_symmetry_group_IT_number 47
_symmetry_cell_setting 'orthorhombic'
loop_
_space_group_symop_operation_xyz
x,y,z
-x,-y,z
x,-y,-z
-x,y,-z
-x,-y,-z
x,y,-z
-x,y,z
x,-y,z
loop_
_atom_site_type_symbol
_atom_site_label
_atom_site_fract_x
_atom_site_fract_y
_atom_site_fract_z
Si Si1 0.336740 0.119581 0.110091
Si Si2 0.329228 0.500000 0.261146
Si Si3 0.672091 0.500000 0.141593
Si Si4 0.331355 0.332916 0.057119
Si Si5 0.166754 0.877142 0.215069
Si Si6 0.329688 0.266427 0.702768
Si Si7 0.838053 0.871588 0.500000
Si Si8 0.330755 0.874548 0.603075
O O1 0.500000 0.137844 0.132248
O O2 0.301230 0.205436 0.064582
O O3 0.222130 0.135085 0.156087
O O4 0.322052 0.000000 0.085029
O O5 0.500000 0.500000 0.255969
O O6 0.263373 0.500000 0.201237
O O7 0.280087 0.607128 0.293915
O O8 0.500000 0.500000 0.146482
O O9 0.731189 0.602644 0.107715
O O10 0.500000 0.359034 0.054614
O O11 0.263611 0.366713 0.000000
O O12 0.256725 0.795316 0.249751
O O13 0.000000 0.844168 0.217101
O O14 0.190456 0.000000 0.235540
O O15 0.500000 0.255514 0.710030
O O16 0.281027 0.208101 0.648794
O O17 0.753830 0.832401 0.448177
O O18 0.000000 0.822783 0.500000
O O19 0.843358 0.000000 0.500000
O O20 0.500000 0.864865 0.591260
O O21 0.291600 0.000000 0.617639
#
# Coordination Sequence:
#
# PCOD8195745 Si02
#       8
#     8   4   4   8   8   8   4   8
#     4   9  17  29  45  64  88 119 151 185 231 288
#     4   9  18  31  49  73  99 128 163 202 241 288
#     4   9  15  24  39  61  91 121 146 182 237 288
#     4   9  16  25  40  64  90 114 145 188 235 282
#     4  10  20  32  47  69  97 127 159 198 243 292
#     4  10  19  32  51  74 100 130 165 204 246 290
#     4   9  17  29  47  72 101 132 164 199 240 283
#     4   9  17  29  47  72 101 131 162 198 240 285
#
# _framework density 17.976182999999999
#
# number of rings (size 3 to 8) (size 9 to 14) (size 15 to 20)
#    0.000    2.692    0.000    2.308    0.000    6.769 
#    0.000    3.462    0.000    0.923    0.000    5.385 
#    0.000    2.462    0.000    0.000    0.000    0.000 
#
# Total GULP energy -644422.605899 kJ/mol
# GULP energy per Si atom -12392.742421 kJ/mol
# Density = 1.793527 g / cm^3
# Si number density = 17.976183 Si / 1000 Ang^3
#
#
#
# Elastic Constant Matrix: (Units=GPa)
#
#
# Indices 1 2 3 4 5 6 
#
# 1 16.8457 18.7569 16.4501 0.0000 0.0000 0.0000
# 2 18.7569 118.4423 64.9845 0.0000 0.0000 0.0000
# 3 16.4501 64.9845 110.0675 0.0000 0.0000 0.0000
# 4 0.0000 0.0000 0.0000 17.3945 0.0000 0.0000
# 5 0.0000 0.0000 0.0000 0.0000 2.0175 0.0000
# 6 0.0000 0.0000 0.0000 0.0000 0.0000 9.3691
#
#
#
# Elastic Compliance Matrix: (Units=1/GPa)
#
#
# Indices 1 2 3 4 5 6 
#
# 1 0.074819 -0.008451 -0.006193 0.000000 0.000000 0.000000
# 2 -0.008451 0.013443 -0.006674 0.000000 0.000000 0.000000
# 3 -0.006193 -0.006674 0.013951 0.000000 0.000000 0.000000
# 4 0.000000 0.000000 0.000000 0.057489 0.000000 0.000000
# 5 0.000000 0.000000 0.000000 0.000000 0.495663 0.000000
# 6 0.000000 0.000000 0.000000 0.000000 0.000000 0.106734
#
#
# Mechanical properties :
#
#
# Convention : Reuss Voigt Hill
#
# Bulk Modulus (GPa) = 16.78457 49.52650 33.15554
# Shear Modulus (GPa) = 6.06360 15.43384 10.74872
#
# Velocity S-wave (km/s) = 1.83860 2.93332 2.44794
# Velocity P-wave (km/s) = 3.72353 6.25168 5.14529
#
# Compressibility (1/GPa) = 0.05957852
#
# Stress axis : x y z
#
# Youngs Moduli (GPa) = 13.36558 74.38904 71.67937
#
# Poissons Ratio (x) = 0.62866 0.44387
# Poissons Ratio (y) = 0.11295 0.47837
# Poissons Ratio (z) = 0.08277 0.49645
#
# Static dielectric constant tensor:
#      x y z
#    x 3.032010 0.000000 0.000000 
#    y 0.000000 3.582800 0.000000 
#    z 0.000000 0.000000 3.379800 
# 
# 
# High freq. dielectric constant tensor:
#      x y z
#    x 1.655080 0.000000 0.000000 
#    y 0.000000 1.693750 0.000000 
#    z 0.000000 0.000000 1.690220 
# 
# From -- ./inp_files/33294.got.cif
#   From: 2010.03.12/outbox.cif.g09.slc.cpg/sg47_17_cif.got.tgz:33294.got - 2010.04.14 03:12:58.
