data_PCOD8195167
_publ_section_title
;
Structure prediction by ZEFSAII (Michael W. Deem and Ramdas Pophale) SiO2 
 PCOD8195167
Probable space group: P M M M
;
_chemical_formula_sum "Si O2"
_cell_formula_units_Z 44
_cell_length_a 7.929813
_cell_length_b 7.740673
_cell_length_c 33.723071
_cell_angle_alpha 90.000000
_cell_angle_beta 90.000000
_cell_angle_gamma 90.000000
_cell_volume 2069.992558
_symmetry_space_group_name_H-M "P M M M"
_symmetry_group_IT_number 47
_symmetry_cell_setting 'orthorhombic'
loop_
_space_group_symop_operation_xyz
x,y,z
-x,-y,z
x,-y,-z
-x,y,-z
-x,-y,-z
x,y,-z
-x,y,z
x,-y,z
loop_
_atom_site_type_symbol
_atom_site_label
_atom_site_fract_x
_atom_site_fract_y
_atom_site_fract_z
Si Si1 0.500000 0.795126 0.683802
Si Si2 0.500000 0.299068 0.592963
Si Si3 0.813777 0.294654 0.455182
Si Si4 0.201731 0.500000 0.044877
Si Si5 0.185745 0.794427 0.265859
Si Si6 0.195972 0.191722 0.097769
Si Si7 0.311470 0.204947 0.182696
O O1 0.500000 0.730290 0.639367
O O2 0.667951 0.721370 0.705347
O O3 0.500000 0.000000 0.685310
O O4 0.500000 0.500000 0.582974
O O5 0.330861 0.216301 0.573569
O O6 0.774776 0.234082 0.500000
O O7 0.814090 0.500000 0.453033
O O8 0.000000 0.226446 0.442139
O O9 0.273929 0.328451 0.066630
O O10 0.000000 0.500000 0.046748
O O11 0.268704 0.500000 0.000000
O O12 0.213488 0.723293 0.221182
O O13 0.000000 0.732079 0.280343
O O14 0.194928 0.000000 0.265746
O O15 0.223256 0.265198 0.142118
O O16 0.000000 0.174394 0.089540
O O17 0.279440 0.000000 0.092390
O O18 0.500000 0.279495 0.183629
O O19 0.312705 0.000000 0.184569
#
# Coordination Sequence:
#
# PCOD8195167 Si02
#       7
#     4   4   8   4   8   8   8
#     4  10  20  33  47  69 100 134 170 205 242 299
#     4  10  19  30  48  70  96 128 160 200 249 299
#     4   8  14  26  46  72  96 119 158 210 256 297
#     4   9  18  32  49  71 103 137 169 211 257 308
#     4   9  16  28  48  71  95 127 168 210 251 296
#     4   9  17  29  48  74  99 126 166 211 258 313
#     4   9  15  26  47  73  97 119 152 204 256 297
#
# _framework density 21.256115999999999
#
# number of rings (size 3 to 8) (size 9 to 14) (size 15 to 20)
#    0.000    3.000    0.909    1.364    0.000    4.364 
#    0.000    2.273    2.000    2.182    0.000    3.818 
#    0.000    0.000    0.000    0.000    0.000    0.000 
#
# Total GULP energy -545251.931659 kJ/mol
# GULP energy per Si atom -12392.089356 kJ/mol
# Density = 2.120774 g / cm^3
# Si number density = 21.256116 Si / 1000 Ang^3
#
#
#
# Elastic Constant Matrix: (Units=GPa)
#
#
# Indices 1 2 3 4 5 6 
#
# 1 136.2217 23.0743 75.7245 0.0000 0.0000 0.0000
# 2 23.0743 40.5316 31.0141 0.0000 0.0000 0.0000
# 3 75.7245 31.0141 172.8364 0.0000 0.0000 0.0000
# 4 0.0000 0.0000 0.0000 22.8023 0.0000 0.0000
# 5 0.0000 0.0000 0.0000 0.0000 25.5443 0.0000
# 6 0.0000 0.0000 0.0000 0.0000 0.0000 2.0028
#
#
#
# Elastic Compliance Matrix: (Units=1/GPa)
#
#
# Indices 1 2 3 4 5 6 
#
# 1 0.009953 -0.002700 -0.003876 0.000000 0.000000 0.000000
# 2 -0.002700 0.029331 -0.004080 0.000000 0.000000 0.000000
# 3 -0.003876 -0.004080 0.008216 0.000000 0.000000 0.000000
# 4 0.000000 0.000000 0.000000 0.043855 0.000000 0.000000
# 5 0.000000 0.000000 0.000000 0.000000 0.039148 0.000000
# 6 0.000000 0.000000 0.000000 0.000000 0.000000 0.499313
#
#
# Mechanical properties :
#
#
# Convention : Reuss Voigt Hill
#
# Bulk Modulus (GPa) = 38.18619 67.69062 52.93840
# Shear Modulus (GPa) = 7.57738 24.72166 16.14952
#
# Velocity S-wave (km/s) = 1.89012 3.41403 2.75936
# Velocity P-wave (km/s) = 4.77150 6.88877 5.92547
#
# Compressibility (1/GPa) = 0.02618748
#
# Stress axis : x y z
#
# Youngs Moduli (GPa) = 100.47110 34.09310 121.70989
#
# Poissons Ratio (x) = 0.09206 0.47177
# Poissons Ratio (y) = 0.27129 0.49661
# Poissons Ratio (z) = 0.38945 0.13911
#
# Static dielectric constant tensor:
#      x y z
#    x 4.081380 0.000000 0.000000 
#    y 0.000000 3.495060 0.000000 
#    z 0.000000 0.000000 3.962080 
# 
# 
# High freq. dielectric constant tensor:
#      x y z
#    x 1.831320 0.000000 0.000000 
#    y 0.000000 1.790290 0.000000 
#    z 0.000000 0.000000 1.824940 
# 
# From -- ./inp_files/33961.got.cif
#   From: 2010.03.12/outbox.cif.g09.slc.cpg/sg47_17_cif.got.tgz:33961.got - 2010.04.14 03:12:58.
