data_PCOD8195952
_publ_section_title
;
Structure prediction by ZEFSAII (Michael W. Deem and Ramdas Pophale) SiO2 
 PCOD8195952
Probable space group: P M M M
;
_chemical_formula_sum "Si O2"
_cell_formula_units_Z 52
_cell_length_a 11.538417
_cell_length_b 28.127592
_cell_length_c 8.846977
_cell_angle_alpha 90.000000
_cell_angle_beta 90.000000
_cell_angle_gamma 90.000000
_cell_volume 2871.267680
_symmetry_space_group_name_H-M "P M M M"
_symmetry_group_IT_number 47
_symmetry_cell_setting 'orthorhombic'
loop_
_space_group_symop_operation_xyz
x,y,z
-x,-y,z
x,-y,-z
-x,y,-z
-x,-y,-z
x,y,-z
-x,y,z
x,-y,z
loop_
_atom_site_type_symbol
_atom_site_label
_atom_site_fract_x
_atom_site_fract_y
_atom_site_fract_z
Si Si1 0.131157 0.855541 0.175012
Si Si2 0.636770 0.500000 0.170781
Si Si3 0.000000 0.600794 0.178714
Si Si4 0.368171 0.672275 0.825815
Si Si5 0.000000 0.701169 0.325209
Si Si6 0.760620 0.586487 0.679351
Si Si7 0.137512 0.948651 0.328157
Si Si8 0.798808 0.246148 0.827249
O O1 0.190585 0.902580 0.245692
O O2 0.212053 0.809854 0.211892
O O3 0.000000 0.846050 0.236590
O O4 0.125173 0.865867 0.000000
O O5 0.500000 0.500000 0.165553
O O6 0.674873 0.453413 0.260135
O O7 0.687129 0.500000 0.000000
O O8 0.113262 0.576539 0.250409
O O9 0.000000 0.656248 0.215618
O O10 0.000000 0.592858 0.000000
O O11 0.500000 0.670282 0.767098
O O12 0.287431 0.637958 0.727289
O O13 0.323471 0.726600 0.808574
O O14 0.360404 0.655625 0.000000
O O15 0.887419 0.731860 0.291301
O O16 0.000000 0.684817 0.500000
O O17 0.769181 0.584201 0.500000
O O18 0.177829 0.945832 0.500000
O O19 0.000000 0.946054 0.313130
O O20 0.179468 0.000000 0.260625
O O21 0.845181 0.251795 0.000000
#
# Coordination Sequence:
#
# PCOD8195952 Si02
#       8
#     8   4   4   8   4   8   8   8
#     4   9  16  25  39  62  89 124 167 206 252 305
#     4  11  25  46  69  90 115 153 195 225 262 321
#     4  12  24  41  63  86 116 151 182 218 265 322
#     4  10  21  37  58  81 106 145 188 217 256 319
#     4  12  22  32  51  81 109 137 176 218 260 313
#     4  12  25  41  63  92 119 144 179 226 275 317
#     4   8  14  24  36  52  80 120 160 200 250 304
#     4  10  19  33  51  71 104 142 174 215 261 310
#
# _framework density 18.110465999999999
#
# number of rings (size 3 to 8) (size 9 to 14) (size 15 to 20)
#    0.000    1.769    2.308    3.923    0.000    4.000 
#    0.000    3.077    0.000    0.000    0.000    0.000 
#    0.000    0.615    0.000    7.692    0.000    1.538 
#
# Total GULP energy -644645.161168 kJ/mol
# GULP energy per Si atom -12397.022330 kJ/mol
# Density = 1.806925 g / cm^3
# Si number density = 18.110466 Si / 1000 Ang^3
#
#
#
# Elastic Constant Matrix: (Units=GPa)
#
#
# Indices 1 2 3 4 5 6 
#
# 1 76.9627 25.8738 33.2904 0.0000 0.0000 0.0000
# 2 25.8738 127.7074 40.1735 0.0000 0.0000 0.0000
# 3 33.2904 40.1735 96.8683 0.0000 0.0000 0.0000
# 4 0.0000 0.0000 0.0000 17.7495 0.0000 0.0000
# 5 0.0000 0.0000 0.0000 0.0000 13.0633 0.0000
# 6 0.0000 0.0000 0.0000 0.0000 0.0000 6.0637
#
#
#
# Elastic Compliance Matrix: (Units=1/GPa)
#
#
# Indices 1 2 3 4 5 6 
#
# 1 0.015574 -0.001692 -0.004650 0.000000 0.000000 0.000000
# 2 -0.001692 0.009189 -0.003229 0.000000 0.000000 0.000000
# 3 -0.004650 -0.003229 0.013261 0.000000 0.000000 0.000000
# 4 0.000000 0.000000 0.000000 0.056340 0.000000 0.000000
# 5 0.000000 0.000000 0.000000 0.000000 0.076551 0.000000
# 6 0.000000 0.000000 0.000000 0.000000 0.000000 0.164917
#
#
# Mechanical properties :
#
#
# Convention : Reuss Voigt Hill
#
# Bulk Modulus (GPa) = 52.96734 55.57931 54.27333
# Shear Modulus (GPa) = 13.84015 20.85533 17.34774
#
# Velocity S-wave (km/s) = 2.76743 3.39715 3.09833
# Velocity P-wave (km/s) = 6.28664 6.79288 6.54466
#
# Compressibility (1/GPa) = 0.01887956
#
# Stress axis : x y z
#
# Youngs Moduli (GPa) = 64.21053 108.82397 75.41063
#
# Poissons Ratio (x) = 0.18417 0.35068
# Poissons Ratio (y) = 0.10867 0.24353
# Poissons Ratio (z) = 0.29860 0.35143
#
# Static dielectric constant tensor:
#      x y z
#    x 3.114420 0.000000 0.000000 
#    y 0.000000 3.772190 0.000000 
#    z 0.000000 0.000000 3.339240 
# 
# 
# High freq. dielectric constant tensor:
#      x y z
#    x 1.658310 0.000000 0.000000 
#    y 0.000000 1.711910 0.000000 
#    z 0.000000 0.000000 1.699370 
# 
# From -- ./inp_files/4841.got.cif
#   From: 2010.03.12/outbox.cif.g09.slc.cpg/sg47_3_cif.got.tgz:4841.got - 2010.04.14 03:12:58.
