data_PCOD8195194
_publ_section_title
;
Structure prediction by ZEFSAII (Michael W. Deem and Ramdas Pophale) SiO2 
 PCOD8195194
Probable space group: P M M M
;
_chemical_formula_sum "Si O2"
_cell_formula_units_Z 48
_cell_length_a 7.828467
_cell_length_b 9.430866
_cell_length_c 34.255595
_cell_angle_alpha 90.000000
_cell_angle_beta 90.000000
_cell_angle_gamma 90.000000
_cell_volume 2529.063971
_symmetry_space_group_name_H-M "P M M M"
_symmetry_group_IT_number 47
_symmetry_cell_setting 'orthorhombic'
loop_
_space_group_symop_operation_xyz
x,y,z
-x,-y,z
x,-y,-z
-x,y,-z
-x,-y,-z
x,y,-z
-x,y,z
x,-y,z
loop_
_atom_site_type_symbol
_atom_site_label
_atom_site_fract_x
_atom_site_fract_y
_atom_site_fract_z
Si Si1 0.000000 0.669475 0.096649
Si Si2 0.309754 0.167795 0.768968
Si Si3 0.689722 0.668124 0.043610
Si Si4 0.196757 0.655892 0.385336
Si Si5 0.000000 0.169321 0.177512
Si Si6 0.796675 0.160226 0.314753
Si Si7 0.701335 0.159574 0.543986
O O1 0.832787 0.723660 0.073359
O O2 0.000000 0.749454 0.137159
O O3 0.000000 0.500000 0.102768
O O4 0.500000 0.214937 0.782599
O O5 0.273222 0.227298 0.725592
O O6 0.168403 0.222751 0.799400
O O7 0.293120 0.000000 0.766559
O O8 0.500000 0.717845 0.057281
O O9 0.697483 0.500000 0.042206
O O10 0.727357 0.726875 0.000000
O O11 0.283586 0.500000 0.387114
O O12 0.280246 0.748203 0.350544
O O13 0.211799 0.731374 0.426902
O O14 0.000000 0.638055 0.375229
O O15 0.000000 0.000000 0.171058
O O16 0.000000 0.161950 0.313470
O O17 0.729614 0.000000 0.320621
O O18 0.756545 0.200045 0.500000
O O19 0.500000 0.169855 0.548558
O O20 0.763338 0.000000 0.553672
#
# Coordination Sequence:
#
# PCOD8195194 Si02
#       7
#     4   8   8   8   4   8   8
#     4  10  19  30  48  74 100 130 168 209 255 304
#     4   9  17  31  53  76  95 124 169 213 252 298
#     4   8  14  26  46  72 100 130 168 215 259 298
#     4  10  21  34  49  75 108 137 161 191 241 303
#     4  10  20  35  51  71 102 136 169 209 254 304
#     4   9  16  30  52  73  94 122 159 206 252 290
#     4   9  19  36  55  73  95 127 169 213 250 286
#
# _framework density 18.979354000000001
#
# number of rings (size 3 to 8) (size 9 to 14) (size 15 to 20)
#    0.000    2.833    0.833    1.750    0.000    4.333 
#    0.000    5.000    0.000    2.000    0.000    1.167 
#    0.000    0.000    0.000    0.000    0.000    0.000 
#
# Total GULP energy -594965.159506 kJ/mol
# GULP energy per Si atom -12395.107490 kJ/mol
# Density = 1.893616 g / cm^3
# Si number density = 18.979354 Si / 1000 Ang^3
#
#
#
# Elastic Constant Matrix: (Units=GPa)
#
#
# Indices 1 2 3 4 5 6 
#
# 1 97.3023 29.2140 67.9107 0.0000 0.0000 0.0000
# 2 29.2140 69.6464 59.1157 0.0000 0.0000 0.0000
# 3 67.9107 59.1157 164.0987 0.0000 0.0000 0.0000
# 4 0.0000 0.0000 0.0000 13.6915 0.0000 0.0000
# 5 0.0000 0.0000 0.0000 0.0000 11.8075 0.0000
# 6 0.0000 0.0000 0.0000 0.0000 0.0000 9.0205
#
#
#
# Elastic Compliance Matrix: (Units=1/GPa)
#
#
# Indices 1 2 3 4 5 6 
#
# 1 0.014549 -0.001429 -0.005506 0.000000 0.000000 0.000000
# 2 -0.001429 0.020823 -0.006910 0.000000 0.000000 0.000000
# 3 -0.005506 -0.006910 0.010862 0.000000 0.000000 0.000000
# 4 0.000000 0.000000 0.000000 0.073038 0.000000 0.000000
# 5 0.000000 0.000000 0.000000 0.000000 0.084692 0.000000
# 6 0.000000 0.000000 0.000000 0.000000 0.000000 0.110858
#
#
# Mechanical properties :
#
#
# Convention : Reuss Voigt Hill
#
# Bulk Modulus (GPa) = 53.92752 71.50313 62.71532
# Shear Modulus (GPa) = 14.33920 18.55769 16.44844
#
# Velocity S-wave (km/s) = 2.75165 3.13034 2.94708
# Velocity P-wave (km/s) = 6.21055 7.12891 6.68552
#
# Compressibility (1/GPa) = 0.01854341
#
# Stress axis : x y z
#
# Youngs Moduli (GPa) = 68.73154 48.02424 92.06535
#
# Poissons Ratio (x) = 0.06864 0.50694
# Poissons Ratio (y) = 0.09823 0.63616
# Poissons Ratio (z) = 0.37845 0.33184
#
# Static dielectric constant tensor:
#      x y z
#    x 3.595180 0.000000 0.000000 
#    y 0.000000 3.268400 0.000000 
#    z 0.000000 0.000000 3.569730 
# 
# 
# High freq. dielectric constant tensor:
#      x y z
#    x 1.739180 0.000000 0.000000 
#    y 0.000000 1.692030 0.000000 
#    z 0.000000 0.000000 1.739660 
# 
# From -- ./inp_files/2765.got.cif
#   From: 2010.03.12/outbox.cif.g09.slc.cpg/sg47_2_cif.got.tgz:2765.got - 2010.04.14 03:12:58.
