data_PCOD8195709
_publ_section_title
;
Structure prediction by ZEFSAII (Michael W. Deem and Ramdas Pophale) SiO2 
 PCOD8195709
Probable space group: P M M M
;
_chemical_formula_sum "Si O2"
_cell_formula_units_Z 36
_cell_length_a 9.246982
_cell_length_b 11.636371
_cell_length_c 20.939937
_cell_angle_alpha 90.000000
_cell_angle_beta 90.000000
_cell_angle_gamma 90.000000
_cell_volume 2253.164719
_symmetry_space_group_name_H-M "P M M M"
_symmetry_group_IT_number 47
_symmetry_cell_setting 'orthorhombic'
loop_
_space_group_symop_operation_xyz
x,y,z
-x,-y,z
x,-y,-z
-x,y,-z
-x,-y,-z
x,y,-z
-x,y,z
x,-y,z
loop_
_atom_site_type_symbol
_atom_site_label
_atom_site_fract_x
_atom_site_fract_y
_atom_site_fract_z
Si Si1 0.327809 0.126282 0.500000
Si Si2 0.338000 0.862756 0.363512
Si Si3 0.328061 0.500000 0.925282
Si Si4 0.170999 0.873415 0.000000
Si Si5 0.169814 0.130584 0.758965
Si Si6 0.171289 0.723695 0.881398
O O1 0.500000 0.114444 0.500000
O O2 0.282868 0.187890 0.567251
O O3 0.256581 0.000000 0.500000
O O4 0.500000 0.819497 0.348994
O O5 0.237394 0.819149 0.306162
O O6 0.334485 0.000000 0.368355
O O7 0.500000 0.500000 0.917713
O O8 0.260823 0.607759 0.888591
O O9 0.282592 0.500000 0.000000
O O10 0.223547 0.807256 0.062442
O O11 0.000000 0.884397 0.000000
O O12 0.241436 0.000000 0.000000
O O13 0.216494 0.214362 0.815945
O O14 0.000000 0.130903 0.750089
O O15 0.223628 0.000000 0.773115
O O16 0.000000 0.697870 0.884868
#
# Coordination Sequence:
#
# PCOD8195709 Si02
#       6
#     4   8   4   4   8   8
#     4   7  10  18  33  53  77 110 155 192 209 237
#     4   8  13  22  37  56  81 117 155 185 214 253
#     4  11  23  37  51  67  89 112 141 188 237 269
#     4   9  16  27  47  72  90 109 144 183 212 249
#     4   9  17  28  42  65  95 120 144 181 225 264
#     4  10  19  32  51  69  87 115 151 184 217 265
#
# _framework density 15.977525999999999
#
# number of rings (size 3 to 8) (size 9 to 14) (size 15 to 20)
#    0.000    3.000    1.111    2.333    0.000    4.000 
#    0.000    0.556    0.000    6.000    0.000    0.000 
#    0.000    0.889    0.000   10.000    0.000    7.111 
#
# Total GULP energy -446061.135294 kJ/mol
# GULP energy per Si atom -12390.587092 kJ/mol
# Density = 1.594116 g / cm^3
# Si number density = 15.977526 Si / 1000 Ang^3
#
#
#
# Elastic Constant Matrix: (Units=GPa)
#
#
# Indices 1 2 3 4 5 6 
#
# 1 33.7115 30.6817 45.2115 0.0000 0.0000 0.0000
# 2 30.6817 84.6702 58.5335 0.0000 0.0000 0.0000
# 3 45.2115 58.5335 176.7180 0.0000 0.0000 0.0000
# 4 0.0000 0.0000 0.0000 17.5102 0.0000 0.0000
# 5 0.0000 0.0000 0.0000 0.0000 27.7682 0.0000
# 6 0.0000 0.0000 0.0000 0.0000 0.0000 11.0786
#
#
#
# Elastic Compliance Matrix: (Units=1/GPa)
#
#
# Indices 1 2 3 4 5 6 
#
# 1 0.054449 -0.013100 -0.009591 0.000000 0.000000 0.000000
# 2 -0.013100 0.018470 -0.002766 0.000000 0.000000 0.000000
# 3 -0.009591 -0.002766 0.009029 0.000000 0.000000 0.000000
# 4 0.000000 0.000000 0.000000 0.057110 0.000000 0.000000
# 5 0.000000 0.000000 0.000000 0.000000 0.036012 0.000000
# 6 0.000000 0.000000 0.000000 0.000000 0.000000 0.090264
#
#
# Mechanical properties :
#
#
# Convention : Reuss Voigt Hill
#
# Bulk Modulus (GPa) = 32.22386 62.66144 47.44265
# Shear Modulus (GPa) = 15.30959 21.98294 18.64626
#
# Velocity S-wave (km/s) = 3.09883 3.71329 3.41989
# Velocity P-wave (km/s) = 5.74593 7.59528 6.73439
#
# Compressibility (1/GPa) = 0.03103291
#
# Stress axis : x y z
#
# Youngs Moduli (GPa) = 18.36576 54.14228 110.75721
#
# Poissons Ratio (x) = 0.70927 1.06229
# Poissons Ratio (y) = 0.24059 0.30637
# Poissons Ratio (z) = 0.17615 0.14977
#
# Static dielectric constant tensor:
#      x y z
#    x 2.805630 0.000000 0.000000 
#    y 0.000000 2.767970 0.000000 
#    z 0.000000 0.000000 3.449110 
# 
# 
# High freq. dielectric constant tensor:
#      x y z
#    x 1.589330 0.000000 0.000000 
#    y 0.000000 1.565140 0.000000 
#    z 0.000000 0.000000 1.632380 
# 
# From -- ./inp_files/15026.got.cif
#   From: 2010.03.12/outbox.cif.g09.slc.cpg/sg47_8_cif.got.tgz:15026.got - 2010.04.14 03:12:58.
