data_PCOD8195691
_publ_section_title
;
Structure prediction by ZEFSAII (Michael W. Deem and Ramdas Pophale) SiO2 
 PCOD8195691
Probable space group: P M M M
;
_chemical_formula_sum "Si O2"
_cell_formula_units_Z 56
_cell_length_a 18.805368
_cell_length_b 18.582288
_cell_length_c 8.898698
_cell_angle_alpha 90.000000
_cell_angle_beta 90.000000
_cell_angle_gamma 90.000000
_cell_volume 3109.621221
_symmetry_space_group_name_H-M "P M M M"
_symmetry_group_IT_number 47
_symmetry_cell_setting 'orthorhombic'
loop_
_space_group_symop_operation_xyz
x,y,z
-x,-y,z
x,-y,-z
-x,y,-z
-x,-y,-z
x,y,-z
-x,y,z
x,-y,z
loop_
_atom_site_type_symbol
_atom_site_label
_atom_site_fract_x
_atom_site_fract_y
_atom_site_fract_z
Si Si1 0.077694 0.585254 0.832195
Si Si2 0.782519 0.583753 0.674038
Si Si3 0.419206 0.217582 0.322544
Si Si4 0.794141 0.164843 0.322893
Si Si5 0.657824 0.078335 0.323044
Si Si6 0.710704 0.709480 0.177413
Si Si7 0.081848 0.917924 0.175062
O O1 0.074294 0.500000 0.834511
O O2 0.138044 0.610774 0.716708
O O3 0.000000 0.615285 0.781906
O O4 0.096146 0.613572 0.000000
O O5 0.769837 0.599478 0.500000
O O6 0.771976 0.500000 0.713380
O O7 0.725836 0.627851 0.771849
O O8 0.405737 0.225532 0.500000
O O9 0.500000 0.235343 0.278397
O O10 0.401039 0.136033 0.269651
O O11 0.367850 0.272255 0.237216
O O12 0.795947 0.178010 0.500000
O O13 0.736113 0.105039 0.276135
O O14 0.771967 0.239677 0.246108
O O15 0.870635 0.137933 0.267935
O O16 0.653526 0.070242 0.500000
O O17 0.643547 0.000000 0.248056
O O18 0.711729 0.716399 0.000000
O O19 0.000000 0.898967 0.208892
O O20 0.097779 0.000000 0.225408
O O21 0.098778 0.908722 0.000000
#
# Coordination Sequence:
#
# PCOD8195691 Si02
#       7
#     8   8   8   8   8   8   8
#     4   8  14  26  45  70 101 134 164 194 232 282
#     4  10  20  34  54  79 105 132 165 209 258 306
#     4   9  18  33  53  77 106 138 169 204 247 295
#     4  10  19  32  50  72 100 133 174 220 261 303
#     4   8  14  25  44  73 104 131 162 201 244 288
#     4  11  22  36  55  76 101 134 170 208 252 306
#     4   9  18  32  49  71 102 139 177 219 269 320
#
# _framework density 18.008624000000001
#
# number of rings (size 3 to 8) (size 9 to 14) (size 15 to 20)
#    0.000    2.714    0.000    4.286    0.000    2.857 
#    0.000    4.286    0.000    8.571    0.000    7.000 
#    0.000    0.000    0.000    0.000    0.000    0.000 
#
# Total GULP energy -694203.034602 kJ/mol
# GULP energy per Si atom -12396.482761 kJ/mol
# Density = 1.796764 g / cm^3
# Si number density = 18.008624 Si / 1000 Ang^3
#
#
#
# Elastic Constant Matrix: (Units=GPa)
#
#
# Indices 1 2 3 4 5 6 
#
# 1 118.6705 58.2634 54.9762 0.0000 0.0000 0.0000
# 2 58.2634 83.4548 43.6691 0.0000 0.0000 0.0000
# 3 54.9762 43.6691 86.1612 0.0000 0.0000 0.0000
# 4 0.0000 0.0000 0.0000 21.5732 0.0000 0.0000
# 5 0.0000 0.0000 0.0000 0.0000 27.3635 0.0000
# 6 0.0000 0.0000 0.0000 0.0000 0.0000 24.8817
#
#
#
# Elastic Compliance Matrix: (Units=1/GPa)
#
#
# Indices 1 2 3 4 5 6 
#
# 1 0.014594 -0.007235 -0.005645 0.000000 0.000000 0.000000
# 2 -0.007235 0.019894 -0.005467 0.000000 0.000000 0.000000
# 3 -0.005645 -0.005467 0.017979 0.000000 0.000000 0.000000
# 4 0.000000 0.000000 0.000000 0.046354 0.000000 0.000000
# 5 0.000000 0.000000 0.000000 0.000000 0.036545 0.000000
# 6 0.000000 0.000000 0.000000 0.000000 0.000000 0.040190
#
#
# Mechanical properties :
#
#
# Convention : Reuss Voigt Hill
#
# Bulk Modulus (GPa) = 63.39669 66.90045 65.14857
# Shear Modulus (GPa) = 22.98784 23.52219 23.25502
#
# Velocity S-wave (km/s) = 3.57668 3.61801 3.59740
# Velocity P-wave (km/s) = 7.23442 7.39480 7.31505
#
# Compressibility (1/GPa) = 0.01577369
#
# Stress axis : x y z
#
# Youngs Moduli (GPa) = 68.52187 50.26655 55.62149
#
# Poissons Ratio (x) = 0.36367 0.31398
# Poissons Ratio (y) = 0.49574 0.30406
# Poissons Ratio (z) = 0.38681 0.27479
#
# Static dielectric constant tensor:
#      x y z
#    x 3.373020 0.000000 0.000000 
#    y 0.000000 3.272750 0.000000 
#    z 0.000000 0.000000 3.170340 
# 
# 
# High freq. dielectric constant tensor:
#      x y z
#    x 1.691520 0.000000 0.000000 
#    y 0.000000 1.680720 0.000000 
#    z 0.000000 0.000000 1.684070 
# 
# From -- ./inp_files/11487.got.cif
#   From: 2010.03.12/outbox.cif.g09.slc.cpg/sg47_6_cif.got.tgz:11487.got - 2010.04.14 03:12:58.
