data_PCOD8195658
_publ_section_title
;
Structure prediction by ZEFSAII (Michael W. Deem and Ramdas Pophale) SiO2 
 PCOD8195658
Probable space group: P M M M
;
_chemical_formula_sum "Si O2"
_cell_formula_units_Z 64
_cell_length_a 9.500971
_cell_length_b 14.245085
_cell_length_c 31.290323
_cell_angle_alpha 90.000000
_cell_angle_beta 90.000000
_cell_angle_gamma 90.000000
_cell_volume 4234.899260
_symmetry_space_group_name_H-M "P M M M"
_symmetry_group_IT_number 47
_symmetry_cell_setting 'orthorhombic'
loop_
_space_group_symop_operation_xyz
x,y,z
-x,-y,z
x,-y,-z
-x,y,-z
-x,-y,-z
x,y,-z
-x,y,z
x,-y,z
loop_
_atom_site_type_symbol
_atom_site_label
_atom_site_fract_x
_atom_site_fract_y
_atom_site_fract_z
Si Si1 0.835756 0.707521 0.451837
Si Si2 0.658678 0.612179 0.863238
Si Si3 0.661938 0.703458 0.709280
Si Si4 0.162353 0.896086 0.590823
Si Si5 0.667121 0.395018 0.045240
Si Si6 0.339511 0.103823 0.325955
Si Si7 0.837281 0.389161 0.216540
Si Si8 0.338085 0.608543 0.379620
O O1 0.789426 0.682808 0.500000
O O2 0.801194 0.817699 0.444336
O O3 0.752799 0.641322 0.419682
O O4 0.000000 0.687730 0.444940
O O5 0.500000 0.647545 0.853061
O O6 0.659410 0.500000 0.865778
O O7 0.714155 0.652531 0.909601
O O8 0.763065 0.648568 0.826548
O O9 0.500000 0.676764 0.720067
O O10 0.685279 0.816325 0.709847
O O11 0.765304 0.659143 0.743367
O O12 0.704579 0.665102 0.662756
O O13 0.246469 0.872436 0.633364
O O14 0.000000 0.891807 0.603821
O O15 0.201559 0.000000 0.572923
O O16 0.500000 0.400069 0.047194
O O17 0.729095 0.500000 0.043514
O O18 0.713586 0.344136 0.000000
O O19 0.500000 0.108334 0.341860
O O20 0.303900 0.000000 0.307111
O O21 0.817444 0.500000 0.221272
O O22 0.000000 0.360259 0.214784
O O23 0.500000 0.626716 0.391250
O O24 0.307229 0.500000 0.370550
#
# Coordination Sequence:
#
# PCOD8195658 Si02
#       8
#     8   8   8   8   8   8   8   8
#     4  10  21  35  50  69  92 116 141 168 199 239
#     4   8  13  22  36  52  73 104 140 178 219 258
#     4  10  19  32  50  68  86 108 135 168 205 249
#     4   9  17  30  49  71  93 115 136 160 194 237
#     4   7   9  14  27  48  70  93 129 177 220 254
#     4   9  17  30  50  73  92 108 128 159 201 246
#     4  10  20  30  40  58  84 113 145 181 217 249
#     4  10  21  36  52  69  87 109 140 176 210 243
#
# _framework density 15.112520999999999
#
# number of rings (size 3 to 8) (size 9 to 14) (size 15 to 20)
#    0.000    2.875    1.250    1.875    0.000    3.250 
#    0.000    2.500    0.000    0.375    0.000    5.250 
#    0.000    0.000    0.000    0.000    0.000    0.625 
#
# Total GULP energy -792984.176499 kJ/mol
# GULP energy per Si atom -12390.377758 kJ/mol
# Density = 1.507812 g / cm^3
# Si number density = 15.112521 Si / 1000 Ang^3
#
#
#
# Elastic Constant Matrix: (Units=GPa)
#
#
# Indices 1 2 3 4 5 6 
#
# 1 61.9914 27.9432 56.4734 0.0000 0.0000 0.0000
# 2 27.9432 53.5750 35.1254 0.0000 0.0000 0.0000
# 3 56.4734 35.1254 118.2655 0.0000 0.0000 0.0000
# 4 0.0000 0.0000 0.0000 2.7215 0.0000 0.0000
# 5 0.0000 0.0000 0.0000 0.0000 -25.2237 0.0000
# 6 0.0000 0.0000 0.0000 0.0000 0.0000 17.2492
#
#
#
# Elastic Compliance Matrix: (Units=1/GPa)
#
#
# Indices 1 2 3 4 5 6 
#
# 1 0.031121 -0.008058 -0.012468 0.000000 0.000000 0.000000
# 2 -0.008058 0.025265 -0.003656 0.000000 0.000000 0.000000
# 3 -0.012468 -0.003656 0.015495 0.000000 0.000000 0.000000
# 4 0.000000 0.000000 0.000000 0.367449 0.000000 0.000000
# 5 0.000000 0.000000 0.000000 0.000000 -0.039645 0.000000
# 6 0.000000 0.000000 0.000000 0.000000 0.000000 0.057974
#
#
# Mechanical properties :
#
#
# Convention : Reuss Voigt Hill
#
# Bulk Modulus (GPa) = 42.52029 52.54621 47.53325
# Shear Modulus (GPa) = 9.73025 6.56872 8.14948
#
# Velocity S-wave (km/s) = 2.54018 2.08710 2.32470
# Velocity P-wave (km/s) = 6.06632 6.37600 6.22309
#
# Compressibility (1/GPa) = 0.02351819
#
# Stress axis : x y z
#
# Youngs Moduli (GPa) = 32.13240 39.58009 64.53732
#
# Poissons Ratio (x) = 0.31893 0.80463
# Poissons Ratio (y) = 0.25892 0.23596
# Poissons Ratio (z) = 0.40061 0.14471
#
# Static dielectric constant tensor:
#      x y z
#    x 2.861700 0.000000 0.000000 
#    y 0.000000 2.820940 0.000000 
#    z 0.000000 0.000000 3.118020 
# 
# 
# High freq. dielectric constant tensor:
#      x y z
#    x 1.570250 0.000000 0.000000 
#    y 0.000000 1.544930 0.000000 
#    z 0.000000 0.000000 1.573650 
# 
# From -- ./inp_files/34457.got.cif
#   From: 2010.03.12/outbox.cif.g09.slc.cpg/sg47_18_cif.got.tgz:34457.got - 2010.04.14 03:12:58.
