data_PCOD8195827
_publ_section_title
;
Structure prediction by ZEFSAII (Michael W. Deem and Ramdas Pophale) SiO2 
 PCOD8195827
Probable space group: P M M M
;
_chemical_formula_sum "Si O2"
_cell_formula_units_Z 48
_cell_length_a 9.541168
_cell_length_b 17.654058
_cell_length_c 15.505092
_cell_angle_alpha 90.000000
_cell_angle_beta 90.000000
_cell_angle_gamma 90.000000
_cell_volume 2611.682864
_symmetry_space_group_name_H-M "P M M M"
_symmetry_group_IT_number 47
_symmetry_cell_setting 'orthorhombic'
loop_
_space_group_symop_operation_xyz
x,y,z
-x,-y,z
x,-y,-z
-x,y,-z
-x,-y,-z
x,y,-z
-x,y,z
x,-y,z
loop_
_atom_site_type_symbol
_atom_site_label
_atom_site_fract_x
_atom_site_fract_y
_atom_site_fract_z
Si Si1 0.666814 0.584323 0.500000
Si Si2 0.833253 0.500000 0.903458
Si Si3 0.660757 0.142142 0.402076
Si Si4 0.338414 0.312337 0.652565
Si Si5 0.836778 0.809521 0.094322
Si Si6 0.162699 0.655194 0.819418
Si Si7 0.161264 0.086416 0.246719
O O1 0.728942 0.500000 0.500000
O O2 0.500000 0.585441 0.500000
O O3 0.720415 0.626085 0.585461
O O4 0.779258 0.424801 0.854804
O O5 0.000000 0.500000 0.907865
O O6 0.771138 0.500000 0.000000
O O7 0.703195 0.120464 0.500000
O O8 0.500000 0.119630 0.384484
O O9 0.682664 0.231214 0.390442
O O10 0.756508 0.096241 0.335921
O O11 0.500000 0.327000 0.676601
O O12 0.246818 0.319274 0.736752
O O13 0.812795 0.720213 0.109550
O O14 0.771244 0.860876 0.171106
O O15 0.000000 0.828982 0.091867
O O16 0.770942 0.829137 0.000000
O O17 0.000000 0.648513 0.794585
O O18 0.000000 0.109230 0.263967
O O19 0.174197 0.000000 0.215730
#
# Coordination Sequence:
#
# PCOD8195827 Si02
#       7
#     4   4   8   8   8   8   8
#     4   9  18  32  51  75 102 135 174 212 253 307
#     4   9  18  32  51  76 105 136 170 211 255 301
#     4  10  20  36  57  78 103 138 178 216 256 310
#     4  10  19  33  53  76 101 133 174 215 254 301
#     4   9  17  31  53  78 103 136 176 212 251 306
#     4  10  19  32  52  77 105 135 171 212 256 306
#     4  10  21  36  54  80 111 137 168 216 268 313
#
# _framework density 18.378954
#
# number of rings (size 3 to 8) (size 9 to 14) (size 15 to 20)
#    0.000    2.333    2.500    0.500    1.167    3.333 
#    0.000    3.750    0.000    4.500    0.000    1.167 
#    0.000    0.000    0.000    0.000    0.000    0.000 
#
# Total GULP energy -595130.830463 kJ/mol
# GULP energy per Si atom -12398.558968 kJ/mol
# Density = 1.833712 g / cm^3
# Si number density = 18.378954 Si / 1000 Ang^3
#
#
#
# Elastic Constant Matrix: (Units=GPa)
#
#
# Indices 1 2 3 4 5 6 
#
# 1 39.3995 22.7746 41.7394 0.0000 0.0000 0.0000
# 2 22.7746 91.1052 36.6456 0.0000 0.0000 0.0000
# 3 41.7394 36.6456 138.0477 0.0000 0.0000 0.0000
# 4 0.0000 0.0000 0.0000 27.2211 0.0000 0.0000
# 5 0.0000 0.0000 0.0000 0.0000 54.4211 0.0000
# 6 0.0000 0.0000 0.0000 0.0000 0.0000 18.0760
#
#
#
# Elastic Compliance Matrix: (Units=1/GPa)
#
#
# Indices 1 2 3 4 5 6 
#
# 1 0.039843 -0.005726 -0.010527 0.000000 0.000000 0.000000
# 2 -0.005726 0.013111 -0.001749 0.000000 0.000000 0.000000
# 3 -0.010527 -0.001749 0.010891 0.000000 0.000000 0.000000
# 4 0.000000 0.000000 0.000000 0.036736 0.000000 0.000000
# 5 0.000000 0.000000 0.000000 0.000000 0.018375 0.000000
# 6 0.000000 0.000000 0.000000 0.000000 0.000000 0.055322
#
#
# Mechanical properties :
#
#
# Convention : Reuss Voigt Hill
#
# Bulk Modulus (GPa) = 35.91756 52.31908 44.11832
# Shear Modulus (GPa) = 22.77259 31.10315 26.93787
#
# Velocity S-wave (km/s) = 3.52384 4.11825 3.83259
# Velocity P-wave (km/s) = 6.01181 7.15136 6.60620
#
# Compressibility (1/GPa) = 0.02784154
#
# Stress axis : x y z
#
# Youngs Moduli (GPa) = 25.09875 76.27037 91.81872
#
# Poissons Ratio (x) = 0.43670 0.96655
# Poissons Ratio (y) = 0.14371 0.16061
# Poissons Ratio (z) = 0.26421 0.13342
#
# Static dielectric constant tensor:
#      x y z
#    x 3.013470 0.000000 0.000000 
#    y 0.000000 3.549060 0.000000 
#    z 0.000000 0.000000 3.597200 
# 
# 
# High freq. dielectric constant tensor:
#      x y z
#    x 1.665590 0.000000 0.000000 
#    y 0.000000 1.723090 0.000000 
#    z 0.000000 0.000000 1.722890 
# 
# From -- ./inp_files/21086.got.cif
#   From: 2010.03.12/outbox.cif.g09.slc.cpg/sg47_11_cif.got.tgz:21086.got - 2010.04.14 03:12:58.
