data_PCOD8195340
_publ_section_title
;
Structure prediction by ZEFSAII (Michael W. Deem and Ramdas Pophale) SiO2 
 PCOD8195340
Probable space group: P M M M
;
_chemical_formula_sum "Si O2"
_cell_formula_units_Z 56
_cell_length_a 22.205295
_cell_length_b 9.003898
_cell_length_c 16.006141
_cell_angle_alpha 90.000000
_cell_angle_beta 90.000000
_cell_angle_gamma 90.000000
_cell_volume 3200.175176
_symmetry_space_group_name_H-M "P M M M"
_symmetry_group_IT_number 47
_symmetry_cell_setting 'orthorhombic'
loop_
_space_group_symop_operation_xyz
x,y,z
-x,-y,z
x,-y,-z
-x,y,-z
-x,-y,-z
x,y,-z
-x,y,z
x,-y,z
loop_
_atom_site_type_symbol
_atom_site_label
_atom_site_fract_x
_atom_site_fract_y
_atom_site_fract_z
Si Si1 0.929072 0.328278 0.834956
Si Si2 0.428487 0.331492 0.907529
Si Si3 0.358248 0.324697 0.403977
Si Si4 0.571404 0.830454 0.742083
Si Si5 0.236310 0.168177 0.402879
Si Si6 0.071235 0.834193 0.000000
Si Si7 0.000000 0.336002 0.597135
Si Si8 0.111633 0.175668 0.324763
O O1 0.911054 0.500000 0.831906
O O2 0.906936 0.260170 0.921557
O O3 0.892202 0.234292 0.768606
O O4 0.000000 0.305931 0.819152
O O5 0.500000 0.324563 0.905691
O O6 0.406226 0.500000 0.894833
O O7 0.402692 0.235592 0.829798
O O8 0.406690 0.273814 0.000000
O O9 0.372608 0.274750 0.500000
O O10 0.362336 0.500000 0.395749
O O11 0.405349 0.254074 0.339903
O O12 0.291615 0.273005 0.377758
O O13 0.500000 0.815618 0.740672
O O14 0.592803 0.000000 0.737173
O O15 0.222090 0.177366 0.500000
O O16 0.176685 0.226244 0.357294
O O17 0.252304 0.000000 0.376047
O O18 0.000000 0.847458 0.000000
O O19 0.099497 0.000000 0.000000
O O20 0.940353 0.248062 0.620433
O O21 0.000000 0.500000 0.641026
O O22 0.000000 0.359291 0.500000
O O23 0.103319 0.000000 0.328683
#
# Coordination Sequence:
#
# PCOD8195340 Si02
#       8
#     8   8   8   8   8   4   4   8
#     4  10  19  31  47  70 102 133 163 200 247 297
#     4   8  14  26  45  70 102 138 172 207 248 295
#     4  10  21  36  54  75  99 132 174 217 258 302
#     4  10  20  32  49  76 108 140 172 209 255 304
#     4   9  19  36  55  74  97 128 168 212 254 297
#     4   9  17  29  47  69  95 127 165 203 243 292
#     4  11  23  35  47  68 101 136 165 201 251 299
#     4  11  21  33  52  75 100 130 167 206 247 298
#
# _framework density 17.499043
#
# number of rings (size 3 to 8) (size 9 to 14) (size 15 to 20)
#    0.000    2.286    0.714    3.000    0.000    6.000 
#    0.000    4.286    0.000    0.000    1.857    0.000 
#    0.000    0.000    0.000    0.000    0.000    0.000 
#
# Total GULP energy -694268.364588 kJ/mol
# GULP energy per Si atom -12397.649368 kJ/mol
# Density = 1.745921 g / cm^3
# Si number density = 17.499043 Si / 1000 Ang^3
#
#
#
# Elastic Constant Matrix: (Units=GPa)
#
#
# Indices 1 2 3 4 5 6 
#
# 1 42.6680 31.0113 35.3180 0.0000 0.0000 0.0000
# 2 31.0113 98.8434 48.1856 0.0000 0.0000 0.0000
# 3 35.3180 48.1856 113.5283 0.0000 0.0000 0.0000
# 4 0.0000 0.0000 0.0000 32.3232 0.0000 0.0000
# 5 0.0000 0.0000 0.0000 0.0000 11.7444 0.0000
# 6 0.0000 0.0000 0.0000 0.0000 0.0000 21.6281
#
#
#
# Elastic Compliance Matrix: (Units=1/GPa)
#
#
# Indices 1 2 3 4 5 6 
#
# 1 0.035203 -0.007195 -0.007898 0.000000 0.000000 0.000000
# 2 -0.007195 0.014227 -0.003800 0.000000 0.000000 0.000000
# 3 -0.007898 -0.003800 0.012878 0.000000 0.000000 0.000000
# 4 0.000000 0.000000 0.000000 0.030938 0.000000 0.000000
# 5 0.000000 0.000000 0.000000 0.000000 0.085147 0.000000
# 6 0.000000 0.000000 0.000000 0.000000 0.000000 0.046236
#
#
# Mechanical properties :
#
#
# Convention : Reuss Voigt Hill
#
# Bulk Modulus (GPa) = 40.77794 53.78548 47.28171
# Shear Modulus (GPa) = 18.47823 22.50745 20.49284
#
# Velocity S-wave (km/s) = 3.25307 3.59027 3.42582
# Velocity P-wave (km/s) = 6.12075 6.92746 6.53656
#
# Compressibility (1/GPa) = 0.02452306
#
# Stress axis : x y z
#
# Youngs Moduli (GPa) = 28.40653 70.28978 77.64988
#
# Poissons Ratio (x) = 0.50570 0.61327
# Poissons Ratio (y) = 0.20437 0.29509
# Poissons Ratio (z) = 0.22435 0.26712
#
# Static dielectric constant tensor:
#      x y z
#    x 2.912230 0.000000 0.000000 
#    y 0.000000 3.416540 0.000000 
#    z 0.000000 0.000000 3.524580 
# 
# 
# High freq. dielectric constant tensor:
#      x y z
#    x 1.632380 0.000000 0.000000 
#    y 0.000000 1.688580 0.000000 
#    z 0.000000 0.000000 1.689360 
# 
# From -- ./inp_files/25158.got.cif
#   From: 2010.03.12/outbox.cif.g09.slc.cpg/sg47_13_cif.got.tgz:25158.got - 2010.04.14 03:12:58.
