data_PCOD8195553
_publ_section_title
;
Structure prediction by ZEFSAII (Michael W. Deem and Ramdas Pophale) SiO2 
 PCOD8195553
Probable space group: P M M M
;
_chemical_formula_sum "Si O2"
_cell_formula_units_Z 56
_cell_length_a 20.338311
_cell_length_b 15.105892
_cell_length_c 9.175783
_cell_angle_alpha 90.000000
_cell_angle_beta 90.000000
_cell_angle_gamma 90.000000
_cell_volume 2819.060482
_symmetry_space_group_name_H-M "P M M M"
_symmetry_group_IT_number 47
_symmetry_cell_setting 'orthorhombic'
loop_
_space_group_symop_operation_xyz
x,y,z
-x,-y,z
x,-y,-z
-x,y,-z
-x,-y,-z
x,y,-z
-x,y,z
x,-y,z
loop_
_atom_site_type_symbol
_atom_site_label
_atom_site_fract_x
_atom_site_fract_y
_atom_site_fract_z
Si Si1 0.334166 0.342883 0.172364
Si Si2 0.894106 0.903586 0.336615
Si Si3 0.347309 0.169779 0.328477
Si Si4 0.072221 0.291821 0.332493
Si Si5 0.766341 0.098817 0.838531
Si Si6 0.812693 0.397919 0.827257
Si Si7 0.573696 0.000000 0.673446
Si Si8 0.573864 0.500000 0.172615
O O1 0.367856 0.258799 0.248290
O O2 0.259257 0.363542 0.224015
O O3 0.383949 0.417390 0.226965
O O4 0.335305 0.330946 0.000000
O O5 0.863261 0.899587 0.500000
O O6 0.935963 0.814811 0.310682
O O7 0.840774 0.901936 0.210385
O O8 0.931801 0.000000 0.321740
O O9 0.352783 0.181457 0.500000
O O10 0.272258 0.154536 0.281363
O O11 0.391333 0.088778 0.269078
O O12 0.088079 0.313943 0.500000
O O13 0.129996 0.336223 0.238694
O O14 0.000000 0.330487 0.289127
O O15 0.737504 0.000000 0.843726
O O16 0.760856 0.142466 0.000000
O O17 0.821678 0.500000 0.776464
O O18 0.818321 0.391573 0.000000
O O19 0.500000 0.000000 0.734367
O O20 0.575901 0.000000 0.500000
O O21 0.500000 0.500000 0.239978
O O22 0.568851 0.500000 0.000000
#
# Coordination Sequence:
#
# PCOD8195553 Si02
#       8
#     8   8   8   8   8   8   4   4
#     4  10  20  37  61  89 118 149 188 237 289 341
#     4   9  18  33  54  79 110 149 189 226 270 334
#     4  11  21  34  55  81 110 148 192 234 277 331
#     4  10  22  38  55  81 116 150 188 238 291 338
#     4  10  19  31  50  77 109 141 179 230 282 326
#     4  10  21  39  62  84 109 146 190 234 283 345
#     4   9  20  38  55  73 107 157 200 229 268 327
#     4   9  18  36  63  91 120 153 186 226 287 355
#
# _framework density 19.864774000000001
#
# number of rings (size 3 to 8) (size 9 to 14) (size 15 to 20)
#    0.000    2.143    1.429    1.714    0.000    5.714 
#    0.000    3.214    0.000    3.429    0.000    3.000 
#    0.000    0.000    0.000    0.000    0.000    0.000 
#
# Total GULP energy -693827.137049 kJ/mol
# GULP energy per Si atom -12389.770304 kJ/mol
# Density = 1.981956 g / cm^3
# Si number density = 19.864774 Si / 1000 Ang^3
#
#
#
# Elastic Constant Matrix: (Units=GPa)
#
#
# Indices 1 2 3 4 5 6 
#
# 1 130.5986 64.5542 34.9149 0.0000 0.0000 0.0000
# 2 64.5542 152.8053 38.3643 0.0000 0.0000 0.0000
# 3 34.9149 38.3643 46.4652 0.0000 0.0000 0.0000
# 4 0.0000 0.0000 0.0000 31.1590 0.0000 0.0000
# 5 0.0000 0.0000 0.0000 0.0000 17.2747 0.0000
# 6 0.0000 0.0000 0.0000 0.0000 0.0000 18.8068
#
#
#
# Elastic Compliance Matrix: (Units=1/GPa)
#
#
# Indices 1 2 3 4 5 6 
#
# 1 0.010658 -0.003144 -0.005413 0.000000 0.000000 0.000000
# 2 -0.003144 0.009183 -0.005220 0.000000 0.000000 0.000000
# 3 -0.005413 -0.005220 0.029899 0.000000 0.000000 0.000000
# 4 0.000000 0.000000 0.000000 0.032093 0.000000 0.000000
# 5 0.000000 0.000000 0.000000 0.000000 0.057888 0.000000
# 6 0.000000 0.000000 0.000000 0.000000 0.000000 0.053172
#
#
# Mechanical properties :
#
#
# Convention : Reuss Voigt Hill
#
# Bulk Modulus (GPa) = 45.07201 67.28177 56.17689
# Shear Modulus (GPa) = 21.94502 26.25047 24.09775
#
# Velocity S-wave (km/s) = 3.32734 3.63913 3.48672
# Velocity P-wave (km/s) = 6.12375 7.18339 6.67463
#
# Compressibility (1/GPa) = 0.02218672
#
# Stress axis : x y z
#
# Youngs Moduli (GPa) = 93.82548 108.89927 33.44617
#
# Poissons Ratio (x) = 0.34233 0.18105
# Poissons Ratio (y) = 0.29494 0.17458
# Poissons Ratio (z) = 0.50790 0.56842
#
# Static dielectric constant tensor:
#      x y z
#    x 3.527040 0.000000 0.000000 
#    y 0.000000 3.930490 0.000000 
#    z 0.000000 0.000000 3.344010 
# 
# 
# High freq. dielectric constant tensor:
#      x y z
#    x 1.762860 0.000000 0.000000 
#    y 0.000000 1.788750 0.000000 
#    z 0.000000 0.000000 1.751540 
# 
# From -- ./inp_files/11334.got.cif
#   From: 2010.03.12/outbox.cif.g09.slc.cpg/sg47_6_cif.got.tgz:11334.got - 2010.04.14 03:12:58.
