data_PCOD8195353
_publ_section_title
;
Structure prediction by ZEFSAII (Michael W. Deem and Ramdas Pophale) SiO2 
 PCOD8195353
Probable space group: P M M M
;
_chemical_formula_sum "Si O2"
_cell_formula_units_Z 64
_cell_length_a 19.168861
_cell_length_b 23.819997
_cell_length_c 9.023636
_cell_angle_alpha 90.000000
_cell_angle_beta 90.000000
_cell_angle_gamma 90.000000
_cell_volume 4120.212153
_symmetry_space_group_name_H-M "P M M M"
_symmetry_group_IT_number 47
_symmetry_cell_setting 'orthorhombic'
loop_
_space_group_symop_operation_xyz
x,y,z
-x,-y,z
x,-y,-z
-x,y,-z
-x,-y,-z
x,y,-z
-x,y,z
x,-y,z
loop_
_atom_site_type_symbol
_atom_site_label
_atom_site_fract_x
_atom_site_fract_y
_atom_site_fract_z
Si Si1 0.578655 0.613674 0.827304
Si Si2 0.424225 0.730086 0.669308
Si Si3 0.277847 0.239442 0.329190
Si Si4 0.851191 0.171909 0.325697
Si Si5 0.789904 0.658047 0.173588
Si Si6 0.078815 0.061527 0.323850
Si Si7 0.078512 0.725957 0.171664
Si Si8 0.708315 0.435518 0.329247
O O1 0.500000 0.592012 0.795759
O O2 0.587066 0.677347 0.774642
O O3 0.632767 0.573978 0.743445
O O4 0.596415 0.611739 0.000000
O O5 0.421882 0.708417 0.500000
O O6 0.500000 0.758646 0.702248
O O7 0.360374 0.774091 0.695578
O O8 0.262483 0.255152 0.500000
O O9 0.229382 0.186465 0.283552
O O10 0.260623 0.292813 0.229060
O O11 0.863111 0.171817 0.500000
O O12 0.870630 0.110471 0.260451
O O13 0.902985 0.218355 0.261525
O O14 0.869850 0.674545 0.212678
O O15 0.769660 0.600397 0.253506
O O16 0.778345 0.649982 0.000000
O O17 0.080972 0.061169 0.500000
O O18 0.000000 0.073612 0.269695
O O19 0.103331 0.000000 0.265170
O O20 0.000000 0.706889 0.210832
O O21 0.086834 0.741491 0.000000
O O22 0.703100 0.418046 0.500000
O O23 0.729596 0.500000 0.309218
#
# Coordination Sequence:
#
# PCOD8195353 Si02
#       8
#     8   8   8   8   8   8   8   8
#     4  10  20  32  47  67  88 110 139 174 207 243
#     4   9  16  26  41  59  82 113 141 165 203 254
#     4   9  16  26  41  61  85 109 135 172 213 253
#     4   9  16  25  40  63  87 111 144 182 214 248
#     4  10  19  31  48  66  84 108 137 169 208 254
#     4   8  13  21  34  54  82 115 148 181 215 249
#     4   9  18  31  46  66  91 114 135 166 212 262
#     4  11  23  36  49  64  84 111 141 173 209 251
#
# _framework density 15.533181000000001
#
# number of rings (size 3 to 8) (size 9 to 14) (size 15 to 20)
#    0.000    2.625    1.250    1.875    0.000    3.250 
#    0.000    1.250    0.000    0.750    0.000    4.375 
#    0.000    0.500    0.000    7.000    0.000    0.000 
#
# Total GULP energy -793136.113531 kJ/mol
# GULP energy per Si atom -12392.751774 kJ/mol
# Density = 1.549783 g / cm^3
# Si number density = 15.533181 Si / 1000 Ang^3
#
#
#
# Elastic Constant Matrix: (Units=GPa)
#
#
# Indices 1 2 3 4 5 6 
#
# 1 133.9050 65.9968 34.4459 0.0000 0.0000 0.0000
# 2 65.9968 97.7156 34.5855 0.0000 0.0000 0.0000
# 3 34.4459 34.5855 54.7166 0.0000 0.0000 0.0000
# 4 0.0000 0.0000 0.0000 3.5975 0.0000 0.0000
# 5 0.0000 0.0000 0.0000 0.0000 17.8944 0.0000
# 6 0.0000 0.0000 0.0000 0.0000 0.0000 24.5033
#
#
#
# Elastic Compliance Matrix: (Units=1/GPa)
#
#
# Indices 1 2 3 4 5 6 
#
# 1 0.011569 -0.006745 -0.003020 0.000000 0.000000 0.000000
# 2 -0.006745 0.017115 -0.006572 0.000000 0.000000 0.000000
# 3 -0.003020 -0.006572 0.024331 0.000000 0.000000 0.000000
# 4 0.000000 0.000000 0.000000 0.277971 0.000000 0.000000
# 5 0.000000 0.000000 0.000000 0.000000 0.055883 0.000000
# 6 0.000000 0.000000 0.000000 0.000000 0.000000 0.040811
#
#
# Mechanical properties :
#
#
# Convention : Reuss Voigt Hill
#
# Bulk Modulus (GPa) = 49.15960 61.82152 55.49056
# Shear Modulus (GPa) = 10.70353 19.28631 14.99492
#
# Velocity S-wave (km/s) = 2.62787 3.52749 3.11038
# Velocity P-wave (km/s) = 6.39722 7.51511 6.97859
#
# Compressibility (1/GPa) = 0.02034191
#
# Stress axis : x y z
#
# Youngs Moduli (GPa) = 86.43709 58.42669 41.09938
#
# Poissons Ratio (x) = 0.39408 0.12411
# Poissons Ratio (y) = 0.58301 0.27012
# Poissons Ratio (z) = 0.26102 0.38400
#
# Static dielectric constant tensor:
#      x y z
#    x 3.292740 0.000000 0.000000 
#    y 0.000000 2.900020 0.000000 
#    z 0.000000 0.000000 2.948660 
# 
# 
# High freq. dielectric constant tensor:
#      x y z
#    x 1.600200 0.000000 0.000000 
#    y 0.000000 1.558280 0.000000 
#    z 0.000000 0.000000 1.592670 
# 
# From -- ./inp_files/11952.got.cif
#   From: 2010.03.12/outbox.cif.g09.slc.cpg/sg47_6_cif.got.tgz:11952.got - 2010.04.14 03:12:58.
