data_PCOD8195301
_publ_section_title
;
Structure prediction by ZEFSAII (Michael W. Deem and Ramdas Pophale) SiO2 
 PCOD8195301
Probable space group: P M M M
;
_chemical_formula_sum "Si O2"
_cell_formula_units_Z 64
_cell_length_a 9.043541
_cell_length_b 31.007704
_cell_length_c 14.112240
_cell_angle_alpha 90.000000
_cell_angle_beta 90.000000
_cell_angle_gamma 90.000000
_cell_volume 3957.346472
_symmetry_space_group_name_H-M "P M M M"
_symmetry_group_IT_number 47
_symmetry_cell_setting 'orthorhombic'
loop_
_space_group_symop_operation_xyz
x,y,z
-x,-y,z
x,-y,-z
-x,y,-z
-x,-y,-z
x,y,-z
-x,y,z
x,-y,z
loop_
_atom_site_type_symbol
_atom_site_label
_atom_site_fract_x
_atom_site_fract_y
_atom_site_fract_z
Si Si1 0.673697 0.130659 0.892003
Si Si2 0.674649 0.622907 0.217171
Si Si3 0.832701 0.046948 0.112565
Si Si4 0.331532 0.258074 0.605220
Si Si5 0.831398 0.450518 0.110113
Si Si6 0.671837 0.781928 0.798389
Si Si7 0.172179 0.653615 0.392331
Si Si8 0.171856 0.701467 0.111170
O O1 0.500000 0.125872 0.887953
O O2 0.738814 0.086790 0.846395
O O3 0.728585 0.171051 0.829740
O O4 0.728337 0.137689 0.000000
O O5 0.500000 0.627913 0.218114
O O6 0.718175 0.578052 0.169158
O O7 0.736552 0.621918 0.324296
O O8 0.743177 0.662935 0.161671
O O9 0.000000 0.053002 0.147144
O O10 0.773063 0.000000 0.148288
O O11 0.823130 0.047760 0.000000
O O12 0.301906 0.238592 0.500000
O O13 0.500000 0.275306 0.612645
O O14 0.302617 0.221925 0.684994
O O15 0.222579 0.297462 0.625919
O O16 0.806224 0.500000 0.139189
O O17 0.000000 0.436573 0.131989
O O18 0.797151 0.443694 0.000000
O O19 0.500000 0.775605 0.825223
O O20 0.765119 0.746942 0.855136
O O21 0.205310 0.639584 0.500000
O O22 0.000000 0.650439 0.368051
O O23 0.000000 0.698634 0.138013
O O24 0.197647 0.696653 0.000000
#
# Coordination Sequence:
#
# PCOD8195301 Si02
#       8
#     8   8   8   8   8   8   8   8
#     4   9  17  27  39  58  86 120 155 187 224 277
#     4  12  23  34  52  77 103 131 161 197 240 285
#     4   8  14  25  40  57  78 107 146 190 232 273
#     4   9  17  30  48  69  92 120 156 196 239 284
#     4   9  19  37  59  80 103 132 164 199 239 282
#     4  10  19  31  46  65  92 126 157 191 236 283
#     4  10  20  34  53  75  98 125 160 202 243 283
#     4  11  23  35  47  66  94 129 167 202 233 272
#
# _framework density 16.172452
#
# number of rings (size 3 to 8) (size 9 to 14) (size 15 to 20)
#    0.000    2.250    1.250    3.375    0.000    5.000 
#    0.000    3.125    0.000    0.375    0.000    2.625 
#    0.000    0.500    0.000    6.250    0.000    1.250 
#
# Total GULP energy -793497.422691 kJ/mol
# GULP energy per Si atom -12398.397230 kJ/mol
# Density = 1.613564 g / cm^3
# Si number density = 16.172452 Si / 1000 Ang^3
#
#
#
# Elastic Constant Matrix: (Units=GPa)
#
#
# Indices 1 2 3 4 5 6 
#
# 1 87.7819 53.5105 48.2091 0.0000 0.0000 0.0000
# 2 53.5105 113.3482 51.0071 0.0000 0.0000 0.0000
# 3 48.2091 51.0071 80.4966 0.0000 0.0000 0.0000
# 4 0.0000 0.0000 0.0000 9.6800 0.0000 0.0000
# 5 0.0000 0.0000 0.0000 0.0000 20.4890 0.0000
# 6 0.0000 0.0000 0.0000 0.0000 0.0000 28.6488
#
#
#
# Elastic Compliance Matrix: (Units=1/GPa)
#
#
# Indices 1 2 3 4 5 6 
#
# 1 0.019083 -0.005408 -0.008002 0.000000 0.000000 0.000000
# 2 -0.005408 0.013874 -0.005553 0.000000 0.000000 0.000000
# 3 -0.008002 -0.005553 0.020734 0.000000 0.000000 0.000000
# 4 0.000000 0.000000 0.000000 0.103306 0.000000 0.000000
# 5 0.000000 0.000000 0.000000 0.000000 0.048807 0.000000
# 6 0.000000 0.000000 0.000000 0.000000 0.000000 0.034905
#
#
# Mechanical properties :
#
#
# Convention : Reuss Voigt Hill
#
# Bulk Modulus (GPa) = 63.42862 65.23112 64.32987
# Shear Modulus (GPa) = 17.61251 20.35690 18.98470
#
# Velocity S-wave (km/s) = 3.30365 3.55172 3.42993
# Velocity P-wave (km/s) = 7.33876 7.56584 7.45316
#
# Compressibility (1/GPa) = 0.01576575
#
# Stress axis : x y z
#
# Youngs Moduli (GPa) = 52.40224 72.07670 48.23067
#
# Poissons Ratio (x) = 0.38979 0.38594
# Poissons Ratio (y) = 0.28339 0.26780
# Poissons Ratio (z) = 0.41932 0.40021
#
# Static dielectric constant tensor:
#      x y z
#    x 3.112160 0.000000 0.000000 
#    y 0.000000 3.163650 0.000000 
#    z 0.000000 0.000000 3.124800 
# 
# 
# High freq. dielectric constant tensor:
#      x y z
#    x 1.626220 0.000000 0.000000 
#    y 0.000000 1.609090 0.000000 
#    z 0.000000 0.000000 1.604890 
# 
# From -- ./inp_files/22150.got.cif
#   From: 2010.03.12/outbox.cif.g09.slc.cpg/sg47_12_cif.got.tgz:22150.got - 2010.04.14 03:12:58.
