data_PCOD8195708
_publ_section_title
;
Structure prediction by ZEFSAII (Michael W. Deem and Ramdas Pophale) SiO2 
 PCOD8195708
Probable space group: P M M M
;
_chemical_formula_sum "Si O2"
_cell_formula_units_Z 36
_cell_length_a 7.854772
_cell_length_b 22.437326
_cell_length_c 11.795653
_cell_angle_alpha 90.000000
_cell_angle_beta 90.000000
_cell_angle_gamma 90.000000
_cell_volume 2078.866829
_symmetry_space_group_name_H-M "P M M M"
_symmetry_group_IT_number 47
_symmetry_cell_setting 'orthorhombic'
loop_
_space_group_symop_operation_xyz
x,y,z
-x,-y,z
x,-y,-z
-x,y,-z
-x,-y,-z
x,y,-z
-x,y,z
x,-y,z
loop_
_atom_site_type_symbol
_atom_site_label
_atom_site_fract_x
_atom_site_fract_y
_atom_site_fract_z
Si Si1 0.303395 0.614337 0.235153
Si Si2 0.810684 0.854416 0.365404
Si Si3 0.500000 0.067241 0.364585
Si Si4 0.296110 0.567711 0.000000
Si Si5 0.198152 0.500000 0.632020
Si Si6 0.297241 0.725919 0.371269
O O1 0.500000 0.627886 0.217788
O O2 0.222682 0.601146 0.111406
O O3 0.283575 0.558062 0.316127
O O4 0.220924 0.672626 0.293869
O O5 0.795661 0.853665 0.500000
O O6 0.669215 0.899923 0.316921
O O7 0.775011 0.787675 0.321044
O O8 0.000000 0.874847 0.326719
O O9 0.500000 0.067757 0.500000
O O10 0.500000 0.000000 0.317722
O O11 0.227667 0.500000 0.000000
O O12 0.500000 0.566763 0.000000
O O13 0.237851 0.500000 0.500000
O O14 0.000000 0.500000 0.659932
O O15 0.233616 0.715382 0.500000
O O16 0.500000 0.728324 0.368632
#
# Coordination Sequence:
#
# PCOD8195708 Si02
#       6
#     8   8   4   4   4   8
#     4  10  19  32  51  68  85 116 153 190 233 285
#     4   9  16  26  41  60  86 121 156 192 232 271
#     4   9  16  26  40  60  90 124 159 194 220 260
#     4   9  16  30  50  70  88 110 148 193 234 283
#     4  11  23  34  43  62  92 115 142 193 244 283
#     4   9  16  27  43  63  86 114 152 193 233 280
#
# _framework density 17.317125999999998
#
# number of rings (size 3 to 8) (size 9 to 14) (size 15 to 20)
#    0.000    2.556    2.222    1.000    0.000    3.111 
#    0.000    5.556    0.000    0.000    0.000    0.000 
#    0.000    0.000    0.000    2.000    0.000    3.778 
#
# Total GULP energy -446247.142677 kJ/mol
# GULP energy per Si atom -12395.753963 kJ/mol
# Density = 1.727771 g / cm^3
# Si number density = 17.317126 Si / 1000 Ang^3
#
#
#
# Elastic Constant Matrix: (Units=GPa)
#
#
# Indices 1 2 3 4 5 6 
#
# 1 61.8888 49.5889 17.6904 0.0000 0.0000 0.0000
# 2 49.5889 159.5102 44.2317 0.0000 0.0000 0.0000
# 3 17.6904 44.2317 72.6586 0.0000 0.0000 0.0000
# 4 0.0000 0.0000 0.0000 6.5979 0.0000 0.0000
# 5 0.0000 0.0000 0.0000 0.0000 4.7356 0.0000
# 6 0.0000 0.0000 0.0000 0.0000 0.0000 7.9444
#
#
#
# Elastic Compliance Matrix: (Units=1/GPa)
#
#
# Indices 1 2 3 4 5 6 
#
# 1 0.021638 -0.006335 -0.001411 0.000000 0.000000 0.000000
# 2 -0.006335 0.009397 -0.004178 0.000000 0.000000 0.000000
# 3 -0.001411 -0.004178 0.016650 0.000000 0.000000 0.000000
# 4 0.000000 0.000000 0.000000 0.151562 0.000000 0.000000
# 5 0.000000 0.000000 0.000000 0.000000 0.211167 0.000000
# 6 0.000000 0.000000 0.000000 0.000000 0.000000 0.125875
#
#
# Mechanical properties :
#
#
# Convention : Reuss Voigt Hill
#
# Bulk Modulus (GPa) = 41.95496 57.45330 49.70413
# Shear Modulus (GPa) = 8.80149 16.02536 12.41342
#
# Velocity S-wave (km/s) = 2.25689 3.04535 2.68027
# Velocity P-wave (km/s) = 5.57418 6.75387 6.19218
#
# Compressibility (1/GPa) = 0.02383509
#
# Stress axis : x y z
#
# Youngs Moduli (GPa) = 46.21550 106.41275 60.05938
#
# Poissons Ratio (x) = 0.67417 0.08477
# Poissons Ratio (y) = 0.29279 0.25094
# Poissons Ratio (z) = 0.06523 0.44462
#
# Static dielectric constant tensor:
#      x y z
#    x 3.176380 0.000000 0.000000 
#    y 0.000000 3.357320 0.000000 
#    z 0.000000 0.000000 3.063000 
# 
# 
# High freq. dielectric constant tensor:
#      x y z
#    x 1.664860 0.000000 0.000000 
#    y 0.000000 1.666900 0.000000 
#    z 0.000000 0.000000 1.613920 
# 
# From -- ./inp_files/15020.got.cif
#   From: 2010.03.12/outbox.cif.g09.slc.cpg/sg47_8_cif.got.tgz:15020.got - 2010.04.14 03:12:58.
