data_PCOD8195949
_publ_section_title
;
Structure prediction by ZEFSAII (Michael W. Deem and Ramdas Pophale) SiO2 
 PCOD8195949
Probable space group: P M M M
;
_chemical_formula_sum "Si O2"
_cell_formula_units_Z 52
_cell_length_a 24.260697
_cell_length_b 14.466109
_cell_length_c 8.899336
_cell_angle_alpha 90.000000
_cell_angle_beta 90.000000
_cell_angle_gamma 90.000000
_cell_volume 3123.292160
_symmetry_space_group_name_H-M "P M M M"
_symmetry_group_IT_number 47
_symmetry_cell_setting 'orthorhombic'
loop_
_space_group_symop_operation_xyz
x,y,z
-x,-y,z
x,-y,-z
-x,y,-z
-x,-y,-z
x,y,-z
-x,y,z
x,-y,z
loop_
_atom_site_type_symbol
_atom_site_label
_atom_site_fract_x
_atom_site_fract_y
_atom_site_fract_z
Si Si1 0.778985 0.605903 0.821716
Si Si2 0.385352 0.105727 0.672409
Si Si3 0.500000 0.840773 0.176209
Si Si4 0.382734 0.399858 0.667838
Si Si5 0.000000 0.389594 0.830734
Si Si6 0.500000 0.656071 0.335659
Si Si7 0.317254 0.741740 0.825879
Si Si8 0.891540 0.390508 0.667994
O O1 0.765067 0.500000 0.767226
O O2 0.735622 0.683645 0.763395
O O3 0.837545 0.639431 0.759094
O O4 0.781096 0.606929 0.000000
O O5 0.393574 0.136182 0.500000
O O6 0.443964 0.116912 0.755048
O O7 0.333807 0.164117 0.740602
O O8 0.366477 0.000000 0.685829
O O9 0.500000 0.732058 0.205318
O O10 0.500000 0.862119 0.000000
O O11 0.364495 0.366608 0.500000
O O12 0.356327 0.500000 0.702120
O O13 0.448060 0.410663 0.677517
O O14 0.367361 0.327979 0.797022
O O15 0.945795 0.349844 0.748422
O O16 0.000000 0.500000 0.828938
O O17 0.000000 0.351916 0.000000
O O18 0.500000 0.706410 0.500000
O O19 0.310626 0.765474 0.000000
O O20 0.888108 0.349777 0.500000
O O21 0.896244 0.500000 0.663345
#
# Coordination Sequence:
#
# PCOD8195949 Si02
#       8
#     8   8   4   8   4   4   8   8
#     4   9  18  32  47  65  94 131 165 196 234 279
#     4  11  24  41  59  76  95 121 150 185 236 296
#     4  12  23  36  57  81  99 116 143 185 237 289
#     4  10  20  33  50  70  94 126 159 189 226 275
#     4   9  15  23  37  57  85 123 162 201 246 287
#     4  10  19  33  51  69  95 125 151 183 225 274
#     4  11  22  35  52  73  97 123 155 198 240 279
#     4   9  16  25  39  61  88 120 163 209 242 271
#
# _framework density 16.649099
#
# number of rings (size 3 to 8) (size 9 to 14) (size 15 to 20)
#    0.000    1.923    1.538    3.231    0.000    8.000 
#    0.000    1.538    0.000    1.385    0.000    0.000 
#    0.000    0.000    0.000    0.692    0.000   13.000 
#
# Total GULP energy -644358.697953 kJ/mol
# GULP energy per Si atom -12391.513422 kJ/mol
# Density = 1.661121 g / cm^3
# Si number density = 16.649099 Si / 1000 Ang^3
#
#
#
# Elastic Constant Matrix: (Units=GPa)
#
#
# Indices 1 2 3 4 5 6 
#
# 1 116.7222 33.1902 39.7202 0.0000 0.0000 0.0000
# 2 33.1902 73.9462 28.3745 0.0000 0.0000 0.0000
# 3 39.7202 28.3745 73.5714 0.0000 0.0000 0.0000
# 4 0.0000 0.0000 0.0000 14.5103 0.0000 0.0000
# 5 0.0000 0.0000 0.0000 0.0000 25.4572 0.0000
# 6 0.0000 0.0000 0.0000 0.0000 0.0000 7.5836
#
#
#
# Elastic Compliance Matrix: (Units=1/GPa)
#
#
# Indices 1 2 3 4 5 6 
#
# 1 0.011085 -0.003144 -0.004772 0.000000 0.000000 0.000000
# 2 -0.003144 0.016764 -0.004768 0.000000 0.000000 0.000000
# 3 -0.004772 -0.004768 0.018007 0.000000 0.000000 0.000000
# 4 0.000000 0.000000 0.000000 0.068917 0.000000 0.000000
# 5 0.000000 0.000000 0.000000 0.000000 0.039282 0.000000
# 6 0.000000 0.000000 0.000000 0.000000 0.000000 0.131863
#
#
# Mechanical properties :
#
#
# Convention : Reuss Voigt Hill
#
# Bulk Modulus (GPa) = 48.80852 51.86774 50.33813
# Shear Modulus (GPa) = 15.71748 20.37388 18.04568
#
# Velocity S-wave (km/s) = 3.07586 3.50197 3.29581
# Velocity P-wave (km/s) = 6.48030 6.89731 6.69205
#
# Compressibility (1/GPa) = 0.02048822
#
# Stress axis : x y z
#
# Youngs Moduli (GPa) = 90.20857 59.65088 55.53251
#
# Poissons Ratio (x) = 0.18757 0.26501
# Poissons Ratio (y) = 0.28366 0.26477
# Poissons Ratio (z) = 0.43049 0.28441
#
# Static dielectric constant tensor:
#      x y z
#    x 3.190190 0.000000 0.000000 
#    y 0.000000 2.863150 0.000000 
#    z 0.000000 0.000000 3.230780 
# 
# 
# High freq. dielectric constant tensor:
#      x y z
#    x 1.632020 0.000000 0.000000 
#    y 0.000000 1.597110 0.000000 
#    z 0.000000 0.000000 1.649530 
# 
# From -- ./inp_files/12609.got.cif
#   From: 2010.03.12/outbox.cif.g09.slc.cpg/sg47_7_cif.got.tgz:12609.got - 2010.04.14 03:12:58.
