data_PCOD8195780
_publ_section_title
;
Structure prediction by ZEFSAII (Michael W. Deem and Ramdas Pophale) SiO2 
 PCOD8195780
Probable space group: P M M M
;
_chemical_formula_sum "Si O2"
_cell_formula_units_Z 36
_cell_length_a 11.666055
_cell_length_b 9.096391
_cell_length_c 20.621787
_cell_angle_alpha 90.000000
_cell_angle_beta 90.000000
_cell_angle_gamma 90.000000
_cell_volume 2188.363367
_symmetry_space_group_name_H-M "P M M M"
_symmetry_group_IT_number 47
_symmetry_cell_setting 'orthorhombic'
loop_
_space_group_symop_operation_xyz
x,y,z
-x,-y,z
x,-y,-z
-x,y,-z
-x,-y,-z
x,y,-z
-x,y,z
x,-y,z
loop_
_atom_site_type_symbol
_atom_site_label
_atom_site_fract_x
_atom_site_fract_y
_atom_site_fract_z
Si Si1 0.368683 0.828623 0.746099
Si Si2 0.224898 0.173338 0.379806
Si Si3 0.373492 0.825780 0.500000
Si Si4 0.363681 0.665368 0.874385
Si Si5 0.363170 0.834077 0.000000
Si Si6 0.000000 0.674531 0.575312
O O1 0.500000 0.785423 0.728894
O O2 0.286566 0.785198 0.687086
O O3 0.321917 0.742315 0.808531
O O4 0.361369 0.000000 0.762199
O O5 0.307794 0.229213 0.436635
O O6 0.107936 0.261922 0.386200
O O7 0.199770 0.000000 0.385135
O O8 0.500000 0.755345 0.500000
O O9 0.383023 0.000000 0.500000
O O10 0.500000 0.666411 0.876976
O O11 0.315508 0.500000 0.876289
O O12 0.314625 0.752461 0.936359
O O13 0.500000 0.832282 0.000000
O O14 0.316447 0.000000 0.000000
O O15 0.000000 0.500000 0.579885
O O16 0.000000 0.726684 0.500000
#
# Coordination Sequence:
#
# PCOD8195780 Si02
#       6
#     8   8   4   8   4   4
#     4   9  17  29  45  68  96 123 152 190 236 282
#     4  10  19  32  52  72  91 118 155 195 234 281
#     4   9  16  27  47  74  96 115 146 189 232 275
#     4   9  16  25  38  58  87 124 160 190 224 273
#     4   9  15  23  37  57  83 118 159 200 233 263
#     4  11  23  37  51  67  91 120 153 196 243 285
#
# _framework density 16.450651000000001
#
# number of rings (size 3 to 8) (size 9 to 14) (size 15 to 20)
#    0.000    2.556    1.111    2.000    0.000    8.000 
#    0.000    0.000    0.000    2.667    0.000    0.000 
#    0.000    0.889    0.000    9.333    0.000    7.111 
#
# Total GULP energy -446390.870758 kJ/mol
# GULP energy per Si atom -12399.746410 kJ/mol
# Density = 1.641321 g / cm^3
# Si number density = 16.450651 Si / 1000 Ang^3
#
#
#
# Elastic Constant Matrix: (Units=GPa)
#
#
# Indices 1 2 3 4 5 6 
#
# 1 85.0049 36.9367 54.5046 0.0000 0.0000 0.0000
# 2 36.9367 86.4517 73.6597 0.0000 0.0000 0.0000
# 3 54.5046 73.6597 164.9428 0.0000 0.0000 0.0000
# 4 0.0000 0.0000 0.0000 24.0609 0.0000 0.0000
# 5 0.0000 0.0000 0.0000 0.0000 -59.8073 0.0000
# 6 0.0000 0.0000 0.0000 0.0000 0.0000 10.9504
#
#
#
# Elastic Compliance Matrix: (Units=1/GPa)
#
#
# Indices 1 2 3 4 5 6 
#
# 1 0.015617 -0.003673 -0.003520 0.000000 0.000000 0.000000
# 2 -0.003673 0.019536 -0.007510 0.000000 0.000000 0.000000
# 3 -0.003520 -0.007510 0.010580 0.000000 0.000000 0.000000
# 4 0.000000 0.000000 0.000000 0.041561 0.000000 0.000000
# 5 0.000000 0.000000 0.000000 0.000000 -0.016720 0.000000
# 6 0.000000 0.000000 0.000000 0.000000 0.000000 0.091321
#
#
# Mechanical properties :
#
#
# Convention : Reuss Voigt Hill
#
# Bulk Modulus (GPa) = 61.25499 74.06684 67.66091
# Shear Modulus (GPa) = 25.41370 6.46069 15.93720
#
# Velocity S-wave (km/s) = 3.93472 1.98390 3.11591
# Velocity P-wave (km/s) = 7.61309 7.09713 7.35963
#
# Compressibility (1/GPa) = 0.01632520
#
# Stress axis : x y z
#
# Youngs Moduli (GPa) = 64.03159 51.18865 94.51825
#
# Poissons Ratio (x) = 0.18802 0.33274
# Poissons Ratio (y) = 0.23519 0.70987
# Poissons Ratio (z) = 0.22541 0.38445
#
# Static dielectric constant tensor:
#      x y z
#    x 2.777310 0.000000 0.000000 
#    y 0.000000 3.058200 0.000000 
#    z 0.000000 0.000000 3.234060 
# 
# 
# High freq. dielectric constant tensor:
#      x y z
#    x 1.583130 0.000000 0.000000 
#    y 0.000000 1.628180 0.000000 
#    z 0.000000 0.000000 1.644600 
# 
# From -- ./inp_files/10607.got.cif
#   From: 2010.03.12/outbox.cif.g09.slc.cpg/sg47_6_cif.got.tgz:10607.got - 2010.04.14 03:12:58.
