data_PCOD8195416
_publ_section_title
;
Structure prediction by ZEFSAII (Michael W. Deem and Ramdas Pophale) SiO2 
 PCOD8195416
Probable space group: P M M M
;
_chemical_formula_sum "Si O2"
_cell_formula_units_Z 64
_cell_length_a 18.705755
_cell_length_b 20.807581
_cell_length_c 9.013185
_cell_angle_alpha 90.000000
_cell_angle_beta 90.000000
_cell_angle_gamma 90.000000
_cell_volume 3508.125497
_symmetry_space_group_name_H-M "P M M M"
_symmetry_group_IT_number 47
_symmetry_cell_setting 'orthorhombic'
loop_
_space_group_symop_operation_xyz
x,y,z
-x,-y,z
x,-y,-z
-x,y,-z
-x,-y,-z
x,y,-z
-x,y,z
x,-y,z
loop_
_atom_site_type_symbol
_atom_site_label
_atom_site_fract_x
_atom_site_fract_y
_atom_site_fract_z
Si Si1 0.658865 0.429635 0.172696
Si Si2 0.346890 0.697253 0.675510
Si Si3 0.183615 0.706114 0.672307
Si Si4 0.193939 0.568226 0.669488
Si Si5 0.681067 0.070759 0.176246
Si Si6 0.157800 0.925892 0.171508
Si Si7 0.417446 0.184704 0.827774
Si Si8 0.080345 0.814280 0.323856
O O1 0.623098 0.500000 0.205777
O O2 0.623153 0.371263 0.264243
O O3 0.741313 0.434267 0.217159
O O4 0.652809 0.413034 0.000000
O O5 0.351676 0.696698 0.500000
O O6 0.265254 0.709161 0.732304
O O7 0.397864 0.752013 0.737798
O O8 0.185172 0.721935 0.500000
O O9 0.150295 0.634139 0.702455
O O10 0.132379 0.759371 0.746971
O O11 0.223672 0.573794 0.500000
O O12 0.150257 0.500000 0.686334
O O13 0.761445 0.087865 0.227047
O O14 0.627119 0.124496 0.237911
O O15 0.659441 0.000000 0.238111
O O16 0.678134 0.068228 0.000000
O O17 0.103725 0.883788 0.266872
O O18 0.137714 0.000000 0.197274
O O19 0.149731 0.907182 0.000000
O O20 0.500000 0.168272 0.803580
O O21 0.399368 0.196258 0.000000
O O22 0.083730 0.814570 0.500000
O O23 0.000000 0.799821 0.269211
#
# Coordination Sequence:
#
# PCOD8195416 Si02
#       8
#     8   8   8   8   8   8   8   8
#     4   9  16  26  43  69  98 122 148 191 243 286
#     4  10  19  31  49  69  92 126 163 197 232 276
#     4   8  15  28  45  66  90 118 155 194 230 268
#     4   8  13  23  41  64  90 120 153 189 229 274
#     4   8  15  30  52  76  99 123 154 191 231 277
#     4   9  18  33  52  71  91 117 150 190 232 273
#     4  10  20  32  48  72 100 127 155 191 233 275
#     4  10  20  32  46  65  92 125 157 192 234 278
#
# _framework density 18.243361
#
# number of rings (size 3 to 8) (size 9 to 14) (size 15 to 20)
#    0.000    3.000    0.000    3.000    0.000    2.000 
#    0.000    5.000    0.000    1.875    0.000    6.125 
#    0.000    0.000    0.000   32.625    0.000   30.250 
#
# Total GULP energy -792922.865211 kJ/mol
# GULP energy per Si atom -12389.419769 kJ/mol
# Density = 1.820184 g / cm^3
# Si number density = 18.243361 Si / 1000 Ang^3
#
#
#
# Elastic Constant Matrix: (Units=GPa)
#
#
# Indices 1 2 3 4 5 6 
#
# 1 47.9764 34.1649 18.6399 0.0000 0.0000 0.0000
# 2 34.1649 123.5704 29.5654 0.0000 0.0000 0.0000
# 3 18.6399 29.5654 36.7859 0.0000 0.0000 0.0000
# 4 0.0000 0.0000 0.0000 23.4884 0.0000 0.0000
# 5 0.0000 0.0000 0.0000 0.0000 16.1291 0.0000
# 6 0.0000 0.0000 0.0000 0.0000 0.0000 7.8215
#
#
#
# Elastic Compliance Matrix: (Units=1/GPa)
#
#
# Indices 1 2 3 4 5 6 
#
# 1 0.028699 -0.005516 -0.010109 0.000000 0.000000 0.000000
# 2 -0.005516 0.011079 -0.006110 0.000000 0.000000 0.000000
# 3 -0.010109 -0.006110 0.037217 0.000000 0.000000 0.000000
# 4 0.000000 0.000000 0.000000 0.042574 0.000000 0.000000
# 5 0.000000 0.000000 0.000000 0.000000 0.062000 0.000000
# 6 0.000000 0.000000 0.000000 0.000000 0.000000 0.127853
#
#
# Mechanical properties :
#
#
# Convention : Reuss Voigt Hill
#
# Bulk Modulus (GPa) = 29.82720 41.45256 35.63988
# Shear Modulus (GPa) = 13.73374 17.88530 15.80952
#
# Velocity S-wave (km/s) = 2.74671 3.13449 2.94698
# Velocity P-wave (km/s) = 5.14241 5.98927 5.58192
#
# Compressibility (1/GPa) = 0.03352645
#
# Stress axis : x y z
#
# Youngs Moduli (GPa) = 34.84410 90.25720 26.86950
#
# Poissons Ratio (x) = 0.49788 0.27162
# Poissons Ratio (y) = 0.19221 0.16416
# Poissons Ratio (z) = 0.35223 0.55143
#
# Static dielectric constant tensor:
#      x y z
#    x 3.143970 0.000000 0.000000 
#    y 0.000000 3.946310 0.000000 
#    z 0.000000 0.000000 3.063980 
# 
# 
# High freq. dielectric constant tensor:
#      x y z
#    x 1.662680 0.000000 0.000000 
#    y 0.000000 1.733680 0.000000 
#    z 0.000000 0.000000 1.678890 
# 
# From -- ./inp_files/10052.got.cif
#   From: 2010.03.12/outbox.cif.g09.slc.cpg/sg47_6_cif.got.tgz:10052.got - 2010.04.14 03:12:58.
