data_PCOD8195991
_publ_section_title
;
Structure prediction by ZEFSAII (Michael W. Deem and Ramdas Pophale) SiO2 
 PCOD8195991
Probable space group: P M M M
;
_chemical_formula_sum "Si O2"
_cell_formula_units_Z 52
_cell_length_a 11.898589
_cell_length_b 29.640924
_cell_length_c 8.043426
_cell_angle_alpha 90.000000
_cell_angle_beta 90.000000
_cell_angle_gamma 90.000000
_cell_volume 2836.797084
_symmetry_space_group_name_H-M "P M M M"
_symmetry_group_IT_number 47
_symmetry_cell_setting 'orthorhombic'
loop_
_space_group_symop_operation_xyz
x,y,z
-x,-y,z
x,-y,-z
-x,y,-z
-x,-y,-z
x,y,-z
-x,y,z
x,-y,z
loop_
_atom_site_type_symbol
_atom_site_label
_atom_site_fract_x
_atom_site_fract_y
_atom_site_fract_z
Si Si1 0.500000 0.741613 0.182243
Si Si2 0.257243 0.634232 0.806925
Si Si3 0.367083 0.949752 0.000000
Si Si4 0.871822 0.277880 0.802797
Si Si5 0.500000 0.648206 0.313623
Si Si6 0.126957 0.450579 0.802179
Si Si7 0.295453 0.792206 0.688565
Si Si8 0.368478 0.109963 0.311212
O O1 0.500000 0.702415 0.318231
O O2 0.610314 0.771766 0.192836
O O3 0.500000 0.718564 0.000000
O O4 0.202186 0.680053 0.732021
O O5 0.389717 0.630670 0.778886
O O6 0.202238 0.589555 0.724806
O O7 0.229184 0.634451 0.000000
O O8 0.327979 0.925326 0.170648
O O9 0.500000 0.952668 0.000000
O O10 0.314687 0.000000 0.000000
O O11 0.823785 0.230948 0.729755
O O12 0.000000 0.283511 0.741756
O O13 0.865514 0.275618 0.000000
O O14 0.500000 0.629683 0.500000
O O15 0.168637 0.500000 0.738954
O O16 0.000000 0.442287 0.742211
O O17 0.133035 0.449762 0.000000
O O18 0.330806 0.782267 0.500000
O O19 0.291737 0.845882 0.718125
O O20 0.349336 0.091019 0.500000
O O21 0.500000 0.122495 0.288072
#
# Coordination Sequence:
#
# PCOD8195991 Si02
#       8
#     4   8   4   8   4   8   8   8
#     4  12  22  32  52  75  97 133 173 217 259 297
#     4  10  19  33  53  75 101 132 168 209 254 306
#     4   9  18  30  46  70 101 139 181 219 261 313
#     4  10  21  34  49  72 102 137 173 210 255 307
#     4  12  24  36  49  71 102 133 169 211 252 304
#     4   8  14  27  51  81 105 125 158 209 262 306
#     4  11  21  33  50  74 104 137 175 216 254 305
#     4   9  18  30  46  70 101 136 175 218 262 309
#
# _framework density 18.330531000000001
#
# number of rings (size 3 to 8) (size 9 to 14) (size 15 to 20)
#    0.000    2.077    2.308    2.769    2.154    2.462 
#    0.000    1.923    0.000    4.154    0.000    1.077 
#    0.000    1.231    0.000    3.385    0.000    0.154 
#
# Total GULP energy -644592.476541 kJ/mol
# GULP energy per Si atom -12396.009164 kJ/mol
# Density = 1.828881 g / cm^3
# Si number density = 18.330531 Si / 1000 Ang^3
#
#
#
# Elastic Constant Matrix: (Units=GPa)
#
#
# Indices 1 2 3 4 5 6 
#
# 1 98.9853 57.7771 17.6846 0.0000 0.0000 0.0000
# 2 57.7771 141.8957 45.6551 0.0000 0.0000 0.0000
# 3 17.6846 45.6551 63.1372 0.0000 0.0000 0.0000
# 4 0.0000 0.0000 0.0000 8.9600 0.0000 0.0000
# 5 0.0000 0.0000 0.0000 0.0000 6.7605 0.0000
# 6 0.0000 0.0000 0.0000 0.0000 0.0000 13.8587
#
#
#
# Elastic Compliance Matrix: (Units=1/GPa)
#
#
# Indices 1 2 3 4 5 6 
#
# 1 0.013255 -0.005477 0.000248 0.000000 0.000000 0.000000
# 2 -0.005477 0.011447 -0.006744 0.000000 0.000000 0.000000
# 3 0.000248 -0.006744 0.020645 0.000000 0.000000 0.000000
# 4 0.000000 0.000000 0.000000 0.111607 0.000000 0.000000
# 5 0.000000 0.000000 0.000000 0.000000 0.147917 0.000000
# 6 0.000000 0.000000 0.000000 0.000000 0.000000 0.072157
#
#
# Mechanical properties :
#
#
# Convention : Reuss Voigt Hill
#
# Bulk Modulus (GPa) = 46.72400 60.69464 53.70932
# Shear Modulus (GPa) = 12.25165 18.10928 15.18046
#
# Velocity S-wave (km/s) = 2.58810 3.14655 2.88088
# Velocity P-wave (km/s) = 5.87163 6.81059 6.35846
#
# Compressibility (1/GPa) = 0.02140228
#
# Stress axis : x y z
#
# Youngs Moduli (GPa) = 75.44267 87.35711 48.43677
#
# Poissons Ratio (x) = 0.47845 -0.01200
# Poissons Ratio (y) = 0.41319 0.32664
# Poissons Ratio (z) = -0.01869 0.58910
#
# Static dielectric constant tensor:
#      x y z
#    x 3.180870 0.000000 0.000000 
#    y 0.000000 3.555990 0.000000 
#    z 0.000000 0.000000 3.245560 
# 
# 
# High freq. dielectric constant tensor:
#      x y z
#    x 1.678650 0.000000 0.000000 
#    y 0.000000 1.701550 0.000000 
#    z 0.000000 0.000000 1.702380 
# 
# From -- ./inp_files/4869.got.cif
#   From: 2010.03.12/outbox.cif.g09.slc.cpg/sg47_3_cif.got.tgz:4869.got - 2010.04.14 03:12:58.
