data_PCOD8195333
_publ_section_title
;
Structure prediction by ZEFSAII (Michael W. Deem and Ramdas Pophale) SiO2 
 PCOD8195333
Probable space group: P M M M
;
_chemical_formula_sum "Si O2"
_cell_formula_units_Z 64
_cell_length_a 9.044948
_cell_length_b 18.928148
_cell_length_c 23.289374
_cell_angle_alpha 90.000000
_cell_angle_beta 90.000000
_cell_angle_gamma 90.000000
_cell_volume 3987.236651
_symmetry_space_group_name_H-M "P M M M"
_symmetry_group_IT_number 47
_symmetry_cell_setting 'orthorhombic'
loop_
_space_group_symop_operation_xyz
x,y,z
-x,-y,z
x,-y,-z
-x,y,-z
-x,-y,-z
x,y,-z
-x,y,z
x,-y,z
loop_
_atom_site_type_symbol
_atom_site_label
_atom_site_fract_x
_atom_site_fract_y
_atom_site_fract_z
Si Si1 0.669100 0.347159 0.164648
Si Si2 0.824314 0.294194 0.337767
Si Si3 0.174525 0.579243 0.064373
Si Si4 0.669889 0.211126 0.566364
Si Si5 0.170820 0.921113 0.253578
Si Si6 0.169587 0.079825 0.611982
Si Si7 0.326915 0.418731 0.718584
Si Si8 0.671204 0.786192 0.235722
O O1 0.500000 0.363128 0.150087
O O2 0.761653 0.363806 0.108201
O O3 0.721734 0.396657 0.217287
O O4 0.694280 0.265228 0.181287
O O5 0.767919 0.267488 0.399152
O O6 0.764092 0.373303 0.327519
O O7 0.764909 0.241204 0.289483
O O8 0.000000 0.294246 0.336517
O O9 0.229476 0.500000 0.079896
O O10 0.000000 0.582388 0.068145
O O11 0.227042 0.598841 0.000000
O O12 0.688340 0.230269 0.500000
O O13 0.500000 0.216709 0.585998
O O14 0.724389 0.131344 0.576928
O O15 0.203605 0.913539 0.320818
O O16 0.270476 0.864243 0.219358
O O17 0.000000 0.906261 0.240140
O O18 0.214126 0.000000 0.232878
O O19 0.000000 0.100905 0.599921
O O20 0.200191 0.000000 0.591076
O O21 0.500000 0.402398 0.710357
O O22 0.287988 0.500000 0.708082
O O23 0.500000 0.788361 0.253657
#
# Coordination Sequence:
#
# PCOD8195333 Si02
#       8
#     8   8   8   8   8   8   8   8
#     4   9  18  30  45  69  98 126 159 196 228 266
#     4  11  21  33  50  70  93 119 150 187 229 279
#     4   9  18  31  45  64  94 131 168 203 235 268
#     4  11  23  36  50  68  90 117 152 192 230 274
#     4   9  17  29  46  69  95 122 153 188 229 279
#     4   9  18  32  49  69  93 120 150 186 227 272
#     4   9  18  33  52  73  98 124 149 185 232 278
#     4  10  19  31  47  68  95 124 156 193 234 277
#
# _framework density 16.051217000000001
#
# number of rings (size 3 to 8) (size 9 to 14) (size 15 to 20)
#    0.000    2.375    1.250    4.125    0.000    5.500 
#    0.000    3.125    0.000    0.375    0.000    2.625 
#    0.000    0.500    0.000    5.500    0.000    4.000 
#
# Total GULP energy -793598.211041 kJ/mol
# GULP energy per Si atom -12399.972048 kJ/mol
# Density = 1.601468 g / cm^3
# Si number density = 16.051217 Si / 1000 Ang^3
#
#
#
# Elastic Constant Matrix: (Units=GPa)
#
#
# Indices 1 2 3 4 5 6 
#
# 1 88.7581 58.1115 43.2043 0.0000 0.0000 0.0000
# 2 58.1115 120.4266 47.5722 0.0000 0.0000 0.0000
# 3 43.2043 47.5722 72.7703 0.0000 0.0000 0.0000
# 4 0.0000 0.0000 0.0000 22.2174 0.0000 0.0000
# 5 0.0000 0.0000 0.0000 0.0000 23.0926 0.0000
# 6 0.0000 0.0000 0.0000 0.0000 0.0000 31.1341
#
#
#
# Elastic Compliance Matrix: (Units=1/GPa)
#
#
# Indices 1 2 3 4 5 6 
#
# 1 0.018825 -0.006294 -0.007062 0.000000 0.000000 0.000000
# 2 -0.006294 0.013299 -0.004957 0.000000 0.000000 0.000000
# 3 -0.007062 -0.004957 0.021175 0.000000 0.000000 0.000000
# 4 0.000000 0.000000 0.000000 0.045010 0.000000 0.000000
# 5 0.000000 0.000000 0.000000 0.000000 0.043304 0.000000
# 6 0.000000 0.000000 0.000000 0.000000 0.000000 0.032119
#
#
# Mechanical properties :
#
#
# Convention : Reuss Voigt Hill
#
# Bulk Modulus (GPa) = 59.97743 64.41458 62.19600
# Shear Modulus (GPa) = 23.15708 24.15994 23.65851
#
# Velocity S-wave (km/s) = 3.80241 3.88387 3.84336
# Velocity P-wave (km/s) = 7.53161 7.76726 7.65034
#
# Compressibility (1/GPa) = 0.01667294
#
# Stress axis : x y z
#
# Youngs Moduli (GPa) = 53.12082 75.19144 47.22507
#
# Poissons Ratio (x) = 0.47328 0.33349
# Poissons Ratio (y) = 0.33436 0.23411
# Poissons Ratio (z) = 0.37513 0.37274
#
# Static dielectric constant tensor:
#      x y z
#    x 3.023180 0.000000 0.000000 
#    y 0.000000 3.198770 0.000000 
#    z 0.000000 0.000000 2.776570 
# 
# 
# High freq. dielectric constant tensor:
#      x y z
#    x 1.621560 0.000000 0.000000 
#    y 0.000000 1.618080 0.000000 
#    z 0.000000 0.000000 1.579710 
# 
# From -- ./inp_files/30118.got.cif
#   From: 2010.03.12/outbox.cif.g09.slc.cpg/sg47_16_cif.got.tgz:30118.got - 2010.04.14 03:12:58.
