data_PCOD8195019
_publ_section_title
;
Structure prediction by ZEFSAII (Michael W. Deem and Ramdas Pophale) SiO2 
 PCOD8195019
Probable space group: P M M M
;
_chemical_formula_sum "Si O2"
_cell_formula_units_Z 56
_cell_length_a 28.956848
_cell_length_b 9.548728
_cell_length_c 13.620527
_cell_angle_alpha 90.000000
_cell_angle_beta 90.000000
_cell_angle_gamma 90.000000
_cell_volume 3766.090225
_symmetry_space_group_name_H-M "P M M M"
_symmetry_group_IT_number 47
_symmetry_cell_setting 'orthorhombic'
loop_
_space_group_symop_operation_xyz
x,y,z
-x,-y,z
x,-y,-z
-x,y,-z
-x,-y,-z
x,y,-z
-x,y,z
x,-y,z
loop_
_atom_site_type_symbol
_atom_site_label
_atom_site_fract_x
_atom_site_fract_y
_atom_site_fract_z
Si Si1 0.949263 0.656495 0.883329
Si Si2 0.131559 0.845952 0.883683
Si Si3 0.404116 0.338453 0.111610
Si Si4 0.311230 0.664124 0.225336
Si Si5 0.551456 0.839635 0.728776
Si Si6 0.358837 0.837353 0.613528
Si Si7 0.235462 0.836060 0.114111
O O1 0.943719 0.500000 0.842007
O O2 0.907929 0.747662 0.836616
O O3 0.000000 0.716020 0.853390
O O4 0.944994 0.654924 0.000000
O O5 0.183014 0.793980 0.857876
O O6 0.123728 0.000000 0.839245
O O7 0.126261 0.851987 0.000000
O O8 0.417732 0.500000 0.121623
O O9 0.352406 0.311509 0.148830
O O10 0.440747 0.251505 0.174134
O O11 0.406839 0.286593 0.000000
O O12 0.301780 0.500000 0.243940
O O13 0.323386 0.739157 0.327903
O O14 0.266375 0.736937 0.180989
O O15 0.500000 0.809623 0.687419
O O16 0.588481 0.801815 0.644681
O O17 0.556918 0.000000 0.761127
O O18 0.353450 0.800205 0.500000
O O19 0.347364 0.000000 0.634634
O O20 0.244716 0.000000 0.136176
O O21 0.245324 0.804526 0.000000
#
# Coordination Sequence:
#
# PCOD8195019 Si02
#       7
#     8   8   8   8   8   8   8
#     4   8  13  20  29  42  62  90 126 168 209 243
#     4   8  14  23  33  47  68  95 129 167 204 240
#     4   9  18  31  44  59  82 111 139 164 191 228
#     4  10  19  30  45  64  84 105 133 168 203 241
#     4   9  18  31  46  66  88 106 129 162 196 231
#     4   9  18  33  51  67  83 105 131 159 196 242
#     4   9  17  28  41  58  82 110 138 170 207 245
#
# _framework density 14.869533000000001
#
# number of rings (size 3 to 8) (size 9 to 14) (size 15 to 20)
#    0.000    3.143    0.000    2.143    0.000    3.714 
#    0.000    5.714    0.000    0.000    0.000    4.000 
#    0.000    0.000    0.000    0.000    0.000    0.714 
#
# Total GULP energy -694142.838227 kJ/mol
# GULP energy per Si atom -12395.407825 kJ/mol
# Density = 1.483569 g / cm^3
# Si number density = 14.869533 Si / 1000 Ang^3
#
#
#
# Elastic Constant Matrix: (Units=GPa)
#
#
# Indices 1 2 3 4 5 6 
#
# 1 114.1875 62.8966 38.0855 0.0000 0.0000 0.0000
# 2 62.8966 78.1005 42.0046 0.0000 0.0000 0.0000
# 3 38.0855 42.0046 69.1060 0.0000 0.0000 0.0000
# 4 0.0000 0.0000 0.0000 17.3537 0.0000 0.0000
# 5 0.0000 0.0000 0.0000 0.0000 8.9981 0.0000
# 6 0.0000 0.0000 0.0000 0.0000 0.0000 27.2398
#
#
#
# Elastic Compliance Matrix: (Units=1/GPa)
#
#
# Indices 1 2 3 4 5 6 
#
# 1 0.015837 -0.011974 -0.001450 0.000000 0.000000 0.000000
# 2 -0.011974 0.028076 -0.010466 0.000000 0.000000 0.000000
# 3 -0.001450 -0.010466 0.021631 0.000000 0.000000 0.000000
# 4 0.000000 0.000000 0.000000 0.057625 0.000000 0.000000
# 5 0.000000 0.000000 0.000000 0.000000 0.111134 0.000000
# 6 0.000000 0.000000 0.000000 0.000000 0.000000 0.036711
#
#
# Mechanical properties :
#
#
# Convention : Reuss Voigt Hill
#
# Bulk Modulus (GPa) = 56.29419 60.81860 58.55639
# Shear Modulus (GPa) = 15.39811 18.61213 17.00512
#
# Velocity S-wave (km/s) = 3.22148 3.54177 3.38542
# Velocity P-wave (km/s) = 7.19571 7.59709 7.39912
#
# Compressibility (1/GPa) = 0.01776382
#
# Stress axis : x y z
#
# Youngs Moduli (GPa) = 63.14522 35.61755 46.22943
#
# Poissons Ratio (x) = 0.42648 0.06702
# Poissons Ratio (y) = 0.75610 0.48385
# Poissons Ratio (z) = 0.09154 0.37279
#
# Static dielectric constant tensor:
#      x y z
#    x 2.984510 0.000000 0.000000 
#    y 0.000000 3.034560 0.000000 
#    z 0.000000 0.000000 2.511300 
# 
# 
# High freq. dielectric constant tensor:
#      x y z
#    x 1.570310 0.000000 0.000000 
#    y 0.000000 1.574420 0.000000 
#    z 0.000000 0.000000 1.516890 
# 
# From -- ./inp_files/14226.got.cif
#   From: 2010.03.12/outbox.cif.g09.slc.cpg/sg47_8_cif.got.tgz:14226.got - 2010.04.14 03:12:58.
