data_PCOD8195170
_publ_section_title
;
Structure prediction by ZEFSAII (Michael W. Deem and Ramdas Pophale) SiO2 
 PCOD8195170
Probable space group: P M M M
;
_chemical_formula_sum "Si O2"
_cell_formula_units_Z 36
_cell_length_a 7.924292
_cell_length_b 8.274621
_cell_length_c 26.931634
_cell_angle_alpha 90.000000
_cell_angle_beta 90.000000
_cell_angle_gamma 90.000000
_cell_volume 1765.921057
_symmetry_space_group_name_H-M "P M M M"
_symmetry_group_IT_number 47
_symmetry_cell_setting 'orthorhombic'
loop_
_space_group_symop_operation_xyz
x,y,z
-x,-y,z
x,-y,-z
-x,y,-z
-x,-y,-z
x,y,-z
-x,y,z
x,-y,z
loop_
_atom_site_type_symbol
_atom_site_label
_atom_site_fract_x
_atom_site_fract_y
_atom_site_fract_z
Si Si1 0.194973 0.184719 0.103264
Si Si2 0.000000 0.192150 0.729865
Si Si3 0.686990 0.692156 0.555963
Si Si4 0.000000 0.308680 0.381615
Si Si5 0.698148 0.182458 0.000000
Si Si6 0.313427 0.192095 0.793560
O O1 0.237087 0.271455 0.050456
O O2 0.290464 0.263164 0.150516
O O3 0.000000 0.198110 0.115933
O O4 0.255880 0.000000 0.097924
O O5 0.000000 0.258730 0.674945
O O6 0.831730 0.260048 0.757159
O O7 0.000000 0.000000 0.729044
O O8 0.722838 0.753075 0.500000
O O9 0.500000 0.751693 0.573224
O O10 0.691701 0.500000 0.556947
O O11 0.831849 0.763249 0.592018
O O12 0.000000 0.500000 0.386570
O O13 0.500000 0.184614 0.000000
O O14 0.772279 0.000000 0.000000
O O15 0.500000 0.242558 0.774042
O O16 0.294065 0.000000 0.796246
#
# Coordination Sequence:
#
# PCOD8195170 Si02
#       6
#     8   4   8   4   4   8
#     4   9  14  21  32  47  69  98 134 176 219 264
#     4  10  20  33  45  62  88 118 154 191 222 258
#     4   8  14  26  46  72  98 121 147 180 217 260
#     4  10  19  30  48  72  95 119 149 185 224 260
#     4   9  15  19  25  43  69  97 131 169 215 270
#     4   9  16  27  42  56  74 107 149 186 219 261
#
# _framework density 20.385960000000001
#
# number of rings (size 3 to 8) (size 9 to 14) (size 15 to 20)
#    0.000    3.000    1.111    2.000    0.000    6.222 
#    0.000    0.000    0.000    1.333    0.000    1.556 
#    0.000    0.000    0.000    2.000    0.000    7.333 
#
# Total GULP energy -446050.435207 kJ/mol
# GULP energy per Si atom -12390.289867 kJ/mol
# Density = 2.033956 g / cm^3
# Si number density = 20.385960 Si / 1000 Ang^3
#
#
#
# Elastic Constant Matrix: (Units=GPa)
#
#
# Indices 1 2 3 4 5 6 
#
# 1 176.1690 4.6439 105.4344 0.0000 0.0000 0.0000
# 2 4.6439 2.6141 0.9350 0.0000 0.0000 0.0000
# 3 105.4344 0.9350 176.7485 0.0000 0.0000 0.0000
# 4 0.0000 0.0000 0.0000 30.5552 0.0000 0.0000
# 5 0.0000 0.0000 0.0000 0.0000 29.5999 0.0000
# 6 0.0000 0.0000 0.0000 0.0000 0.0000 3.7350
#
#
#
# Elastic Compliance Matrix: (Units=1/GPa)
#
#
# Indices 1 2 3 4 5 6 
#
# 1 0.009357 -0.014653 -0.005504 0.000000 0.000000 0.000000
# 2 -0.014653 0.406217 0.006592 0.000000 0.000000 0.000000
# 3 -0.005504 0.006592 0.008906 0.000000 0.000000 0.000000
# 4 0.000000 0.000000 0.000000 0.032728 0.000000 0.000000
# 5 0.000000 0.000000 0.000000 0.000000 0.033784 0.000000
# 6 0.000000 0.000000 0.000000 0.000000 0.000000 0.267737
#
#
# Mechanical properties :
#
#
# Convention : Reuss Voigt Hill
#
# Bulk Modulus (GPa) = 2.51667 64.17313 33.34490
# Shear Modulus (GPa) = 5.44479 29.07922 17.26201
#
# Velocity S-wave (km/s) = 1.63605 3.78091 2.91307
# Velocity P-wave (km/s) = 2.19227 7.11392 5.26374
#
# Compressibility (1/GPa) = 0.39734986
#
# Stress axis : x y z
#
# Youngs Moduli (GPa) = 106.87577 2.46174 112.28249
#
# Poissons Ratio (x) = 0.03607 0.61800
# Poissons Ratio (y) = 1.56608 -0.74018
# Poissons Ratio (z) = 0.58824 -0.01623
#
# Static dielectric constant tensor:
#      x y z
#    x 4.020200 0.000000 0.000000 
#    y 0.000000 2.796490 0.000000 
#    z 0.000000 0.000000 3.992380 
# 
# 
# High freq. dielectric constant tensor:
#      x y z
#    x 1.814570 0.000000 0.000000 
#    y 0.000000 1.697790 0.000000 
#    z 0.000000 0.000000 1.804240 
# 
# From -- ./inp_files/29295.got.cif
#   From: 2010.03.12/outbox.cif.g09.slc.cpg/sg47_15_cif.got.tgz:29295.got - 2010.04.14 03:12:58.
