data_PCOD8195130
_publ_section_title
;
Structure prediction by ZEFSAII (Michael W. Deem and Ramdas Pophale) SiO2 
 PCOD8195130
Probable space group: P M M M
;
_chemical_formula_sum "Si O2"
_cell_formula_units_Z 48
_cell_length_a 23.907070
_cell_length_b 8.906900
_cell_length_c 13.791939
_cell_angle_alpha 90.000000
_cell_angle_beta 90.000000
_cell_angle_gamma 90.000000
_cell_volume 2936.826276
_symmetry_space_group_name_H-M "P M M M"
_symmetry_group_IT_number 47
_symmetry_cell_setting 'orthorhombic'
loop_
_space_group_symop_operation_xyz
x,y,z
-x,-y,z
x,-y,-z
-x,y,-z
-x,-y,-z
x,y,-z
-x,y,z
x,-y,z
loop_
_atom_site_type_symbol
_atom_site_label
_atom_site_fract_x
_atom_site_fract_y
_atom_site_fract_z
Si Si1 0.232571 0.177321 0.393745
Si Si2 0.276180 0.674323 0.888287
Si Si3 0.339851 0.823164 0.723439
Si Si4 0.564496 0.673607 0.610522
Si Si5 0.061306 0.821610 0.109071
Si Si6 0.827988 0.821381 0.206998
O O1 0.222098 0.250530 0.500000
O O2 0.292992 0.228101 0.354212
O O3 0.184861 0.229732 0.317676
O O4 0.231255 0.000000 0.403523
O O5 0.270706 0.500000 0.862851
O O6 0.326544 0.745283 0.825915
O O7 0.217166 0.752528 0.865736
O O8 0.291331 0.701187 0.000000
O O9 0.399843 0.773007 0.684283
O O10 0.339221 0.000000 0.740067
O O11 0.576470 0.723667 0.500000
O O12 0.500000 0.701557 0.636358
O O13 0.580226 0.500000 0.624110
O O14 0.110298 0.760553 0.179122
O O15 0.000000 0.765293 0.145304
O O16 0.062172 0.000000 0.108970
O O17 0.072153 0.762698 0.000000
O O18 0.823569 0.000000 0.196541
#
# Coordination Sequence:
#
# PCOD8195130 Si02
#       6
#     8   8   8   8   8   8
#     4   8  14  24  38  59  86 112 138 172 216 259
#     4  10  20  32  46  65  90 118 145 178 226 280
#     4  10  19  30  47  69  91 118 152 189 225 262
#     4   9  18  32  49  70  98 130 158 184 219 264
#     4   8  13  21  35  57  83 109 140 181 225 266
#     4   9  16  26  43  64  84 111 147 184 219 260
#
# _framework density 16.344175
#
# number of rings (size 3 to 8) (size 9 to 14) (size 15 to 20)
#    0.000    3.000    0.000    4.000    0.000    3.333 
#    0.000    0.833    0.000    6.000    0.000    9.333 
#    0.000    0.000    0.000    6.000    0.000    7.333 
#
# Total GULP energy -594959.606506 kJ/mol
# GULP energy per Si atom -12394.991802 kJ/mol
# Density = 1.630698 g / cm^3
# Si number density = 16.344175 Si / 1000 Ang^3
#
#
#
# Elastic Constant Matrix: (Units=GPa)
#
#
# Indices 1 2 3 4 5 6 
#
# 1 112.4386 29.6374 64.5749 0.0000 0.0000 0.0000
# 2 29.6374 43.9803 34.8300 0.0000 0.0000 0.0000
# 3 64.5749 34.8300 117.1854 0.0000 0.0000 0.0000
# 4 0.0000 0.0000 0.0000 17.9951 0.0000 0.0000
# 5 0.0000 0.0000 0.0000 0.0000 28.7031 0.0000
# 6 0.0000 0.0000 0.0000 0.0000 0.0000 12.3882
#
#
#
# Elastic Compliance Matrix: (Units=1/GPa)
#
#
# Indices 1 2 3 4 5 6 
#
# 1 0.013585 -0.004219 -0.006232 0.000000 0.000000 0.000000
# 2 -0.004219 0.031047 -0.006903 0.000000 0.000000 0.000000
# 3 -0.006232 -0.006903 0.014019 0.000000 0.000000 0.000000
# 4 0.000000 0.000000 0.000000 0.055571 0.000000 0.000000
# 5 0.000000 0.000000 0.000000 0.000000 0.034839 0.000000
# 6 0.000000 0.000000 0.000000 0.000000 0.000000 0.080722
#
#
# Mechanical properties :
#
#
# Convention : Reuss Voigt Hill
#
# Bulk Modulus (GPa) = 41.76510 59.07653 50.42082
# Shear Modulus (GPa) = 18.35044 21.45476 19.90260
#
# Velocity S-wave (km/s) = 3.35438 3.62703 3.49337
# Velocity P-wave (km/s) = 6.37271 7.33241 6.86934
#
# Compressibility (1/GPa) = 0.02394343
#
# Stress axis : x y z
#
# Youngs Moduli (GPa) = 73.61079 32.20877 71.33034
#
# Poissons Ratio (x) = 0.13590 0.44453
# Poissons Ratio (y) = 0.31058 0.49239
# Poissons Ratio (z) = 0.45874 0.22233
#
# Static dielectric constant tensor:
#      x y z
#    x 3.198880 0.000000 0.000000 
#    y 0.000000 2.816210 0.000000 
#    z 0.000000 0.000000 3.255490 
# 
# 
# High freq. dielectric constant tensor:
#      x y z
#    x 1.621320 0.000000 0.000000 
#    y 0.000000 1.603750 0.000000 
#    z 0.000000 0.000000 1.622480 
# 
# From -- ./inp_files/7498.got.cif
#   From: 2010.03.12/outbox.cif.g09.slc.cpg/sg47_4_cif.got.tgz:7498.got - 2010.04.14 03:12:58.
