data_PCOD8195759
_publ_section_title
;
Structure prediction by ZEFSAII (Michael W. Deem and Ramdas Pophale) SiO2 
 PCOD8195759
Probable space group: P M M M
;
_chemical_formula_sum "Si O2"
_cell_formula_units_Z 48
_cell_length_a 8.650956
_cell_length_b 29.748074
_cell_length_c 9.628394
_cell_angle_alpha 90.000000
_cell_angle_beta 90.000000
_cell_angle_gamma 90.000000
_cell_volume 2477.860256
_symmetry_space_group_name_H-M "P M M M"
_symmetry_group_IT_number 47
_symmetry_cell_setting 'orthorhombic'
loop_
_space_group_symop_operation_xyz
x,y,z
-x,-y,z
x,-y,-z
-x,y,-z
-x,-y,-z
x,y,-z
-x,y,z
x,-y,z
loop_
_atom_site_type_symbol
_atom_site_label
_atom_site_fract_x
_atom_site_fract_y
_atom_site_fract_z
Si Si1 0.816538 0.450506 0.500000
Si Si2 0.315702 0.130694 0.341739
Si Si3 0.816446 0.550774 0.000000
Si Si4 0.682978 0.702174 0.658532
Si Si5 0.316171 0.949887 0.844406
Si Si6 0.316026 0.785597 0.840660
Si Si7 0.816966 0.609689 0.252991
O O1 0.741409 0.500000 0.500000
O O2 0.756190 0.422183 0.627227
O O3 0.000000 0.455143 0.500000
O O4 0.251507 0.134519 0.500000
O O5 0.500000 0.131077 0.346263
O O6 0.252139 0.085026 0.270007
O O7 0.255256 0.171323 0.245173
O O8 0.757091 0.581021 0.124805
O O9 0.746005 0.500000 0.000000
O O10 0.000000 0.545992 0.000000
O O11 0.749440 0.705011 0.500000
O O12 0.500000 0.703869 0.651258
O O13 0.745937 0.742743 0.754107
O O14 0.735703 0.657504 0.736946
O O15 0.500000 0.948669 0.843464
O O16 0.257593 0.000000 0.805458
O O17 0.258693 0.936890 0.000000
O O18 0.500000 0.785618 0.846259
O O19 0.251763 0.785550 0.000000
O O20 0.000000 0.617686 0.253832
#
# Coordination Sequence:
#
# PCOD8195759 Si02
#       7
#     4   8   4   8   8   8   8
#     4   9  16  28  49  73  93 117 151 183 212 257
#     4   9  15  22  33  49  70  96 131 177 222 264
#     4   9  18  32  51  75  99 121 149 187 224 259
#     4  10  20  33  48  67  93 121 150 188 231 271
#     4   8  13  20  29  42  63  93 129 171 219 267
#     4   9  17  28  42  58  76 105 144 181 219 267
#     4  10  19  32  51  74  97 121 150 185 224 267
#
# _framework density 19.371552999999999
#
# number of rings (size 3 to 8) (size 9 to 14) (size 15 to 20)
#    0.000    2.833    0.833    2.000    1.167    6.333 
#    0.000    1.667    0.000    3.000    0.000    0.000 
#    0.000    0.000    0.000    0.000    0.000    0.833 
#
# Total GULP energy -594764.112533 kJ/mol
# GULP energy per Si atom -12390.919011 kJ/mol
# Density = 1.932746 g / cm^3
# Si number density = 19.371553 Si / 1000 Ang^3
#
#
#
# Elastic Constant Matrix: (Units=GPa)
#
#
# Indices 1 2 3 4 5 6 
#
# 1 2.3806 5.3484 5.6751 0.0000 0.0000 0.0000
# 2 5.3484 197.2798 112.1660 0.0000 0.0000 0.0000
# 3 5.6751 112.1660 196.5705 0.0000 0.0000 0.0000
# 4 0.0000 0.0000 0.0000 55.9438 0.0000 0.0000
# 5 0.0000 0.0000 0.0000 0.0000 10.1116 0.0000
# 6 0.0000 0.0000 0.0000 0.0000 0.0000 -15.9156
#
#
#
# Elastic Compliance Matrix: (Units=1/GPa)
#
#
# Indices 1 2 3 4 5 6 
#
# 1 0.458010 -0.007252 -0.009085 0.000000 0.000000 0.000000
# 2 -0.007252 0.007618 -0.004138 0.000000 0.000000 0.000000
# 3 -0.009085 -0.004138 0.007710 0.000000 0.000000 0.000000
# 4 0.000000 0.000000 0.000000 0.017875 0.000000 0.000000
# 5 0.000000 0.000000 0.000000 0.000000 0.098896 0.000000
# 6 0.000000 0.000000 0.000000 0.000000 0.000000 -0.062832
#
#
# Mechanical properties :
#
#
# Convention : Reuss Voigt Hill
#
# Bulk Modulus (GPa) = 2.31273 71.40112 36.85692
# Shear Modulus (GPa) = 7.01895 28.23073 17.62484
#
# Velocity S-wave (km/s) = 1.90557 3.82164 3.01961
# Velocity P-wave (km/s) = 2.45725 7.51079 5.58794
#
# Compressibility (1/GPa) = 0.43238983
#
# Stress axis : x y z
#
# Youngs Moduli (GPa) = 2.18336 131.26767 129.69328
#
# Poissons Ratio (x) = 0.95190 1.17829
# Poissons Ratio (y) = 0.01583 0.53662
# Poissons Ratio (z) = 0.01984 0.54313
#
# Static dielectric constant tensor:
#      x y z
#    x 2.705550 0.000000 0.000000 
#    y 0.000000 3.837350 0.000000 
#    z 0.000000 0.000000 3.910590 
# 
# 
# High freq. dielectric constant tensor:
#      x y z
#    x 1.667390 0.000000 0.000000 
#    y 0.000000 1.773060 0.000000 
#    z 0.000000 0.000000 1.770780 
# 
# From -- ./inp_files/2722.got.cif
#   From: 2010.03.12/outbox.cif.g09.slc.cpg/sg47_2_cif.got.tgz:2722.got - 2010.04.14 03:12:58.
