data_PCOD8195086
_publ_section_title
;
Structure prediction by ZEFSAII (Michael W. Deem and Ramdas Pophale) SiO2 
 PCOD8195086
Probable space group: P M M M
;
_chemical_formula_sum "Si O2"
_cell_formula_units_Z 64
_cell_length_a 18.592234
_cell_length_b 20.563423
_cell_length_c 9.273840
_cell_angle_alpha 90.000000
_cell_angle_beta 90.000000
_cell_angle_gamma 90.000000
_cell_volume 3545.574252
_symmetry_space_group_name_H-M "P M M M"
_symmetry_group_IT_number 47
_symmetry_cell_setting 'orthorhombic'
loop_
_space_group_symop_operation_xyz
x,y,z
-x,-y,z
x,-y,-z
-x,y,-z
-x,-y,-z
x,y,-z
-x,y,z
x,-y,z
loop_
_atom_site_type_symbol
_atom_site_label
_atom_site_fract_x
_atom_site_fract_y
_atom_site_fract_z
Si Si1 0.322799 0.071825 0.828267
Si Si2 0.674801 0.689975 0.171187
Si Si3 0.580638 0.812290 0.171296
Si Si4 0.082335 0.815191 0.332549
Si Si5 0.824739 0.691289 0.329050
Si Si6 0.580110 0.427851 0.828823
Si Si7 0.080493 0.427628 0.328882
Si Si8 0.838964 0.925306 0.832193
O O1 0.378283 0.124611 0.765100
O O2 0.242090 0.088431 0.776016
O O3 0.345626 0.000000 0.773077
O O4 0.323249 0.072606 0.000000
O O5 0.622961 0.748303 0.219687
O O6 0.749648 0.698281 0.249913
O O7 0.637596 0.623960 0.228982
O O8 0.687346 0.689623 0.000000
O O9 0.500000 0.810330 0.235387
O O10 0.577427 0.816349 0.000000
O O11 0.093417 0.828982 0.500000
O O12 0.127989 0.753012 0.283003
O O13 0.105908 0.879801 0.250579
O O14 0.000000 0.799690 0.295213
O O15 0.812698 0.688077 0.500000
O O16 0.864347 0.626350 0.269880
O O17 0.500000 0.411929 0.769498
O O18 0.603819 0.500000 0.777977
O O19 0.577475 0.424083 0.000000
O O20 0.077998 0.423241 0.500000
O O21 0.105832 0.500000 0.280246
O O22 0.000000 0.413883 0.269168
O O23 0.860074 0.000000 0.802206
O O24 0.844755 0.908979 0.000000
#
# Coordination Sequence:
#
# PCOD8195086 Si02
#       8
#     8   8   8   8   8   8   8   8
#     4   8  14  25  41  62  89 118 145 177 221 269
#     4  10  19  30  46  68  93 121 154 192 232 274
#     4   9  16  25  40  63  88 115 150 189 223 258
#     4  10  21  35  50  69  94 124 158 197 237 276
#     4  10  20  33  49  70  96 124 155 193 237 283
#     4   8  14  26  45  68  93 122 157 195 233 276
#     4   8  14  27  49  73  93 117 153 194 233 276
#     4   9  18  33  52  73  98 127 156 188 231 283
#
# _framework density 18.050673
#
# number of rings (size 3 to 8) (size 9 to 14) (size 15 to 20)
#    0.000    3.000    0.000    3.000    0.000    6.000 
#    0.000    2.500    0.000    2.625    0.000    1.750 
#    0.000    0.000    0.000   10.750    0.000    8.750 
#
# Total GULP energy -793361.594859 kJ/mol
# GULP energy per Si atom -12396.274920 kJ/mol
# Density = 1.800959 g / cm^3
# Si number density = 18.050673 Si / 1000 Ang^3
#
#
#
# Elastic Constant Matrix: (Units=GPa)
#
#
# Indices 1 2 3 4 5 6 
#
# 1 140.9271 92.6101 35.1130 0.0000 0.0000 0.0000
# 2 92.6101 152.5303 32.7303 0.0000 0.0000 0.0000
# 3 35.1130 32.7303 19.1284 0.0000 0.0000 0.0000
# 4 0.0000 0.0000 0.0000 12.9766 0.0000 0.0000
# 5 0.0000 0.0000 0.0000 0.0000 15.7972 0.0000
# 6 0.0000 0.0000 0.0000 0.0000 0.0000 41.4565
#
#
#
# Elastic Compliance Matrix: (Units=1/GPa)
#
#
# Indices 1 2 3 4 5 6 
#
# 1 0.015265 -0.005144 -0.019219 0.000000 0.000000 0.000000
# 2 -0.005144 0.012093 -0.011250 0.000000 0.000000 0.000000
# 3 -0.019219 -0.011250 0.106807 0.000000 0.000000 0.000000
# 4 0.000000 0.000000 0.000000 0.077062 0.000000 0.000000
# 5 0.000000 0.000000 0.000000 0.000000 0.063302 0.000000
# 6 0.000000 0.000000 0.000000 0.000000 0.000000 0.024122
#
#
# Mechanical properties :
#
#
# Convention : Reuss Voigt Hill
#
# Bulk Modulus (GPa) = 15.88832 70.38808 43.13820
# Shear Modulus (GPa) = 12.79239 24.18819 18.49029
#
# Velocity S-wave (km/s) = 2.66502 3.66459 3.20403
# Velocity P-wave (km/s) = 4.27679 7.54884 6.13498
#
# Compressibility (1/GPa) = 0.06293932
#
# Stress axis : x y z
#
# Youngs Moduli (GPa) = 65.50986 82.68922 9.36268
#
# Poissons Ratio (x) = 0.42537 0.17994
# Poissons Ratio (y) = 0.33700 0.10533
# Poissons Ratio (z) = 1.25902 0.93026
#
# Static dielectric constant tensor:
#      x y z
#    x 3.457260 0.000000 0.000000 
#    y 0.000000 3.692620 0.000000 
#    z 0.000000 0.000000 2.738630 
# 
# 
# High freq. dielectric constant tensor:
#      x y z
#    x 1.704720 0.000000 0.000000 
#    y 0.000000 1.718030 0.000000 
#    z 0.000000 0.000000 1.633890 
# 
# From -- ./inp_files/11555.got.cif
#   From: 2010.03.12/outbox.cif.g09.slc.cpg/sg47_6_cif.got.tgz:11555.got - 2010.04.14 03:12:58.
