data_PCOD8195446
_publ_section_title
;
Structure prediction by ZEFSAII (Michael W. Deem and Ramdas Pophale) SiO2 
 PCOD8195446
Probable space group: P M M M
;
_chemical_formula_sum "Si O2"
_cell_formula_units_Z 52
_cell_length_a 10.776592
_cell_length_b 29.277906
_cell_length_c 9.072773
_cell_angle_alpha 90.000000
_cell_angle_beta 90.000000
_cell_angle_gamma 90.000000
_cell_volume 2862.605478
_symmetry_space_group_name_H-M "P M M M"
_symmetry_group_IT_number 47
_symmetry_cell_setting 'orthorhombic'
loop_
_space_group_symop_operation_xyz
x,y,z
-x,-y,z
x,-y,-z
-x,y,-z
-x,-y,-z
x,y,-z
-x,y,z
x,-y,z
loop_
_atom_site_type_symbol
_atom_site_label
_atom_site_fract_x
_atom_site_fract_y
_atom_site_fract_z
Si Si1 0.360302 0.446366 0.670391
Si Si2 0.000000 0.052648 0.326210
Si Si3 0.147678 0.797282 0.666133
Si Si4 0.643866 0.049880 0.337789
Si Si5 0.205302 0.112189 0.172043
Si Si6 0.854086 0.289675 0.837392
Si Si7 0.141244 0.608181 0.175178
O O1 0.342929 0.433679 0.500000
O O2 0.500000 0.430793 0.721568
O O3 0.347947 0.500000 0.695879
O O4 0.248132 0.423685 0.759662
O O5 0.882857 0.078115 0.260021
O O6 0.000000 0.058844 0.500000
O O7 0.000000 0.000000 0.277912
O O8 0.197118 0.803225 0.500000
O O9 0.201434 0.836352 0.770417
O O10 0.198348 0.748759 0.726891
O O11 0.000000 0.799772 0.670247
O O12 0.697498 0.064085 0.500000
O O13 0.500000 0.043635 0.351810
O O14 0.664259 0.088928 0.213205
O O15 0.701641 0.000000 0.294402
O O16 0.175304 0.112532 0.000000
O O17 0.825795 0.340174 0.774547
O O18 0.000000 0.283404 0.852772
O O19 0.794001 0.283359 0.000000
O O20 0.000000 0.595065 0.228353
O O21 0.145191 0.604529 0.000000
#
# Coordination Sequence:
#
# PCOD8195446 Si02
#       7
#     8   4   8   8   8   8   8
#     4   9  19  35  52  72 103 144 187 228 269 316
#     4  11  23  37  51  69  99 135 167 201 242 293
#     4  10  19  31  49  72 100 133 170 207 245 298
#     4   9  19  37  58  75  93 123 162 201 243 293
#     4  12  23  33  50  75 103 132 161 199 249 299
#     4   8  15  29  48  70 100 132 162 203 256 307
#     4   9  18  32  51  78 109 139 173 219 273 324
#
# _framework density 18.16527
#
# number of rings (size 3 to 8) (size 9 to 14) (size 15 to 20)
#    0.000    2.385    0.769    4.385    0.000    5.538 
#    0.000    4.615    0.000    0.923    0.000    4.308 
#    0.000    0.000    0.000    0.000    0.000    0.000 
#
# Total GULP energy -644309.330746 kJ/mol
# GULP energy per Si atom -12390.564053 kJ/mol
# Density = 1.812393 g / cm^3
# Si number density = 18.165270 Si / 1000 Ang^3
#
#
#
# Elastic Constant Matrix: (Units=GPa)
#
#
# Indices 1 2 3 4 5 6 
#
# 1 71.7697 45.3944 31.1054 0.0000 0.0000 0.0000
# 2 45.3944 102.5891 47.9101 0.0000 0.0000 0.0000
# 3 31.1054 47.9101 83.5559 0.0000 0.0000 0.0000
# 4 0.0000 0.0000 0.0000 34.0736 0.0000 0.0000
# 5 0.0000 0.0000 0.0000 0.0000 518.6183 0.0000
# 6 0.0000 0.0000 0.0000 0.0000 0.0000 17.0732
#
#
#
# Elastic Compliance Matrix: (Units=1/GPa)
#
#
# Indices 1 2 3 4 5 6 
#
# 1 0.019968 -0.007326 -0.003233 0.000000 0.000000 0.000000
# 2 -0.007326 0.016000 -0.006447 0.000000 0.000000 0.000000
# 3 -0.003233 -0.006447 0.016868 0.000000 0.000000 0.000000
# 4 0.000000 0.000000 0.000000 0.029348 0.000000 0.000000
# 5 0.000000 0.000000 0.000000 0.000000 0.001928 0.000000
# 6 0.000000 0.000000 0.000000 0.000000 0.000000 0.058571
#
#
# Mechanical properties :
#
#
# Convention : Reuss Voigt Hill
#
# Bulk Modulus (GPa) = 53.12169 56.30384 54.71277
# Shear Modulus (GPa) = 27.32671 122.85335 75.09003
#
# Velocity S-wave (km/s) = 3.88279 8.23272 6.43637
# Velocity P-wave (km/s) = 7.02911 11.01966 9.24233
#
# Compressibility (1/GPa) = 0.01882470
#
# Stress axis : x y z
#
# Youngs Moduli (GPa) = 50.07945 62.49972 59.28289
#
# Poissons Ratio (x) = 0.45786 0.19166
# Poissons Ratio (y) = 0.36687 0.38220
# Poissons Ratio (z) = 0.16191 0.40294
#
# Static dielectric constant tensor:
#      x y z
#    x 2.471800 0.000000 0.000000 
#    y 0.000000 3.520210 0.000000 
#    z 0.000000 0.000000 3.404110 
# 
# 
# High freq. dielectric constant tensor:
#      x y z
#    x 1.675700 0.000000 0.000000 
#    y 0.000000 1.707860 0.000000 
#    z 0.000000 0.000000 1.701090 
# 
# From -- ./inp_files/4533.got.cif
#   From: 2010.03.12/outbox.cif.g09.slc.cpg/sg47_3_cif.got.tgz:4533.got - 2010.04.14 03:12:58.
