data_PCOD8195120
_publ_section_title
;
Structure prediction by ZEFSAII (Michael W. Deem and Ramdas Pophale) SiO2 
 PCOD8195120
Probable space group: P M M M
;
_chemical_formula_sum "Si O2"
_cell_formula_units_Z 44
_cell_length_a 31.450721
_cell_length_b 7.957564
_cell_length_c 9.236582
_cell_angle_alpha 90.000000
_cell_angle_beta 90.000000
_cell_angle_gamma 90.000000
_cell_volume 2311.649770
_symmetry_space_group_name_H-M "P M M M"
_symmetry_group_IT_number 47
_symmetry_cell_setting 'orthorhombic'
loop_
_space_group_symop_operation_xyz
x,y,z
-x,-y,z
x,-y,-z
-x,y,-z
-x,-y,-z
x,y,-z
-x,y,z
x,-y,z
loop_
_atom_site_type_symbol
_atom_site_label
_atom_site_fract_x
_atom_site_fract_y
_atom_site_fract_z
Si Si1 0.156301 0.304486 0.836295
Si Si2 0.000000 0.308738 0.156461
Si Si3 0.396997 0.000000 0.673016
Si Si4 0.078406 0.808012 0.339808
Si Si5 0.692630 0.000000 0.827159
Si Si6 0.547688 0.686651 0.671705
Si Si7 0.251768 0.686186 0.171896
O O1 0.144892 0.500000 0.833223
O O2 0.124394 0.206673 0.733058
O O3 0.203914 0.273361 0.775914
O O4 0.151925 0.234985 0.000000
O O5 0.042412 0.275704 0.244784
O O6 0.000000 0.500000 0.117217
O O7 0.000000 0.211721 0.000000
O O8 0.421585 0.166515 0.729361
O O9 0.391727 0.000000 0.500000
O O10 0.352088 0.000000 0.749424
O O11 0.079600 0.725098 0.500000
O O12 0.065904 0.000000 0.354506
O O13 0.717100 0.167296 0.772359
O O14 0.687157 0.000000 0.000000
O O15 0.546542 0.694383 0.500000
O O16 0.500000 0.718448 0.731356
O O17 0.563494 0.500000 0.721634
O O18 0.266058 0.500000 0.229161
O O19 0.251402 0.681745 0.000000
#
# Coordination Sequence:
#
# PCOD8195120 Si02
#       7
#     8   4   4   8   4   8   8
#     4   9  18  34  57  82 102 125 167 217 257 297
#     4  11  24  41  60  80 102 133 176 217 248 290
#     4  10  19  30  46  72 102 130 163 213 262 303
#     4  11  24  38  53  79 112 141 167 200 248 308
#     4  10  20  33  51  73 100 139 177 206 256 315
#     4   8  14  26  46  71  97 128 169 214 258 305
#     4   8  16  32  53  76 100 128 171 221 256 297
#
# _framework density 19.034025
#
# number of rings (size 3 to 8) (size 9 to 14) (size 15 to 20)
#    0.000    2.636    0.000    3.545    1.273    7.636 
#    0.000    0.909    0.000    2.182    0.000    1.273 
#    0.000    0.000    0.000    0.000    0.000    0.000 
#
# Total GULP energy -545349.194674 kJ/mol
# GULP energy per Si atom -12394.299879 kJ/mol
# Density = 1.899070 g / cm^3
# Si number density = 19.034025 Si / 1000 Ang^3
#
#
#
# Elastic Constant Matrix: (Units=GPa)
#
#
# Indices 1 2 3 4 5 6 
#
# 1 144.5778 79.2514 44.0435 0.0000 0.0000 0.0000
# 2 79.2514 126.9177 32.2713 0.0000 0.0000 0.0000
# 3 44.0435 32.2713 72.2373 0.0000 0.0000 0.0000
# 4 0.0000 0.0000 0.0000 15.7688 0.0000 0.0000
# 5 0.0000 0.0000 0.0000 0.0000 35.8710 0.0000
# 6 0.0000 0.0000 0.0000 0.0000 0.0000 32.2491
#
#
#
# Elastic Compliance Matrix: (Units=1/GPa)
#
#
# Indices 1 2 3 4 5 6 
#
# 1 0.011604 -0.006145 -0.004330 0.000000 0.000000 0.000000
# 2 -0.006145 0.012143 -0.001678 0.000000 0.000000 0.000000
# 3 -0.004330 -0.001678 0.017233 0.000000 0.000000 0.000000
# 4 0.000000 0.000000 0.000000 0.063416 0.000000 0.000000
# 5 0.000000 0.000000 0.000000 0.000000 0.027878 0.000000
# 6 0.000000 0.000000 0.000000 0.000000 0.000000 0.031009
#
#
# Mechanical properties :
#
#
# Convention : Reuss Voigt Hill
#
# Bulk Modulus (GPa) = 59.97365 72.76279 66.36822
# Shear Modulus (GPa) = 25.88704 29.32222 27.60463
#
# Velocity S-wave (km/s) = 3.69187 3.92920 3.81238
# Velocity P-wave (km/s) = 7.05339 7.67434 7.37041
#
# Compressibility (1/GPa) = 0.01667399
#
# Stress axis : x y z
#
# Youngs Moduli (GPa) = 86.17570 82.35214 58.02859
#
# Poissons Ratio (x) = 0.50606 0.25126
# Poissons Ratio (y) = 0.52956 0.09738
# Poissons Ratio (z) = 0.37313 0.13819
#
# Static dielectric constant tensor:
#      x y z
#    x 3.523860 0.000000 0.000000 
#    y 0.000000 3.855920 0.000000 
#    z 0.000000 0.000000 3.274880 
# 
# 
# High freq. dielectric constant tensor:
#      x y z
#    x 1.739030 0.000000 0.000000 
#    y 0.000000 1.751020 0.000000 
#    z 0.000000 0.000000 1.698960 
# 
# From -- ./inp_files/13719.got.cif
#   From: 2010.03.12/outbox.cif.g09.slc.cpg/sg47_7_cif.got.tgz:13719.got - 2010.04.14 03:12:58.
