data_PCOD8195956
_publ_section_title
;
Structure prediction by ZEFSAII (Michael W. Deem and Ramdas Pophale) SiO2 
 PCOD8195956
Probable space group: P M M M
;
_chemical_formula_sum "Si O2"
_cell_formula_units_Z 44
_cell_length_a 7.728624
_cell_length_b 9.403208
_cell_length_c 31.513278
_cell_angle_alpha 90.000000
_cell_angle_beta 90.000000
_cell_angle_gamma 90.000000
_cell_volume 2290.191523
_symmetry_space_group_name_H-M "P M M M"
_symmetry_group_IT_number 47
_symmetry_cell_setting 'orthorhombic'
loop_
_space_group_symop_operation_xyz
x,y,z
-x,-y,z
x,-y,-z
-x,y,-z
-x,-y,-z
x,y,-z
-x,y,z
x,-y,z
loop_
_atom_site_type_symbol
_atom_site_label
_atom_site_fract_x
_atom_site_fract_y
_atom_site_fract_z
Si Si1 0.796598 0.339042 0.952026
Si Si2 0.689722 0.667934 0.290107
Si Si3 0.298896 0.167141 0.500000
Si Si4 0.696049 0.158729 0.874759
Si Si5 0.000000 0.330099 0.347893
Si Si6 0.000000 0.168599 0.564345
Si Si7 0.195684 0.342933 0.798474
O O1 0.735639 0.500000 0.942599
O O2 0.702461 0.232006 0.920579
O O3 0.000000 0.326705 0.945040
O O4 0.746130 0.296582 0.000000
O O5 0.500000 0.709586 0.307647
O O6 0.715259 0.500000 0.286375
O O7 0.831970 0.727089 0.322581
O O8 0.707589 0.727693 0.241964
O O9 0.500000 0.231462 0.500000
O O10 0.179067 0.212401 0.540186
O O11 0.320892 0.000000 0.500000
O O12 0.500000 0.153239 0.859179
O O13 0.800733 0.245420 0.839830
O O14 0.773922 0.000000 0.878412
O O15 0.000000 0.500000 0.353860
O O16 0.000000 0.256206 0.392895
O O17 0.000000 0.000000 0.572514
O O18 0.271619 0.500000 0.809820
O O19 0.000000 0.359149 0.783447
#
# Coordination Sequence:
#
# PCOD8195956 Si02
#       7
#     8   8   4   8   4   4   8
#     4   9  19  37  59  80 100 125 163 209 253 303
#     4   9  17  31  52  76 103 137 176 218 263 313
#     4   8  15  31  54  76 102 140 184 228 270 316
#     4  11  24  37  49  73 108 139 167 203 253 313
#     4  10  19  33  51  76 110 144 179 217 266 325
#     4   9  18  32  52  78 104 136 182 227 269 317
#     4  10  19  34  57  80  99 126 173 224 262 305
#
# _framework density 19.212365999999999
#
# number of rings (size 3 to 8) (size 9 to 14) (size 15 to 20)
#    0.000    2.455    0.909    2.727    0.000    6.545 
#    0.000    4.545    0.000    1.636    0.000    0.000 
#    0.000    0.000    0.000    0.000    0.000    0.000 
#
# Total GULP energy -545314.805681 kJ/mol
# GULP energy per Si atom -12393.518311 kJ/mol
# Density = 1.916864 g / cm^3
# Si number density = 19.212366 Si / 1000 Ang^3
#
#
#
# Elastic Constant Matrix: (Units=GPa)
#
#
# Indices 1 2 3 4 5 6 
#
# 1 119.2070 24.6402 53.8128 0.0000 0.0000 0.0000
# 2 24.6402 73.0315 54.9055 0.0000 0.0000 0.0000
# 3 53.8128 54.9055 146.3915 0.0000 0.0000 0.0000
# 4 0.0000 0.0000 0.0000 -9.7865 0.0000 0.0000
# 5 0.0000 0.0000 0.0000 0.0000 17.5991 0.0000
# 6 0.0000 0.0000 0.0000 0.0000 0.0000 16.3119
#
#
#
# Elastic Compliance Matrix: (Units=1/GPa)
#
#
# Indices 1 2 3 4 5 6 
#
# 1 0.010096 -0.000858 -0.003389 0.000000 0.000000 0.000000
# 2 -0.000858 0.019143 -0.006864 0.000000 0.000000 0.000000
# 3 -0.003389 -0.006864 0.010651 0.000000 0.000000 0.000000
# 4 0.000000 0.000000 0.000000 -0.102181 0.000000 0.000000
# 5 0.000000 0.000000 0.000000 0.000000 0.056821 0.000000
# 6 0.000000 0.000000 0.000000 0.000000 0.000000 0.061305
#
#
# Mechanical properties :
#
#
# Convention : Reuss Voigt Hill
#
# Bulk Modulus (GPa) = 56.60343 67.26077 61.93210
# Shear Modulus (GPa) = 59.56084 18.50967 39.03526
#
# Velocity S-wave (km/s) = 5.57392 3.10728 4.51241
# Velocity P-wave (km/s) = 8.42323 6.92522 7.71069
#
# Compressibility (1/GPa) = 0.01766677
#
# Stress axis : x y z
#
# Youngs Moduli (GPa) = 99.04681 52.23891 93.88400
#
# Poissons Ratio (x) = 0.04483 0.31822
# Poissons Ratio (y) = 0.08500 0.64444
# Poissons Ratio (z) = 0.33572 0.35858
#
# Static dielectric constant tensor:
#      x y z
#    x 3.721050 0.000000 0.000000 
#    y 0.000000 3.217340 0.000000 
#    z 0.000000 0.000000 3.428290 
# 
# 
# High freq. dielectric constant tensor:
#      x y z
#    x 1.757740 0.000000 0.000000 
#    y 0.000000 1.706500 0.000000 
#    z 0.000000 0.000000 1.745700 
# 
# From -- ./inp_files/33995.got.cif
#   From: 2010.03.12/outbox.cif.g09.slc.cpg/sg47_17_cif.got.tgz:33995.got - 2010.04.14 03:12:58.
