data_PCOD8195184
_publ_section_title
;
Structure prediction by ZEFSAII (Michael W. Deem and Ramdas Pophale) SiO2 
 PCOD8195184
Probable space group: P M M M
;
_chemical_formula_sum "Si O2"
_cell_formula_units_Z 64
_cell_length_a 28.211793
_cell_length_b 14.444481
_cell_length_c 8.986695
_cell_angle_alpha 90.000000
_cell_angle_beta 90.000000
_cell_angle_gamma 90.000000
_cell_volume 3662.120522
_symmetry_space_group_name_H-M "P M M M"
_symmetry_group_IT_number 47
_symmetry_cell_setting 'orthorhombic'
loop_
_space_group_symop_operation_xyz
x,y,z
-x,-y,z
x,-y,-z
-x,y,-z
-x,-y,-z
x,y,-z
-x,y,z
x,-y,z
loop_
_atom_site_type_symbol
_atom_site_label
_atom_site_fract_x
_atom_site_fract_y
_atom_site_fract_z
Si Si1 0.280761 0.607333 0.672033
Si Si2 0.225238 0.107017 0.829422
Si Si3 0.447410 0.396494 0.176748
Si Si4 0.361065 0.724892 0.176754
Si Si5 0.816380 0.396318 0.170738
Si Si6 0.866695 0.215561 0.172080
Si Si7 0.322113 0.894324 0.324928
Si Si8 0.946497 0.896407 0.324351
O O1 0.285741 0.635666 0.500000
O O2 0.293037 0.500000 0.697686
O O3 0.315941 0.667219 0.770672
O O4 0.227563 0.628644 0.724326
O O5 0.180232 0.163438 0.770049
O O6 0.269823 0.134749 0.728785
O O7 0.212453 0.000000 0.811780
O O8 0.237489 0.132550 0.000000
O O9 0.500000 0.365965 0.230541
O O10 0.436031 0.500000 0.236579
O O11 0.408590 0.324709 0.238371
O O12 0.445542 0.397991 0.000000
O O13 0.360209 0.828008 0.245428
O O14 0.360776 0.731744 0.000000
O O15 0.835212 0.500000 0.203456
O O16 0.859342 0.325114 0.202185
O O17 0.799186 0.386495 0.000000
O O18 0.912677 0.181453 0.257928
O O19 0.874740 0.192870 0.000000
O O20 0.325017 0.880294 0.500000
O O21 0.333439 0.000000 0.278527
O O22 0.943154 0.890807 0.500000
O O23 0.000000 0.875178 0.271306
O O24 0.931782 0.000000 0.271162
#
# Coordination Sequence:
#
# PCOD8195184 Si02
#       8
#     8   8   8   8   8   8   8   8
#     4  10  20  32  47  71 103 134 164 199 237 281
#     4   9  17  29  45  68  98 126 155 195 239 283
#     4   8  15  29  49  74 101 124 150 190 239 289
#     4  11  20  30  50  75  97 126 163 200 242 291
#     4   9  18  32  48  68  98 133 166 200 237 277
#     4  10  19  30  48  73  96 122 158 196 234 277
#     4  10  21  35  49  67  95 131 168 204 241 282
#     4   9  19  35  52  71  96 123 150 185 234 290
#
# _framework density 17.476213000000001
#
# number of rings (size 3 to 8) (size 9 to 14) (size 15 to 20)
#    0.000    2.500    0.000    3.375    0.000    5.000 
#    0.000    1.875    0.000    2.250    0.000    9.625 
#    0.000    0.000    0.000    0.000    0.000    0.000 
#
# Total GULP energy -793572.099000 kJ/mol
# GULP energy per Si atom -12399.564047 kJ/mol
# Density = 1.743644 g / cm^3
# Si number density = 17.476213 Si / 1000 Ang^3
#
#
#
# Elastic Constant Matrix: (Units=GPa)
#
#
# Indices 1 2 3 4 5 6 
#
# 1 104.6686 80.1358 35.7463 0.0000 0.0000 0.0000
# 2 80.1358 115.0831 37.2803 0.0000 0.0000 0.0000
# 3 35.7463 37.2803 53.4216 0.0000 0.0000 0.0000
# 4 0.0000 0.0000 0.0000 25.2194 0.0000 0.0000
# 5 0.0000 0.0000 0.0000 0.0000 2.1891 0.0000
# 6 0.0000 0.0000 0.0000 0.0000 0.0000 31.6153
#
#
#
# Elastic Compliance Matrix: (Units=1/GPa)
#
#
# Indices 1 2 3 4 5 6 
#
# 1 0.021482 -0.013311 -0.005085 0.000000 0.000000 0.000000
# 2 -0.013311 0.019476 -0.004684 0.000000 0.000000 0.000000
# 3 -0.005085 -0.004684 0.025390 0.000000 0.000000 0.000000
# 4 0.000000 0.000000 0.000000 0.039652 0.000000 0.000000
# 5 0.000000 0.000000 0.000000 0.000000 0.456809 0.000000
# 6 0.000000 0.000000 0.000000 0.000000 0.000000 0.031630
#
#
# Mechanical properties :
#
#
# Convention : Reuss Voigt Hill
#
# Bulk Modulus (GPa) = 49.53624 64.38869 56.96246
# Shear Modulus (GPa) = 7.72405 19.80548 13.76477
#
# Velocity S-wave (km/s) = 2.10460 3.37008 2.80952
# Velocity P-wave (km/s) = 5.85767 7.21574 6.57188
#
# Compressibility (1/GPa) = 0.02018724
#
# Stress axis : x y z
#
# Youngs Moduli (GPa) = 46.55101 51.34598 39.38482
#
# Poissons Ratio (x) = 0.68347 0.20027
# Poissons Ratio (y) = 0.61965 0.18449
# Poissons Ratio (z) = 0.23671 0.24051
#
# Static dielectric constant tensor:
#      x y z
#    x 3.193680 0.000000 0.000000 
#    y 0.000000 3.496750 0.000000 
#    z 0.000000 0.000000 3.123480 
# 
# 
# High freq. dielectric constant tensor:
#      x y z
#    x 1.652560 0.000000 0.000000 
#    y 0.000000 1.682090 0.000000 
#    z 0.000000 0.000000 1.664220 
# 
# From -- ./inp_files/14331.got.cif
#   From: 2010.03.12/outbox.cif.g09.slc.cpg/sg47_8_cif.got.tgz:14331.got - 2010.04.14 03:12:58.
