data_PCOD8195526
_publ_section_title
;
Structure prediction by ZEFSAII (Michael W. Deem and Ramdas Pophale) SiO2 
 PCOD8195526
Probable space group: P M M M
;
_chemical_formula_sum "Si O2"
_cell_formula_units_Z 64
_cell_length_a 13.940627
_cell_length_b 9.400488
_cell_length_c 28.370071
_cell_angle_alpha 90.000000
_cell_angle_beta 90.000000
_cell_angle_gamma 90.000000
_cell_volume 3717.860833
_symmetry_space_group_name_H-M "P M M M"
_symmetry_group_IT_number 47
_symmetry_cell_setting 'orthorhombic'
loop_
_space_group_symop_operation_xyz
x,y,z
-x,-y,z
x,-y,-z
-x,y,-z
-x,-y,-z
x,y,-z
-x,y,z
x,-y,z
loop_
_atom_site_type_symbol
_atom_site_label
_atom_site_fract_x
_atom_site_fract_y
_atom_site_fract_z
Si Si1 0.217873 0.833406 0.554240
Si Si2 0.269493 0.336622 0.947343
Si Si3 0.890805 0.835191 0.901976
Si Si4 0.112195 0.654722 0.626120
Si Si5 0.604635 0.658303 0.444074
Si Si6 0.388853 0.666867 0.142443
Si Si7 0.226080 0.166785 0.191365
Si Si8 0.111233 0.666278 0.268372
O O1 0.198529 0.789663 0.500000
O O2 0.134687 0.771780 0.586769
O O3 0.317219 0.769636 0.574221
O O4 0.222227 0.000000 0.560233
O O5 0.240631 0.500000 0.940665
O O6 0.172319 0.248135 0.939988
O O7 0.352617 0.294567 0.910333
O O8 0.308950 0.306647 0.000000
O O9 0.849438 0.806319 0.850215
O O10 0.000000 0.779380 0.903543
O O11 0.885624 0.000000 0.915235
O O12 0.155827 0.500000 0.611789
O O13 0.147062 0.697821 0.678314
O O14 0.000000 0.639058 0.629187
O O15 0.601942 0.660343 0.500000
O O16 0.500000 0.703408 0.424437
O O17 0.630743 0.500000 0.426194
O O18 0.500000 0.711403 0.146455
O O19 0.375072 0.500000 0.153167
O O20 0.327460 0.757455 0.179928
O O21 0.180153 0.236614 0.237275
O O22 0.244817 0.000000 0.199978
O O23 0.124531 0.500000 0.255921
O O24 0.000000 0.710514 0.261103
#
# Coordination Sequence:
#
# PCOD8195526 Si02
#       8
#     8   8   8   8   8   8   8   8
#     4  10  20  31  45  69 100 132 164 200 243 286
#     4   9  18  31  46  67  94 123 160 205 247 285
#     4   9  18  31  45  64  93 127 160 192 229 281
#     4   9  19  35  52  70  94 127 166 202 235 277
#     4   8  14  26  45  67  89 116 153 194 233 275
#     4   9  18  33  52  72  95 126 163 201 243 290
#     4  10  19  31  50  75 100 124 153 192 239 291
#     4   9  18  33  53  76 100 125 155 193 237 285
#
# _framework density 17.214200000000002
#
# number of rings (size 3 to 8) (size 9 to 14) (size 15 to 20)
#    0.000    2.875    0.000    2.250    0.000    4.500 
#    0.000    6.250    0.000    0.750    0.000    8.750 
#    0.000    0.000    0.000    0.000    0.000    0.000 
#
# Total GULP energy -793373.175133 kJ/mol
# GULP energy per Si atom -12396.455861 kJ/mol
# Density = 1.717502 g / cm^3
# Si number density = 17.214200 Si / 1000 Ang^3
#
#
#
# Elastic Constant Matrix: (Units=GPa)
#
#
# Indices 1 2 3 4 5 6 
#
# 1 96.2884 46.1707 43.7169 0.0000 0.0000 0.0000
# 2 46.1707 77.2352 52.5203 0.0000 0.0000 0.0000
# 3 43.7169 52.5203 85.1601 0.0000 0.0000 0.0000
# 4 0.0000 0.0000 0.0000 22.7109 0.0000 0.0000
# 5 0.0000 0.0000 0.0000 0.0000 20.1260 0.0000
# 6 0.0000 0.0000 0.0000 0.0000 0.0000 20.6867
#
#
#
# Elastic Compliance Matrix: (Units=1/GPa)
#
#
# Indices 1 2 3 4 5 6 
#
# 1 0.015240 -0.006528 -0.003797 0.000000 0.000000 0.000000
# 2 -0.006528 0.025095 -0.012126 0.000000 0.000000 0.000000
# 3 -0.003797 -0.012126 0.021170 0.000000 0.000000 0.000000
# 4 0.000000 0.000000 0.000000 0.044032 0.000000 0.000000
# 5 0.000000 0.000000 0.000000 0.000000 0.049687 0.000000
# 6 0.000000 0.000000 0.000000 0.000000 0.000000 0.048340
#
#
# Mechanical properties :
#
#
# Convention : Reuss Voigt Hill
#
# Bulk Modulus (GPa) = 60.22971 60.38884 60.30927
# Shear Modulus (GPa) = 19.68495 20.45644 20.07069
#
# Velocity S-wave (km/s) = 3.38528 3.45098 3.41829
# Velocity P-wave (km/s) = 7.09539 7.14395 7.11971
#
# Compressibility (1/GPa) = 0.01660310
#
# Stress axis : x y z
#
# Youngs Moduli (GPa) = 65.61792 39.84781 47.23605
#
# Poissons Ratio (x) = 0.26013 0.17937
# Poissons Ratio (y) = 0.42835 0.57278
# Poissons Ratio (z) = 0.24917 0.48319
#
# Static dielectric constant tensor:
#      x y z
#    x 3.270260 0.000000 0.000000 
#    y 0.000000 3.202180 0.000000 
#    z 0.000000 0.000000 3.093560 
# 
# 
# High freq. dielectric constant tensor:
#      x y z
#    x 1.657980 0.000000 0.000000 
#    y 0.000000 1.664350 0.000000 
#    z 0.000000 0.000000 1.645850 
# 
# From -- ./inp_files/8335.got.cif
#   From: 2010.03.12/outbox.cif.g09.slc.cpg/sg47_5_cif.got.tgz:8335.got - 2010.04.14 03:12:58.
