data_PCOD8195354
_publ_section_title
;
Structure prediction by ZEFSAII (Michael W. Deem and Ramdas Pophale) SiO2 
 PCOD8195354
Probable space group: P M M M
;
_chemical_formula_sum "Si O2"
_cell_formula_units_Z 40
_cell_length_a 18.558754
_cell_length_b 18.458350
_cell_length_c 7.830538
_cell_angle_alpha 90.000000
_cell_angle_beta 90.000000
_cell_angle_gamma 90.000000
_cell_volume 2682.460239
_symmetry_space_group_name_H-M "P M M M"
_symmetry_group_IT_number 47
_symmetry_cell_setting 'orthorhombic'
loop_
_space_group_symop_operation_xyz
x,y,z
-x,-y,z
x,-y,-z
-x,y,-z
-x,-y,-z
x,y,-z
-x,y,z
x,-y,z
loop_
_atom_site_type_symbol
_atom_site_label
_atom_site_fract_x
_atom_site_fract_y
_atom_site_fract_z
Si Si1 0.082156 0.232797 0.296088
Si Si2 0.321313 0.583867 0.308881
Si Si3 0.080109 0.500000 0.796652
Si Si4 0.419667 0.585939 0.000000
Si Si5 0.173362 0.632727 0.803787
Si Si6 0.085453 0.923438 0.309295
O O1 0.086945 0.234467 0.500000
O O2 0.135994 0.289875 0.213990
O O3 0.108540 0.153331 0.224668
O O4 0.000000 0.249479 0.237504
O O5 0.353415 0.593111 0.500000
O O6 0.302245 0.500000 0.270590
O O7 0.379035 0.612865 0.171143
O O8 0.248481 0.630748 0.296989
O O9 0.120535 0.571357 0.728178
O O10 0.000000 0.500000 0.718219
O O11 0.076280 0.500000 0.000000
O O12 0.424578 0.500000 0.000000
O O13 0.500000 0.619525 0.000000
O O14 0.190894 0.616121 0.000000
O O15 0.117305 0.925974 0.500000
O O16 0.000000 0.920883 0.319377
O O17 0.109338 0.000000 0.216163
#
# Coordination Sequence:
#
# PCOD8195354 Si02
#       6
#     8   8   4   4   8   8
#     4   9  17  27  38  56  80 102 136 187 227 259
#     4  10  19  31  48  66  85 111 142 173 211 256
#     4   9  18  28  39  53  69 101 147 188 221 254
#     4   9  18  32  50  70  90 108 131 168 211 253
#     4  11  19  29  43  55  78 111 145 180 219 260
#     4   7  10  19  36  54  71  95 128 169 219 267
#
# _framework density 14.911683999999999
#
# number of rings (size 3 to 8) (size 9 to 14) (size 15 to 20)
#    0.000    2.800    2.000    3.000    0.000    1.600 
#    0.000    2.000    0.000    3.000    0.000    2.800 
#    0.000    0.000    0.000    0.000    0.000    2.000 
#
# Total GULP energy -495542.406720 kJ/mol
# GULP energy per Si atom -12388.560168 kJ/mol
# Density = 1.487774 g / cm^3
# Si number density = 14.911684 Si / 1000 Ang^3
#
#
#
# Elastic Constant Matrix: (Units=GPa)
#
#
# Indices 1 2 3 4 5 6 
#
# 1 87.5687 33.1447 30.5351 0.0000 0.0000 0.0000
# 2 33.1447 100.3740 13.1687 0.0000 0.0000 0.0000
# 3 30.5351 13.1687 59.5134 0.0000 0.0000 0.0000
# 4 0.0000 0.0000 0.0000 7.3572 0.0000 0.0000
# 5 0.0000 0.0000 0.0000 0.0000 13.0264 0.0000
# 6 0.0000 0.0000 0.0000 0.0000 0.0000 5.3162
#
#
#
# Elastic Compliance Matrix: (Units=1/GPa)
#
#
# Indices 1 2 3 4 5 6 
#
# 1 0.015442 -0.004181 -0.006998 0.000000 0.000000 0.000000
# 2 -0.004181 0.011393 -0.000376 0.000000 0.000000 0.000000
# 3 -0.006998 -0.000376 0.020477 0.000000 0.000000 0.000000
# 4 0.000000 0.000000 0.000000 0.135921 0.000000 0.000000
# 5 0.000000 0.000000 0.000000 0.000000 0.076767 0.000000
# 6 0.000000 0.000000 0.000000 0.000000 0.000000 0.188104
#
#
# Mechanical properties :
#
#
# Convention : Reuss Voigt Hill
#
# Bulk Modulus (GPa) = 41.31871 44.57257 42.94564
# Shear Modulus (GPa) = 10.43230 16.51381 13.47305
#
# Velocity S-wave (km/s) = 2.64788 3.33143 3.00913
# Velocity P-wave (km/s) = 6.09241 6.68983 6.39810
#
# Compressibility (1/GPa) = 0.02420211
#
# Stress axis : x y z
#
# Youngs Moduli (GPa) = 64.75695 87.77564 48.83625
#
# Poissons Ratio (x) = 0.36700 0.34176
# Poissons Ratio (y) = 0.27076 0.01834
# Poissons Ratio (z) = 0.45317 0.03297
#
# Static dielectric constant tensor:
#      x y z
#    x 2.636610 0.000000 0.000000 
#    y 0.000000 3.149790 0.000000 
#    z 0.000000 0.000000 2.754850 
# 
# 
# High freq. dielectric constant tensor:
#      x y z
#    x 1.522920 0.000000 0.000000 
#    y 0.000000 1.554420 0.000000 
#    z 0.000000 0.000000 1.564420 
# 
# From -- ./inp_files/9358.got.cif
#   From: 2010.03.12/outbox.cif.g09.slc.cpg/sg47_5_cif.got.tgz:9358.got - 2010.04.14 03:12:58.
