data_PCOD8195804
_publ_section_title
;
Structure prediction by ZEFSAII (Michael W. Deem and Ramdas Pophale) SiO2 
 PCOD8195804
Probable space group: P M M M
;
_chemical_formula_sum "Si O2"
_cell_formula_units_Z 64
_cell_length_a 9.236659
_cell_length_b 28.800039
_cell_length_c 13.974762
_cell_angle_alpha 90.000000
_cell_angle_beta 90.000000
_cell_angle_gamma 90.000000
_cell_volume 3717.512237
_symmetry_space_group_name_H-M "P M M M"
_symmetry_group_IT_number 47
_symmetry_cell_setting 'orthorhombic'
loop_
_space_group_symop_operation_xyz
x,y,z
-x,-y,z
x,-y,-z
-x,y,-z
-x,-y,-z
x,y,-z
-x,y,z
x,-y,z
loop_
_atom_site_type_symbol
_atom_site_label
_atom_site_fract_x
_atom_site_fract_y
_atom_site_fract_z
Si Si1 0.339090 0.141075 0.111850
Si Si2 0.160590 0.055018 0.603897
Si Si3 0.166960 0.551760 0.727585
Si Si4 0.329931 0.051588 0.783886
Si Si5 0.670073 0.688877 0.223168
Si Si6 0.170374 0.359342 0.610636
Si Si7 0.830183 0.769310 0.887886
Si Si8 0.331689 0.403510 0.891564
O O1 0.500000 0.149745 0.156527
O O2 0.281175 0.089647 0.138532
O O3 0.226511 0.180217 0.145790
O O4 0.352233 0.142786 0.000000
O O5 0.207401 0.075010 0.500000
O O6 0.273383 0.071651 0.683137
O O7 0.000000 0.073119 0.630282
O O8 0.159859 0.000000 0.598907
O O9 0.199652 0.500000 0.688123
O O10 0.212456 0.588739 0.646195
O O11 0.252206 0.558673 0.826542
O O12 0.000000 0.558117 0.753547
O O13 0.500000 0.047288 0.777389
O O14 0.265665 0.000000 0.808403
O O15 0.500000 0.698092 0.237669
O O16 0.741390 0.677904 0.326330
O O17 0.744958 0.733239 0.177205
O O18 0.700065 0.647355 0.149628
O O19 0.217132 0.354586 0.500000
O O20 0.000000 0.349969 0.623320
O O21 0.000000 0.766021 0.866676
O O22 0.796931 0.760247 0.000000
O O23 0.500000 0.415333 0.888767
O O24 0.272156 0.405842 0.000000
#
# Coordination Sequence:
#
# PCOD8195804 Si02
#       8
#     8   8   8   8   8   8   8   8
#     4   9  18  32  48  67  95 130 163 194 231 277
#     4   8  14  25  41  61  85 114 148 185 227 274
#     4   9  18  31  46  67  95 127 165 205 242 281
#     4   9  17  28  44  68  95 124 160 199 236 273
#     4  10  19  32  52  75  98 123 154 194 240 292
#     4   9  18  33  52  73  98 128 162 201 244 288
#     4  10  20  33  51  75 100 125 155 193 237 285
#     4   9  18  31  46  66  93 125 159 194 235 286
#
# _framework density 17.215814000000002
#
# number of rings (size 3 to 8) (size 9 to 14) (size 15 to 20)
#    0.000    2.875    0.000    1.500    0.000    4.000 
#    0.000    5.000    0.000    0.750    0.000   10.500 
#    0.000    0.000    0.000    0.000    0.000    0.000 
#
# Total GULP energy -793256.165936 kJ/mol
# GULP energy per Si atom -12394.627593 kJ/mol
# Density = 1.717663 g / cm^3
# Si number density = 17.215814 Si / 1000 Ang^3
#
#
#
# Elastic Constant Matrix: (Units=GPa)
#
#
# Indices 1 2 3 4 5 6 
#
# 1 56.7032 48.1966 42.3753 0.0000 0.0000 0.0000
# 2 48.1966 101.2294 44.9852 0.0000 0.0000 0.0000
# 3 42.3753 44.9852 84.2390 0.0000 0.0000 0.0000
# 4 0.0000 0.0000 0.0000 20.3469 0.0000 0.0000
# 5 0.0000 0.0000 0.0000 0.0000 26.3476 0.0000
# 6 0.0000 0.0000 0.0000 0.0000 0.0000 23.0152
#
#
#
# Elastic Compliance Matrix: (Units=1/GPa)
#
#
# Indices 1 2 3 4 5 6 
#
# 1 0.037147 -0.012301 -0.012117 0.000000 0.000000 0.000000
# 2 -0.012301 0.017026 -0.002904 0.000000 0.000000 0.000000
# 3 -0.012117 -0.002904 0.019517 0.000000 0.000000 0.000000
# 4 0.000000 0.000000 0.000000 0.049148 0.000000 0.000000
# 5 0.000000 0.000000 0.000000 0.000000 0.037954 0.000000
# 6 0.000000 0.000000 0.000000 0.000000 0.000000 0.043449
#
#
# Mechanical properties :
#
#
# Convention : Reuss Voigt Hill
#
# Bulk Modulus (GPa) = 52.50766 57.03175 54.76971
# Shear Modulus (GPa) = 18.85122 21.04959 19.95041
#
# Velocity S-wave (km/s) = 3.31266 3.50049 3.40787
# Velocity P-wave (km/s) = 6.72291 7.03828 6.88240
#
# Compressibility (1/GPa) = 0.01904484
#
# Stress axis : x y z
#
# Youngs Moduli (GPa) = 26.92007 58.73383 51.23691
#
# Poissons Ratio (x) = 0.72251 0.62084
# Poissons Ratio (y) = 0.33116 0.14880
# Poissons Ratio (z) = 0.32619 0.17057
#
# Static dielectric constant tensor:
#      x y z
#    x 3.300030 0.000000 0.000000 
#    y 0.000000 3.203990 0.000000 
#    z 0.000000 0.000000 3.328890 
# 
# 
# High freq. dielectric constant tensor:
#      x y z
#    x 1.663280 0.000000 0.000000 
#    y 0.000000 1.649180 0.000000 
#    z 0.000000 0.000000 1.654360 
# 
# From -- ./inp_files/15725.got.cif
#   From: 2010.03.12/outbox.cif.g09.slc.cpg/sg47_8_cif.got.tgz:15725.got - 2010.04.14 03:12:58.
