data_PCOD8195332
_publ_section_title
;
Structure prediction by ZEFSAII (Michael W. Deem and Ramdas Pophale) SiO2 
 PCOD8195332
Probable space group: P M M M
;
_chemical_formula_sum "Si O2"
_cell_formula_units_Z 52
_cell_length_a 9.455847
_cell_length_b 24.806875
_cell_length_c 13.273500
_cell_angle_alpha 90.000000
_cell_angle_beta 90.000000
_cell_angle_gamma 90.000000
_cell_volume 3113.565088
_symmetry_space_group_name_H-M "P M M M"
_symmetry_group_IT_number 47
_symmetry_cell_setting 'orthorhombic'
loop_
_space_group_symop_operation_xyz
x,y,z
-x,-y,z
x,-y,-z
-x,y,-z
-x,-y,-z
x,y,-z
-x,y,z
x,-y,z
loop_
_atom_site_type_symbol
_atom_site_label
_atom_site_fract_x
_atom_site_fract_y
_atom_site_fract_z
Si Si1 0.836678 0.103416 0.619629
Si Si2 0.754429 0.371089 0.801167
Si Si3 0.836554 0.307871 0.385083
Si Si4 0.338564 0.263179 0.111289
Si Si5 0.661974 0.000000 0.619651
Si Si6 0.333549 0.793292 0.688982
Si Si7 0.000000 0.559057 0.117842
Si Si8 0.500000 0.435652 0.880990
O O1 0.835170 0.106614 0.500000
O O2 0.750117 0.051498 0.658543
O O3 0.753420 0.153913 0.663137
O O4 0.000000 0.101618 0.657858
O O5 0.781455 0.357200 0.683766
O O6 0.754339 0.314924 0.861748
O O7 0.622788 0.408957 0.817545
O O8 0.869951 0.407662 0.847947
O O9 0.824237 0.327353 0.500000
O O10 0.735652 0.256302 0.370687
O O11 0.000000 0.293016 0.358585
O O12 0.500000 0.283191 0.115685
O O13 0.314946 0.215355 0.191053
O O14 0.297998 0.241636 0.000000
O O15 0.500000 0.000000 0.662136
O O16 0.655682 0.000000 0.500000
O O17 0.500000 0.798633 0.659399
O O18 0.000000 0.500000 0.168860
O O19 0.000000 0.551526 0.000000
O O20 0.500000 0.500000 0.869855
O O21 0.500000 0.419734 0.000000
#
# Coordination Sequence:
#
# PCOD8195332 Si02
#       8
#     8   8   8   8   4   8   4   4
#     4  10  19  31  47  68 102 142 174 207 252 304
#     4  11  20  35  54  78 102 132 167 205 252 310
#     4  10  21  37  54  72 100 138 175 210 255 305
#     4   9  17  31  51  72  98 130 161 197 248 306
#     4   9  17  29  47  71  98 131 174 219 257 296
#     4  10  20  31  49  78 103 130 171 215 255 299
#     4  11  22  34  51  77 105 129 160 207 257 304
#     4  11  22  36  57  81 105 133 162 199 255 316
#
# _framework density 16.701111999999998
#
# number of rings (size 3 to 8) (size 9 to 14) (size 15 to 20)
#    0.000    1.923    1.538    3.462    1.077    5.231 
#    0.000    0.000    0.000    2.769    0.000    0.538 
#    0.000    4.308    0.000    0.000    0.000    0.000 
#
# Total GULP energy -644459.888012 kJ/mol
# GULP energy per Si atom -12393.459385 kJ/mol
# Density = 1.666310 g / cm^3
# Si number density = 16.701112 Si / 1000 Ang^3
#
#
#
# Elastic Constant Matrix: (Units=GPa)
#
#
# Indices 1 2 3 4 5 6 
#
# 1 147.2355 61.3601 38.4522 0.0000 0.0000 0.0000
# 2 61.3601 95.7458 27.6928 0.0000 0.0000 0.0000
# 3 38.4522 27.6928 81.9445 0.0000 0.0000 0.0000
# 4 0.0000 0.0000 0.0000 22.1225 0.0000 0.0000
# 5 0.0000 0.0000 0.0000 0.0000 20.0628 0.0000
# 6 0.0000 0.0000 0.0000 0.0000 0.0000 32.7607
#
#
#
# Elastic Compliance Matrix: (Units=1/GPa)
#
#
# Indices 1 2 3 4 5 6 
#
# 1 0.009793 -0.005483 -0.002742 0.000000 0.000000 0.000000
# 2 -0.005483 0.014645 -0.002377 0.000000 0.000000 0.000000
# 3 -0.002742 -0.002377 0.014293 0.000000 0.000000 0.000000
# 4 0.000000 0.000000 0.000000 0.045203 0.000000 0.000000
# 5 0.000000 0.000000 0.000000 0.000000 0.049843 0.000000
# 6 0.000000 0.000000 0.000000 0.000000 0.000000 0.030524
#
#
# Mechanical properties :
#
#
# Convention : Reuss Voigt Hill
#
# Bulk Modulus (GPa) = 57.05084 64.43733 60.74409
# Shear Modulus (GPa) = 26.13029 28.15059 27.14044
#
# Velocity S-wave (km/s) = 3.95977 4.11000 4.03559
# Velocity P-wave (km/s) = 7.42566 7.82235 7.62659
#
# Compressibility (1/GPa) = 0.01752823
#
# Stress axis : x y z
#
# Youngs Moduli (GPa) = 102.11363 68.28068 69.96222
#
# Poissons Ratio (x) = 0.37437 0.19187
# Poissons Ratio (y) = 0.55987 0.16627
# Poissons Ratio (z) = 0.28004 0.16227
#
# Static dielectric constant tensor:
#      x y z
#    x 3.325330 0.000000 0.000000 
#    y 0.000000 3.223480 0.000000 
#    z 0.000000 0.000000 3.186810 
# 
# 
# High freq. dielectric constant tensor:
#      x y z
#    x 1.662930 0.000000 0.000000 
#    y 0.000000 1.637600 0.000000 
#    z 0.000000 0.000000 1.621720 
# 
# From -- ./inp_files/21830.got.cif
#   From: 2010.03.12/outbox.cif.g09.slc.cpg/sg47_11_cif.got.tgz:21830.got - 2010.04.14 03:12:58.
