data_PCOD8195747
_publ_section_title
;
Structure prediction by ZEFSAII (Michael W. Deem and Ramdas Pophale) SiO2 
 PCOD8195747
Probable space group: P M M M
;
_chemical_formula_sum "Si O2"
_cell_formula_units_Z 44
_cell_length_a 9.859804
_cell_length_b 29.344974
_cell_length_c 8.144795
_cell_angle_alpha 90.000000
_cell_angle_beta 90.000000
_cell_angle_gamma 90.000000
_cell_volume 2356.579898
_symmetry_space_group_name_H-M "P M M M"
_symmetry_group_IT_number 47
_symmetry_cell_setting 'orthorhombic'
loop_
_space_group_symop_operation_xyz
x,y,z
-x,-y,z
x,-y,-z
-x,y,-z
-x,-y,-z
x,y,-z
-x,y,z
x,-y,z
loop_
_atom_site_type_symbol
_atom_site_label
_atom_site_fract_x
_atom_site_fract_y
_atom_site_fract_z
Si Si1 0.338340 0.551887 0.500000
Si Si2 0.151633 0.872210 0.687678
Si Si3 0.345055 0.051714 0.191513
Si Si4 0.661036 0.394511 0.182333
Si Si5 0.347658 0.299155 0.687746
Si Si6 0.155113 0.223691 0.187933
O O1 0.288114 0.500000 0.500000
O O2 0.500000 0.555334 0.500000
O O3 0.279722 0.574981 0.332251
O O4 0.152823 0.856816 0.500000
O O5 0.248873 0.915030 0.708873
O O6 0.202596 0.828670 0.791141
O O7 0.000000 0.886436 0.743866
O O8 0.500000 0.063301 0.235700
O O9 0.311482 0.000000 0.243699
O O10 0.318464 0.058494 0.000000
O O11 0.500000 0.397831 0.189047
O O12 0.705531 0.341969 0.206553
O O13 0.712430 0.410485 0.000000
O O14 0.348214 0.315342 0.500000
O O15 0.500000 0.285027 0.742423
O O16 0.249797 0.256252 0.706210
O O17 0.000000 0.228706 0.249235
O O18 0.170173 0.238007 0.000000
#
# Coordination Sequence:
#
# PCOD8195747 Si02
#       6
#     4   8   8   8   8   8
#     4   9  16  26  40  62  95 133 173 215 260 313
#     4  10  21  36  53  74 101 132 165 203 250 302
#     4   9  19  36  56  77 101 130 165 205 248 295
#     4   9  16  27  43  64  94 131 170 214 261 308
#     4  10  19  32  51  74 101 134 172 212 256 309
#     4  10  21  36  53  74 101 133 170 212 256 304
#
# _framework density 18.671126000000001
#
# number of rings (size 3 to 8) (size 9 to 14) (size 15 to 20)
#    0.000    2.455    0.909    2.182    0.000    5.455 
#    0.000    4.545    0.000    0.000    0.000    0.000 
#    0.000    1.455    0.000    3.818    0.000    3.636 
#
# Total GULP energy -545509.180718 kJ/mol
# GULP energy per Si atom -12397.935925 kJ/mol
# Density = 1.862863 g / cm^3
# Si number density = 18.671126 Si / 1000 Ang^3
#
#
#
# Elastic Constant Matrix: (Units=GPa)
#
#
# Indices 1 2 3 4 5 6 
#
# 1 53.4039 49.6250 25.2244 0.0000 0.0000 0.0000
# 2 49.6250 112.9430 46.6076 0.0000 0.0000 0.0000
# 3 25.2244 46.6076 94.6371 0.0000 0.0000 0.0000
# 4 0.0000 0.0000 0.0000 30.7688 0.0000 0.0000
# 5 0.0000 0.0000 0.0000 0.0000 20.4913 0.0000
# 6 0.0000 0.0000 0.0000 0.0000 0.0000 -4.6712
#
#
#
# Elastic Compliance Matrix: (Units=1/GPa)
#
#
# Indices 1 2 3 4 5 6 
#
# 1 0.031948 -0.013208 -0.002011 0.000000 0.000000 0.000000
# 2 -0.013208 0.016573 -0.004641 0.000000 0.000000 0.000000
# 3 -0.002011 -0.004641 0.013388 0.000000 0.000000 0.000000
# 4 0.000000 0.000000 0.000000 0.032500 0.000000 0.000000
# 5 0.000000 0.000000 0.000000 0.000000 0.048801 0.000000
# 6 0.000000 0.000000 0.000000 0.000000 0.000000 -0.214079
#
#
# Mechanical properties :
#
#
# Convention : Reuss Voigt Hill
#
# Bulk Modulus (GPa) = 45.06654 55.98867 50.52760
# Shear Modulus (GPa) = -210.50369 18.61959 -95.94205
#
# Velocity S-wave (km/s) = -10.62957 3.16134 -7.17613
# Velocity P-wave (km/s) = 11.24548 6.58614 6.44529
#
# Compressibility (1/GPa) = 0.02218941
#
# Stress axis : x y z
#
# Youngs Moduli (GPa) = 31.30088 60.34083 74.69104
#
# Poissons Ratio (x) = 0.79695 0.15019
# Poissons Ratio (y) = 0.41341 0.34667
# Poissons Ratio (z) = 0.06294 0.28007
#
# Static dielectric constant tensor:
#      x y z
#    x 3.086750 0.000000 0.000000 
#    y 0.000000 3.349460 0.000000 
#    z 0.000000 0.000000 3.546230 
# 
# 
# High freq. dielectric constant tensor:
#      x y z
#    x 1.681370 0.000000 0.000000 
#    y 0.000000 1.722360 0.000000 
#    z 0.000000 0.000000 1.736770 
# 
# From -- ./inp_files/2280.got.cif
#   From: 2010.03.12/outbox.cif.g09.slc.cpg/sg47_2_cif.got.tgz:2280.got - 2010.04.14 03:12:58.
