data_PCOD8195386
_publ_section_title
;
Structure prediction by ZEFSAII (Michael W. Deem and Ramdas Pophale) SiO2 
 PCOD8195386
Probable space group: P M M M
;
_chemical_formula_sum "Si O2"
_cell_formula_units_Z 56
_cell_length_a 8.051931
_cell_length_b 30.665630
_cell_length_c 13.778826
_cell_angle_alpha 90.000000
_cell_angle_beta 90.000000
_cell_angle_gamma 90.000000
_cell_volume 3402.233776
_symmetry_space_group_name_H-M "P M M M"
_symmetry_group_IT_number 47
_symmetry_cell_setting 'orthorhombic'
loop_
_space_group_symop_operation_xyz
x,y,z
-x,-y,z
x,-y,-z
-x,y,-z
-x,-y,-z
x,y,-z
-x,y,z
x,-y,z
loop_
_atom_site_type_symbol
_atom_site_label
_atom_site_fract_x
_atom_site_fract_y
_atom_site_fract_z
Si Si1 0.813543 0.104912 0.112832
Si Si2 0.196849 0.235793 0.390711
Si Si3 0.804962 0.274141 0.108849
Si Si4 0.196115 0.323494 0.292398
Si Si5 0.694559 0.500000 0.610272
Si Si6 0.500000 0.951260 0.884892
Si Si7 0.311892 0.811411 0.207429
Si Si8 0.804967 0.591059 0.609074
O O1 0.669874 0.072205 0.150933
O O2 0.805838 0.149677 0.172737
O O3 0.000000 0.085129 0.128044
O O4 0.782945 0.115704 0.000000
O O5 0.256648 0.225914 0.500000
O O6 0.259648 0.284038 0.360571
O O7 0.274261 0.199894 0.319442
O O8 0.000000 0.233441 0.381106
O O9 0.751271 0.313409 0.181028
O O10 0.712952 0.230132 0.138493
O O11 0.000000 0.264874 0.118941
O O12 0.754610 0.287788 0.000000
O O13 0.274514 0.369404 0.327922
O O14 0.000000 0.326874 0.300921
O O15 0.500000 0.500000 0.617128
O O16 0.761436 0.500000 0.500000
O O17 0.761755 0.544529 0.659607
O O18 0.500000 0.000000 0.840910
O O19 0.500000 0.953358 0.000000
O O20 0.500000 0.827551 0.197340
O O21 0.729090 0.593057 0.500000
O O22 0.000000 0.596857 0.604015
#
# Coordination Sequence:
#
# PCOD8195386 Si02
#       8
#     8   8   8   8   4   4   8   8
#     4  10  19  31  48  69  95 128 163 197 235 279
#     4   9  17  30  46  63  87 119 152 185 223 269
#     4   9  17  29  44  62  85 114 148 184 222 263
#     4   8  14  25  42  63  83 107 141 177 215 261
#     4   9  17  27  37  53  78 103 126 160 207 253
#     4   9  18  32  48  70  99 127 159 197 238 285
#     4  11  20  29  43  64  92 123 157 195 228 265
#     4   9  15  24  40  59  78 102 133 167 205 256
#
# _framework density 16.459775
#
# number of rings (size 3 to 8) (size 9 to 14) (size 15 to 20)
#    0.000    2.714    0.714    3.214    0.000    5.143 
#    0.000    4.286    0.000    3.429    0.000    0.500 
#    0.000    5.143    0.000    3.000    0.000    0.143 
#
# Total GULP energy -694079.061593 kJ/mol
# GULP energy per Si atom -12394.268957 kJ/mol
# Density = 1.642231 g / cm^3
# Si number density = 16.459775 Si / 1000 Ang^3
#
#
#
# Elastic Constant Matrix: (Units=GPa)
#
#
# Indices 1 2 3 4 5 6 
#
# 1 60.7847 31.5900 21.4152 0.0000 0.0000 0.0000
# 2 31.5900 118.5673 42.8736 0.0000 0.0000 0.0000
# 3 21.4152 42.8736 91.6775 0.0000 0.0000 0.0000
# 4 0.0000 0.0000 0.0000 14.4247 0.0000 0.0000
# 5 0.0000 0.0000 0.0000 0.0000 12.8515 0.0000
# 6 0.0000 0.0000 0.0000 0.0000 0.0000 16.7301
#
#
#
# Elastic Compliance Matrix: (Units=1/GPa)
#
#
# Indices 1 2 3 4 5 6 
#
# 1 0.019586 -0.004289 -0.002569 0.000000 0.000000 0.000000
# 2 -0.004289 0.011090 -0.004184 0.000000 0.000000 0.000000
# 3 -0.002569 -0.004184 0.013465 0.000000 0.000000 0.000000
# 4 0.000000 0.000000 0.000000 0.069326 0.000000 0.000000
# 5 0.000000 0.000000 0.000000 0.000000 0.077812 0.000000
# 6 0.000000 0.000000 0.000000 0.000000 0.000000 0.059773
#
#
# Mechanical properties :
#
#
# Convention : Reuss Voigt Hill
#
# Bulk Modulus (GPa) = 45.34139 51.42079 48.38109
# Shear Modulus (GPa) = 17.82610 20.47797 19.15204
#
# Velocity S-wave (km/s) = 3.29448 3.53104 3.41481
# Velocity P-wave (km/s) = 6.48676 6.92332 6.70859
#
# Compressibility (1/GPa) = 0.02205490
#
# Stress axis : x y z
#
# Youngs Moduli (GPa) = 51.05737 90.17252 74.26793
#
# Poissons Ratio (x) = 0.38677 0.19081
# Poissons Ratio (y) = 0.21900 0.31076
# Poissons Ratio (z) = 0.13118 0.37731
#
# Static dielectric constant tensor:
#      x y z
#    x 2.977550 0.000000 0.000000 
#    y 0.000000 3.227680 0.000000 
#    z 0.000000 0.000000 3.054780 
# 
# 
# High freq. dielectric constant tensor:
#      x y z
#    x 1.629240 0.000000 0.000000 
#    y 0.000000 1.619390 0.000000 
#    z 0.000000 0.000000 1.599960 
# 
# From -- ./inp_files/22115.got.cif
#   From: 2010.03.12/outbox.cif.g09.slc.cpg/sg47_12_cif.got.tgz:22115.got - 2010.04.14 03:12:58.
