data_PCOD8195412
_publ_section_title
;
Structure prediction by ZEFSAII (Michael W. Deem and Ramdas Pophale) SiO2 
 PCOD8195412
Probable space group: P M M M
;
_chemical_formula_sum "Si O2"
_cell_formula_units_Z 52
_cell_length_a 7.777692
_cell_length_b 12.347239
_cell_length_c 27.151034
_cell_angle_alpha 90.000000
_cell_angle_beta 90.000000
_cell_angle_gamma 90.000000
_cell_volume 2607.395845
_symmetry_space_group_name_H-M "P M M M"
_symmetry_group_IT_number 47
_symmetry_cell_setting 'orthorhombic'
loop_
_space_group_symop_operation_xyz
x,y,z
-x,-y,z
x,-y,-z
-x,y,-z
-x,-y,-z
x,y,-z
-x,y,z
x,-y,z
loop_
_atom_site_type_symbol
_atom_site_label
_atom_site_fract_x
_atom_site_fract_y
_atom_site_fract_z
Si Si1 0.297667 0.626325 0.627474
Si Si2 0.304359 0.836286 0.946831
Si Si3 0.293067 0.000000 0.755709
Si Si4 0.295223 0.000000 0.867684
Si Si5 0.000000 0.372879 0.445700
Si Si6 0.692329 0.223500 0.715269
Si Si7 0.202162 0.619262 0.092222
Si Si8 0.800153 0.621597 0.204296
O O1 0.500000 0.645219 0.614908
O O2 0.267941 0.500000 0.641946
O O3 0.227187 0.703855 0.671512
O O4 0.176697 0.660740 0.581874
O O5 0.500000 0.873557 0.949607
O O6 0.295361 0.707336 0.940921
O O7 0.223161 0.897165 0.899375
O O8 0.218380 0.866848 0.000000
O O9 0.219841 0.000000 0.812104
O O10 0.220320 0.106457 0.726824
O O11 0.500000 0.000000 0.757389
O O12 0.500000 0.000000 0.863040
O O13 0.000000 0.500000 0.451917
O O14 0.000000 0.318031 0.500000
O O15 0.500000 0.198048 0.699063
O O16 0.690387 0.293740 0.764790
O O17 0.254437 0.500000 0.073090
O O18 0.261578 0.632978 0.148427
O O19 0.000000 0.635959 0.088205
O O20 0.763221 0.500000 0.223245
O O21 0.000000 0.649705 0.210284
#
# Coordination Sequence:
#
# PCOD8195412 Si02
#       8
#     8   8   4   4   4   8   8   8
#     4   9  18  31  49  77 111 145 182 225 269 315
#     4  10  20  33  51  73  93 117 154 200 248 297
#     4   9  18  31  49  72  98 131 166 200 247 307
#     4   9  17  32  52  72  96 124 155 198 250 302
#     4   9  18  32  52  79 111 149 187 224 271 318
#     4  10  19  31  48  73 103 133 168 208 253 306
#     4   9  19  35  50  67  94 125 157 192 238 299
#     4   9  18  31  48  69  94 127 161 197 244 299
#
# _framework density 19.943270999999999
#
# number of rings (size 3 to 8) (size 9 to 14) (size 15 to 20)
#    0.000    2.692    0.000    2.538    1.077    4.923 
#    0.000    5.385    0.000    3.692    0.000    1.077 
#    0.000    3.077    0.000    0.000    0.000    0.000 
#
# Total GULP energy -644254.848871 kJ/mol
# GULP energy per Si atom -12389.516324 kJ/mol
# Density = 1.989788 g / cm^3
# Si number density = 19.943271 Si / 1000 Ang^3
#
#
#
# Elastic Constant Matrix: (Units=GPa)
#
#
# Indices 1 2 3 4 5 6 
#
# 1 38.6851 16.7853 28.9065 0.0000 0.0000 0.0000
# 2 16.7853 130.8432 66.3256 0.0000 0.0000 0.0000
# 3 28.9065 66.3256 126.0481 0.0000 0.0000 0.0000
# 4 0.0000 0.0000 0.0000 39.0624 0.0000 0.0000
# 5 0.0000 0.0000 0.0000 0.0000 16.0730 0.0000
# 6 0.0000 0.0000 0.0000 0.0000 0.0000 -0.6050
#
#
#
# Elastic Compliance Matrix: (Units=1/GPa)
#
#
# Indices 1 2 3 4 5 6 
#
# 1 0.031221 -0.000512 -0.006890 0.000000 0.000000 0.000000
# 2 -0.000512 0.010431 -0.005371 0.000000 0.000000 0.000000
# 3 -0.006890 -0.005371 0.012340 0.000000 0.000000 0.000000
# 4 0.000000 0.000000 0.000000 0.025600 0.000000 0.000000
# 5 0.000000 0.000000 0.000000 0.000000 0.062216 0.000000
# 6 0.000000 0.000000 0.000000 0.000000 0.000000 -1.652835
#
#
# Mechanical properties :
#
#
# Convention : Reuss Voigt Hill
#
# Bulk Modulus (GPa) = 35.15690 57.73458 46.44574
# Shear Modulus (GPa) = -3.38754 23.14334 9.87790
#
# Velocity S-wave (km/s) = -1.30471 3.41025 2.22795
# Velocity P-wave (km/s) = 3.92390 6.67223 5.47337
#
# Compressibility (1/GPa) = 0.02844392
#
# Stress axis : x y z
#
# Youngs Moduli (GPa) = 32.03013 95.86580 81.03761
#
# Poissons Ratio (x) = 0.04913 0.55836
# Poissons Ratio (y) = 0.01641 0.43528
# Poissons Ratio (z) = 0.22069 0.51493
#
# Static dielectric constant tensor:
#      x y z
#    x 3.271530 0.000000 0.000000 
#    y 0.000000 3.774970 0.000000 
#    z 0.000000 0.000000 3.719740 
# 
# 
# High freq. dielectric constant tensor:
#      x y z
#    x 1.752790 0.000000 0.000000 
#    y 0.000000 1.772070 0.000000 
#    z 0.000000 0.000000 1.757210 
# 
# From -- ./inp_files/33271.got.cif
#   From: 2010.03.12/outbox.cif.g09.slc.cpg/sg47_17_cif.got.tgz:33271.got - 2010.04.14 03:12:58.
