data_PCOD8195554
_publ_section_title
;
Structure prediction by ZEFSAII (Michael W. Deem and Ramdas Pophale) SiO2 
 PCOD8195554
Probable space group: P M M M
;
_chemical_formula_sum "Si O2"
_cell_formula_units_Z 48
_cell_length_a 9.894101
_cell_length_b 19.247114
_cell_length_c 14.015168
_cell_angle_alpha 90.000000
_cell_angle_beta 90.000000
_cell_angle_gamma 90.000000
_cell_volume 2668.948944
_symmetry_space_group_name_H-M "P M M M"
_symmetry_group_IT_number 47
_symmetry_cell_setting 'orthorhombic'
loop_
_space_group_symop_operation_xyz
x,y,z
-x,-y,z
x,-y,-z
-x,y,-z
-x,-y,-z
x,y,-z
-x,y,z
x,-y,z
loop_
_atom_site_type_symbol
_atom_site_label
_atom_site_fract_x
_atom_site_fract_y
_atom_site_fract_z
Si Si1 0.500000 0.082191 0.109954
Si Si2 0.658475 0.424011 0.215988
Si Si3 0.340101 0.290358 0.108858
Si Si4 0.247649 0.153225 0.200817
Si Si5 0.841671 0.795313 0.392374
Si Si6 0.653583 0.663206 0.393487
Si Si7 0.000000 0.922642 0.888057
O O1 0.375282 0.108110 0.171540
O O2 0.500000 0.000000 0.105269
O O3 0.500000 0.111723 0.000000
O O4 0.500000 0.431826 0.201617
O O5 0.726184 0.500000 0.198287
O O6 0.711789 0.366518 0.141084
O O7 0.692632 0.399224 0.323036
O O8 0.500000 0.282207 0.125138
O O9 0.264616 0.233616 0.172549
O O10 0.299309 0.278957 0.000000
O O11 0.215618 0.149753 0.314549
O O12 0.128018 0.120542 0.142204
O O13 0.820373 0.825022 0.500000
O O14 0.758626 0.724926 0.379215
O O15 0.000000 0.780501 0.373262
O O16 0.662932 0.632900 0.500000
O O17 0.500000 0.690084 0.371777
O O18 0.000000 0.000000 0.841792
O O19 0.000000 0.930638 0.000000
#
# Coordination Sequence:
#
# PCOD8195554 Si02
#       7
#     4   8   8   8   8   8   4
#     4  11  24  40  61  89 120 152 182 221 283 345
#     4   9  17  28  44  71 110 147 180 227 281 329
#     4  10  19  31  50  77 109 146 189 231 273 329
#     4  12  21  37  61  86 114 150 190 232 281 332
#     4  10  21  37  57  84 114 147 189 236 284 332
#     4   9  17  30  51  78 106 139 182 233 288 338
#     4  11  24  40  59  87 120 148 182 229 281 339
#
# _framework density 17.984608000000001
#
# number of rings (size 3 to 8) (size 9 to 14) (size 15 to 20)
#    0.000    1.833    3.333    2.000    1.167    2.000 
#    0.000    3.333    0.000    3.500    0.000    2.333 
#    0.000    3.333    0.000    0.000    0.000    0.000 
#
# Total GULP energy -594964.135216 kJ/mol
# GULP energy per Si atom -12395.086150 kJ/mol
# Density = 1.794367 g / cm^3
# Si number density = 17.984608 Si / 1000 Ang^3
#
#
#
# Elastic Constant Matrix: (Units=GPa)
#
#
# Indices 1 2 3 4 5 6 
#
# 1 93.6808 36.2832 38.7544 0.0000 0.0000 0.0000
# 2 36.2832 91.9443 48.0564 0.0000 0.0000 0.0000
# 3 38.7544 48.0564 119.4363 0.0000 0.0000 0.0000
# 4 0.0000 0.0000 0.0000 22.0688 0.0000 0.0000
# 5 0.0000 0.0000 0.0000 0.0000 21.2447 0.0000
# 6 0.0000 0.0000 0.0000 0.0000 0.0000 557.2068
#
#
#
# Elastic Compliance Matrix: (Units=1/GPa)
#
#
# Indices 1 2 3 4 5 6 
#
# 1 0.013296 -0.003789 -0.002790 0.000000 0.000000 0.000000
# 2 -0.003789 0.014852 -0.004747 0.000000 0.000000 0.000000
# 3 -0.002790 -0.004747 0.011188 0.000000 0.000000 0.000000
# 4 0.000000 0.000000 0.000000 0.045313 0.000000 0.000000
# 5 0.000000 0.000000 0.000000 0.000000 0.047071 0.000000
# 6 0.000000 0.000000 0.000000 0.000000 0.000000 0.001795
#
#
# Mechanical properties :
#
#
# Convention : Reuss Voigt Hill
#
# Bulk Modulus (GPa) = 59.93169 61.24995 60.59082
# Shear Modulus (GPa) = 30.91643 132.23521 81.57582
#
# Velocity S-wave (km/s) = 4.15064 8.58408 6.74219
# Velocity P-wave (km/s) = 7.50777 11.50563 9.71458
#
# Compressibility (1/GPa) = 0.01668566
#
# Stress axis : x y z
#
# Youngs Moduli (GPa) = 75.21018 67.33039 89.38374
#
# Poissons Ratio (x) = 0.25510 0.24937
# Poissons Ratio (y) = 0.28495 0.42426
# Poissons Ratio (z) = 0.20982 0.31959
#
# Static dielectric constant tensor:
#      x y z
#    x 3.194400 0.000000 0.000000 
#    y 0.000000 3.446440 0.000000 
#    z 0.000000 0.000000 3.645780 
# 
# 
# High freq. dielectric constant tensor:
#      x y z
#    x 1.675580 0.000000 0.000000 
#    y 0.000000 1.685240 0.000000 
#    z 0.000000 0.000000 1.710700 
# 
# From -- ./inp_files/21104.got.cif
#   From: 2010.03.12/outbox.cif.g09.slc.cpg/sg47_11_cif.got.tgz:21104.got - 2010.04.14 03:12:58.
