data_PCOD8195545
_publ_section_title
;
Structure prediction by ZEFSAII (Michael W. Deem and Ramdas Pophale) SiO2 
 PCOD8195545
Probable space group: P M M M
;
_chemical_formula_sum "Si O2"
_cell_formula_units_Z 64
_cell_length_a 25.106755
_cell_length_b 8.980253
_cell_length_c 15.154861
_cell_angle_alpha 90.000000
_cell_angle_beta 90.000000
_cell_angle_gamma 90.000000
_cell_volume 3416.890916
_symmetry_space_group_name_H-M "P M M M"
_symmetry_group_IT_number 47
_symmetry_cell_setting 'orthorhombic'
loop_
_space_group_symop_operation_xyz
x,y,z
-x,-y,z
x,-y,-z
-x,y,-z
-x,-y,-z
x,y,-z
-x,y,z
x,-y,z
loop_
_atom_site_type_symbol
_atom_site_label
_atom_site_fract_x
_atom_site_fract_y
_atom_site_fract_z
Si Si1 0.899656 0.328136 0.901619
Si Si2 0.793064 0.831516 0.867950
Si Si3 0.441017 0.676936 0.599068
Si Si4 0.860218 0.670506 0.400276
Si Si5 0.060862 0.829106 0.266708
Si Si6 0.687133 0.330088 0.095527
Si Si7 0.236922 0.169376 0.330432
Si Si8 0.345086 0.325044 0.715573
O O1 0.900729 0.500000 0.873482
O O2 0.839017 0.273499 0.903960
O O3 0.933990 0.236018 0.831642
O O4 0.923905 0.306800 0.000000
O O5 0.737692 0.776381 0.907355
O O6 0.792750 0.822391 0.762805
O O7 0.802664 0.000000 0.900138
O O8 0.426266 0.729945 0.500000
O O9 0.500000 0.736619 0.624799
O O10 0.441379 0.500000 0.602721
O O11 0.397722 0.740375 0.668130
O O12 0.881727 0.683809 0.500000
O O13 0.853454 0.500000 0.370938
O O14 0.902902 0.745240 0.336660
O O15 0.802277 0.747630 0.397618
O O16 0.000000 0.813360 0.297514
O O17 0.079380 0.000000 0.263752
O O18 0.706715 0.500000 0.107720
O O19 0.649937 0.288197 0.179335
O O20 0.657359 0.311469 0.000000
O O21 0.293953 0.248461 0.327619
O O22 0.245774 0.000000 0.361156
O O23 0.339624 0.500000 0.698413
#
# Coordination Sequence:
#
# PCOD8195545 Si02
#       8
#     8   8   8   8   8   8   8   8
#     4  11  23  37  57  84 112 144 181 222 270 323
#     4  10  19  31  50  76 105 138 176 217 262 314
#     4   8  14  26  46  72  99 128 169 222 273 318
#     4  11  24  41  63  88 112 142 180 221 268 326
#     4  11  25  44  64  85 110 142 180 225 275 325
#     4   9  17  28  42  64  98 138 175 210 254 309
#     4  10  20  34  53  79 112 145 175 213 266 322
#     4   9  17  29  48  73 102 137 176 219 263 314
#
# _framework density 18.730478000000002
#
# number of rings (size 3 to 8) (size 9 to 14) (size 15 to 20)
#    0.000    2.125    1.250    2.625    0.000    6.750 
#    0.000    3.750    0.000    0.750    0.000    3.500 
#    0.000    0.000    0.000    6.250    0.000    6.500 
#
# Total GULP energy -793449.583102 kJ/mol
# GULP energy per Si atom -12397.649736 kJ/mol
# Density = 1.868785 g / cm^3
# Si number density = 18.730478 Si / 1000 Ang^3
#
#
#
# Elastic Constant Matrix: (Units=GPa)
#
#
# Indices 1 2 3 4 5 6 
#
# 1 102.1051 41.3018 61.1499 0.0000 0.0000 0.0000
# 2 41.3018 93.9468 43.4630 0.0000 0.0000 0.0000
# 3 61.1499 43.4630 109.6108 0.0000 0.0000 0.0000
# 4 0.0000 0.0000 0.0000 13.5735 0.0000 0.0000
# 5 0.0000 0.0000 0.0000 0.0000 13.3380 0.0000
# 6 0.0000 0.0000 0.0000 0.0000 0.0000 6.8348
#
#
#
# Elastic Compliance Matrix: (Units=1/GPa)
#
#
# Indices 1 2 3 4 5 6 
#
# 1 0.015577 -0.003463 -0.007317 0.000000 0.000000 0.000000
# 2 -0.003463 0.013805 -0.003542 0.000000 0.000000 0.000000
# 3 -0.007317 -0.003542 0.014610 0.000000 0.000000 0.000000
# 4 0.000000 0.000000 0.000000 0.073673 0.000000 0.000000
# 5 0.000000 0.000000 0.000000 0.000000 0.074974 0.000000
# 6 0.000000 0.000000 0.000000 0.000000 0.000000 0.146310
#
#
# Mechanical properties :
#
#
# Convention : Reuss Voigt Hill
#
# Bulk Modulus (GPa) = 65.15588 66.38800 65.77194
# Shear Modulus (GPa) = 13.41534 17.39914 15.40724
#
# Velocity S-wave (km/s) = 2.67915 3.05113 2.87117
# Velocity P-wave (km/s) = 6.66573 6.92339 6.79578
#
# Compressibility (1/GPa) = 0.01534781
#
# Stress axis : x y z
#
# Youngs Moduli (GPa) = 64.19912 72.43494 68.44790
#
# Poissons Ratio (x) = 0.25084 0.50082
# Poissons Ratio (y) = 0.22232 0.24246
# Poissons Ratio (z) = 0.46973 0.25658
#
# Static dielectric constant tensor:
#      x y z
#    x 3.353120 0.000000 0.000000 
#    y 0.000000 3.418160 0.000000 
#    z 0.000000 0.000000 3.636010 
# 
# 
# High freq. dielectric constant tensor:
#      x y z
#    x 1.702150 0.000000 0.000000 
#    y 0.000000 1.722390 0.000000 
#    z 0.000000 0.000000 1.735500 
# 
# From -- ./inp_files/25613.got.cif
#   From: 2010.03.12/outbox.cif.g09.slc.cpg/sg47_13_cif.got.tgz:25613.got - 2010.04.14 03:12:58.
