data_PCOD8195939
_publ_section_title
;
Structure prediction by ZEFSAII (Michael W. Deem and Ramdas Pophale) SiO2 
 PCOD8195939
Probable space group: P M M M
;
_chemical_formula_sum "Si O2"
_cell_formula_units_Z 48
_cell_length_a 15.288634
_cell_length_b 14.180543
_cell_length_c 11.758594
_cell_angle_alpha 90.000000
_cell_angle_beta 90.000000
_cell_angle_gamma 90.000000
_cell_volume 2549.276488
_symmetry_space_group_name_H-M "P M M M"
_symmetry_group_IT_number 47
_symmetry_cell_setting 'orthorhombic'
loop_
_space_group_symop_operation_xyz
x,y,z
-x,-y,z
x,-y,-z
-x,y,-z
-x,-y,-z
x,y,-z
-x,y,z
x,-y,z
loop_
_atom_site_type_symbol
_atom_site_label
_atom_site_fract_x
_atom_site_fract_y
_atom_site_fract_z
Si Si1 0.139550 0.399097 0.000000
Si Si2 0.238328 0.605699 0.767859
Si Si3 0.164772 0.106237 0.223567
Si Si4 0.653596 0.101711 0.128581
Si Si5 0.906112 0.195161 0.000000
Si Si6 0.899616 0.268417 0.633961
Si Si7 0.597004 0.303502 0.131132
O O1 0.202352 0.395296 0.106614
O O2 0.087341 0.500000 0.000000
O O3 0.077801 0.308273 0.000000
O O4 0.249529 0.500000 0.718809
O O5 0.170123 0.660027 0.687603
O O6 0.333910 0.654168 0.778495
O O7 0.269600 0.104937 0.222954
O O8 0.125112 0.161488 0.330988
O O9 0.126257 0.000000 0.222859
O O10 0.143183 0.165119 0.111871
O O11 0.590600 0.190169 0.148311
O O12 0.604579 0.000000 0.143247
O O13 0.693251 0.106766 0.000000
O O14 0.000000 0.145461 0.000000
O O15 0.891908 0.276889 0.500000
O O16 0.000000 0.291243 0.673086
O O17 0.500000 0.343540 0.158338
O O18 0.622259 0.327565 0.000000
#
# Coordination Sequence:
#
# PCOD8195939 Si02
#       7
#     4   8   8   8   4   8   8
#     4  10  20  34  56  82 109 147 187 232 291 349
#     4  11  22  39  61  84 117 152 189 240 295 353
#     4  11  21  35  56  83 116 154 191 234 290 351
#     4   9  16  29  51  80 116 154 189 226 274 335
#     4  12  21  31  50  80 117 149 186 235 289 354
#     4  11  25  43  62  84 111 150 201 250 295 345
#     4  10  19  32  55  89 126 158 187 225 282 354
#
# _framework density 18.828870999999999
#
# number of rings (size 3 to 8) (size 9 to 14) (size 15 to 20)
#    0.000    1.500    5.000    0.750    0.000    3.500 
#    0.000    5.833    0.000    0.500    0.000    1.167 
#    0.000    2.667    0.000    0.000    0.000    0.000 
#
# Total GULP energy -594710.864013 kJ/mol
# GULP energy per Si atom -12389.809667 kJ/mol
# Density = 1.878602 g / cm^3
# Si number density = 18.828871 Si / 1000 Ang^3
#
#
#
# Elastic Constant Matrix: (Units=GPa)
#
#
# Indices 1 2 3 4 5 6 
#
# 1 103.8070 46.4023 33.6628 0.0000 0.0000 0.0000
# 2 46.4023 148.1677 34.7877 0.0000 0.0000 0.0000
# 3 33.6628 34.7877 62.5241 0.0000 0.0000 0.0000
# 4 0.0000 0.0000 0.0000 15.4483 0.0000 0.0000
# 5 0.0000 0.0000 0.0000 0.0000 8.3617 0.0000
# 6 0.0000 0.0000 0.0000 0.0000 0.0000 7.3742
#
#
#
# Elastic Compliance Matrix: (Units=1/GPa)
#
#
# Indices 1 2 3 4 5 6 
#
# 1 0.012541 -0.002694 -0.005253 0.000000 0.000000 0.000000
# 2 -0.002694 0.008342 -0.003191 0.000000 0.000000 0.000000
# 3 -0.005253 -0.003191 0.020597 0.000000 0.000000 0.000000
# 4 0.000000 0.000000 0.000000 0.064732 0.000000 0.000000
# 5 0.000000 0.000000 0.000000 0.000000 0.119592 0.000000
# 6 0.000000 0.000000 0.000000 0.000000 0.000000 0.135609
#
#
# Mechanical properties :
#
#
# Convention : Reuss Voigt Hill
#
# Bulk Modulus (GPa) = 52.07170 60.46716 56.26943
# Shear Modulus (GPa) = 12.81752 19.54658 16.18205
#
# Velocity S-wave (km/s) = 2.61193 3.22548 2.93478
# Velocity P-wave (km/s) = 6.06725 6.78641 6.43688
#
# Compressibility (1/GPa) = 0.01920429
#
# Stress axis : x y z
#
# Youngs Moduli (GPa) = 79.73814 119.87491 48.54984
#
# Poissons Ratio (x) = 0.32297 0.25503
# Poissons Ratio (y) = 0.21483 0.15492
# Poissons Ratio (z) = 0.41887 0.38250
#
# Static dielectric constant tensor:
#      x y z
#    x 3.330170 0.000000 0.000000 
#    y 0.000000 3.902180 0.000000 
#    z 0.000000 0.000000 2.637890 
# 
# 
# High freq. dielectric constant tensor:
#      x y z
#    x 1.724950 0.000000 0.000000 
#    y 0.000000 1.748520 0.000000 
#    z 0.000000 0.000000 1.680680 
# 
# From -- ./inp_files/17579.got.cif
#   From: 2010.03.12/outbox.cif.g09.slc.cpg/sg47_9_cif.got.tgz:17579.got - 2010.04.14 03:12:58.
