data_PCOD8195904
_publ_section_title
;
Structure prediction by ZEFSAII (Michael W. Deem and Ramdas Pophale) SiO2 
 PCOD8195904
Probable space group: P M M M
;
_chemical_formula_sum "Si O2"
_cell_formula_units_Z 52
_cell_length_a 12.900642
_cell_length_b 8.872218
_cell_length_c 23.406449
_cell_angle_alpha 90.000000
_cell_angle_beta 90.000000
_cell_angle_gamma 90.000000
_cell_volume 2679.039146
_symmetry_space_group_name_H-M "P M M M"
_symmetry_group_IT_number 47
_symmetry_cell_setting 'orthorhombic'
loop_
_space_group_symop_operation_xyz
x,y,z
-x,-y,z
x,-y,-z
-x,y,-z
-x,-y,-z
x,y,-z
-x,y,z
x,-y,z
loop_
_atom_site_type_symbol
_atom_site_label
_atom_site_fract_x
_atom_site_fract_y
_atom_site_fract_z
Si Si1 0.789061 0.677835 0.065171
Si Si2 0.692174 0.679801 0.435883
Si Si3 0.886781 0.321079 0.368028
Si Si4 0.500000 0.178056 0.762526
Si Si5 0.119143 0.324677 0.761934
Si Si6 0.500000 0.320980 0.361474
Si Si7 0.298468 0.822739 0.831708
Si Si8 0.000000 0.169069 0.067701
O O1 0.793828 0.500000 0.070943
O O2 0.699331 0.744665 0.105755
O O3 0.898177 0.742672 0.088288
O O4 0.766106 0.727321 0.000000
O O5 0.677874 0.742668 0.500000
O O6 0.692997 0.500000 0.436684
O O7 0.799610 0.744648 0.410277
O O8 0.599604 0.738510 0.396046
O O9 0.888572 0.500000 0.371396
O O10 0.862063 0.273809 0.303275
O O11 0.000000 0.258215 0.386518
O O12 0.500000 0.254480 0.701273
O O13 0.601255 0.232870 0.796867
O O14 0.500000 0.000000 0.753866
O O15 0.147215 0.500000 0.770513
O O16 0.193802 0.223377 0.799693
O O17 0.000000 0.294292 0.779639
O O18 0.500000 0.500000 0.356598
O O19 0.301072 0.000000 0.840871
O O20 0.000000 0.000000 0.093278
O O21 0.000000 0.163698 0.000000
#
# Coordination Sequence:
#
# PCOD8195904 Si02
#       8
#     8   8   8   4   8   4   8   4
#     4  10  21  37  57  82 113 147 181 219 267 322
#     4   9  16  25  41  70 104 133 167 214 263 313
#     4   8  14  25  41  63  95 136 175 208 252 314
#     4  10  24  43  58  78 106 141 183 232 283 328
#     4   9  18  33  53  78 109 142 177 222 275 328
#     4  10  19  32  54  77  99 132 173 217 271 328
#     4  11  23  38  57  79 107 140 182 230 277 331
#     4   9  17  31  53  81 113 149 185 217 254 305
#
# _framework density 19.409942999999998
#
# number of rings (size 3 to 8) (size 9 to 14) (size 15 to 20)
#    0.000    2.538    0.000    3.231    1.077    5.846 
#    0.000    1.923    0.000    3.231    0.000    0.000 
#    0.000    0.000    0.000   13.231    0.000   10.769 
#
# Total GULP energy -644740.791845 kJ/mol
# GULP energy per Si atom -12398.861382 kJ/mol
# Density = 1.936577 g / cm^3
# Si number density = 19.409943 Si / 1000 Ang^3
#
#
#
# Elastic Constant Matrix: (Units=GPa)
#
#
# Indices 1 2 3 4 5 6 
#
# 1 133.2963 29.6139 90.1049 0.0000 0.0000 0.0000
# 2 29.6139 45.2780 34.8788 0.0000 0.0000 0.0000
# 3 90.1049 34.8788 148.4085 0.0000 0.0000 0.0000
# 4 0.0000 0.0000 0.0000 14.8184 0.0000 0.0000
# 5 0.0000 0.0000 0.0000 0.0000 36.7250 0.0000
# 6 0.0000 0.0000 0.0000 0.0000 0.0000 20.8014
#
#
#
# Elastic Compliance Matrix: (Units=1/GPa)
#
#
# Indices 1 2 3 4 5 6 
#
# 1 0.013043 -0.002968 -0.007221 0.000000 0.000000 0.000000
# 2 -0.002968 0.027643 -0.004695 0.000000 0.000000 0.000000
# 3 -0.007221 -0.004695 0.012226 0.000000 0.000000 0.000000
# 4 0.000000 0.000000 0.000000 0.067484 0.000000 0.000000
# 5 0.000000 0.000000 0.000000 0.000000 0.027229 0.000000
# 6 0.000000 0.000000 0.000000 0.000000 0.000000 0.048074
#
#
# Mechanical properties :
#
#
# Convention : Reuss Voigt Hill
#
# Bulk Modulus (GPa) = 43.20743 70.68642 56.94693
# Shear Modulus (GPa) = 21.44249 25.96132 23.70191
#
# Velocity S-wave (km/s) = 3.32733 3.66119 3.49825
# Velocity P-wave (km/s) = 6.08854 7.37354 6.76164
#
# Compressibility (1/GPa) = 0.02314417
#
# Stress axis : x y z
#
# Youngs Moduli (GPa) = 76.67006 36.17494 81.79336
#
# Poissons Ratio (x) = 0.10736 0.59066
# Poissons Ratio (y) = 0.22754 0.38401
# Poissons Ratio (z) = 0.55366 0.16984
#
# Static dielectric constant tensor:
#      x y z
#    x 3.846930 0.000000 0.000000 
#    y 0.000000 3.154400 0.000000 
#    z 0.000000 0.000000 3.716050 
# 
# 
# High freq. dielectric constant tensor:
#      x y z
#    x 1.754960 0.000000 0.000000 
#    y 0.000000 1.716920 0.000000 
#    z 0.000000 0.000000 1.765720 
# 
# From -- ./inp_files/33658.got.cif
#   From: 2010.03.12/outbox.cif.g09.slc.cpg/sg47_17_cif.got.tgz:33658.got - 2010.04.14 03:12:58.
