data_PCOD8195059
_publ_section_title
;
Structure prediction by ZEFSAII (Michael W. Deem and Ramdas Pophale) SiO2 
 PCOD8195059
Probable space group: P M M M
;
_chemical_formula_sum "Si O2"
_cell_formula_units_Z 36
_cell_length_a 16.834388
_cell_length_b 9.954977
_cell_length_c 13.682275
_cell_angle_alpha 90.000000
_cell_angle_beta 90.000000
_cell_angle_gamma 90.000000
_cell_volume 2292.956990
_symmetry_space_group_name_H-M "P M M M"
_symmetry_group_IT_number 47
_symmetry_cell_setting 'orthorhombic'
loop_
_space_group_symop_operation_xyz
x,y,z
-x,-y,z
x,-y,-z
-x,y,-z
-x,-y,-z
x,y,-z
-x,y,z
x,-y,z
loop_
_atom_site_type_symbol
_atom_site_label
_atom_site_fract_x
_atom_site_fract_y
_atom_site_fract_z
Si Si1 0.086909 0.000000 0.115679
Si Si2 0.190271 0.245697 0.884058
Si Si3 0.909803 0.500000 0.115752
Si Si4 0.500000 0.841914 0.892220
Si Si5 0.654342 0.838425 0.772961
Si Si6 0.407544 0.346996 0.613105
O O1 0.133880 0.127937 0.152158
O O2 0.000000 0.000000 0.164156
O O3 0.078963 0.000000 0.000000
O O4 0.142205 0.375154 0.848507
O O5 0.272764 0.228274 0.829236
O O6 0.206717 0.244307 0.000000
O O7 0.000000 0.500000 0.159782
O O8 0.918128 0.500000 0.000000
O O9 0.577921 0.795878 0.835306
O O10 0.500000 0.000000 0.903072
O O11 0.500000 0.775387 0.000000
O O12 0.645652 0.763359 0.669350
O O13 0.662960 0.000000 0.759944
O O14 0.385488 0.331336 0.500000
O O15 0.500000 0.314640 0.630234
O O16 0.388895 0.500000 0.647616
#
# Coordination Sequence:
#
# PCOD8195059 Si02
#       6
#     4   8   4   4   8   8
#     4   9  16  28  46  65  90 129 168 201 242 289
#     4  10  19  30  45  69 101 134 167 206 243 286
#     4   9  18  32  48  67  94 131 172 209 250 293
#     4   9  18  30  44  63  96 140 173 197 224 273
#     4  11  20  31  48  73 100 131 171 205 243 285
#     4   9  19  36  55  72  93 124 162 207 259 301
#
# _framework density 15.700252000000001
#
# number of rings (size 3 to 8) (size 9 to 14) (size 15 to 20)
#    0.000    2.333    2.222    2.000    1.556    4.000 
#    0.000    1.111    0.000    0.667    0.000    0.000 
#    0.000    5.333    0.000    0.000    0.000    0.000 
#
# Total GULP energy -446209.385814 kJ/mol
# GULP energy per Si atom -12394.705161 kJ/mol
# Density = 1.566452 g / cm^3
# Si number density = 15.700252 Si / 1000 Ang^3
#
#
#
# Elastic Constant Matrix: (Units=GPa)
#
#
# Indices 1 2 3 4 5 6 
#
# 1 138.4242 64.0142 41.3629 0.0000 0.0000 0.0000
# 2 64.0142 119.5538 39.2050 0.0000 0.0000 0.0000
# 3 41.3629 39.2050 61.7499 0.0000 0.0000 0.0000
# 4 0.0000 0.0000 0.0000 29.5684 0.0000 0.0000
# 5 0.0000 0.0000 0.0000 0.0000 0.5833 0.0000
# 6 0.0000 0.0000 0.0000 0.0000 0.0000 -76.5991
#
#
#
# Elastic Compliance Matrix: (Units=1/GPa)
#
#
# Indices 1 2 3 4 5 6 
#
# 1 0.010454 -0.004169 -0.004355 0.000000 0.000000 0.000000
# 2 -0.004169 0.012227 -0.004970 0.000000 0.000000 0.000000
# 3 -0.004355 -0.004970 0.022267 0.000000 0.000000 0.000000
# 4 0.000000 0.000000 0.000000 0.033820 0.000000 0.000000
# 5 0.000000 0.000000 0.000000 0.000000 1.714360 0.000000
# 6 0.000000 0.000000 0.000000 0.000000 0.000000 -0.013055
#
#
# Mechanical properties :
#
#
# Convention : Reuss Voigt Hill
#
# Bulk Modulus (GPa) = 55.68385 67.65468 61.66927
# Shear Modulus (GPa) = 2.75779 2.38690 2.57234
#
# Velocity S-wave (km/s) = 1.32678 1.23434 1.28139
# Velocity P-wave (km/s) = 6.15556 6.72432 6.44622
#
# Compressibility (1/GPa) = 0.01795853
#
# Stress axis : x y z
#
# Youngs Moduli (GPa) = 95.66098 81.78932 44.90901
#
# Poissons Ratio (x) = 0.34098 0.19559
# Poissons Ratio (y) = 0.39882 0.22320
# Poissons Ratio (z) = 0.41664 0.40649
#
# Static dielectric constant tensor:
#      x y z
#    x 3.084450 0.000000 0.000000 
#    y 0.000000 3.084380 0.000000 
#    z 0.000000 0.000000 2.726980 
# 
# 
# High freq. dielectric constant tensor:
#      x y z
#    x 1.605140 0.000000 0.000000 
#    y 0.000000 1.609910 0.000000 
#    z 0.000000 0.000000 1.562000 
# 
# From -- ./inp_files/5564.got.cif
#   From: 2010.03.12/outbox.cif.g09.slc.cpg/sg47_3_cif.got.tgz:5564.got - 2010.04.14 03:12:58.
