data_PCOD8195230
_publ_section_title
;
Structure prediction by ZEFSAII (Michael W. Deem and Ramdas Pophale) SiO2 
 PCOD8195230
Probable space group: P M M M
;
_chemical_formula_sum "Si O2"
_cell_formula_units_Z 64
_cell_length_a 28.196748
_cell_length_b 13.990250
_cell_length_c 9.115397
_cell_angle_alpha 90.000000
_cell_angle_beta 90.000000
_cell_angle_gamma 90.000000
_cell_volume 3595.837740
_symmetry_space_group_name_H-M "P M M M"
_symmetry_group_IT_number 47
_symmetry_cell_setting 'orthorhombic'
loop_
_space_group_symop_operation_xyz
x,y,z
-x,-y,z
x,-y,-z
-x,y,-z
-x,-y,-z
x,y,-z
-x,y,z
x,-y,z
loop_
_atom_site_type_symbol
_atom_site_label
_atom_site_fract_x
_atom_site_fract_y
_atom_site_fract_z
Si Si1 0.865502 0.786241 0.828219
Si Si2 0.196960 0.609557 0.171269
Si Si3 0.622200 0.731511 0.172323
Si Si4 0.786106 0.892280 0.666654
Si Si5 0.054479 0.891774 0.328179
Si Si6 0.552742 0.106515 0.174313
Si Si7 0.278516 0.282313 0.669925
Si Si8 0.447508 0.612363 0.662454
O O1 0.846837 0.679682 0.785063
O O2 0.828234 0.865475 0.775611
O O3 0.915545 0.809965 0.753383
O O4 0.872393 0.795810 0.000000
O O5 0.183052 0.500000 0.209334
O O6 0.243836 0.638738 0.260021
O O7 0.208732 0.621458 0.000000
O O8 0.594003 0.824270 0.234228
O O9 0.671393 0.716355 0.252491
O O10 0.588973 0.642625 0.211714
O O11 0.631663 0.736589 0.000000
O O12 0.804988 0.881394 0.500000
O O13 0.741506 0.824055 0.693853
O O14 0.769359 0.000000 0.699617
O O15 0.062552 0.879227 0.500000
O O16 0.000000 0.874132 0.285895
O O17 0.069372 0.000000 0.281562
O O18 0.500000 0.135984 0.231259
O O19 0.564945 0.000000 0.229411
O O20 0.552482 0.110910 0.000000
O O21 0.284475 0.308410 0.500000
O O22 0.432530 0.650161 0.500000
O O23 0.500000 0.651196 0.701942
O O24 0.448249 0.500000 0.659971
#
# Coordination Sequence:
#
# PCOD8195230 Si02
#       8
#     8   8   8   8   8   8   8   8
#     4  10  19  30  49  78 104 127 163 210 255 296
#     4   9  19  37  57  74  96 127 163 206 254 301
#     4  11  21  32  50  75 100 127 158 193 237 287
#     4   9  18  33  51  69  94 131 168 199 237 289
#     4   9  18  32  49  71 104 146 182 207 239 288
#     4   8  15  29  48  70  96 125 158 195 233 276
#     4  10  21  35  50  71  98 127 161 200 241 287
#     4   9  19  36  55  73  94 121 152 187 231 283
#
# _framework density 17.798355000000001
#
# number of rings (size 3 to 8) (size 9 to 14) (size 15 to 20)
#    0.000    2.625    0.000    3.000    0.000    5.500 
#    0.000    1.250    0.000    1.500    0.000    7.000 
#    0.000    0.000    0.000    0.000    0.000    0.000 
#
# Total GULP energy -793378.621685 kJ/mol
# GULP energy per Si atom -12396.540964 kJ/mol
# Density = 1.775785 g / cm^3
# Si number density = 17.798355 Si / 1000 Ang^3
#
#
#
# Elastic Constant Matrix: (Units=GPa)
#
#
# Indices 1 2 3 4 5 6 
#
# 1 125.6203 60.2336 55.2163 0.0000 0.0000 0.0000
# 2 60.2336 108.4088 42.6786 0.0000 0.0000 0.0000
# 3 55.2163 42.6786 66.1914 0.0000 0.0000 0.0000
# 4 0.0000 0.0000 0.0000 23.2286 0.0000 0.0000
# 5 0.0000 0.0000 0.0000 0.0000 17.9011 0.0000
# 6 0.0000 0.0000 0.0000 0.0000 0.0000 35.8984
#
#
#
# Elastic Compliance Matrix: (Units=1/GPa)
#
#
# Indices 1 2 3 4 5 6 
#
# 1 0.013878 -0.004226 -0.008852 0.000000 0.000000 0.000000
# 2 -0.004226 0.013649 -0.005276 0.000000 0.000000 0.000000
# 3 -0.008852 -0.005276 0.025893 0.000000 0.000000 0.000000
# 4 0.000000 0.000000 0.000000 0.043050 0.000000 0.000000
# 5 0.000000 0.000000 0.000000 0.000000 0.055863 0.000000
# 6 0.000000 0.000000 0.000000 0.000000 0.000000 0.027856
#
#
# Mechanical properties :
#
#
# Convention : Reuss Voigt Hill
#
# Bulk Modulus (GPa) = 59.83100 68.49748 64.16424
# Shear Modulus (GPa) = 22.47525 24.87840 23.67683
#
# Velocity S-wave (km/s) = 3.55740 3.74276 3.65126
# Velocity P-wave (km/s) = 7.11073 7.56614 7.34197
#
# Compressibility (1/GPa) = 0.01671374
#
# Stress axis : x y z
#
# Youngs Moduli (GPa) = 72.05903 73.26478 38.61996
#
# Poissons Ratio (x) = 0.30960 0.34186
# Poissons Ratio (y) = 0.30450 0.20374
# Poissons Ratio (z) = 0.63785 0.38651
#
# Static dielectric constant tensor:
#      x y z
#    x 3.264280 0.000000 0.000000 
#    y 0.000000 3.387010 0.000000 
#    z 0.000000 0.000000 3.264710 
# 
# 
# High freq. dielectric constant tensor:
#      x y z
#    x 1.681820 0.000000 0.000000 
#    y 0.000000 1.685080 0.000000 
#    z 0.000000 0.000000 1.681290 
# 
# From -- ./inp_files/14303.got.cif
#   From: 2010.03.12/outbox.cif.g09.slc.cpg/sg47_8_cif.got.tgz:14303.got - 2010.04.14 03:12:58.
