data_PCOD8195581
_publ_section_title
;
Structure prediction by ZEFSAII (Michael W. Deem and Ramdas Pophale) SiO2 
 PCOD8195581
Probable space group: P M M M
;
_chemical_formula_sum "Si O2"
_cell_formula_units_Z 64
_cell_length_a 14.799594
_cell_length_b 8.726111
_cell_length_c 25.176597
_cell_angle_alpha 90.000000
_cell_angle_beta 90.000000
_cell_angle_gamma 90.000000
_cell_volume 3251.378749
_symmetry_space_group_name_H-M "P M M M"
_symmetry_group_IT_number 47
_symmetry_cell_setting 'orthorhombic'
loop_
_space_group_symop_operation_xyz
x,y,z
-x,-y,z
x,-y,-z
-x,y,-z
-x,-y,-z
x,y,-z
-x,y,z
x,-y,z
loop_
_atom_site_type_symbol
_atom_site_label
_atom_site_fract_x
_atom_site_fract_y
_atom_site_fract_z
Si Si1 0.401860 0.326044 0.591715
Si Si2 0.753267 0.182344 0.138024
Si Si3 0.600535 0.174246 0.298884
Si Si4 0.601260 0.817836 0.940807
Si Si5 0.794156 0.677101 0.441240
Si Si6 0.895996 0.180909 0.657664
Si Si7 0.770019 0.321725 0.252849
Si Si8 0.900493 0.817789 0.058231
O O1 0.500000 0.307834 0.561734
O O2 0.394578 0.500000 0.614041
O O3 0.400249 0.204173 0.638756
O O4 0.314127 0.291041 0.556075
O O5 0.663383 0.242762 0.107619
O O6 0.773023 0.255081 0.194334
O O7 0.834132 0.246338 0.102251
O O8 0.751152 0.000000 0.144413
O O9 0.500000 0.199239 0.274981
O O10 0.668764 0.292189 0.272534
O O11 0.632877 0.000000 0.288601
O O12 0.500000 0.759123 0.929384
O O13 0.605150 0.000000 0.941079
O O14 0.632382 0.761238 0.000000
O O15 0.831418 0.719965 0.500000
O O16 0.812925 0.500000 0.428222
O O17 0.845606 0.773836 0.396771
O O18 0.844618 0.247132 0.708763
O O19 0.000000 0.239811 0.656794
O O20 0.893245 0.000000 0.662367
O O21 0.790322 0.500000 0.251934
O O22 0.000000 0.755481 0.071469
O O23 0.899349 0.000000 0.058852
O O24 0.869789 0.760357 0.000000
#
# Coordination Sequence:
#
# PCOD8195581 Si02
#       8
#     8   8   8   8   8   8   8   8
#     4   9  17  31  54  85 121 159 193 224 265 322
#     4  10  19  31  51  79 109 142 184 233 281 331
#     4  10  20  35  58  85 112 145 187 234 280 328
#     4   8  14  26  47  77 111 146 187 236 286 331
#     4  10  21  37  60  92 127 161 194 231 280 342
#     4  11  25  45  67  87 109 144 194 249 303 354
#     4  12  25  40  58  82 115 154 193 235 290 353
#     4   8  14  26  47  76 106 134 169 219 277 331
#
# _framework density 19.683958000000001
#
# number of rings (size 3 to 8) (size 9 to 14) (size 15 to 20)
#    0.000    2.250    1.250    3.000    0.000    5.000 
#    0.000    5.000    0.000    1.500    0.000    4.375 
#    0.000    0.000    0.000    0.000    0.000    0.000 
#
# Total GULP energy -793038.391237 kJ/mol
# GULP energy per Si atom -12391.224863 kJ/mol
# Density = 1.963916 g / cm^3
# Si number density = 19.683958 Si / 1000 Ang^3
#
#
#
# Elastic Constant Matrix: (Units=GPa)
#
#
# Indices 1 2 3 4 5 6 
#
# 1 136.6104 36.3513 78.5457 0.0000 0.0000 0.0000
# 2 36.3513 53.0134 35.0044 0.0000 0.0000 0.0000
# 3 78.5457 35.0044 145.3130 0.0000 0.0000 0.0000
# 4 0.0000 0.0000 0.0000 -57.1596 0.0000 0.0000
# 5 0.0000 0.0000 0.0000 0.0000 19.3154 0.0000
# 6 0.0000 0.0000 0.0000 0.0000 0.0000 19.3293
#
#
#
# Elastic Compliance Matrix: (Units=1/GPa)
#
#
# Indices 1 2 3 4 5 6 
#
# 1 0.011450 -0.004477 -0.005110 0.000000 0.000000 0.000000
# 2 -0.004477 0.024181 -0.003405 0.000000 0.000000 0.000000
# 3 -0.005110 -0.003405 0.010464 0.000000 0.000000 0.000000
# 4 0.000000 0.000000 0.000000 -0.017495 0.000000 0.000000
# 5 0.000000 0.000000 0.000000 0.000000 0.051772 0.000000
# 6 0.000000 0.000000 0.000000 0.000000 0.000000 0.051735
#
#
# Mechanical properties :
#
#
# Convention : Reuss Voigt Hill
#
# Bulk Modulus (GPa) = 49.72522 70.52661 60.12592
# Shear Modulus (GPa) = 30.34062 8.63272 19.48667
#
# Velocity S-wave (km/s) = 3.93031 2.09647 3.14980
# Velocity P-wave (km/s) = 6.77592 6.46278 6.62120
#
# Compressibility (1/GPa) = 0.02011052
#
# Stress axis : x y z
#
# Youngs Moduli (GPa) = 87.33920 41.35432 95.56257
#
# Poissons Ratio (x) = 0.18513 0.48837
# Poissons Ratio (y) = 0.39098 0.32542
# Poissons Ratio (z) = 0.44634 0.14082
#
# Static dielectric constant tensor:
#      x y z
#    x 4.138320 0.000000 0.000000 
#    y 0.000000 3.255920 0.000000 
#    z 0.000000 0.000000 3.799660 
# 
# 
# High freq. dielectric constant tensor:
#      x y z
#    x 1.779500 0.000000 0.000000 
#    y 0.000000 1.732350 0.000000 
#    z 0.000000 0.000000 1.763370 
# 
# From -- ./inp_files/32799.got.cif
#   From: 2010.03.12/outbox.cif.g09.slc.cpg/sg47_17_cif.got.tgz:32799.got - 2010.04.14 03:12:58.
