data_PCOD8195555
_publ_section_title
;
Structure prediction by ZEFSAII (Michael W. Deem and Ramdas Pophale) SiO2 
 PCOD8195555
Probable space group: P M M M
;
_chemical_formula_sum "Si O2"
_cell_formula_units_Z 56
_cell_length_a 9.006749
_cell_length_b 20.185792
_cell_length_c 15.153584
_cell_angle_alpha 90.000000
_cell_angle_beta 90.000000
_cell_angle_gamma 90.000000
_cell_volume 2755.048284
_symmetry_space_group_name_H-M "P M M M"
_symmetry_group_IT_number 47
_symmetry_cell_setting 'orthorhombic'
loop_
_space_group_symop_operation_xyz
x,y,z
-x,-y,z
x,-y,-z
-x,y,-z
-x,-y,-z
x,y,-z
-x,y,z
x,-y,z
loop_
_atom_site_type_symbol
_atom_site_label
_atom_site_fract_x
_atom_site_fract_y
_atom_site_fract_z
Si Si1 0.327373 0.121441 0.599057
Si Si2 0.168494 0.745283 0.634832
Si Si3 0.329862 0.825315 0.900262
Si Si4 0.829426 0.075055 0.231908
Si Si5 0.327275 0.426883 0.216202
Si Si6 0.830841 0.703581 0.166031
Si Si7 0.668203 0.617341 0.594748
O O1 0.299508 0.093528 0.500000
O O2 0.500000 0.118338 0.623318
O O3 0.274551 0.196847 0.602618
O O4 0.238662 0.078161 0.670124
O O5 0.182599 0.737636 0.739309
O O6 0.221002 0.678748 0.588333
O O7 0.000000 0.760584 0.606487
O O8 0.500000 0.819311 0.870169
O O9 0.250603 0.876917 0.836257
O O10 0.258011 0.752088 0.898757
O O11 0.316348 0.852244 0.000000
O O12 0.000000 0.097721 0.237870
O O13 0.814487 0.000000 0.197235
O O14 0.500000 0.413089 0.199332
O O15 0.282607 0.500000 0.180629
O O16 0.236317 0.370528 0.165082
O O17 0.290749 0.427828 0.321355
O O18 0.000000 0.697712 0.134158
O O19 0.683089 0.579022 0.500000
O O20 0.500000 0.643633 0.606991
#
# Coordination Sequence:
#
# PCOD8195555 Si02
#       7
#     8   8   8   8   8   8   8
#     4  11  23  37  57  85 118 160 208 255 302 352
#     4  10  19  31  50  77 109 148 195 246 301 355
#     4  11  24  42  68  99 126 155 194 242 298 362
#     4  11  25  44  65  91 125 164 203 246 299 355
#     4   9  18  32  51  76 109 153 200 246 300 359
#     4  10  20  35  58  86 117 154 195 243 298 355
#     4   9  17  28  43  67 102 144 193 247 299 352
#
# _framework density 20.326322999999999
#
# number of rings (size 3 to 8) (size 9 to 14) (size 15 to 20)
#    0.000    1.857    1.429    2.571    0.000    7.714 
#    0.000    4.286    0.000    0.429    0.000    7.000 
#    0.000    0.000    0.000    0.000    0.000    0.000 
#
# Total GULP energy -694282.183643 kJ/mol
# GULP energy per Si atom -12397.896136 kJ/mol
# Density = 2.028006 g / cm^3
# Si number density = 20.326323 Si / 1000 Ang^3
#
#
#
# Elastic Constant Matrix: (Units=GPa)
#
#
# Indices 1 2 3 4 5 6 
#
# 1 140.0259 63.5230 47.3976 0.0000 0.0000 0.0000
# 2 63.5230 111.1027 36.1005 0.0000 0.0000 0.0000
# 3 47.3976 36.1005 74.9179 0.0000 0.0000 0.0000
# 4 0.0000 0.0000 0.0000 -1.8102 0.0000 0.0000
# 5 0.0000 0.0000 0.0000 0.0000 17.4730 0.0000
# 6 0.0000 0.0000 0.0000 0.0000 0.0000 32.1445
#
#
#
# Elastic Compliance Matrix: (Units=1/GPa)
#
#
# Indices 1 2 3 4 5 6 
#
# 1 0.010825 -0.004700 -0.004584 0.000000 0.000000 0.000000
# 2 -0.004700 0.012712 -0.003152 0.000000 0.000000 0.000000
# 3 -0.004584 -0.003152 0.017767 0.000000 0.000000 0.000000
# 4 0.000000 0.000000 0.000000 -0.552438 0.000000 0.000000
# 5 0.000000 0.000000 0.000000 0.000000 0.057231 0.000000
# 6 0.000000 0.000000 0.000000 0.000000 0.000000 0.031109
#
#
# Mechanical properties :
#
#
# Convention : Reuss Voigt Hill
#
# Bulk Modulus (GPa) = 60.85568 68.89876 64.87722
# Shear Modulus (GPa) = -12.74070 21.49650 4.37790
#
# Velocity S-wave (km/s) = -2.50633 3.25556 1.46918
# Velocity P-wave (km/s) = 4.65067 6.93552 5.90467
#
# Compressibility (1/GPa) = 0.01643232
#
# Stress axis : x y z
#
# Youngs Moduli (GPa) = 92.37625 78.66552 56.28423
#
# Poissons Ratio (x) = 0.36972 0.25801
# Poissons Ratio (y) = 0.43416 0.17741
# Poissons Ratio (z) = 0.42345 0.24796
#
# Static dielectric constant tensor:
#      x y z
#    x 3.768150 0.000000 0.000000 
#    y 0.000000 3.552480 0.000000 
#    z 0.000000 0.000000 3.598040 
# 
# 
# High freq. dielectric constant tensor:
#      x y z
#    x 1.800310 0.000000 0.000000 
#    y 0.000000 1.784070 0.000000 
#    z 0.000000 0.000000 1.782510 
# 
# From -- ./inp_files/7214.got.cif
#   From: 2010.03.12/outbox.cif.g09.slc.cpg/sg47_4_cif.got.tgz:7214.got - 2010.04.14 03:12:58.
