data_PCOD8195154
_publ_section_title
;
Structure prediction by ZEFSAII (Michael W. Deem and Ramdas Pophale) SiO2 
 PCOD8195154
Probable space group: P M M M
;
_chemical_formula_sum "Si O2"
_cell_formula_units_Z 64
_cell_length_a 8.882023
_cell_length_b 19.011205
_cell_length_c 23.398502
_cell_angle_alpha 90.000000
_cell_angle_beta 90.000000
_cell_angle_gamma 90.000000
_cell_volume 3951.023316
_symmetry_space_group_name_H-M "P M M M"
_symmetry_group_IT_number 47
_symmetry_cell_setting 'orthorhombic'
loop_
_space_group_symop_operation_xyz
x,y,z
-x,-y,z
x,-y,-z
-x,y,-z
-x,-y,-z
x,y,-z
-x,y,z
x,-y,z
loop_
_atom_site_type_symbol
_atom_site_label
_atom_site_fract_x
_atom_site_fract_y
_atom_site_fract_z
Si Si1 0.826442 0.079220 0.386688
Si Si2 0.673886 0.788700 0.434427
Si Si3 0.822400 0.287973 0.665492
Si Si4 0.674068 0.419792 0.934018
Si Si5 0.825165 0.921114 0.746369
Si Si6 0.177717 0.336697 0.836662
Si Si7 0.322314 0.784565 0.772971
Si Si8 0.177350 0.422958 0.271825
O O1 0.724004 0.131435 0.423131
O O2 0.786132 0.086387 0.320318
O O3 0.000000 0.099148 0.396963
O O4 0.794016 0.000000 0.407892
O O5 0.704043 0.769417 0.500000
O O6 0.500000 0.781428 0.418192
O O7 0.768049 0.733009 0.397262
O O8 0.743939 0.238980 0.712155
O O9 0.778551 0.369635 0.677018
O O10 0.000000 0.276002 0.671353
O O11 0.500000 0.409232 0.918099
O O12 0.723113 0.500000 0.921182
O O13 0.774790 0.366250 0.897949
O O14 0.702596 0.401854 0.000000
O O15 0.725884 0.865740 0.782335
O O16 0.000000 0.905300 0.757049
O O17 0.784731 0.000000 0.767105
O O18 0.255577 0.261713 0.824756
O O19 0.234444 0.391396 0.788295
O O20 0.000000 0.325574 0.834340
O O21 0.500000 0.777104 0.772592
O O22 0.251555 0.500000 0.282127
O O23 0.000000 0.431329 0.268710
#
# Coordination Sequence:
#
# PCOD8195154 Si02
#       8
#     8   8   8   8   8   8   8   8
#     4   9  18  32  50  69  89 116 149 185 226 274
#     4  11  23  35  47  65  89 117 150 189 229 274
#     4  10  19  32  50  69  90 116 148 185 230 284
#     4   9  18  32  48  68 100 140 175 208 248 289
#     4   9  17  30  48  69  94 123 154 189 231 281
#     4  10  19  30  47  71  99 131 168 205 236 275
#     4  11  20  30  47  70  97 126 156 193 239 285
#     4   8  15  28  47  71  94 114 141 186 237 276
#
# _framework density 16.198336000000001
#
# number of rings (size 3 to 8) (size 9 to 14) (size 15 to 20)
#    0.000    2.375    1.250    4.500    0.000    2.750 
#    0.000    3.125    0.000    7.875    0.000    2.625 
#    0.000    0.500    0.000    5.250    0.000    2.250 
#
# Total GULP energy -793525.871328 kJ/mol
# GULP energy per Si atom -12398.841739 kJ/mol
# Density = 1.616147 g / cm^3
# Si number density = 16.198336 Si / 1000 Ang^3
#
#
#
# Elastic Constant Matrix: (Units=GPa)
#
#
# Indices 1 2 3 4 5 6 
#
# 1 84.6312 49.0247 38.7639 0.0000 0.0000 0.0000
# 2 49.0247 118.4562 47.0661 0.0000 0.0000 0.0000
# 3 38.7639 47.0661 69.4178 0.0000 0.0000 0.0000
# 4 0.0000 0.0000 0.0000 26.3092 0.0000 0.0000
# 5 0.0000 0.0000 0.0000 0.0000 24.6268 0.0000
# 6 0.0000 0.0000 0.0000 0.0000 0.0000 19.1402
#
#
#
# Elastic Compliance Matrix: (Units=1/GPa)
#
#
# Indices 1 2 3 4 5 6 
#
# 1 0.017541 -0.004609 -0.006670 0.000000 0.000000 0.000000
# 2 -0.004609 0.012766 -0.006081 0.000000 0.000000 0.000000
# 3 -0.006670 -0.006081 0.022253 0.000000 0.000000 0.000000
# 4 0.000000 0.000000 0.000000 0.038010 0.000000 0.000000
# 5 0.000000 0.000000 0.000000 0.000000 0.040606 0.000000
# 6 0.000000 0.000000 0.000000 0.000000 0.000000 0.052246
#
#
# Mechanical properties :
#
#
# Convention : Reuss Voigt Hill
#
# Bulk Modulus (GPa) = 56.05777 60.24609 58.15193
# Shear Modulus (GPa) = 22.31240 23.19193 22.75217
#
# Velocity S-wave (km/s) = 3.71543 3.78795 3.75186
# Velocity P-wave (km/s) = 7.28616 7.51032 7.39909
#
# Compressibility (1/GPa) = 0.01783874
#
# Stress axis : x y z
#
# Youngs Moduli (GPa) = 57.00862 78.33314 44.93687
#
# Poissons Ratio (x) = 0.36108 0.29973
# Poissons Ratio (y) = 0.26278 0.27328
# Poissons Ratio (z) = 0.38025 0.47638
#
# Static dielectric constant tensor:
#      x y z
#    x 2.964520 0.000000 0.000000 
#    y 0.000000 3.318360 0.000000 
#    z 0.000000 0.000000 2.801820 
# 
# 
# High freq. dielectric constant tensor:
#      x y z
#    x 1.620180 0.000000 0.000000 
#    y 0.000000 1.625500 0.000000 
#    z 0.000000 0.000000 1.587090 
# 
# From -- ./inp_files/11802.got.cif
#   From: 2010.03.12/outbox.cif.g09.slc.cpg/sg47_6_cif.got.tgz:11802.got - 2010.04.14 03:12:58.
