data_PCOD8195187
_publ_section_title
;
Structure prediction by ZEFSAII (Michael W. Deem and Ramdas Pophale) SiO2 
 PCOD8195187
Probable space group: P M M M
;
_chemical_formula_sum "Si O2"
_cell_formula_units_Z 64
_cell_length_a 8.991338
_cell_length_b 14.363617
_cell_length_c 27.950161
_cell_angle_alpha 90.000000
_cell_angle_beta 90.000000
_cell_angle_gamma 90.000000
_cell_volume 3609.711176
_symmetry_space_group_name_H-M "P M M M"
_symmetry_group_IT_number 47
_symmetry_cell_setting 'orthorhombic'
loop_
_space_group_symop_operation_xyz
x,y,z
-x,-y,z
x,-y,-z
-x,y,-z
-x,-y,-z
x,y,-z
-x,y,z
x,-y,z
loop_
_atom_site_type_symbol
_atom_site_label
_atom_site_fract_x
_atom_site_fract_y
_atom_site_fract_z
Si Si1 0.329450 0.893386 0.055502
Si Si2 0.175687 0.776468 0.866204
Si Si3 0.675561 0.604221 0.446063
Si Si4 0.170782 0.104228 0.313704
Si Si5 0.171843 0.714846 0.635063
Si Si6 0.328867 0.108552 0.783883
Si Si7 0.675158 0.393468 0.826129
Si Si8 0.170412 0.392104 0.728486
O O1 0.500000 0.877991 0.071399
O O2 0.223587 0.825106 0.084679
O O3 0.283419 0.000000 0.065664
O O4 0.309130 0.869455 0.000000
O O5 0.231727 0.835553 0.821451
O O6 0.245574 0.672824 0.864759
O O7 0.000000 0.768352 0.864550
O O8 0.728696 0.626336 0.500000
O O9 0.500000 0.609831 0.442771
O O10 0.728824 0.500000 0.431521
O O11 0.741913 0.681689 0.411465
O O12 0.200833 0.174872 0.357518
O O13 0.273179 0.132203 0.269179
O O14 0.000000 0.112374 0.296574
O O15 0.207512 0.000000 0.331899
O O16 0.230237 0.662793 0.682463
O O17 0.000000 0.691359 0.626959
O O18 0.500000 0.139118 0.788467
O O19 0.308167 0.000000 0.795121
O O20 0.500000 0.379620 0.829194
O O21 0.721517 0.500000 0.837051
O O22 0.728919 0.363396 0.773377
O O23 0.186988 0.500000 0.716391
O O24 0.000000 0.365265 0.740421
#
# Coordination Sequence:
#
# PCOD8195187 Si02
#       8
#     8   8   8   8   8   8   8   8
#     4   9  19  37  59  81 106 135 166 204 251 300
#     4  12  23  33  51  77 105 138 172 207 251 302
#     4   9  19  35  52  71  96 123 151 190 244 300
#     4   9  18  32  48  69 101 136 167 202 245 290
#     4  10  19  30  48  73  97 126 164 200 237 286
#     4  10  20  33  50  74 104 136 172 212 249 290
#     4  10  21  36  53  73  99 134 176 217 253 292
#     4   9  17  29  45  69 102 132 159 198 247 296
#
# _framework density 17.729949999999999
#
# number of rings (size 3 to 8) (size 9 to 14) (size 15 to 20)
#    0.000    2.250    0.000    4.125    0.000    6.500 
#    0.000    2.500    0.000    0.750    0.000    5.250 
#    0.000    0.000    0.000    0.000    0.000    0.000 
#
# Total GULP energy -793707.198927 kJ/mol
# GULP energy per Si atom -12401.674983 kJ/mol
# Density = 1.768960 g / cm^3
# Si number density = 17.729950 Si / 1000 Ang^3
#
#
#
# Elastic Constant Matrix: (Units=GPa)
#
#
# Indices 1 2 3 4 5 6 
#
# 1 85.6895 44.9914 46.2106 0.0000 0.0000 0.0000
# 2 44.9914 96.9254 65.7604 0.0000 0.0000 0.0000
# 3 46.2106 65.7604 88.7705 0.0000 0.0000 0.0000
# 4 0.0000 0.0000 0.0000 30.8151 0.0000 0.0000
# 5 0.0000 0.0000 0.0000 0.0000 26.1500 0.0000
# 6 0.0000 0.0000 0.0000 0.0000 0.0000 25.6815
#
#
#
# Elastic Compliance Matrix: (Units=1/GPa)
#
#
# Indices 1 2 3 4 5 6 
#
# 1 0.016882 -0.003768 -0.005997 0.000000 0.000000 0.000000
# 2 -0.003768 0.021583 -0.014027 0.000000 0.000000 0.000000
# 3 -0.005997 -0.014027 0.024778 0.000000 0.000000 0.000000
# 4 0.000000 0.000000 0.000000 0.032452 0.000000 0.000000
# 5 0.000000 0.000000 0.000000 0.000000 0.038241 0.000000
# 6 0.000000 0.000000 0.000000 0.000000 0.000000 0.038939
#
#
# Mechanical properties :
#
#
# Convention : Reuss Voigt Hill
#
# Bulk Modulus (GPa) = 63.85967 65.03447 64.44707
# Shear Modulus (GPa) = 22.15534 24.15753 23.15644
#
# Velocity S-wave (km/s) = 3.53880 3.69525 3.61787
# Velocity P-wave (km/s) = 7.26592 7.41395 7.34031
#
# Compressibility (1/GPa) = 0.01565934
#
# Stress axis : x y z
#
# Youngs Moduli (GPa) = 59.23298 46.33264 40.35790
#
# Poissons Ratio (x) = 0.17456 0.24204
# Poissons Ratio (y) = 0.22317 0.56611
# Poissons Ratio (z) = 0.35524 0.64992
#
# Static dielectric constant tensor:
#      x y z
#    x 3.260490 0.000000 0.000000 
#    y 0.000000 3.501560 0.000000 
#    z 0.000000 0.000000 3.125030 
# 
# 
# High freq. dielectric constant tensor:
#      x y z
#    x 1.685140 0.000000 0.000000 
#    y 0.000000 1.692160 0.000000 
#    z 0.000000 0.000000 1.662970 
# 
# From -- ./inp_files/32153.got.cif
#   From: 2010.03.12/outbox.cif.g09.slc.cpg/sg47_17_cif.got.tgz:32153.got - 2010.04.14 03:12:58.
