data_PCOD8195566
_publ_section_title
;
Structure prediction by ZEFSAII (Michael W. Deem and Ramdas Pophale) SiO2 
 PCOD8195566
Probable space group: P M M M
;
_chemical_formula_sum "Si O2"
_cell_formula_units_Z 64
_cell_length_a 9.096363
_cell_length_b 19.390744
_cell_length_c 19.364374
_cell_angle_alpha 90.000000
_cell_angle_beta 90.000000
_cell_angle_gamma 90.000000
_cell_volume 3415.589877
_symmetry_space_group_name_H-M "P M M M"
_symmetry_group_IT_number 47
_symmetry_cell_setting 'orthorhombic'
loop_
_space_group_symop_operation_xyz
x,y,z
-x,-y,z
x,-y,-z
-x,y,-z
-x,-y,-z
x,y,-z
-x,y,z
x,-y,z
loop_
_atom_site_type_symbol
_atom_site_label
_atom_site_fract_x
_atom_site_fract_y
_atom_site_fract_z
Si Si1 0.674731 0.924724 0.076829
Si Si2 0.674889 0.801843 0.679396
Si Si3 0.173037 0.578880 0.184413
Si Si4 0.171161 0.337551 0.681504
Si Si5 0.674827 0.199100 0.164093
Si Si6 0.337855 0.418930 0.576422
Si Si7 0.325828 0.668242 0.920297
Si Si8 0.674592 0.077572 0.421851
O O1 0.500000 0.918229 0.075057
O O2 0.743286 0.867057 0.125893
O O3 0.721014 0.000000 0.105008
O O4 0.737106 0.913641 0.000000
O O5 0.500000 0.798954 0.674712
O O6 0.740806 0.729418 0.655218
O O7 0.732078 0.808155 0.757962
O O8 0.735836 0.865280 0.632322
O O9 0.217493 0.500000 0.202389
O O10 0.225157 0.630726 0.245332
O O11 0.253263 0.600594 0.113496
O O12 0.000000 0.584602 0.173155
O O13 0.205558 0.394389 0.624386
O O14 0.000000 0.320521 0.683862
O O15 0.500000 0.198670 0.162532
O O16 0.732591 0.266421 0.123855
O O17 0.315887 0.387619 0.500000
O O18 0.500000 0.396768 0.604655
O O19 0.327881 0.500000 0.572592
O O20 0.500000 0.661276 0.915534
O O21 0.275824 0.675569 0.000000
O O22 0.727641 0.095475 0.500000
O O23 0.500000 0.078623 0.419438
O O24 0.729249 0.000000 0.401594
#
# Coordination Sequence:
#
# PCOD8195566 Si02
#       8
#     8   8   8   8   8   8   8   8
#     4   8  13  21  35  59  93 130 162 195 246 310
#     4  10  19  31  51  76 102 135 176 218 263 312
#     4  10  22  39  56  74  99 134 174 216 265 318
#     4  11  22  36  54  77 108 143 178 220 265 315
#     4   9  16  27  43  66  98 132 166 208 255 307
#     4   9  19  36  57  81 108 138 173 213 259 314
#     4  10  20  34  53  76 102 133 169 212 266 324
#     4   8  15  29  49  75 107 140 175 217 262 306
#
# _framework density 18.737613
#
# number of rings (size 3 to 8) (size 9 to 14) (size 15 to 20)
#    0.000    2.625    1.250    2.250    0.000    4.750 
#    0.000    5.625    0.000    0.375    0.000    0.875 
#    0.000    0.500    0.000    4.250    0.000    4.750 
#
# Total GULP energy -793215.105053 kJ/mol
# GULP energy per Si atom -12393.986016 kJ/mol
# Density = 1.869497 g / cm^3
# Si number density = 18.737613 Si / 1000 Ang^3
#
#
#
# Elastic Constant Matrix: (Units=GPa)
#
#
# Indices 1 2 3 4 5 6 
#
# 1 18.5141 25.1602 25.3812 0.0000 0.0000 0.0000
# 2 25.1602 116.6431 64.9826 0.0000 0.0000 0.0000
# 3 25.3812 64.9826 123.4323 0.0000 0.0000 0.0000
# 4 0.0000 0.0000 0.0000 41.1446 0.0000 0.0000
# 5 0.0000 0.0000 0.0000 0.0000 18.5039 0.0000
# 6 0.0000 0.0000 0.0000 0.0000 0.0000 11.1554
#
#
#
# Elastic Compliance Matrix: (Units=1/GPa)
#
#
# Indices 1 2 3 4 5 6 
#
# 1 0.086159 -0.012331 -0.011225 0.000000 0.000000 0.000000
# 2 -0.012331 0.013896 -0.004780 0.000000 0.000000 0.000000
# 3 -0.011225 -0.004780 0.012926 0.000000 0.000000 0.000000
# 4 0.000000 0.000000 0.000000 0.024304 0.000000 0.000000
# 5 0.000000 0.000000 0.000000 0.000000 0.054043 0.000000
# 6 0.000000 0.000000 0.000000 0.000000 0.000000 0.089643
#
#
# Mechanical properties :
#
#
# Convention : Reuss Voigt Hill
#
# Bulk Modulus (GPa) = 17.75911 54.40417 36.08164
# Shear Modulus (GPa) = 14.02863 23.69848 18.86355
#
# Velocity S-wave (km/s) = 2.73919 3.56020 3.17633
# Velocity P-wave (km/s) = 4.41617 6.78217 5.72278
#
# Compressibility (1/GPa) = 0.05630913
#
# Stress axis : x y z
#
# Youngs Moduli (GPa) = 11.60641 71.96262 77.36172
#
# Poissons Ratio (x) = 0.88740 0.86837
# Poissons Ratio (y) = 0.14312 0.36980
# Poissons Ratio (z) = 0.13028 0.34399
#
# Static dielectric constant tensor:
#      x y z
#    x 2.914050 0.000000 0.000000 
#    y 0.000000 3.631800 0.000000 
#    z 0.000000 0.000000 3.659510 
# 
# 
# High freq. dielectric constant tensor:
#      x y z
#    x 1.673940 0.000000 0.000000 
#    y 0.000000 1.735660 0.000000 
#    z 0.000000 0.000000 1.732360 
# 
# From -- ./inp_files/27026.got.cif
#   From: 2010.03.12/outbox.cif.g09.slc.cpg/sg47_14_cif.got.tgz:27026.got - 2010.04.14 03:12:58.
