data_PCOD8195018
_publ_section_title
;
Structure prediction by ZEFSAII (Michael W. Deem and Ramdas Pophale) SiO2 
 PCOD8195018
Probable space group: P M M M
;
_chemical_formula_sum "Si O2"
_cell_formula_units_Z 64
_cell_length_a 28.682986
_cell_length_b 9.401822
_cell_length_c 14.415758
_cell_angle_alpha 90.000000
_cell_angle_beta 90.000000
_cell_angle_gamma 90.000000
_cell_volume 3887.531031
_symmetry_space_group_name_H-M "P M M M"
_symmetry_group_IT_number 47
_symmetry_cell_setting 'orthorhombic'
loop_
_space_group_symop_operation_xyz
x,y,z
-x,-y,z
x,-y,-z
-x,y,-z
-x,-y,-z
x,y,-z
-x,y,z
x,-y,z
loop_
_atom_site_type_symbol
_atom_site_label
_atom_site_fract_x
_atom_site_fract_y
_atom_site_fract_z
Si Si1 0.101559 0.835044 0.603286
Si Si2 0.860868 0.163713 0.891759
Si Si3 0.360320 0.832231 0.391999
Si Si4 0.949216 0.166862 0.782326
Si Si5 0.551334 0.658740 0.390171
Si Si6 0.809448 0.663102 0.606444
Si Si7 0.230367 0.664749 0.895021
Si Si8 0.282538 0.664642 0.283938
O O1 0.087324 0.782678 0.500000
O O2 0.059334 0.802540 0.673189
O O3 0.147209 0.755667 0.640897
O O4 0.114384 0.000000 0.602868
O O5 0.906689 0.230914 0.842420
O O6 0.814835 0.248547 0.861538
O O7 0.853412 0.000000 0.862196
O O8 0.869865 0.179784 0.000000
O O9 0.350433 0.792502 0.500000
O O10 0.410046 0.771491 0.357469
O O11 0.322387 0.764353 0.324378
O O12 0.360617 0.000000 0.377645
O O13 0.000000 0.233388 0.808341
O O14 0.950989 0.000000 0.802290
O O15 0.549440 0.656937 0.500000
O O16 0.500000 0.703276 0.351918
O O17 0.564209 0.500000 0.354147
O O18 0.797542 0.696134 0.500000
O O19 0.822995 0.500000 0.622218
O O20 0.764808 0.706792 0.664968
O O21 0.216233 0.500000 0.889126
O O22 0.273826 0.695029 0.825785
O O23 0.245335 0.707358 0.000000
O O24 0.295932 0.500000 0.301887
#
# Coordination Sequence:
#
# PCOD8195018 Si02
#       8
#     8   8   8   8   8   8   8   8
#     4   9  17  28  42  59  77 100 132 167 201 239
#     4   9  17  29  46  66  84 104 132 165 204 253
#     4  10  20  30  41  63  95 127 157 191 229 263
#     4   9  17  28  42  61  83 104 128 162 202 243
#     4   8  14  26  44  63  85 120 164 201 229 260
#     4   9  17  28  42  60  81 107 139 171 204 247
#     4   9  18  32  49  68  88 111 142 180 221 264
#     4  10  19  30  45  63  86 118 150 180 218 265
#
# _framework density 16.462890999999999
#
# number of rings (size 3 to 8) (size 9 to 14) (size 15 to 20)
#    0.000    2.875    0.000    1.875    0.000    3.000 
#    0.000    5.000    0.000    1.500    0.000    3.500 
#    0.000    0.500    0.000    5.750    0.000    1.875 
#
# Total GULP energy -793272.022204 kJ/mol
# GULP energy per Si atom -12394.875347 kJ/mol
# Density = 1.642542 g / cm^3
# Si number density = 16.462891 Si / 1000 Ang^3
#
#
#
# Elastic Constant Matrix: (Units=GPa)
#
#
# Indices 1 2 3 4 5 6 
#
# 1 109.6807 53.7886 48.1814 0.0000 0.0000 0.0000
# 2 53.7886 57.1878 28.8475 0.0000 0.0000 0.0000
# 3 48.1814 28.8475 60.1181 0.0000 0.0000 0.0000
# 4 0.0000 0.0000 0.0000 16.1598 0.0000 0.0000
# 5 0.0000 0.0000 0.0000 0.0000 17.1532 0.0000
# 6 0.0000 0.0000 0.0000 0.0000 0.0000 19.8841
#
#
#
# Elastic Compliance Matrix: (Units=1/GPa)
#
#
# Indices 1 2 3 4 5 6 
#
# 1 0.020257 -0.014333 -0.009357 0.000000 0.000000 0.000000
# 2 -0.014333 0.033212 -0.004450 0.000000 0.000000 0.000000
# 3 -0.009357 -0.004450 0.026268 0.000000 0.000000 0.000000
# 4 0.000000 0.000000 0.000000 0.061882 0.000000 0.000000
# 5 0.000000 0.000000 0.000000 0.000000 0.058298 0.000000
# 6 0.000000 0.000000 0.000000 0.000000 0.000000 0.050291
#
#
# Mechanical properties :
#
#
# Convention : Reuss Voigt Hill
#
# Bulk Modulus (GPa) = 42.62997 54.29130 48.46063
# Shear Modulus (GPa) = 15.90804 17.05069 16.47937
#
# Velocity S-wave (km/s) = 3.11190 3.22173 3.16729
# Velocity P-wave (km/s) = 6.23400 6.84755 6.54796
#
# Compressibility (1/GPa) = 0.02345768
#
# Stress axis : x y z
#
# Youngs Moduli (GPa) = 49.36626 30.11001 38.06857
#
# Poissons Ratio (x) = 0.43156 0.35622
# Poissons Ratio (y) = 0.70755 0.16939
# Poissons Ratio (z) = 0.46193 0.13398
#
# Static dielectric constant tensor:
#      x y z
#    x 3.255260 0.000000 0.000000 
#    y 0.000000 3.028990 0.000000 
#    z 0.000000 0.000000 3.134790 
# 
# 
# High freq. dielectric constant tensor:
#      x y z
#    x 1.621720 0.000000 0.000000 
#    y 0.000000 1.618940 0.000000 
#    z 0.000000 0.000000 1.619040 
# 
# From -- ./inp_files/25562.got.cif
#   From: 2010.03.12/outbox.cif.g09.slc.cpg/sg47_13_cif.got.tgz:25562.got - 2010.04.14 03:12:58.
