data_PCOD8195586
_publ_section_title
;
Structure prediction by ZEFSAII (Michael W. Deem and Ramdas Pophale) SiO2 
 PCOD8195586
Probable space group: P M M M
;
_chemical_formula_sum "Si O2"
_cell_formula_units_Z 52
_cell_length_a 8.039418
_cell_length_b 12.891652
_cell_length_c 28.087949
_cell_angle_alpha 90.000000
_cell_angle_beta 90.000000
_cell_angle_gamma 90.000000
_cell_volume 2911.073772
_symmetry_space_group_name_H-M "P M M M"
_symmetry_group_IT_number 47
_symmetry_cell_setting 'orthorhombic'
loop_
_space_group_symop_operation_xyz
x,y,z
-x,-y,z
x,-y,-z
-x,y,-z
-x,-y,-z
x,y,-z
-x,y,z
x,-y,z
loop_
_atom_site_type_symbol
_atom_site_label
_atom_site_fract_x
_atom_site_fract_y
_atom_site_fract_z
Si Si1 0.197980 0.722985 0.446385
Si Si2 0.500000 0.377801 0.944969
Si Si3 0.689696 0.119112 0.830229
Si Si4 0.182014 0.500000 0.443542
Si Si5 0.192390 0.747033 0.086927
Si Si6 0.195313 0.112779 0.000000
Si Si7 0.812898 0.878413 0.730639
Si Si8 0.693895 0.884233 0.368690
O O1 0.258640 0.748125 0.500000
O O2 0.271286 0.609458 0.429480
O O3 0.262530 0.813548 0.413177
O O4 0.000000 0.717345 0.444681
O O5 0.500000 0.500000 0.943060
O O6 0.330234 0.343547 0.917448
O O7 0.500000 0.339152 0.000000
O O8 0.500000 0.126776 0.846990
O O9 0.800165 0.194539 0.862625
O O10 0.703435 0.158663 0.775582
O O11 0.754992 0.000000 0.834410
O O12 0.161583 0.500000 0.500000
O O13 0.000000 0.500000 0.419500
O O14 0.250970 0.827878 0.047047
O O15 0.000000 0.707422 0.079417
O O16 0.000000 0.099273 0.000000
O O17 0.282306 0.000000 0.000000
O O18 0.760148 0.829673 0.679917
O O19 0.000000 0.846382 0.742580
O O20 0.788094 0.000000 0.723978
O O21 0.500000 0.894431 0.363272
O O22 0.770724 0.000000 0.376716
#
# Coordination Sequence:
#
# PCOD8195586 Si02
#       8
#     8   4   8   4   8   4   8   8
#     4   9  17  30  49  71  93 121 160 204 252 306
#     4  11  24  42  60  80 106 138 186 240 283 318
#     4  10  19  31  51  81 115 145 172 205 251 312
#     4   7  12  26  47  69  91 115 149 197 247 292
#     4  11  21  36  56  81 110 142 181 218 264 320
#     4   9  18  31  49  76 113 149 174 204 248 308
#     4   9  17  30  48  71  99 133 173 211 246 292
#     4  10  20  32  45  65  98 136 169 203 247 299
#
# _framework density 17.862822999999999
#
# number of rings (size 3 to 8) (size 9 to 14) (size 15 to 20)
#    0.000    2.385    1.538    2.769    0.000    5.231 
#    0.000    3.077    0.000    1.385    2.000    0.000 
#    0.000    0.000    0.000    0.000    0.000    0.000 
#
# Total GULP energy -644327.720874 kJ/mol
# GULP energy per Si atom -12390.917709 kJ/mol
# Density = 1.782217 g / cm^3
# Si number density = 17.862823 Si / 1000 Ang^3
#
#
#
# Elastic Constant Matrix: (Units=GPa)
#
#
# Indices 1 2 3 4 5 6 
#
# 1 66.7676 21.7042 21.2599 0.0000 0.0000 0.0000
# 2 21.7042 73.8811 40.2579 0.0000 0.0000 0.0000
# 3 21.2599 40.2579 102.5259 0.0000 0.0000 0.0000
# 4 0.0000 0.0000 0.0000 10.4257 0.0000 0.0000
# 5 0.0000 0.0000 0.0000 0.0000 27.2923 0.0000
# 6 0.0000 0.0000 0.0000 0.0000 0.0000 14.6829
#
#
#
# Elastic Compliance Matrix: (Units=1/GPa)
#
#
# Indices 1 2 3 4 5 6 
#
# 1 0.016867 -0.003879 -0.001974 0.000000 0.000000 0.000000
# 2 -0.003879 0.018112 -0.006307 0.000000 0.000000 0.000000
# 3 -0.001974 -0.006307 0.012640 0.000000 0.000000 0.000000
# 4 0.000000 0.000000 0.000000 0.095917 0.000000 0.000000
# 5 0.000000 0.000000 0.000000 0.000000 0.036640 0.000000
# 6 0.000000 0.000000 0.000000 0.000000 0.000000 0.068106
#
#
# Mechanical properties :
#
#
# Convention : Reuss Voigt Hill
#
# Bulk Modulus (GPa) = 42.92478 45.51318 44.21898
# Shear Modulus (GPa) = 17.83362 21.14369 19.48866
#
# Velocity S-wave (km/s) = 3.16312 3.44418 3.30664
# Velocity P-wave (km/s) = 6.11742 6.43048 6.27590
#
# Compressibility (1/GPa) = 0.02329657
#
# Stress axis : x y z
#
# Youngs Moduli (GPa) = 59.28727 55.21272 79.11579
#
# Poissons Ratio (x) = 0.21418 0.15620
# Poissons Ratio (y) = 0.22999 0.49901
# Poissons Ratio (z) = 0.11705 0.34825
#
# Static dielectric constant tensor:
#      x y z
#    x 3.211420 0.000000 0.000000 
#    y 0.000000 2.319550 0.000000 
#    z 0.000000 0.000000 3.510360 
# 
# 
# High freq. dielectric constant tensor:
#      x y z
#    x 1.688590 0.000000 0.000000 
#    y 0.000000 1.656210 0.000000 
#    z 0.000000 0.000000 1.687320 
# 
# From -- ./inp_files/34339.got.cif
#   From: 2010.03.12/outbox.cif.g09.slc.cpg/sg47_18_cif.got.tgz:34339.got - 2010.04.14 03:12:58.
