data_PCOD8195389
_publ_section_title
;
Structure prediction by ZEFSAII (Michael W. Deem and Ramdas Pophale) SiO2 
 PCOD8195389
Probable space group: P M M M
;
_chemical_formula_sum "Si O2"
_cell_formula_units_Z 52
_cell_length_a 13.810326
_cell_length_b 8.107679
_cell_length_c 27.802278
_cell_angle_alpha 90.000000
_cell_angle_beta 90.000000
_cell_angle_gamma 90.000000
_cell_volume 3113.012452
_symmetry_space_group_name_H-M "P M M M"
_symmetry_group_IT_number 47
_symmetry_cell_setting 'orthorhombic'
loop_
_space_group_symop_operation_xyz
x,y,z
-x,-y,z
x,-y,-z
-x,y,-z
-x,-y,-z
x,y,-z
-x,y,z
x,-y,z
loop_
_atom_site_type_symbol
_atom_site_label
_atom_site_fract_x
_atom_site_fract_y
_atom_site_fract_z
Si Si1 0.608801 0.808361 0.201385
Si Si2 0.210020 0.808784 0.143750
Si Si3 0.106519 0.307189 0.052620
Si Si4 0.387281 0.185898 0.384745
Si Si5 0.614722 0.500000 0.553724
Si Si6 0.109430 0.195688 0.239468
Si Si7 0.289250 0.313095 0.293461
O O1 0.500000 0.759525 0.186684
O O2 0.678032 0.768184 0.156104
O O3 0.641582 0.705908 0.247498
O O4 0.618385 0.000000 0.215330
O O5 0.185983 0.730584 0.092693
O O6 0.142717 0.738868 0.186937
O O7 0.190249 0.000000 0.138592
O O8 0.097363 0.500000 0.048075
O O9 0.000000 0.234854 0.066621
O O10 0.137944 0.235977 0.000000
O O11 0.500000 0.214499 0.372479
O O12 0.350285 0.330140 0.420659
O O13 0.326222 0.195572 0.335800
O O14 0.371868 0.000000 0.406324
O O15 0.500000 0.500000 0.551346
O O16 0.658847 0.500000 0.500000
O O17 0.178315 0.270351 0.280478
O O18 0.000000 0.254738 0.249318
O O19 0.119511 0.000000 0.241209
O O20 0.295688 0.500000 0.311789
#
# Coordination Sequence:
#
# PCOD8195389 Si02
#       7
#     8   8   8   8   4   8   8
#     4   9  18  32  47  63  87 120 154 187 226 273
#     4   9  17  29  46  67  87 110 144 185 228 271
#     4   9  18  31  45  62  85 112 141 175 219 273
#     4  10  19  31  48  69  97 133 167 202 245 287
#     4   9  18  32  48  70  99 129 167 209 245 288
#     4   9  18  32  47  64  91 125 156 187 228 281
#     4  11  20  29  44  68  97 125 159 199 233 275
#
# _framework density 16.704077999999999
#
# number of rings (size 3 to 8) (size 9 to 14) (size 15 to 20)
#    0.000    2.538    0.769    3.692    0.000    6.462 
#    0.000    2.308    0.000    0.462    0.000    3.231 
#    0.000    1.231    0.000    3.231    0.000    0.154 
#
# Total GULP energy -644539.481148 kJ/mol
# GULP energy per Si atom -12394.990022 kJ/mol
# Density = 1.666606 g / cm^3
# Si number density = 16.704078 Si / 1000 Ang^3
#
#
#
# Elastic Constant Matrix: (Units=GPa)
#
#
# Indices 1 2 3 4 5 6 
#
# 1 105.0645 27.1729 44.0160 0.0000 0.0000 0.0000
# 2 27.1729 70.8330 35.0592 0.0000 0.0000 0.0000
# 3 44.0160 35.0592 103.2399 0.0000 0.0000 0.0000
# 4 0.0000 0.0000 0.0000 22.0967 0.0000 0.0000
# 5 0.0000 0.0000 0.0000 0.0000 16.4803 0.0000
# 6 0.0000 0.0000 0.0000 0.0000 0.0000 18.6329
#
#
#
# Elastic Compliance Matrix: (Units=1/GPa)
#
#
# Indices 1 2 3 4 5 6 
#
# 1 0.011939 -0.002477 -0.004249 0.000000 0.000000 0.000000
# 2 -0.002477 0.017484 -0.004881 0.000000 0.000000 0.000000
# 3 -0.004249 -0.004881 0.013155 0.000000 0.000000 0.000000
# 4 0.000000 0.000000 0.000000 0.045256 0.000000 0.000000
# 5 0.000000 0.000000 0.000000 0.000000 0.060678 0.000000
# 6 0.000000 0.000000 0.000000 0.000000 0.000000 0.053669
#
#
# Mechanical properties :
#
#
# Convention : Reuss Voigt Hill
#
# Bulk Modulus (GPa) = 51.64310 54.62597 53.13453
# Shear Modulus (GPa) = 21.56573 22.96792 22.26683
#
# Velocity S-wave (km/s) = 3.59701 3.71211 3.65501
# Velocity P-wave (km/s) = 6.94513 7.15165 7.04915
#
# Compressibility (1/GPa) = 0.01936367
#
# Stress axis : x y z
#
# Youngs Moduli (GPa) = 83.76200 57.19531 76.01484
#
# Poissons Ratio (x) = 0.14167 0.32298
# Poissons Ratio (y) = 0.20747 0.37106
# Poissons Ratio (z) = 0.35589 0.27919
#
# Static dielectric constant tensor:
#      x y z
#    x 3.113640 0.000000 0.000000 
#    y 0.000000 3.108540 0.000000 
#    z 0.000000 0.000000 3.160390 
# 
# 
# High freq. dielectric constant tensor:
#      x y z
#    x 1.622540 0.000000 0.000000 
#    y 0.000000 1.646370 0.000000 
#    z 0.000000 0.000000 1.621970 
# 
# From -- ./inp_files/7646.got.cif
#   From: 2010.03.12/outbox.cif.g09.slc.cpg/sg47_4_cif.got.tgz:7646.got - 2010.04.14 03:12:58.
