data_PCOD8195970
_publ_section_title
;
Structure prediction by ZEFSAII (Michael W. Deem and Ramdas Pophale) SiO2 
 PCOD8195970
Probable space group: P M M M
;
_chemical_formula_sum "Si O2"
_cell_formula_units_Z 52
_cell_length_a 22.018643
_cell_length_b 14.777393
_cell_length_c 8.959066
_cell_angle_alpha 90.000000
_cell_angle_beta 90.000000
_cell_angle_gamma 90.000000
_cell_volume 2915.084240
_symmetry_space_group_name_H-M "P M M M"
_symmetry_group_IT_number 47
_symmetry_cell_setting 'orthorhombic'
loop_
_space_group_symop_operation_xyz
x,y,z
-x,-y,z
x,-y,-z
-x,y,-z
-x,-y,-z
x,y,-z
-x,y,z
x,-y,z
loop_
_atom_site_type_symbol
_atom_site_label
_atom_site_fract_x
_atom_site_fract_y
_atom_site_fract_z
Si Si1 0.070246 0.602523 0.675147
Si Si2 0.113999 0.219435 0.177214
Si Si3 0.567069 0.000000 0.322406
Si Si4 0.782277 0.104733 0.324490
Si Si5 0.352693 0.837343 0.324279
Si Si6 0.431641 0.693072 0.178359
Si Si7 0.570530 0.500000 0.840240
Si Si8 0.000000 0.102718 0.822815
O O1 0.079731 0.616941 0.500000
O O2 0.090849 0.500000 0.719805
O O3 0.109501 0.678060 0.761018
O O4 0.000000 0.615496 0.719151
O O5 0.174297 0.171265 0.234572
O O6 0.058436 0.157471 0.235479
O O7 0.115180 0.225134 0.000000
O O8 0.602368 0.913593 0.262962
O O9 0.500000 0.000000 0.252795
O O10 0.565434 0.000000 0.500000
O O11 0.793549 0.116266 0.500000
O O12 0.715059 0.135645 0.278943
O O13 0.792298 0.000000 0.277379
O O14 0.358205 0.823751 0.500000
O O15 0.375724 0.749049 0.241677
O O16 0.500000 0.723732 0.230941
O O17 0.415280 0.593449 0.245580
O O18 0.430019 0.692268 0.000000
O O19 0.500000 0.500000 0.876556
O O20 0.605414 0.500000 0.000000
O O21 0.000000 0.000000 0.757432
O O22 0.000000 0.097989 0.000000
#
# Coordination Sequence:
#
# PCOD8195970 Si02
#       8
#     8   8   4   8   8   8   4   4
#     4   9  18  34  57  84 114 146 177 214 264 320
#     4  11  21  34  55  82 111 143 178 221 270 316
#     4   9  16  28  49  75 101 132 169 208 256 310
#     4  10  21  38  56  74 101 141 186 225 262 315
#     4  10  19  33  52  74 101 135 175 217 258 307
#     4   9  17  30  50  76 103 131 165 208 259 313
#     4   7  12  26  47  69  97 133 165 194 243 312
#     4   9  18  32  48  73 110 142 169 211 264 313
#
# _framework density 17.838249999999999
#
# number of rings (size 3 to 8) (size 9 to 14) (size 15 to 20)
#    0.000    2.538    1.538    2.769    0.000    2.769 
#    0.000    1.538    1.692    4.615    0.000    0.000 
#    0.000    0.000    0.000    0.000    0.000    0.000 
#
# Total GULP energy -644390.581298 kJ/mol
# GULP energy per Si atom -12392.126563 kJ/mol
# Density = 1.779765 g / cm^3
# Si number density = 17.838250 Si / 1000 Ang^3
#
#
#
# Elastic Constant Matrix: (Units=GPa)
#
#
# Indices 1 2 3 4 5 6 
#
# 1 111.6934 73.1385 37.7794 0.0000 0.0000 0.0000
# 2 73.1385 166.6354 44.5616 0.0000 0.0000 0.0000
# 3 37.7794 44.5616 38.8694 0.0000 0.0000 0.0000
# 4 0.0000 0.0000 0.0000 50.6234 0.0000 0.0000
# 5 0.0000 0.0000 0.0000 0.0000 25.1461 0.0000
# 6 0.0000 0.0000 0.0000 0.0000 0.0000 121.3549
#
#
#
# Elastic Compliance Matrix: (Units=1/GPa)
#
#
# Indices 1 2 3 4 5 6 
#
# 1 0.014865 -0.003837 -0.010049 0.000000 0.000000 0.000000
# 2 -0.003837 0.009645 -0.007328 0.000000 0.000000 0.000000
# 3 -0.010049 -0.007328 0.043895 0.000000 0.000000 0.000000
# 4 0.000000 0.000000 0.000000 0.019754 0.000000 0.000000
# 5 0.000000 0.000000 0.000000 0.000000 0.039768 0.000000
# 6 0.000000 0.000000 0.000000 0.000000 0.000000 0.008240
#
#
# Mechanical properties :
#
#
# Convention : Reuss Voigt Hill
#
# Bulk Modulus (GPa) = 38.49530 69.79524 54.14527
# Shear Modulus (GPa) = 26.70194 50.20615 38.45404
#
# Velocity S-wave (km/s) = 3.87317 5.31096 4.64800
# Velocity P-wave (km/s) = 6.45205 8.76471 7.69575
#
# Compressibility (1/GPa) = 0.02597720
#
# Stress axis : x y z
#
# Youngs Moduli (GPa) = 67.27429 103.68225 22.78160
#
# Poissons Ratio (x) = 0.39783 0.22893
# Poissons Ratio (y) = 0.25813 0.16694
# Poissons Ratio (z) = 0.67602 0.75977
#
# Static dielectric constant tensor:
#      x y z
#    x 3.227370 0.000000 0.000000 
#    y 0.000000 3.870870 0.000000 
#    z 0.000000 0.000000 2.945170 
# 
# 
# High freq. dielectric constant tensor:
#      x y z
#    x 1.674090 0.000000 0.000000 
#    y 0.000000 1.707440 0.000000 
#    z 0.000000 0.000000 1.661950 
# 
# From -- ./inp_files/11163.got.cif
#   From: 2010.03.12/outbox.cif.g09.slc.cpg/sg47_6_cif.got.tgz:11163.got - 2010.04.14 03:12:58.
