data_PCOD8195003
_publ_section_title
;
Structure prediction by ZEFSAII (Michael W. Deem and Ramdas Pophale) SiO2 
 PCOD8195003
Probable space group: P M M M
;
_chemical_formula_sum "Si O2"
_cell_formula_units_Z 52
_cell_length_a 27.726294
_cell_length_b 7.896651
_cell_length_c 12.902473
_cell_angle_alpha 90.000000
_cell_angle_beta 90.000000
_cell_angle_gamma 90.000000
_cell_volume 2824.930238
_symmetry_space_group_name_H-M "P M M M"
_symmetry_group_IT_number 47
_symmetry_cell_setting 'orthorhombic'
loop_
_space_group_symop_operation_xyz
x,y,z
-x,-y,z
x,-y,-z
-x,y,-z
-x,-y,-z
x,y,-z
-x,y,z
x,-y,z
loop_
_atom_site_type_symbol
_atom_site_label
_atom_site_fract_x
_atom_site_fract_y
_atom_site_fract_z
Si Si1 0.381889 0.810661 0.620381
Si Si2 0.945471 0.797545 0.700533
Si Si3 0.226882 0.198564 0.881875
Si Si4 0.717310 0.306875 0.312421
Si Si5 0.107521 0.804734 0.500000
Si Si6 0.216322 0.699605 0.500000
Si Si7 0.446075 0.500000 0.376840
Si Si8 0.881727 0.798512 0.886154
O O1 0.370877 0.775563 0.500000
O O2 0.331714 0.799673 0.681896
O O3 0.419321 0.670277 0.662826
O O4 0.403399 0.000000 0.637017
O O5 0.916757 0.722821 0.601820
O O6 0.918883 0.724342 0.802350
O O7 0.000000 0.728990 0.698620
O O8 0.944591 0.000000 0.702047
O O9 0.261774 0.294931 0.803131
O O10 0.172477 0.263155 0.861137
O O11 0.230993 0.000000 0.860493
O O12 0.242180 0.241250 0.000000
O O13 0.704362 0.500000 0.339058
O O14 0.755431 0.238390 0.397378
O O15 0.164638 0.786866 0.500000
O O16 0.093549 0.000000 0.500000
O O17 0.208397 0.500000 0.500000
O O18 0.500000 0.500000 0.329971
O O19 0.448569 0.500000 0.500000
O O20 0.881881 0.000000 0.885099
O O21 0.897435 0.732970 0.000000
#
# Coordination Sequence:
#
# PCOD8195003 Si02
#       8
#     8   8   8   8   4   4   4   8
#     4  10  19  31  50  74 105 144 184 224 269 318
#     4   9  16  25  39  60  84 110 143 189 241 292
#     4   9  18  32  48  68  97 130 165 206 253 310
#     4  11  20  32  49  70 102 135 170 215 261 310
#     4  10  19  30  44  62  86 114 151 191 232 297
#     4  10  22  33  47  69  96 129 161 206 255 298
#     4   9  18  32  50  72 107 149 187 231 270 306
#     4   8  14  25  40  58  83 114 146 188 241 297
#
# _framework density 18.407533999999998
#
# number of rings (size 3 to 8) (size 9 to 14) (size 15 to 20)
#    0.000    2.538    1.538    2.538    0.000    4.308 
#    0.000    3.077    0.000    0.923    0.000    0.000 
#    0.000    1.231    0.000   16.462    0.000   10.923 
#
# Total GULP energy -644719.307392 kJ/mol
# GULP energy per Si atom -12398.448219 kJ/mol
# Density = 1.836564 g / cm^3
# Si number density = 18.407534 Si / 1000 Ang^3
#
#
#
# Elastic Constant Matrix: (Units=GPa)
#
#
# Indices 1 2 3 4 5 6 
#
# 1 132.1112 32.8903 60.3568 0.0000 0.0000 0.0000
# 2 32.8903 57.3068 19.8002 0.0000 0.0000 0.0000
# 3 60.3568 19.8002 111.6053 0.0000 0.0000 0.0000
# 4 0.0000 0.0000 0.0000 13.5537 0.0000 0.0000
# 5 0.0000 0.0000 0.0000 0.0000 14.1325 0.0000
# 6 0.0000 0.0000 0.0000 0.0000 0.0000 15.7803
#
#
#
# Elastic Compliance Matrix: (Units=1/GPa)
#
#
# Indices 1 2 3 4 5 6 
#
# 1 0.011071 -0.004565 -0.005178 0.000000 0.000000 0.000000
# 2 -0.004565 0.020472 -0.001163 0.000000 0.000000 0.000000
# 3 -0.005178 -0.001163 0.011967 0.000000 0.000000 0.000000
# 4 0.000000 0.000000 0.000000 0.073780 0.000000 0.000000
# 5 0.000000 0.000000 0.000000 0.000000 0.070759 0.000000
# 6 0.000000 0.000000 0.000000 0.000000 0.000000 0.063370
#
#
# Mechanical properties :
#
#
# Convention : Reuss Voigt Hill
#
# Bulk Modulus (GPa) = 46.08698 58.56866 52.32782
# Shear Modulus (GPa) = 17.82761 21.22503 19.52632
#
# Velocity S-wave (km/s) = 3.11544 3.39936 3.26049
# Velocity P-wave (km/s) = 6.16706 6.87709 6.53173
#
# Compressibility (1/GPa) = 0.02169810
#
# Stress axis : x y z
#
# Youngs Moduli (GPa) = 90.32295 48.84721 83.56655
#
# Poissons Ratio (x) = 0.22300 0.43267
# Poissons Ratio (y) = 0.41236 0.09719
# Poissons Ratio (z) = 0.46765 0.05681
#
# Static dielectric constant tensor:
#      x y z
#    x 3.322660 0.000000 0.000000 
#    y 0.000000 3.103940 0.000000 
#    z 0.000000 0.000000 3.413280 
# 
# 
# High freq. dielectric constant tensor:
#      x y z
#    x 1.698540 0.000000 0.000000 
#    y 0.000000 1.695020 0.000000 
#    z 0.000000 0.000000 1.696390 
# 
# From -- ./inp_files/19850.got.cif
#   From: 2010.03.12/outbox.cif.g09.slc.cpg/sg47_10_cif.got.tgz:19850.got - 2010.04.14 03:12:58.
