data_PCOD8195087
_publ_section_title
;
Structure prediction by ZEFSAII (Michael W. Deem and Ramdas Pophale) SiO2 
 PCOD8195087
Probable space group: P M M M
;
_chemical_formula_sum "Si O2"
_cell_formula_units_Z 64
_cell_length_a 8.842870
_cell_length_b 19.022642
_cell_length_c 23.552545
_cell_angle_alpha 90.000000
_cell_angle_beta 90.000000
_cell_angle_gamma 90.000000
_cell_volume 3961.885475
_symmetry_space_group_name_H-M "P M M M"
_symmetry_group_IT_number 47
_symmetry_cell_setting 'orthorhombic'
loop_
_space_group_symop_operation_xyz
x,y,z
-x,-y,z
x,-y,-z
-x,y,-z
-x,-y,-z
x,y,-z
-x,y,z
x,-y,z
loop_
_atom_site_type_symbol
_atom_site_label
_atom_site_fract_x
_atom_site_fract_y
_atom_site_fract_z
Si Si1 0.821714 0.338187 0.336684
Si Si2 0.821831 0.712938 0.833114
Si Si3 0.676246 0.215490 0.935730
Si Si4 0.178146 0.576968 0.228638
Si Si5 0.176205 0.079018 0.752914
Si Si6 0.321626 0.215302 0.725940
Si Si7 0.671934 0.078044 0.871029
Si Si8 0.675112 0.419877 0.565376
O O1 0.764150 0.393115 0.288966
O O2 0.745670 0.263038 0.324328
O O3 0.774316 0.366519 0.397950
O O4 0.000000 0.327545 0.334075
O O5 0.769440 0.731182 0.896351
O O6 0.777226 0.631480 0.821152
O O7 0.738499 0.762358 0.787887
O O8 0.000000 0.724709 0.825780
O O9 0.500000 0.232769 0.929043
O O10 0.710750 0.134704 0.919336
O O11 0.731214 0.227127 0.000000
O O12 0.252070 0.500000 0.217424
O O13 0.000000 0.568736 0.231636
O O14 0.269401 0.134897 0.715165
O O15 0.215504 0.089096 0.818938
O O16 0.000000 0.093751 0.744858
O O17 0.219300 0.000000 0.733081
O O18 0.500000 0.221107 0.724868
O O19 0.500000 0.088429 0.848765
O O20 0.692538 0.000000 0.897397
O O21 0.704959 0.401097 0.500000
O O22 0.500000 0.410036 0.580761
O O23 0.725313 0.500000 0.577648
#
# Coordination Sequence:
#
# PCOD8195087 Si02
#       8
#     8   8   8   8   8   8   8   8
#     4  10  19  30  47  72  99 127 163 204 242 280
#     4  10  19  31  48  68  89 114 146 185 233 282
#     4  10  20  32  46  64  87 117 150 186 228 277
#     4   8  15  28  46  68  91 113 141 185 236 280
#     4  10  19  30  46  68  94 122 152 189 232 278
#     4  11  20  31  48  68  94 126 157 191 235 285
#     4   9  17  29  45  64  86 115 149 183 222 271
#     4   9  18  32  48  68 100 141 178 209 242 281
#
# _framework density 16.153925000000001
#
# number of rings (size 3 to 8) (size 9 to 14) (size 15 to 20)
#    0.000    2.375    1.250    3.750    0.000    2.250 
#    0.000    1.875    0.000    7.875    0.000    5.250 
#    0.000    0.500    0.000    5.250    0.000    2.250 
#
# Total GULP energy -793497.319678 kJ/mol
# GULP energy per Si atom -12398.395620 kJ/mol
# Density = 1.611716 g / cm^3
# Si number density = 16.153925 Si / 1000 Ang^3
#
#
#
# Elastic Constant Matrix: (Units=GPa)
#
#
# Indices 1 2 3 4 5 6 
#
# 1 78.9159 48.7997 35.7905 0.0000 0.0000 0.0000
# 2 48.7997 126.3244 54.3499 0.0000 0.0000 0.0000
# 3 35.7905 54.3499 79.2614 0.0000 0.0000 0.0000
# 4 0.0000 0.0000 0.0000 26.5503 0.0000 0.0000
# 5 0.0000 0.0000 0.0000 0.0000 22.3958 0.0000
# 6 0.0000 0.0000 0.0000 0.0000 0.0000 23.0181
#
#
#
# Elastic Compliance Matrix: (Units=1/GPa)
#
#
# Indices 1 2 3 4 5 6 
#
# 1 0.017810 -0.004851 -0.004716 0.000000 0.000000 0.000000
# 2 -0.004851 0.012550 -0.006415 0.000000 0.000000 0.000000
# 3 -0.004716 -0.006415 0.019145 0.000000 0.000000 0.000000
# 4 0.000000 0.000000 0.000000 0.037664 0.000000 0.000000
# 5 0.000000 0.000000 0.000000 0.000000 0.044651 0.000000
# 6 0.000000 0.000000 0.000000 0.000000 0.000000 0.043444
#
#
# Mechanical properties :
#
#
# Convention : Reuss Voigt Hill
#
# Bulk Modulus (GPa) = 57.00921 62.48687 59.74804
# Shear Modulus (GPa) = 23.46577 24.09696 23.78136
#
# Velocity S-wave (km/s) = 3.81548 3.86646 3.84105
# Velocity P-wave (km/s) = 7.40124 7.66151 7.53250
#
# Compressibility (1/GPa) = 0.01754103
#
# Stress axis : x y z
#
# Youngs Moduli (GPa) = 56.14707 79.67948 52.23370
#
# Poissons Ratio (x) = 0.38655 0.24632
# Poissons Ratio (y) = 0.27239 0.33509
# Poissons Ratio (z) = 0.26477 0.51116
#
# Static dielectric constant tensor:
#      x y z
#    x 2.980420 0.000000 0.000000 
#    y 0.000000 3.378870 0.000000 
#    z 0.000000 0.000000 2.783860 
# 
# 
# High freq. dielectric constant tensor:
#      x y z
#    x 1.620030 0.000000 0.000000 
#    y 0.000000 1.625790 0.000000 
#    z 0.000000 0.000000 1.582170 
# 
# From -- ./inp_files/29977.got.cif
#   From: 2010.03.12/outbox.cif.g09.slc.cpg/sg47_15_cif.got.tgz:29977.got - 2010.04.14 03:12:58.
