data_PCOD8195273
_publ_section_title
;
Structure prediction by ZEFSAII (Michael W. Deem and Ramdas Pophale) SiO2 
 PCOD8195273
Probable space group: P M M M
;
_chemical_formula_sum "Si O2"
_cell_formula_units_Z 56
_cell_length_a 13.818329
_cell_length_b 9.863212
_cell_length_c 30.092835
_cell_angle_alpha 90.000000
_cell_angle_beta 90.000000
_cell_angle_gamma 90.000000
_cell_volume 4101.446023
_symmetry_space_group_name_H-M "P M M M"
_symmetry_group_IT_number 47
_symmetry_cell_setting 'orthorhombic'
loop_
_space_group_symop_operation_xyz
x,y,z
-x,-y,z
x,-y,-z
-x,y,-z
-x,-y,-z
x,y,-z
-x,y,z
x,-y,z
loop_
_atom_site_type_symbol
_atom_site_label
_atom_site_fract_x
_atom_site_fract_y
_atom_site_fract_z
Si Si1 0.266687 0.753035 0.947526
Si Si2 0.609505 0.500000 0.947325
Si Si3 0.884973 0.348177 0.549661
Si Si4 0.606151 0.000000 0.947397
Si Si5 0.114836 0.651357 0.197110
Si Si6 0.886189 0.841815 0.118759
Si Si7 0.115553 0.154289 0.626729
Si Si8 0.884942 0.652059 0.296136
O O1 0.326676 0.624750 0.930870
O O2 0.335578 0.871674 0.930997
O O3 0.163799 0.770659 0.923559
O O4 0.245862 0.751880 0.000000
O O5 0.500000 0.500000 0.927109
O O6 0.599145 0.500000 0.000000
O O7 0.848513 0.311728 0.500000
O O8 0.849316 0.500000 0.562959
O O9 0.844517 0.235048 0.583591
O O10 0.000000 0.346714 0.550999
O O11 0.500000 0.000000 0.925445
O O12 0.596064 0.000000 0.000000
O O13 0.150577 0.500000 0.183396
O O14 0.152572 0.764517 0.162691
O O15 0.153049 0.687589 0.246560
O O16 0.000000 0.653100 0.197631
O O17 0.000000 0.821577 0.111821
O O18 0.859273 0.000000 0.122809
O O19 0.155537 0.235053 0.669856
O O20 0.000000 0.151945 0.626722
O O21 0.155798 0.000000 0.626731
O O22 0.850347 0.500000 0.309694
O O23 0.000000 0.655162 0.297048
#
# Coordination Sequence:
#
# PCOD8195273 Si02
#       8
#     8   4   8   4   8   8   8   8
#     4  10  19  31  45  64  84 104 130 155 184 221
#     4   9  18  32  49  67  85 101 120 154 195 225
#     4   8  13  20  27  33  44  66  93 117 146 191
#     4   9  16  28  47  65  81 101 126 156 187 221
#     4   8  15  27  41  53  65  87 118 149 179 210
#     4  10  20  31  42  58  81 108 133 156 182 214
#     4   9  15  19  25  39  55  69  87 118 160 200
#     4   8  13  22  34  45  56  72  98 131 166 203
#
# _framework density 13.653721000000001
#
# number of rings (size 3 to 8) (size 9 to 14) (size 15 to 20)
#    0.000    3.143    0.714    2.143    1.000    4.571 
#    0.000    5.000    0.000    1.286    0.000    0.000 
#    0.000    0.000    0.000    0.000    0.000    0.000 
#
# Total GULP energy -693864.289783 kJ/mol
# GULP energy per Si atom -12390.433746 kJ/mol
# Density = 1.362264 g / cm^3
# Si number density = 13.653721 Si / 1000 Ang^3
#
#
#
# Elastic Constant Matrix: (Units=GPa)
#
#
# Indices 1 2 3 4 5 6 
#
# 1 28.7344 27.5399 23.5366 0.0000 0.0000 0.0000
# 2 27.5399 126.7140 62.0631 0.0000 0.0000 0.0000
# 3 23.5366 62.0631 87.5195 0.0000 0.0000 0.0000
# 4 0.0000 0.0000 0.0000 26.0828 0.0000 0.0000
# 5 0.0000 0.0000 0.0000 0.0000 0.7820 0.0000
# 6 0.0000 0.0000 0.0000 0.0000 0.0000 22.6883
#
#
#
# Elastic Compliance Matrix: (Units=1/GPa)
#
#
# Indices 1 2 3 4 5 6 
#
# 1 0.047661 -0.006252 -0.008384 0.000000 0.000000 0.000000
# 2 -0.006252 0.012912 -0.007475 0.000000 0.000000 0.000000
# 3 -0.008384 -0.007475 0.018981 0.000000 0.000000 0.000000
# 4 0.000000 0.000000 0.000000 0.038339 0.000000 0.000000
# 5 0.000000 0.000000 0.000000 0.000000 1.278797 0.000000
# 6 0.000000 0.000000 0.000000 0.000000 0.000000 0.044076
#
#
# Mechanical properties :
#
#
# Convention : Reuss Voigt Hill
#
# Bulk Modulus (GPa) = 28.30253 52.13856 40.22054
# Shear Modulus (GPa) = 3.34054 18.56583 10.95318
#
# Velocity S-wave (km/s) = 1.56586 3.69150 2.83541
# Velocity P-wave (km/s) = 4.90337 7.51257 6.34357
#
# Compressibility (1/GPa) = 0.03533253
#
# Stress axis : x y z
#
# Youngs Moduli (GPa) = 20.98143 77.44926 52.68379
#
# Poissons Ratio (x) = 0.48424 0.44168
# Poissons Ratio (y) = 0.13118 0.39379
# Poissons Ratio (z) = 0.17590 0.57891
#
# Static dielectric constant tensor:
#      x y z
#    x 2.207890 0.000000 0.000000 
#    y 0.000000 2.999600 0.000000 
#    z 0.000000 0.000000 2.839080 
# 
# 
# High freq. dielectric constant tensor:
#      x y z
#    x 1.443200 0.000000 0.000000 
#    y 0.000000 1.537700 0.000000 
#    z 0.000000 0.000000 1.512660 
# 
# From -- ./inp_files/34642.got.cif
#   From: 2010.03.12/outbox.cif.g09.slc.cpg/sg47_18_cif.got.tgz:34642.got - 2010.04.14 03:12:58.
