data_PCOD8195864
_publ_section_title
;
Structure prediction by ZEFSAII (Michael W. Deem and Ramdas Pophale) SiO2 
 PCOD8195864
Probable space group: P M M M
;
_chemical_formula_sum "Si O2"
_cell_formula_units_Z 56
_cell_length_a 20.478360
_cell_length_b 9.284936
_cell_length_c 15.632594
_cell_angle_alpha 90.000000
_cell_angle_beta 90.000000
_cell_angle_gamma 90.000000
_cell_volume 2972.385519
_symmetry_space_group_name_H-M "P M M M"
_symmetry_group_IT_number 47
_symmetry_cell_setting 'orthorhombic'
loop_
_space_group_symop_operation_xyz
x,y,z
-x,-y,z
x,-y,-z
-x,y,-z
-x,-y,-z
x,y,-z
-x,y,z
x,-y,z
loop_
_atom_site_type_symbol
_atom_site_label
_atom_site_fract_x
_atom_site_fract_y
_atom_site_fract_z
Si Si1 0.617862 0.667501 0.092024
Si Si2 0.790560 0.170111 0.316801
Si Si3 0.317728 0.332922 0.403255
Si Si4 0.427596 0.328596 0.727374
Si Si5 0.101053 0.664241 0.093995
Si Si6 0.928995 0.166517 0.258985
Si Si7 0.757921 0.662403 0.152719
O O1 0.600470 0.500000 0.091540
O O2 0.584847 0.735896 0.176965
O O3 0.695365 0.692984 0.094897
O O4 0.593566 0.733465 0.000000
O O5 0.750693 0.247852 0.392270
O O6 0.867789 0.218066 0.317673
O O7 0.758501 0.222255 0.228736
O O8 0.782921 0.000000 0.327378
O O9 0.342364 0.309668 0.500000
O O10 0.304242 0.500000 0.384294
O O11 0.373851 0.270403 0.339921
O O12 0.500000 0.280274 0.697641
O O13 0.422091 0.500000 0.730018
O O14 0.080502 0.500000 0.110952
O O15 0.068183 0.757537 0.167340
O O16 0.179114 0.680910 0.093825
O O17 0.076441 0.713734 0.000000
O O18 0.000000 0.193709 0.304178
O O19 0.918237 0.000000 0.238920
O O20 0.754390 0.500000 0.191898
#
# Coordination Sequence:
#
# PCOD8195864 Si02
#       7
#     8   8   8   8   8   8   8
#     4   9  15  23  41  69 100 134 170 208 249 290
#     4  10  19  32  53  77 100 127 163 208 254 297
#     4  10  20  35  56  80 104 132 165 202 250 306
#     4   9  17  29  46  73 108 139 168 206 249 293
#     4   9  17  27  41  65  96 129 169 217 262 303
#     4   9  19  34  49  67  94 131 170 205 250 308
#     4   9  15  27  46  67  96 132 170 209 253 299
#
# _framework density 18.840087
#
# number of rings (size 3 to 8) (size 9 to 14) (size 15 to 20)
#    0.000    2.714    1.429    0.857    0.000    4.000 
#    0.000    4.286    0.000    2.143    0.000    4.000 
#    0.000    1.143    0.000    0.000    0.000    0.000 
#
# Total GULP energy -693824.306782 kJ/mol
# GULP energy per Si atom -12389.719764 kJ/mol
# Density = 1.879721 g / cm^3
# Si number density = 18.840087 Si / 1000 Ang^3
#
#
#
# Elastic Constant Matrix: (Units=GPa)
#
#
# Indices 1 2 3 4 5 6 
#
# 1 127.9282 27.3908 51.7216 0.0000 0.0000 0.0000
# 2 27.3908 34.2064 20.6285 0.0000 0.0000 0.0000
# 3 51.7216 20.6285 104.3042 0.0000 0.0000 0.0000
# 4 0.0000 0.0000 0.0000 11.1787 0.0000 0.0000
# 5 0.0000 0.0000 0.0000 0.0000 11.7791 0.0000
# 6 0.0000 0.0000 0.0000 0.0000 0.0000 16.1850
#
#
#
# Elastic Compliance Matrix: (Units=1/GPa)
#
#
# Indices 1 2 3 4 5 6 
#
# 1 0.010810 -0.006158 -0.004143 0.000000 0.000000 0.000000
# 2 -0.006158 0.036701 -0.004205 0.000000 0.000000 0.000000
# 3 -0.004143 -0.004205 0.012473 0.000000 0.000000 0.000000
# 4 0.000000 0.000000 0.000000 0.089456 0.000000 0.000000
# 5 0.000000 0.000000 0.000000 0.000000 0.084896 0.000000
# 6 0.000000 0.000000 0.000000 0.000000 0.000000 0.061786
#
#
# Mechanical properties :
#
#
# Convention : Reuss Voigt Hill
#
# Bulk Modulus (GPa) = 32.28568 51.76897 42.02732
# Shear Modulus (GPa) = 14.90499 18.94174 16.92337
#
# Velocity S-wave (km/s) = 2.81576 3.17424 3.00036
# Velocity P-wave (km/s) = 5.26737 6.40095 5.86163
#
# Compressibility (1/GPa) = 0.03097349
#
# Stress axis : x y z
#
# Youngs Moduli (GPa) = 92.50469 27.24705 80.17217
#
# Poissons Ratio (x) = 0.16779 0.33212
# Poissons Ratio (y) = 0.56965 0.33711
# Poissons Ratio (z) = 0.38321 0.11457
#
# Static dielectric constant tensor:
#      x y z
#    x 3.726170 0.000000 0.000000 
#    y 0.000000 3.085760 0.000000 
#    z 0.000000 0.000000 3.390660 
# 
# 
# High freq. dielectric constant tensor:
#      x y z
#    x 1.742920 0.000000 0.000000 
#    y 0.000000 1.682750 0.000000 
#    z 0.000000 0.000000 1.711960 
# 
# From -- ./inp_files/28738.got.cif
#   From: 2010.03.12/outbox.cif.g09.slc.cpg/sg47_15_cif.got.tgz:28738.got - 2010.04.14 03:12:58.
