data_PCOD8195054
_publ_section_title
;
Structure prediction by ZEFSAII (Michael W. Deem and Ramdas Pophale) SiO2 
 PCOD8195054
Probable space group: P M M M
;
_chemical_formula_sum "Si O2"
_cell_formula_units_Z 44
_cell_length_a 13.748202
_cell_length_b 8.865427
_cell_length_c 21.555810
_cell_angle_alpha 90.000000
_cell_angle_beta 90.000000
_cell_angle_gamma 90.000000
_cell_volume 2627.301474
_symmetry_space_group_name_H-M "P M M M"
_symmetry_group_IT_number 47
_symmetry_cell_setting 'orthorhombic'
loop_
_space_group_symop_operation_xyz
x,y,z
-x,-y,z
x,-y,-z
-x,y,-z
-x,-y,-z
x,y,-z
-x,y,z
x,-y,z
loop_
_atom_site_type_symbol
_atom_site_label
_atom_site_fract_x
_atom_site_fract_y
_atom_site_fract_z
Si Si1 0.606717 0.821892 0.185581
Si Si2 0.884609 0.169454 0.500000
Si Si3 0.793957 0.178445 0.257120
Si Si4 0.727679 0.823880 0.069932
Si Si5 0.888097 0.321945 0.374395
Si Si6 0.111253 0.673550 0.857436
O O1 0.500000 0.749428 0.198273
O O2 0.684663 0.770361 0.237447
O O3 0.643062 0.771568 0.117174
O O4 0.597804 0.000000 0.187213
O O5 0.847727 0.255709 0.438926
O O6 0.000000 0.168580 0.500000
O O7 0.842543 0.000000 0.500000
O O8 0.819410 0.257971 0.321135
O O9 0.868537 0.230014 0.204197
O O10 0.802285 0.000000 0.265305
O O11 0.825600 0.732449 0.084867
O O12 0.750940 0.000000 0.079159
O O13 0.693672 0.787899 0.000000
O O14 0.878722 0.500000 0.376933
O O15 0.000000 0.272983 0.362355
O O16 0.136142 0.500000 0.843018
O O17 0.000000 0.694541 0.876881
#
# Coordination Sequence:
#
# PCOD8195054 Si02
#       6
#     8   4   8   8   8   8
#     4   8  15  29  48  69  91 113 142 185 233 277
#     4   9  17  29  45  67  96 129 164 197 223 252
#     4  10  19  30  47  70  92 117 152 191 229 269
#     4   9  18  31  47  68  90 113 145 184 226 273
#     4  10  19  30  45  67  98 133 162 187 220 263
#     4  10  20  32  45  62  87 120 154 186 223 268
#
# _framework density 16.747221
#
# number of rings (size 3 to 8) (size 9 to 14) (size 15 to 20)
#    0.000    2.636    0.000    3.545    0.000    6.909 
#    0.000    3.636    0.000   13.636    0.000    5.727 
#    0.000    5.091    0.000    0.000    0.000    0.000 
#
# Total GULP energy -545509.918011 kJ/mol
# GULP energy per Si atom -12397.952682 kJ/mol
# Density = 1.670910 g / cm^3
# Si number density = 16.747221 Si / 1000 Ang^3
#
#
#
# Elastic Constant Matrix: (Units=GPa)
#
#
# Indices 1 2 3 4 5 6 
#
# 1 105.3407 33.2708 55.4853 0.0000 0.0000 0.0000
# 2 33.2708 59.4002 36.6638 0.0000 0.0000 0.0000
# 3 55.4853 36.6638 134.4936 0.0000 0.0000 0.0000
# 4 0.0000 0.0000 0.0000 22.2717 0.0000 0.0000
# 5 0.0000 0.0000 0.0000 0.0000 17.3872 0.0000
# 6 0.0000 0.0000 0.0000 0.0000 0.0000 10.0708
#
#
#
# Elastic Compliance Matrix: (Units=1/GPa)
#
#
# Indices 1 2 3 4 5 6 
#
# 1 0.013195 -0.004846 -0.004123 0.000000 0.000000 0.000000
# 2 -0.004846 0.022021 -0.004004 0.000000 0.000000 0.000000
# 3 -0.004123 -0.004004 0.010227 0.000000 0.000000 0.000000
# 4 0.000000 0.000000 0.000000 0.044900 0.000000 0.000000
# 5 0.000000 0.000000 0.000000 0.000000 0.057514 0.000000
# 6 0.000000 0.000000 0.000000 0.000000 0.000000 0.099297
#
#
# Mechanical properties :
#
#
# Convention : Reuss Voigt Hill
#
# Bulk Modulus (GPa) = 51.28632 61.11939 56.20286
# Shear Modulus (GPa) = 17.88283 21.53356 19.70819
#
# Velocity S-wave (km/s) = 3.27128 3.58969 3.43418
# Velocity P-wave (km/s) = 6.70512 7.33183 7.02546
#
# Compressibility (1/GPa) = 0.01949838
#
# Stress axis : x y z
#
# Youngs Moduli (GPa) = 75.78601 45.41216 97.77585
#
# Poissons Ratio (x) = 0.22007 0.40308
# Poissons Ratio (y) = 0.36727 0.39146
# Poissons Ratio (z) = 0.31243 0.18182
#
# Static dielectric constant tensor:
#      x y z
#    x 3.243580 0.000000 0.000000 
#    y 0.000000 3.124090 0.000000 
#    z 0.000000 0.000000 3.183360 
# 
# 
# High freq. dielectric constant tensor:
#      x y z
#    x 1.620290 0.000000 0.000000 
#    y 0.000000 1.642010 0.000000 
#    z 0.000000 0.000000 1.643000 
# 
# From -- ./inp_files/29445.got.cif
#   From: 2010.03.12/outbox.cif.g09.slc.cpg/sg47_15_cif.got.tgz:29445.got - 2010.04.14 03:12:58.
