data_PCOD8195071
_publ_section_title
;
Structure prediction by ZEFSAII (Michael W. Deem and Ramdas Pophale) SiO2 
 PCOD8195071
Probable space group: P M M M
;
_chemical_formula_sum "Si O2"
_cell_formula_units_Z 64
_cell_length_a 8.823285
_cell_length_b 19.049011
_cell_length_c 23.885059
_cell_angle_alpha 90.000000
_cell_angle_beta 90.000000
_cell_angle_gamma 90.000000
_cell_volume 4014.477781
_symmetry_space_group_name_H-M "P M M M"
_symmetry_group_IT_number 47
_symmetry_cell_setting 'orthorhombic'
loop_
_space_group_symop_operation_xyz
x,y,z
-x,-y,z
x,-y,-z
-x,y,-z
-x,-y,-z
x,y,-z
-x,y,z
x,-y,z
loop_
_atom_site_type_symbol
_atom_site_label
_atom_site_fract_x
_atom_site_fract_y
_atom_site_fract_z
Si Si1 0.827588 0.577944 0.626950
Si Si2 0.319947 0.837882 0.167735
Si Si3 0.678466 0.923046 0.274647
Si Si4 0.821449 0.284850 0.770291
Si Si5 0.323436 0.421147 0.743597
Si Si6 0.176710 0.715320 0.436652
Si Si7 0.680067 0.078629 0.937988
Si Si8 0.321474 0.212669 0.335389
O O1 0.806606 0.500000 0.600970
O O2 0.715249 0.589032 0.678456
O O3 0.788392 0.634629 0.579429
O O4 0.000000 0.588236 0.648774
O O5 0.500000 0.828607 0.168394
O O6 0.265459 0.892448 0.215287
O O7 0.246182 0.762443 0.179858
O O8 0.258244 0.867023 0.108379
O O9 0.500000 0.931664 0.272175
O O10 0.723724 0.868667 0.323807
O O11 0.752756 0.000000 0.285281
O O12 0.769610 0.365202 0.780775
O O13 0.761203 0.262163 0.709339
O O14 0.000000 0.278816 0.771246
O O15 0.500000 0.406752 0.751820
O O16 0.279438 0.500000 0.763055
O O17 0.231984 0.727070 0.500000
O O18 0.269440 0.768670 0.397715
O O19 0.000000 0.732327 0.430138
O O20 0.500000 0.076706 0.934703
O O21 0.741669 0.000000 0.925844
O O22 0.732818 0.103213 0.000000
O O23 0.500000 0.224133 0.328009
#
# Coordination Sequence:
#
# PCOD8195071 Si02
#       8
#     8   8   8   8   8   8   8   8
#     4   9  17  29  45  64  86 114 145 175 210 255
#     4   9  16  26  43  67  94 123 155 191 227 262
#     4   8  14  25  43  66  87 108 139 182 227 267
#     4  11  20  30  45  64  90 121 151 184 223 268
#     4  10  19  30  46  67  90 115 144 180 222 268
#     4  10  20  32  46  64  87 116 146 178 217 264
#     4   8  13  22  40  68  99 130 165 202 234 263
#     4  10  19  31  48  67  86 110 142 180 226 272
#
# _framework density 15.942297999999999
#
# number of rings (size 3 to 8) (size 9 to 14) (size 15 to 20)
#    0.000    2.625    1.250    3.375    0.000    2.750 
#    0.000    1.250    0.000   13.500    0.000    6.125 
#    0.000    0.500    0.000    5.750    0.000    1.625 
#
# Total GULP energy -793328.445142 kJ/mol
# GULP energy per Si atom -12395.756955 kJ/mol
# Density = 1.590601 g / cm^3
# Si number density = 15.942298 Si / 1000 Ang^3
#
#
#
# Elastic Constant Matrix: (Units=GPa)
#
#
# Indices 1 2 3 4 5 6 
#
# 1 52.3771 37.9774 28.0325 0.0000 0.0000 0.0000
# 2 37.9774 130.4780 67.3225 0.0000 0.0000 0.0000
# 3 28.0325 67.3225 105.0816 0.0000 0.0000 0.0000
# 4 0.0000 0.0000 0.0000 27.1011 0.0000 0.0000
# 5 0.0000 0.0000 0.0000 0.0000 11.5295 0.0000
# 6 0.0000 0.0000 0.0000 0.0000 0.0000 12.6913
#
#
#
# Elastic Compliance Matrix: (Units=1/GPa)
#
#
# Indices 1 2 3 4 5 6 
#
# 1 0.024807 -0.005685 -0.002975 0.000000 0.000000 0.000000
# 2 -0.005685 0.012752 -0.006653 0.000000 0.000000 0.000000
# 3 -0.002975 -0.006653 0.014572 0.000000 0.000000 0.000000
# 4 0.000000 0.000000 0.000000 0.036899 0.000000 0.000000
# 5 0.000000 0.000000 0.000000 0.000000 0.086734 0.000000
# 6 0.000000 0.000000 0.000000 0.000000 0.000000 0.078794
#
#
# Mechanical properties :
#
#
# Convention : Reuss Voigt Hill
#
# Bulk Modulus (GPa) = 46.50295 61.62239 54.06267
# Shear Modulus (GPa) = 17.10259 20.57132 18.83696
#
# Velocity S-wave (km/s) = 3.27889 3.59606 3.44113
# Velocity P-wave (km/s) = 6.60058 7.48194 7.05504
#
# Compressibility (1/GPa) = 0.02150401
#
# Stress axis : x y z
#
# Youngs Moduli (GPa) = 40.31128 78.42177 68.62258
#
# Poissons Ratio (x) = 0.44584 0.20418
# Poissons Ratio (y) = 0.22918 0.45654
# Poissons Ratio (z) = 0.11994 0.52173
#
# Static dielectric constant tensor:
#      x y z
#    x 2.821940 0.000000 0.000000 
#    y 0.000000 3.358640 0.000000 
#    z 0.000000 0.000000 2.904600 
# 
# 
# High freq. dielectric constant tensor:
#      x y z
#    x 1.594880 0.000000 0.000000 
#    y 0.000000 1.617010 0.000000 
#    z 0.000000 0.000000 1.576660 
# 
# From -- ./inp_files/32238.got.cif
#   From: 2010.03.12/outbox.cif.g09.slc.cpg/sg47_17_cif.got.tgz:32238.got - 2010.04.14 03:12:58.
