data_PCOD8195716
_publ_section_title
;
Structure prediction by ZEFSAII (Michael W. Deem and Ramdas Pophale) SiO2 
 PCOD8195716
Probable space group: P M M M
;
_chemical_formula_sum "Si O2"
_cell_formula_units_Z 56
_cell_length_a 18.007495
_cell_length_b 9.315094
_cell_length_c 18.235700
_cell_angle_alpha 90.000000
_cell_angle_beta 90.000000
_cell_angle_gamma 90.000000
_cell_volume 3058.883829
_symmetry_space_group_name_H-M "P M M M"
_symmetry_group_IT_number 47
_symmetry_cell_setting 'orthorhombic'
loop_
_space_group_symop_operation_xyz
x,y,z
-x,-y,z
x,-y,-z
-x,y,-z
-x,-y,-z
x,y,-z
-x,y,z
x,-y,z
loop_
_atom_site_type_symbol
_atom_site_label
_atom_site_fract_x
_atom_site_fract_y
_atom_site_fract_z
Si Si1 0.500000 0.829592 0.082325
Si Si2 0.211167 0.166055 0.415257
Si Si3 0.644232 0.829579 0.667573
Si Si4 0.914512 0.666522 0.338882
Si Si5 0.646549 0.170498 0.835257
Si Si6 0.778214 0.331073 0.085056
Si Si7 0.081371 0.329715 0.825730
Si Si8 0.500000 0.171377 0.416634
O O1 0.572472 0.774270 0.124611
O O2 0.500000 0.000000 0.080322
O O3 0.500000 0.766263 0.000000
O O4 0.229762 0.189788 0.500000
O O5 0.280592 0.229457 0.369523
O O6 0.136071 0.247564 0.395255
O O7 0.198759 0.000000 0.396595
O O8 0.641721 0.778137 0.751444
O O9 0.572700 0.767751 0.624798
O O10 0.642618 0.000000 0.662411
O O11 0.894372 0.500000 0.345755
O O12 0.898711 0.722928 0.256320
O O13 0.000000 0.693913 0.360092
O O14 0.715198 0.245225 0.873579
O O15 0.656112 0.000000 0.841606
O O16 0.767048 0.500000 0.098355
O O17 0.857023 0.276576 0.116940
O O18 0.776069 0.291220 0.000000
O O19 0.077230 0.500000 0.824487
O O20 0.000000 0.269462 0.849143
O O21 0.500000 0.228146 0.500000
O O22 0.500000 0.000000 0.415190
#
# Coordination Sequence:
#
# PCOD8195716 Si02
#       8
#     4   8   8   8   8   8   8   4
#     4   9  17  29  46  69  94 120 154 193 230 271
#     4  10  20  32  46  68  99 128 153 189 239 287
#     4   9  17  29  46  70  97 125 161 199 233 277
#     4   9  18  33  52  71  91 120 160 200 233 273
#     4  10  19  32  51  71  94 127 164 199 234 276
#     4  10  20  32  48  73 101 125 154 195 239 283
#     4   8  15  30  51  72  94 122 156 193 234 280
#     4   9  15  25  45  72 102 131 156 192 244 289
#
# _framework density 18.307331000000001
#
# number of rings (size 3 to 8) (size 9 to 14) (size 15 to 20)
#    0.000    2.714    0.000    3.000    0.000    5.429 
#    0.000    3.214    0.000    2.571    0.000    2.500 
#    0.000    3.429    0.000    0.000    0.000    0.000 
#
# Total GULP energy -694356.476541 kJ/mol
# GULP energy per Si atom -12399.222795 kJ/mol
# Density = 1.826566 g / cm^3
# Si number density = 18.307331 Si / 1000 Ang^3
#
#
#
# Elastic Constant Matrix: (Units=GPa)
#
#
# Indices 1 2 3 4 5 6 
#
# 1 157.1201 37.1255 89.8240 0.0000 0.0000 0.0000
# 2 37.1255 25.1184 34.1178 0.0000 0.0000 0.0000
# 3 89.8240 34.1178 140.5345 0.0000 0.0000 0.0000
# 4 0.0000 0.0000 0.0000 19.7593 0.0000 0.0000
# 5 0.0000 0.0000 0.0000 0.0000 119.6265 0.0000
# 6 0.0000 0.0000 0.0000 0.0000 0.0000 20.9784
#
#
#
# Elastic Compliance Matrix: (Units=1/GPa)
#
#
# Indices 1 2 3 4 5 6 
#
# 1 0.011659 -0.010609 -0.004877 0.000000 0.000000 0.000000
# 2 -0.010609 0.069051 -0.009983 0.000000 0.000000 0.000000
# 3 -0.004877 -0.009983 0.012656 0.000000 0.000000 0.000000
# 4 0.000000 0.000000 0.000000 0.050609 0.000000 0.000000
# 5 0.000000 0.000000 0.000000 0.000000 0.008359 0.000000
# 6 0.000000 0.000000 0.000000 0.000000 0.000000 0.047668
#
#
# Mechanical properties :
#
#
# Convention : Reuss Voigt Hill
#
# Bulk Modulus (GPa) = 23.56832 71.65640 47.61236
# Shear Modulus (GPa) = 18.86203 42.85321 30.85762
#
# Velocity S-wave (km/s) = 3.21331 4.84340 4.10998
# Velocity P-wave (km/s) = 5.16418 8.39665 6.97039
#
# Compressibility (1/GPa) = 0.04242984
#
# Stress axis : x y z
#
# Youngs Moduli (GPa) = 85.76953 14.48204 79.01277
#
# Poissons Ratio (x) = 0.15364 0.38531
# Poissons Ratio (y) = 0.90991 0.78878
# Poissons Ratio (z) = 0.41826 0.14457
#
# Static dielectric constant tensor:
#      x y z
#    x 4.034740 0.000000 0.000000 
#    y 0.000000 2.862490 0.000000 
#    z 0.000000 0.000000 3.554860 
# 
# 
# High freq. dielectric constant tensor:
#      x y z
#    x 1.727070 0.000000 0.000000 
#    y 0.000000 1.652950 0.000000 
#    z 0.000000 0.000000 1.721650 
# 
# From -- ./inp_files/31094.got.cif
#   From: 2010.03.12/outbox.cif.g09.slc.cpg/sg47_16_cif.got.tgz:31094.got - 2010.04.14 03:12:58.
