data_PCOD8195285
_publ_section_title
;
Structure prediction by ZEFSAII (Michael W. Deem and Ramdas Pophale) SiO2 
 PCOD8195285
Probable space group: P M M M
;
_chemical_formula_sum "Si O2"
_cell_formula_units_Z 36
_cell_length_a 16.783636
_cell_length_b 8.036324
_cell_length_c 16.794584
_cell_angle_alpha 90.000000
_cell_angle_beta 90.000000
_cell_angle_gamma 90.000000
_cell_volume 2265.232275
_symmetry_space_group_name_H-M "P M M M"
_symmetry_group_IT_number 47
_symmetry_cell_setting 'orthorhombic'
loop_
_space_group_symop_operation_xyz
x,y,z
-x,-y,z
x,-y,-z
-x,y,-z
-x,-y,-z
x,y,-z
-x,y,z
x,-y,z
loop_
_atom_site_type_symbol
_atom_site_label
_atom_site_fract_x
_atom_site_fract_y
_atom_site_fract_z
Si Si1 0.825696 0.312412 0.157948
Si Si2 0.905487 0.500000 0.588999
Si Si3 0.500000 0.311722 0.094340
Si Si4 0.906009 0.809754 0.000000
Si Si5 0.907464 0.813547 0.308321
Si Si6 0.668143 0.192471 0.090808
O O1 0.842020 0.500000 0.185681
O O2 0.858298 0.192321 0.226494
O O3 0.731369 0.287894 0.145431
O O4 0.872006 0.279752 0.076857
O O5 0.869403 0.500000 0.500000
O O6 0.875959 0.330153 0.632002
O O7 0.000000 0.500000 0.585113
O O8 0.500000 0.500000 0.124542
O O9 0.579786 0.222677 0.126566
O O10 0.500000 0.297376 0.000000
O O11 0.000000 0.793749 0.000000
O O12 0.877064 0.000000 0.000000
O O13 0.000000 0.782551 0.288214
O O14 0.895428 0.000000 0.344883
O O15 0.689328 0.000000 0.093190
O O16 0.673651 0.260104 0.000000
#
# Coordination Sequence:
#
# PCOD8195285 Si02
#       6
#     8   4   4   4   8   8
#     4  12  22  32  47  66  92 125 164 205 242 280
#     4   9  18  34  54  75  97 120 153 195 237 290
#     4   9  17  29  45  63  85 111 149 198 244 283
#     4  11  23  35  45  60  85 122 167 208 243 279
#     4  10  20  34  51  71  97 128 160 197 243 289
#     4  10  19  31  46  63  86 118 159 201 241 284
#
# _framework density 15.892409000000001
#
# number of rings (size 3 to 8) (size 9 to 14) (size 15 to 20)
#    0.000    1.667    2.222    4.000    0.000    6.222 
#    0.000    2.222    0.000    0.000    0.000    0.000 
#    0.000    0.000    0.000    2.000    0.000    8.000 
#
# Total GULP energy -446410.272521 kJ/mol
# GULP energy per Si atom -12400.285348 kJ/mol
# Density = 1.585624 g / cm^3
# Si number density = 15.892409 Si / 1000 Ang^3
#
#
#
# Elastic Constant Matrix: (Units=GPa)
#
#
# Indices 1 2 3 4 5 6 
#
# 1 75.8532 25.6067 23.6814 0.0000 0.0000 0.0000
# 2 25.6067 100.6951 31.5678 0.0000 0.0000 0.0000
# 3 23.6814 31.5678 77.8557 0.0000 0.0000 0.0000
# 4 0.0000 0.0000 0.0000 27.7034 0.0000 0.0000
# 5 0.0000 0.0000 0.0000 0.0000 -2.0115 0.0000
# 6 0.0000 0.0000 0.0000 0.0000 0.0000 24.0690
#
#
#
# Elastic Compliance Matrix: (Units=1/GPa)
#
#
# Indices 1 2 3 4 5 6 
#
# 1 0.015212 -0.002770 -0.003504 0.000000 0.000000 0.000000
# 2 -0.002770 0.011882 -0.003975 0.000000 0.000000 0.000000
# 3 -0.003504 -0.003975 0.015522 0.000000 0.000000 0.000000
# 4 0.000000 0.000000 0.000000 0.036097 0.000000 0.000000
# 5 0.000000 0.000000 0.000000 0.000000 -0.497152 0.000000
# 6 0.000000 0.000000 0.000000 0.000000 0.000000 0.041547
#
#
# Mechanical properties :
#
#
# Convention : Reuss Voigt Hill
#
# Bulk Modulus (GPa) = 45.21262 46.23509 45.72386
# Shear Modulus (GPa) = -14.32574 21.52206 3.59816
#
# Velocity S-wave (km/s) = -3.00562 3.68399 1.50632
# Velocity P-wave (km/s) = 4.05782 6.87396 5.64435
#
# Compressibility (1/GPa) = 0.02211772
#
# Stress axis : x y z
#
# Youngs Moduli (GPa) = 65.73573 84.16413 64.42538
#
# Poissons Ratio (x) = 0.23313 0.22575
# Poissons Ratio (y) = 0.18209 0.25609
# Poissons Ratio (z) = 0.23034 0.33455
#
# Static dielectric constant tensor:
#      x y z
#    x 3.041220 0.000000 0.000000 
#    y 0.000000 3.212530 0.000000 
#    z 0.000000 0.000000 2.874990 
# 
# 
# High freq. dielectric constant tensor:
#      x y z
#    x 1.597380 0.000000 0.000000 
#    y 0.000000 1.632470 0.000000 
#    z 0.000000 0.000000 1.559480 
# 
# From -- ./inp_files/23273.got.cif
#   From: 2010.03.12/outbox.cif.g09.slc.cpg/sg47_12_cif.got.tgz:23273.got - 2010.04.14 03:12:58.
