data_PCOD8195866
_publ_section_title
;
Structure prediction by ZEFSAII (Michael W. Deem and Ramdas Pophale) SiO2 
 PCOD8195866
Probable space group: P M M M
;
_chemical_formula_sum "Si O2"
_cell_formula_units_Z 44
_cell_length_a 29.943272
_cell_length_b 9.723259
_cell_length_c 8.010697
_cell_angle_alpha 90.000000
_cell_angle_beta 90.000000
_cell_angle_gamma 90.000000
_cell_volume 2332.283902
_symmetry_space_group_name_H-M "P M M M"
_symmetry_group_IT_number 47
_symmetry_cell_setting 'orthorhombic'
loop_
_space_group_symop_operation_xyz
x,y,z
-x,-y,z
x,-y,-z
-x,y,-z
-x,-y,-z
x,y,-z
-x,y,z
x,-y,z
loop_
_atom_site_type_symbol
_atom_site_label
_atom_site_fract_x
_atom_site_fract_y
_atom_site_fract_z
Si Si1 0.049505 0.653863 0.698582
Si Si2 0.608410 0.659156 0.812285
Si Si3 0.549805 0.337060 0.500000
Si Si4 0.779318 0.837343 0.812068
Si Si5 0.685118 0.158448 0.309281
Si Si6 0.873476 0.846438 0.303603
O O1 0.052555 0.653805 0.500000
O O2 0.058346 0.500000 0.765983
O O3 0.086953 0.754620 0.775728
O O4 0.000000 0.703423 0.754471
O O5 0.620451 0.500000 0.778696
O O6 0.574147 0.713019 0.670213
O O7 0.653409 0.747886 0.803535
O O8 0.588156 0.677004 0.000000
O O9 0.547052 0.500000 0.500000
O O10 0.500000 0.273472 0.500000
O O11 0.736011 0.787744 0.709214
O O12 0.825519 0.777203 0.738608
O O13 0.782609 0.000000 0.798304
O O14 0.773278 0.785718 0.000000
O O15 0.670199 0.174074 0.500000
O O16 0.681167 0.000000 0.249110
O O17 0.878988 0.853825 0.500000
O O18 0.877233 0.000000 0.226621
#
# Coordination Sequence:
#
# PCOD8195866 Si02
#       6
#     8   8   4   8   8   8
#     4   8  14  25  41  61  85 112 142 179 227 283
#     4  10  20  34  54  80 109 140 175 218 266 312
#     4   9  18  34  55  79 109 143 179 221 266 311
#     4   9  17  29  45  66  93 125 159 195 237 288
#     4  10  19  32  53  78 103 135 174 212 254 308
#     4   9  16  26  42  64  87 110 143 189 233 273
#
# _framework density 18.865627
#
# number of rings (size 3 to 8) (size 9 to 14) (size 15 to 20)
#    0.000    2.818    0.909    1.636    0.000    4.000 
#    0.000    4.545    0.000    5.455    0.000    5.091 
#    0.000    0.000    0.000    0.000    0.000    0.000 
#
# Total GULP energy -545349.036695 kJ/mol
# GULP energy per Si atom -12394.296289 kJ/mol
# Density = 1.882269 g / cm^3
# Si number density = 18.865627 Si / 1000 Ang^3
#
#
#
# Elastic Constant Matrix: (Units=GPa)
#
#
# Indices 1 2 3 4 5 6 
#
# 1 157.4820 55.4297 42.8275 0.0000 0.0000 0.0000
# 2 55.4297 53.1669 22.3426 0.0000 0.0000 0.0000
# 3 42.8275 22.3426 74.6074 0.0000 0.0000 0.0000
# 4 0.0000 0.0000 0.0000 13.7262 0.0000 0.0000
# 5 0.0000 0.0000 0.0000 0.0000 13.4318 0.0000
# 6 0.0000 0.0000 0.0000 0.0000 0.0000 25.5409
#
#
#
# Elastic Compliance Matrix: (Units=1/GPa)
#
#
# Indices 1 2 3 4 5 6 
#
# 1 0.010656 -0.009768 -0.003192 0.000000 0.000000 0.000000
# 2 -0.009768 0.030471 -0.003518 0.000000 0.000000 0.000000
# 3 -0.003192 -0.003518 0.016289 0.000000 0.000000 0.000000
# 4 0.000000 0.000000 0.000000 0.072853 0.000000 0.000000
# 5 0.000000 0.000000 0.000000 0.000000 0.074450 0.000000
# 6 0.000000 0.000000 0.000000 0.000000 0.000000 0.039153
#
#
# Mechanical properties :
#
#
# Convention : Reuss Voigt Hill
#
# Bulk Modulus (GPa) = 40.88186 58.49508 49.68847
# Shear Modulus (GPa) = 17.54499 21.51690 19.53094
#
# Velocity S-wave (km/s) = 3.05289 3.38084 3.22105
# Velocity P-wave (km/s) = 5.84328 6.80541 6.34262
#
# Compressibility (1/GPa) = 0.02446073
#
# Stress axis : x y z
#
# Youngs Moduli (GPa) = 93.84248 32.81796 61.39074
#
# Poissons Ratio (x) = 0.32058 0.19594
# Poissons Ratio (y) = 0.91669 0.21595
# Poissons Ratio (z) = 0.29952 0.11544
#
# Static dielectric constant tensor:
#      x y z
#    x 3.697190 0.000000 0.000000 
#    y 0.000000 3.311920 0.000000 
#    z 0.000000 0.000000 3.310010 
# 
# 
# High freq. dielectric constant tensor:
#      x y z
#    x 1.737470 0.000000 0.000000 
#    y 0.000000 1.691430 0.000000 
#    z 0.000000 0.000000 1.722780 
# 
# From -- ./inp_files/2278.got.cif
#   From: 2010.03.12/outbox.cif.g09.slc.cpg/sg47_2_cif.got.tgz:2278.got - 2010.04.14 03:12:58.
