data_PCOD8195549
_publ_section_title
;
Structure prediction by ZEFSAII (Michael W. Deem and Ramdas Pophale) SiO2 
 PCOD8195549
Probable space group: P M M M
;
_chemical_formula_sum "Si O2"
_cell_formula_units_Z 52
_cell_length_a 9.052547
_cell_length_b 13.751595
_cell_length_c 23.626358
_cell_angle_alpha 90.000000
_cell_angle_beta 90.000000
_cell_angle_gamma 90.000000
_cell_volume 2941.173485
_symmetry_space_group_name_H-M "P M M M"
_symmetry_group_IT_number 47
_symmetry_cell_setting 'orthorhombic'
loop_
_space_group_symop_operation_xyz
x,y,z
-x,-y,z
x,-y,-z
-x,y,-z
-x,-y,-z
x,y,-z
-x,y,z
x,-y,z
loop_
_atom_site_type_symbol
_atom_site_label
_atom_site_fract_x
_atom_site_fract_y
_atom_site_fract_z
Si Si1 0.670877 0.390134 0.565570
Si Si2 0.327657 0.229713 0.834886
Si Si3 0.831929 0.611808 0.768404
Si Si4 0.334170 0.500000 0.066821
Si Si5 0.673551 0.111060 0.272635
Si Si6 0.174107 0.303427 0.935255
Si Si7 0.169051 0.728403 0.342147
O O1 0.695519 0.365988 0.500000
O O2 0.500000 0.381368 0.582095
O O3 0.726409 0.500000 0.578628
O O4 0.760511 0.309831 0.600107
O O5 0.500000 0.227797 0.848691
O O6 0.283322 0.332195 0.807418
O O7 0.281648 0.145036 0.790907
O O8 0.239367 0.218749 0.894439
O O9 0.790066 0.500000 0.773304
O O10 0.812282 0.643319 0.703608
O O11 0.000000 0.632927 0.788539
O O12 0.500000 0.500000 0.092720
O O13 0.245060 0.595344 0.086151
O O14 0.344013 0.500000 0.000000
O O15 0.500000 0.125321 0.281104
O O16 0.753764 0.173087 0.320793
O O17 0.723192 0.000000 0.279520
O O18 0.000000 0.311609 0.928185
O O19 0.217450 0.279022 0.000000
O O20 0.000000 0.754363 0.353909
#
# Coordination Sequence:
#
# PCOD8195549 Si02
#       7
#     8   8   8   4   8   8   8
#     4   9  18  32  50  74 107 148 187 216 244 285
#     4  10  20  32  49  73  96 121 159 206 249 292
#     4   9  18  31  45  64  96 134 164 194 238 294
#     4   9  17  29  45  65  89 121 163 203 232 267
#     4   9  19  37  58  77  98 127 164 207 258 313
#     4  10  20  33  48  66  93 130 165 196 239 296
#     4  10  19  31  50  77 105 133 169 211 256 302
#
# _framework density 17.680019000000001
#
# number of rings (size 3 to 8) (size 9 to 14) (size 15 to 20)
#    0.000    2.538    0.000    2.538    1.077    4.923 
#    0.000    0.769    0.000    0.923    0.000    6.462 
#    0.000    0.000    0.000    0.000    0.000    0.000 
#
# Total GULP energy -644754.340600 kJ/mol
# GULP energy per Si atom -12399.121935 kJ/mol
# Density = 1.763978 g / cm^3
# Si number density = 17.680019 Si / 1000 Ang^3
#
#
#
# Elastic Constant Matrix: (Units=GPa)
#
#
# Indices 1 2 3 4 5 6 
#
# 1 81.8425 45.1324 48.7942 0.0000 0.0000 0.0000
# 2 45.1324 101.0816 51.3898 0.0000 0.0000 0.0000
# 3 48.7942 51.3898 96.6257 0.0000 0.0000 0.0000
# 4 0.0000 0.0000 0.0000 21.3366 0.0000 0.0000
# 5 0.0000 0.0000 0.0000 0.0000 32.3682 0.0000
# 6 0.0000 0.0000 0.0000 0.0000 0.0000 19.6275
#
#
#
# Elastic Compliance Matrix: (Units=1/GPa)
#
#
# Indices 1 2 3 4 5 6 
#
# 1 0.019152 -0.004981 -0.007022 0.000000 0.000000 0.000000
# 2 -0.004981 0.014855 -0.005385 0.000000 0.000000 0.000000
# 3 -0.007022 -0.005385 0.016759 0.000000 0.000000 0.000000
# 4 0.000000 0.000000 0.000000 0.046868 0.000000 0.000000
# 5 0.000000 0.000000 0.000000 0.000000 0.030895 0.000000
# 6 0.000000 0.000000 0.000000 0.000000 0.000000 0.050949
#
#
# Mechanical properties :
#
#
# Convention : Reuss Voigt Hill
#
# Bulk Modulus (GPa) = 62.54185 63.35362 62.94773
# Shear Modulus (GPa) = 22.77028 23.61534 23.19281
#
# Velocity S-wave (km/s) = 3.59264 3.65870 3.62582
# Velocity P-wave (km/s) = 7.25676 7.33208 7.29451
#
# Compressibility (1/GPa) = 0.01598929
#
# Stress axis : x y z
#
# Youngs Moduli (GPa) = 52.21353 67.31813 59.66838
#
# Poissons Ratio (x) = 0.33533 0.41900
# Poissons Ratio (y) = 0.26009 0.32132
# Poissons Ratio (z) = 0.36666 0.36251
#
# Static dielectric constant tensor:
#      x y z
#    x 3.313620 0.000000 0.000000 
#    y 0.000000 3.085690 0.000000 
#    z 0.000000 0.000000 3.301330 
# 
# 
# High freq. dielectric constant tensor:
#      x y z
#    x 1.690050 0.000000 0.000000 
#    y 0.000000 1.651140 0.000000 
#    z 0.000000 0.000000 1.684580 
# 
# From -- ./inp_files/31959.got.cif
#   From: 2010.03.12/outbox.cif.g09.slc.cpg/sg47_16_cif.got.tgz:31959.got - 2010.04.14 03:12:58.
