data_PCOD8195212
_publ_section_title
;
Structure prediction by ZEFSAII (Michael W. Deem and Ramdas Pophale) SiO2 
 PCOD8195212
Probable space group: P M M M
;
_chemical_formula_sum "Si O2"
_cell_formula_units_Z 52
_cell_length_a 9.617747
_cell_length_b 35.284965
_cell_length_c 8.212636
_cell_angle_alpha 90.000000
_cell_angle_beta 90.000000
_cell_angle_gamma 90.000000
_cell_volume 2787.055480
_symmetry_space_group_name_H-M "P M M M"
_symmetry_group_IT_number 47
_symmetry_cell_setting 'orthorhombic'
loop_
_space_group_symop_operation_xyz
x,y,z
-x,-y,z
x,-y,-z
-x,y,-z
-x,-y,-z
x,y,-z
-x,y,z
x,-y,z
loop_
_atom_site_type_symbol
_atom_site_label
_atom_site_fract_x
_atom_site_fract_y
_atom_site_fract_z
Si Si1 0.154728 0.685575 0.691708
Si Si2 0.165394 0.233720 0.681864
Si Si3 0.335273 0.042387 0.000000
Si Si4 0.342264 0.542792 0.309716
Si Si5 0.161326 0.845081 0.185691
Si Si6 0.337863 0.089684 0.684539
Si Si7 0.154198 0.391492 0.187992
O O1 0.148656 0.689304 0.500000
O O2 0.223500 0.725658 0.752318
O O3 0.231756 0.646448 0.741564
O O4 0.000000 0.681674 0.766687
O O5 0.222044 0.225782 0.500000
O O6 0.210739 0.198478 0.793909
O O7 0.000000 0.237821 0.677956
O O8 0.284813 0.062072 0.830616
O O9 0.500000 0.040947 0.000000
O O10 0.272702 0.000000 0.000000
O O11 0.329704 0.550544 0.500000
O O12 0.500000 0.549129 0.251158
O O13 0.295152 0.500000 0.267976
O O14 0.244015 0.571413 0.216581
O O15 0.252643 0.871428 0.302315
O O16 0.000000 0.849439 0.235820
O O17 0.186192 0.857336 0.000000
O O18 0.313397 0.072997 0.500000
O O19 0.500000 0.098675 0.709998
O O20 0.000000 0.397256 0.266961
O O21 0.138616 0.384766 0.000000
#
# Coordination Sequence:
#
# PCOD8195212 Si02
#       7
#     8   8   4   8   8   8   8
#     4   8  14  26  44  65  92 127 164 200 239 283
#     4   8  14  25  42  66  95 127 165 207 246 286
#     4   9  18  34  55  79 107 135 169 217 263 309
#     4   9  19  36  55  72  90 117 156 197 236 283
#     4  10  19  30  48  75 105 138 174 211 254 303
#     4  10  20  34  54  78 104 137 173 211 261 313
#     4  10  20  31  46  72 102 128 154 189 236 287
#
# _framework density 18.657682000000001
#
# number of rings (size 3 to 8) (size 9 to 14) (size 15 to 20)
#    0.000    2.846    0.769    2.308    0.000    3.692 
#    0.000    6.923    0.000    1.846    0.000    7.538 
#    0.000    0.000    0.000    0.000    0.000    0.000 
#
# Total GULP energy -644211.055216 kJ/mol
# GULP energy per Si atom -12388.674139 kJ/mol
# Density = 1.861522 g / cm^3
# Si number density = 18.657682 Si / 1000 Ang^3
#
#
#
# Elastic Constant Matrix: (Units=GPa)
#
#
# Indices 1 2 3 4 5 6 
#
# 1 33.9228 35.9336 21.2879 0.0000 0.0000 0.0000
# 2 35.9336 143.8761 48.9456 0.0000 0.0000 0.0000
# 3 21.2879 48.9456 79.2480 0.0000 0.0000 0.0000
# 4 0.0000 0.0000 0.0000 30.2897 0.0000 0.0000
# 5 0.0000 0.0000 0.0000 0.0000 18.0550 0.0000
# 6 0.0000 0.0000 0.0000 0.0000 0.0000 -9.0501
#
#
#
# Elastic Compliance Matrix: (Units=1/GPa)
#
#
# Indices 1 2 3 4 5 6 
#
# 1 0.042308 -0.008483 -0.006126 0.000000 0.000000 0.000000
# 2 -0.008483 0.010500 -0.004206 0.000000 0.000000 0.000000
# 3 -0.006126 -0.004206 0.016862 0.000000 0.000000 0.000000
# 4 0.000000 0.000000 0.000000 0.033015 0.000000 0.000000
# 5 0.000000 0.000000 0.000000 0.000000 0.055386 0.000000
# 6 0.000000 0.000000 0.000000 0.000000 0.000000 -0.110496
#
#
# Mechanical properties :
#
#
# Convention : Reuss Voigt Hill
#
# Bulk Modulus (GPa) = 31.21046 52.15346 41.68196
# Shear Modulus (GPa) = 52.14534 17.91758 35.03146
#
# Velocity S-wave (km/s) = 5.29237 3.10228 4.33782
# Velocity P-wave (km/s) = 7.35593 6.39107 6.89041
#
# Compressibility (1/GPa) = 0.03204054
#
# Stress axis : x y z
#
# Youngs Moduli (GPa) = 23.63592 95.23800 59.30431
#
# Poissons Ratio (x) = 0.80788 0.36329
# Poissons Ratio (y) = 0.20050 0.24946
# Poissons Ratio (z) = 0.14479 0.40061
#
# Static dielectric constant tensor:
#      x y z
#    x 3.013370 0.000000 0.000000 
#    y 0.000000 3.754720 0.000000 
#    z 0.000000 0.000000 3.384900 
# 
# 
# High freq. dielectric constant tensor:
#      x y z
#    x 1.663310 0.000000 0.000000 
#    y 0.000000 1.738750 0.000000 
#    z 0.000000 0.000000 1.723100 
# 
# From -- ./inp_files/4800.got.cif
#   From: 2010.03.12/outbox.cif.g09.slc.cpg/sg47_3_cif.got.tgz:4800.got - 2010.04.14 03:12:58.
