data_PCOD8195449
_publ_section_title
;
Structure prediction by ZEFSAII (Michael W. Deem and Ramdas Pophale) SiO2 
 PCOD8195449
Probable space group: P M M M
;
_chemical_formula_sum "Si O2"
_cell_formula_units_Z 64
_cell_length_a 9.360205
_cell_length_b 14.237884
_cell_length_c 31.209595
_cell_angle_alpha 90.000000
_cell_angle_beta 90.000000
_cell_angle_gamma 90.000000
_cell_volume 4159.287527
_symmetry_space_group_name_H-M "P M M M"
_symmetry_group_IT_number 47
_symmetry_cell_setting 'orthorhombic'
loop_
_space_group_symop_operation_xyz
x,y,z
-x,-y,z
x,-y,-z
-x,y,-z
-x,-y,-z
x,y,-z
-x,y,z
x,-y,z
loop_
_atom_site_type_symbol
_atom_site_label
_atom_site_fract_x
_atom_site_fract_y
_atom_site_fract_z
Si Si1 0.834781 0.708461 0.620704
Si Si2 0.830288 0.390857 0.861843
Si Si3 0.159888 0.611345 0.045264
Si Si4 0.336290 0.895817 0.747054
Si Si5 0.164868 0.103983 0.337399
Si Si6 0.667009 0.393560 0.451290
Si Si7 0.164823 0.389319 0.291328
Si Si8 0.332792 0.703571 0.214214
O O1 0.801709 0.819378 0.626215
O O2 0.747571 0.676657 0.579748
O O3 0.786528 0.653187 0.663265
O O4 0.000000 0.688763 0.611419
O O5 0.795392 0.500000 0.853148
O O6 0.772115 0.357655 0.909179
O O7 0.745345 0.327938 0.828653
O O8 0.000000 0.374007 0.857728
O O9 0.152758 0.500000 0.046655
O O10 0.000000 0.651840 0.043702
O O11 0.237648 0.643150 0.000000
O O12 0.500000 0.894485 0.732541
O O13 0.247528 0.868946 0.705358
O O14 0.308277 0.816145 0.782655
O O15 0.294094 0.000000 0.764687
O O16 0.000000 0.108550 0.324443
O O17 0.207613 0.000000 0.354317
O O18 0.704595 0.365971 0.500000
O O19 0.500000 0.383638 0.442878
O O20 0.716666 0.500000 0.442052
O O21 0.186540 0.500000 0.293365
O O22 0.265729 0.348564 0.254760
O O23 0.000000 0.363002 0.281276
O O24 0.500000 0.678099 0.211918
#
# Coordination Sequence:
#
# PCOD8195449 Si02
#       8
#     8   8   8   8   8   8   8   8
#     4  10  19  31  49  72  94 115 145 182 218 260
#     4   9  17  28  42  60  85 119 151 178 214 258
#     4   7  10  19  37  59  79 102 140 185 218 248
#     4   9  18  32  47  62  82 110 146 186 224 259
#     4   9  17  30  49  71  92 113 140 178 222 262
#     4   9  19  35  52  70  93 120 149 182 219 257
#     4  10  20  32  44  61  89 121 149 178 211 249
#     4  11  21  30  42  61  86 116 149 182 215 256
#
# _framework density 15.38725
#
# number of rings (size 3 to 8) (size 9 to 14) (size 15 to 20)
#    0.000    2.750    1.250    2.625    0.000    4.500 
#    0.000    0.625    0.000    0.750    0.000    4.375 
#    0.000    0.500    0.000    6.250    0.000    0.250 
#
# Total GULP energy -793033.224487 kJ/mol
# GULP energy per Si atom -12391.144133 kJ/mol
# Density = 1.535223 g / cm^3
# Si number density = 15.387250 Si / 1000 Ang^3
#
#
#
# Elastic Constant Matrix: (Units=GPa)
#
#
# Indices 1 2 3 4 5 6 
#
# 1 49.7176 37.7416 52.0005 0.0000 0.0000 0.0000
# 2 37.7416 85.0997 61.8166 0.0000 0.0000 0.0000
# 3 52.0005 61.8166 131.8745 0.0000 0.0000 0.0000
# 4 0.0000 0.0000 0.0000 8.1817 0.0000 0.0000
# 5 0.0000 0.0000 0.0000 0.0000 -130.5819 0.0000
# 6 0.0000 0.0000 0.0000 0.0000 0.0000 19.9819
#
#
#
# Elastic Compliance Matrix: (Units=1/GPa)
#
#
# Indices 1 2 3 4 5 6 
#
# 1 0.038418 -0.009150 -0.010860 0.000000 0.000000 0.000000
# 2 -0.009150 0.019997 -0.005766 0.000000 0.000000 0.000000
# 3 -0.010860 -0.005766 0.014568 0.000000 0.000000 0.000000
# 4 0.000000 0.000000 0.000000 0.122224 0.000000 0.000000
# 5 0.000000 0.000000 0.000000 0.000000 -0.007658 0.000000
# 6 0.000000 0.000000 0.000000 0.000000 0.000000 0.050045
#
#
# Mechanical properties :
#
#
# Convention : Reuss Voigt Hill
#
# Bulk Modulus (GPa) = 46.65883 63.31214 54.98549
# Shear Modulus (GPa) = 16.87539 -12.80814 2.03362
#
# Velocity S-wave (km/s) = 3.31526 -2.88824 1.15087
# Velocity P-wave (km/s) = 6.71144 5.48749 6.13009
#
# Compressibility (1/GPa) = 0.02143217
#
# Stress axis : x y z
#
# Youngs Moduli (GPa) = 26.02954 50.00731 68.64354
#
# Poissons Ratio (x) = 0.45755 0.74547
# Poissons Ratio (y) = 0.23816 0.39579
# Poissons Ratio (z) = 0.28268 0.28833
#
# Static dielectric constant tensor:
#      x y z
#    x 2.854440 0.000000 0.000000 
#    y 0.000000 3.049080 0.000000 
#    z 0.000000 0.000000 3.083150 
# 
# 
# High freq. dielectric constant tensor:
#      x y z
#    x 1.578910 0.000000 0.000000 
#    y 0.000000 1.576380 0.000000 
#    z 0.000000 0.000000 1.581990 
# 
# From -- ./inp_files/8333.got.cif
#   From: 2010.03.12/outbox.cif.g09.slc.cpg/sg47_5_cif.got.tgz:8333.got - 2010.04.14 03:12:58.
