data_PCOD8195255
_publ_section_title
;
Structure prediction by ZEFSAII (Michael W. Deem and Ramdas Pophale) SiO2 
 PCOD8195255
Probable space group: P M M M
;
_chemical_formula_sum "Si O2"
_cell_formula_units_Z 48
_cell_length_a 23.750003
_cell_length_b 18.508023
_cell_length_c 8.081846
_cell_angle_alpha 90.000000
_cell_angle_beta 90.000000
_cell_angle_gamma 90.000000
_cell_volume 3552.501500
_symmetry_space_group_name_H-M "P M M M"
_symmetry_group_IT_number 47
_symmetry_cell_setting 'orthorhombic'
loop_
_space_group_symop_operation_xyz
x,y,z
-x,-y,z
x,-y,-z
-x,y,-z
-x,-y,-z
x,y,-z
-x,y,z
x,-y,z
loop_
_atom_site_type_symbol
_atom_site_label
_atom_site_fract_x
_atom_site_fract_y
_atom_site_fract_z
Si Si1 0.630904 0.861358 0.306194
Si Si2 0.867315 0.914105 0.184256
Si Si3 0.565659 0.000000 0.807411
Si Si4 0.433529 0.422341 0.189878
Si Si5 0.063898 0.086174 0.500000
Si Si6 0.562878 0.272044 0.308145
Si Si7 0.251985 0.916314 0.305653
O O1 0.637641 0.851397 0.500000
O O2 0.602660 0.789392 0.226455
O O3 0.693899 0.872976 0.234918
O O4 0.591502 0.929212 0.273447
O O5 0.906781 0.883332 0.331941
O O6 0.803371 0.887340 0.212159
O O7 0.868664 0.000000 0.194452
O O8 0.887409 0.888540 0.000000
O O9 0.500000 0.000000 0.767885
O O10 0.579050 0.000000 0.000000
O O11 0.500000 0.423523 0.213898
O O12 0.409877 0.500000 0.258306
O O13 0.409485 0.351671 0.282850
O O14 0.416470 0.414829 0.000000
O O15 0.000000 0.114098 0.500000
O O16 0.066894 0.000000 0.500000
O O17 0.557533 0.255530 0.500000
O O18 0.500000 0.268162 0.227676
O O19 0.242326 0.904777 0.500000
O O20 0.263235 0.000000 0.266405
#
# Coordination Sequence:
#
# PCOD8195255 Si02
#       7
#     8   8   4   8   4   8   8
#     4  10  19  31  44  55  67  92 122 152 189 232
#     4   9  16  25  38  54  71  94 118 147 185 220
#     4  11  23  33  39  51  71  91 117 156 195 232
#     4   8  14  25  40  55  70  90 112 132 165 219
#     4   9  16  26  38  54  76  96 114 144 179 222
#     4   9  17  27  39  56  74  90 112 145 186 230
#     4   9  15  26  41  53  67  87 120 157 188 219
#
# _framework density 13.511606
#
# number of rings (size 3 to 8) (size 9 to 14) (size 15 to 20)
#    0.000    2.833    1.667    1.250    0.000    3.333 
#    0.000    5.000    0.000    0.000    0.000    0.000 
#    0.000    0.000    0.000    0.000    0.000    0.000 
#
# Total GULP energy -594703.523960 kJ/mol
# GULP energy per Si atom -12389.656749 kJ/mol
# Density = 1.348085 g / cm^3
# Si number density = 13.511606 Si / 1000 Ang^3
#
#
#
# Elastic Constant Matrix: (Units=GPa)
#
#
# Indices 1 2 3 4 5 6 
#
# 1 79.2599 30.9984 33.5850 0.0000 0.0000 0.0000
# 2 30.9984 78.4361 15.4653 0.0000 0.0000 0.0000
# 3 33.5850 15.4653 45.1332 0.0000 0.0000 0.0000
# 4 0.0000 0.0000 0.0000 -2.9280 0.0000 0.0000
# 5 0.0000 0.0000 0.0000 0.0000 10.5982 0.0000
# 6 0.0000 0.0000 0.0000 0.0000 0.0000 4.4527
#
#
#
# Elastic Compliance Matrix: (Units=1/GPa)
#
#
# Indices 1 2 3 4 5 6 
#
# 1 0.020377 -0.005430 -0.013303 0.000000 0.000000 0.000000
# 2 -0.005430 0.015120 -0.001140 0.000000 0.000000 0.000000
# 3 -0.013303 -0.001140 0.032446 0.000000 0.000000 0.000000
# 4 0.000000 0.000000 0.000000 -0.341524 0.000000 0.000000
# 5 0.000000 0.000000 0.000000 0.000000 0.094356 0.000000
# 6 0.000000 0.000000 0.000000 0.000000 0.000000 0.224581
#
#
# Mechanical properties :
#
#
# Convention : Reuss Voigt Hill
#
# Bulk Modulus (GPa) = 35.46427 40.32520 37.89473
# Shear Modulus (GPa) = 52.90932 10.60994 31.75963
#
# Velocity S-wave (km/s) = 6.26446 2.80526 4.85350
# Velocity P-wave (km/s) = 8.86729 6.35628 7.71463
#
# Compressibility (1/GPa) = 0.02819739
#
# Stress axis : x y z
#
# Youngs Moduli (GPa) = 49.07435 66.13698 30.82022
#
# Poissons Ratio (x) = 0.35915 0.40999
# Poissons Ratio (y) = 0.26649 0.03514
# Poissons Ratio (z) = 0.65282 0.07541
#
# Static dielectric constant tensor:
#      x y z
#    x 2.678310 0.000000 0.000000 
#    y 0.000000 2.580340 0.000000 
#    z 0.000000 0.000000 2.723600 
# 
# 
# High freq. dielectric constant tensor:
#      x y z
#    x 1.485400 0.000000 0.000000 
#    y 0.000000 1.472530 0.000000 
#    z 0.000000 0.000000 1.517780 
# 
# From -- ./inp_files/11404.got.cif
#   From: 2010.03.12/outbox.cif.g09.slc.cpg/sg47_6_cif.got.tgz:11404.got - 2010.04.14 03:12:58.
