data_PCOD8195645
_publ_section_title
;
Structure prediction by ZEFSAII (Michael W. Deem and Ramdas Pophale) SiO2 
 PCOD8195645
Probable space group: P M M M
;
_chemical_formula_sum "Si O2"
_cell_formula_units_Z 36
_cell_length_a 18.156100
_cell_length_b 8.041160
_cell_length_c 15.429730
_cell_angle_alpha 90.000000
_cell_angle_beta 90.000000
_cell_angle_gamma 90.000000
_cell_volume 2252.680482
_symmetry_space_group_name_H-M "P M M M"
_symmetry_group_IT_number 47
_symmetry_cell_setting 'orthorhombic'
loop_
_space_group_symop_operation_xyz
x,y,z
-x,-y,z
x,-y,-z
-x,y,-z
-x,-y,-z
x,y,-z
-x,y,z
x,-y,z
loop_
_atom_site_type_symbol
_atom_site_label
_atom_site_fract_x
_atom_site_fract_y
_atom_site_fract_z
Si Si1 0.582468 0.500000 0.397087
Si Si2 0.084139 0.808073 0.816464
Si Si3 0.913124 0.189252 0.500000
Si Si4 0.825299 0.687217 0.659787
Si Si5 0.087261 0.686416 0.000000
Si Si6 0.676898 0.813805 0.398845
O O1 0.500000 0.500000 0.358463
O O2 0.579688 0.500000 0.500000
O O3 0.621909 0.669932 0.364495
O O4 0.136154 0.707127 0.752331
O O5 0.000000 0.742881 0.808298
O O6 0.088172 0.000000 0.791088
O O7 0.114611 0.781298 0.913925
O O8 0.884585 0.277222 0.414096
O O9 0.000000 0.203117 0.500000
O O10 0.885671 0.000000 0.500000
O O11 0.796626 0.500000 0.649734
O O12 0.754061 0.804371 0.651954
O O13 0.119212 0.500000 0.000000
O O14 0.000000 0.685469 0.000000
O O15 0.693867 0.784575 0.500000
O O16 0.643668 0.000000 0.383421
#
# Coordination Sequence:
#
# PCOD8195645 Si02
#       6
#     4   8   4   8   4   8
#     4   9  18  32  50  72  94 119 156 195 231 276
#     4  10  20  33  48  66  89 120 160 204 248 293
#     4  11  23  35  45  61  87 122 165 209 247 283
#     4  12  22  32  47  66  91 124 164 203 242 287
#     4   9  17  31  49  67  87 113 149 198 251 296
#     4  10  19  32  49  68  94 127 159 193 238 286
#
# _framework density 15.980962
#
# number of rings (size 3 to 8) (size 9 to 14) (size 15 to 20)
#    0.000    1.667    2.222    4.000    0.000    6.667 
#    0.000    2.222    0.000    0.000    0.000    0.000 
#    0.000    0.000    0.000    2.000    0.000    8.000 
#
# Total GULP energy -446419.219176 kJ/mol
# GULP energy per Si atom -12400.533866 kJ/mol
# Density = 1.594459 g / cm^3
# Si number density = 15.980962 Si / 1000 Ang^3
#
#
#
# Elastic Constant Matrix: (Units=GPa)
#
#
# Indices 1 2 3 4 5 6 
#
# 1 75.0376 34.5215 28.3645 0.0000 0.0000 0.0000
# 2 34.5215 105.0564 18.2489 0.0000 0.0000 0.0000
# 3 28.3645 18.2489 78.4959 0.0000 0.0000 0.0000
# 4 0.0000 0.0000 0.0000 18.8467 0.0000 0.0000
# 5 0.0000 0.0000 0.0000 0.0000 1.7691 0.0000
# 6 0.0000 0.0000 0.0000 0.0000 0.0000 20.1473
#
#
#
# Elastic Compliance Matrix: (Units=1/GPa)
#
#
# Indices 1 2 3 4 5 6 
#
# 1 0.017528 -0.004856 -0.005205 0.000000 0.000000 0.000000
# 2 -0.004856 0.011264 -0.000864 0.000000 0.000000 0.000000
# 3 -0.005205 -0.000864 0.014821 0.000000 0.000000 0.000000
# 4 0.000000 0.000000 0.000000 0.053060 0.000000 0.000000
# 5 0.000000 0.000000 0.000000 0.000000 0.565266 0.000000
# 6 0.000000 0.000000 0.000000 0.000000 0.000000 0.049634
#
#
# Mechanical properties :
#
#
# Convention : Reuss Voigt Hill
#
# Bulk Modulus (GPa) = 45.94701 46.76218 46.35459
# Shear Modulus (GPa) = 6.75057 19.98295 13.36676
#
# Velocity S-wave (km/s) = 2.05750 3.53997 2.89523
# Velocity P-wave (km/s) = 5.87009 6.78478 6.34394
#
# Compressibility (1/GPa) = 0.02176420
#
# Stress axis : x y z
#
# Youngs Moduli (GPa) = 57.05171 88.77563 67.47084
#
# Poissons Ratio (x) = 0.43106 0.35118
# Poissons Ratio (y) = 0.27702 0.05831
# Poissons Ratio (z) = 0.29695 0.07672
#
# Static dielectric constant tensor:
#      x y z
#    x 2.825350 0.000000 0.000000 
#    y 0.000000 3.256170 0.000000 
#    z 0.000000 0.000000 2.735010 
# 
# 
# High freq. dielectric constant tensor:
#      x y z
#    x 1.579080 0.000000 0.000000 
#    y 0.000000 1.636190 0.000000 
#    z 0.000000 0.000000 1.583940 
# 
# From -- ./inp_files/23294.got.cif
#   From: 2010.03.12/outbox.cif.g09.slc.cpg/sg47_12_cif.got.tgz:23294.got - 2010.04.14 03:12:58.
