data_PCOD8195795
_publ_section_title
;
Structure prediction by ZEFSAII (Michael W. Deem and Ramdas Pophale) SiO2 
 PCOD8195795
Probable space group: P M M M
;
_chemical_formula_sum "Si O2"
_cell_formula_units_Z 64
_cell_length_a 9.272717
_cell_length_b 24.750506
_cell_length_c 14.795626
_cell_angle_alpha 90.000000
_cell_angle_beta 90.000000
_cell_angle_gamma 90.000000
_cell_volume 3395.661826
_symmetry_space_group_name_H-M "P M M M"
_symmetry_group_IT_number 47
_symmetry_cell_setting 'orthorhombic'
loop_
_space_group_symop_operation_xyz
x,y,z
-x,-y,z
x,-y,-z
-x,y,-z
-x,-y,-z
x,y,-z
-x,y,z
x,-y,z
loop_
_atom_site_type_symbol
_atom_site_label
_atom_site_fract_x
_atom_site_fract_y
_atom_site_fract_z
Si Si1 0.162660 0.300860 0.362074
Si Si2 0.168999 0.819845 0.397139
Si Si3 0.328422 0.143951 0.773249
Si Si4 0.330657 0.439702 0.787856
Si Si5 0.334806 0.401428 0.596511
Si Si6 0.835234 0.936726 0.103147
Si Si7 0.164008 0.338092 0.158777
Si Si8 0.336818 0.240982 0.900017
O O1 0.222414 0.241746 0.385729
O O2 0.254841 0.344764 0.414315
O O3 0.174746 0.311730 0.256471
O O4 0.000000 0.305955 0.397170
O O5 0.199702 0.839221 0.500000
O O6 0.259142 0.856210 0.326896
O O7 0.000000 0.824831 0.373645
O O8 0.500000 0.139963 0.765381
O O9 0.271162 0.092579 0.827760
O O10 0.278802 0.197662 0.827545
O O11 0.500000 0.428198 0.799045
O O12 0.292269 0.500000 0.821858
O O13 0.281453 0.436345 0.682106
O O14 0.242961 0.396206 0.846374
O O15 0.312960 0.432613 0.500000
O O16 0.500000 0.386961 0.612674
O O17 0.000000 0.918719 0.121504
O O18 0.817765 0.000000 0.120326
O O19 0.792622 0.922432 0.000000
O O20 0.241936 0.295225 0.094727
O O21 0.000000 0.346721 0.127028
O O22 0.500000 0.257532 0.874713
O O23 0.330074 0.214550 0.000000
#
# Coordination Sequence:
#
# PCOD8195795 Si02
#       8
#     8   8   8   8   8   8   8   8
#     4   9  17  30  47  67  95 132 173 215 260 311
#     4  10  20  34  52  74 106 150 196 236 274 322
#     4  11  22  35  55  84 120 154 186 230 277 324
#     4   9  18  32  49  67  91 128 169 208 259 323
#     4   9  17  27  41  64  92 122 161 210 260 311
#     4   9  19  37  61  88 118 154 194 232 272 325
#     4  10  19  32  52  75 100 130 168 216 264 312
#     4  10  21  36  54  79 112 146 175 207 259 328
#
# _framework density 18.847577999999999
#
# number of rings (size 3 to 8) (size 9 to 14) (size 15 to 20)
#    0.000    2.375    1.250    1.875    0.000    4.250 
#    0.000    1.875    0.000    0.750    0.000    8.750 
#    0.000    0.000    0.000    0.000    0.000    0.000 
#
# Total GULP energy -793381.207173 kJ/mol
# GULP energy per Si atom -12396.581362 kJ/mol
# Density = 1.880468 g / cm^3
# Si number density = 18.847578 Si / 1000 Ang^3
#
#
#
# Elastic Constant Matrix: (Units=GPa)
#
#
# Indices 1 2 3 4 5 6 
#
# 1 76.4149 44.4194 36.5566 0.0000 0.0000 0.0000
# 2 44.4194 81.2659 36.3548 0.0000 0.0000 0.0000
# 3 36.5566 36.3548 83.3705 0.0000 0.0000 0.0000
# 4 0.0000 0.0000 0.0000 16.5929 0.0000 0.0000
# 5 0.0000 0.0000 0.0000 0.0000 22.9542 0.0000
# 6 0.0000 0.0000 0.0000 0.0000 0.0000 30.0779
#
#
#
# Elastic Compliance Matrix: (Units=1/GPa)
#
#
# Indices 1 2 3 4 5 6 
#
# 1 0.020839 -0.009073 -0.005181 0.000000 0.000000 0.000000
# 2 -0.009073 0.019237 -0.004411 0.000000 0.000000 0.000000
# 3 -0.005181 -0.004411 0.016190 0.000000 0.000000 0.000000
# 4 0.000000 0.000000 0.000000 0.060267 0.000000 0.000000
# 5 0.000000 0.000000 0.000000 0.000000 0.043565 0.000000
# 6 0.000000 0.000000 0.000000 0.000000 0.000000 0.033247
#
#
# Mechanical properties :
#
#
# Convention : Reuss Voigt Hill
#
# Bulk Modulus (GPa) = 52.80575 52.85700 52.83137
# Shear Modulus (GPa) = 21.09826 22.17302 21.63564
#
# Velocity S-wave (km/s) = 3.34940 3.43365 3.39178
# Velocity P-wave (km/s) = 6.56018 6.62006 6.59019
#
# Compressibility (1/GPa) = 0.01893733
#
# Stress axis : x y z
#
# Youngs Moduli (GPa) = 47.98687 51.98210 61.76696
#
# Poissons Ratio (x) = 0.47161 0.32004
# Poissons Ratio (y) = 0.43536 0.27243
# Poissons Ratio (z) = 0.24864 0.22927
#
# Static dielectric constant tensor:
#      x y z
#    x 3.422920 0.000000 0.000000 
#    y 0.000000 3.214860 0.000000 
#    z 0.000000 0.000000 3.398390 
# 
# 
# High freq. dielectric constant tensor:
#      x y z
#    x 1.726850 0.000000 0.000000 
#    y 0.000000 1.708060 0.000000 
#    z 0.000000 0.000000 1.728240 
# 
# From -- ./inp_files/21879.got.cif
#   From: 2010.03.12/outbox.cif.g09.slc.cpg/sg47_11_cif.got.tgz:21879.got - 2010.04.14 03:12:58.
