data_PCOD8195073
_publ_section_title
;
Structure prediction by ZEFSAII (Michael W. Deem and Ramdas Pophale) SiO2 
 PCOD8195073
Probable space group: P M M M
;
_chemical_formula_sum "Si O2"
_cell_formula_units_Z 56
_cell_length_a 19.297957
_cell_length_b 9.108658
_cell_length_c 18.687392
_cell_angle_alpha 90.000000
_cell_angle_beta 90.000000
_cell_angle_gamma 90.000000
_cell_volume 3284.841555
_symmetry_space_group_name_H-M "P M M M"
_symmetry_group_IT_number 47
_symmetry_cell_setting 'orthorhombic'
loop_
_space_group_symop_operation_xyz
x,y,z
-x,-y,z
x,-y,-z
-x,y,-z
-x,-y,-z
x,y,-z
-x,y,z
x,-y,z
loop_
_atom_site_type_symbol
_atom_site_label
_atom_site_fract_x
_atom_site_fract_y
_atom_site_fract_z
Si Si1 0.075592 0.325909 0.648471
Si Si2 0.073780 0.326686 0.189695
Si Si3 0.291474 0.173122 0.704633
Si Si4 0.783152 0.327049 0.418076
Si Si5 0.778647 0.328086 0.833305
Si Si6 0.577757 0.170138 0.792804
Si Si7 0.352563 0.672371 0.080084
O O1 0.077515 0.500000 0.646199
O O2 0.084300 0.268785 0.729547
O O3 0.139918 0.265985 0.601668
O O4 0.000000 0.272314 0.618683
O O5 0.067446 0.500000 0.191658
O O6 0.142363 0.283295 0.143899
O O7 0.000000 0.263749 0.158556
O O8 0.275863 0.246866 0.628435
O O9 0.238864 0.236441 0.762900
O O10 0.369824 0.214964 0.729155
O O11 0.281319 0.000000 0.698313
O O12 0.767921 0.287975 0.500000
O O13 0.778135 0.500000 0.403508
O O14 0.774135 0.500000 0.813114
O O15 0.726530 0.289202 0.897515
O O16 0.500000 0.208679 0.767424
O O17 0.593331 0.254603 0.866283
O O18 0.586342 0.000000 0.811207
O O19 0.365549 0.500000 0.082839
O O20 0.364328 0.733228 0.000000
#
# Coordination Sequence:
#
# PCOD8195073 Si02
#       7
#     8   8   8   8   8   8   8
#     4   8  13  22  38  62  89 114 147 191 228 258
#     4   8  12  19  37  63  84 108 150 198 231 255
#     4  10  19  31  48  68  90 114 145 187 228 268
#     4  10  19  30  46  67  91 121 155 188 223 267
#     4   9  15  27  47  64  86 121 156 189 223 262
#     4   9  19  35  53  72  92 117 150 184 219 262
#     4   9  18  30  45  70 101 128 151 177 216 267
#
# _framework density 17.048006999999998
#
# number of rings (size 3 to 8) (size 9 to 14) (size 15 to 20)
#    0.000    3.000    1.429    1.286    0.000    2.000 
#    0.000    2.857    0.000    2.571    0.000    7.000 
#    0.000    0.000    0.000    7.143    0.000    7.429 
#
# Total GULP energy -693831.911786 kJ/mol
# GULP energy per Si atom -12389.855568 kJ/mol
# Density = 1.700920 g / cm^3
# Si number density = 17.048007 Si / 1000 Ang^3
#
#
#
# Elastic Constant Matrix: (Units=GPa)
#
#
# Indices 1 2 3 4 5 6 
#
# 1 138.6590 25.7823 45.4458 0.0000 0.0000 0.0000
# 2 25.7823 27.9840 23.7854 0.0000 0.0000 0.0000
# 3 45.4458 23.7854 74.4982 0.0000 0.0000 0.0000
# 4 0.0000 0.0000 0.0000 14.8061 0.0000 0.0000
# 5 0.0000 0.0000 0.0000 0.0000 18.8279 0.0000
# 6 0.0000 0.0000 0.0000 0.0000 0.0000 15.8138
#
#
#
# Elastic Compliance Matrix: (Units=1/GPa)
#
#
# Indices 1 2 3 4 5 6 
#
# 1 0.009551 -0.005280 -0.004140 0.000000 0.000000 0.000000
# 2 -0.005280 0.051963 -0.013370 0.000000 0.000000 0.000000
# 3 -0.004140 -0.013370 0.020217 0.000000 0.000000 0.000000
# 4 0.000000 0.000000 0.000000 0.067540 0.000000 0.000000
# 5 0.000000 0.000000 0.000000 0.000000 0.053113 0.000000
# 6 0.000000 0.000000 0.000000 0.000000 0.000000 0.063236
#
#
# Mechanical properties :
#
#
# Convention : Reuss Voigt Hill
#
# Bulk Modulus (GPa) = 27.66158 47.90756 37.78457
# Shear Modulus (GPa) = 15.46790 19.63141 17.54966
#
# Velocity S-wave (km/s) = 3.01543 3.39711 3.21195
# Velocity P-wave (km/s) = 5.32773 6.59922 5.99727
#
# Compressibility (1/GPa) = 0.03615122
#
# Stress axis : x y z
#
# Youngs Moduli (GPa) = 104.70389 19.24441 49.46220
#
# Poissons Ratio (x) = 0.10161 0.20479
# Poissons Ratio (y) = 0.55285 0.66129
# Poissons Ratio (z) = 0.43351 0.25729
#
# Static dielectric constant tensor:
#      x y z
#    x 3.619130 0.000000 0.000000 
#    y 0.000000 2.880810 0.000000 
#    z 0.000000 0.000000 3.026520 
# 
# 
# High freq. dielectric constant tensor:
#      x y z
#    x 1.669780 0.000000 0.000000 
#    y 0.000000 1.622900 0.000000 
#    z 0.000000 0.000000 1.625270 
# 
# From -- ./inp_files/9809.got.cif
#   From: 2010.03.12/outbox.cif.g09.slc.cpg/sg47_5_cif.got.tgz:9809.got - 2010.04.14 03:12:58.
