data_PCOD8195344
_publ_section_title
;
Structure prediction by ZEFSAII (Michael W. Deem and Ramdas Pophale) SiO2 
 PCOD8195344
Probable space group: P M M M
;
_chemical_formula_sum "Si O2"
_cell_formula_units_Z 52
_cell_length_a 26.231328
_cell_length_b 8.865591
_cell_length_c 12.789555
_cell_angle_alpha 90.000000
_cell_angle_beta 90.000000
_cell_angle_gamma 90.000000
_cell_volume 2974.290636
_symmetry_space_group_name_H-M "P M M M"
_symmetry_group_IT_number 47
_symmetry_cell_setting 'orthorhombic'
loop_
_space_group_symop_operation_xyz
x,y,z
-x,-y,z
x,-y,-z
-x,y,-z
-x,-y,-z
x,y,-z
-x,y,z
x,-y,z
loop_
_atom_site_type_symbol
_atom_site_label
_atom_site_fract_x
_atom_site_fract_y
_atom_site_fract_z
Si Si1 0.397073 0.822370 0.620811
Si Si2 0.941217 0.821740 0.691160
Si Si3 0.237220 0.174814 0.878856
Si Si4 0.703151 0.321767 0.302669
Si Si5 0.116905 0.678807 0.500000
Si Si6 0.232212 0.678945 0.500000
Si Si7 0.500000 0.670172 0.375756
Si Si8 0.877658 0.821142 0.885799
O O1 0.388900 0.776336 0.500000
O O2 0.351936 0.753290 0.688885
O O3 0.449812 0.755357 0.665405
O O4 0.398558 0.000000 0.635466
O O5 0.911828 0.737587 0.600815
O O6 0.917792 0.763029 0.800408
O O7 0.000000 0.774790 0.688221
O O8 0.934210 0.000000 0.676864
O O9 0.273840 0.276218 0.808639
O O10 0.179501 0.230381 0.856794
O O11 0.243838 0.000000 0.848243
O O12 0.251372 0.200465 0.000000
O O13 0.696816 0.500000 0.309155
O O14 0.739112 0.260935 0.396571
O O15 0.116206 0.500000 0.500000
O O16 0.174611 0.742221 0.500000
O O17 0.231335 0.500000 0.500000
O O18 0.500000 0.500000 0.332579
O O19 0.500000 0.673559 0.500000
O O20 0.878298 0.000000 0.891624
O O21 0.893198 0.755964 0.000000
#
# Coordination Sequence:
#
# PCOD8195344 Si02
#       8
#     8   8   8   8   4   4   4   8
#     4  10  19  31  47  71 103 137 174 211 249 296
#     4  10  20  33  50  73  98 122 155 201 246 290
#     4   9  18  33  51  71  97 128 164 205 248 297
#     4  11  20  32  50  72 102 133 165 207 253 300
#     4  11  22  36  51  66  91 131 170 199 236 292
#     4   9  20  34  48  70  99 128 160 203 251 294
#     4   9  17  29  47  69  98 139 178 211 251 294
#     4   8  15  30  52  75  97 122 154 196 247 301
#
# _framework density 17.483160000000002
#
# number of rings (size 3 to 8) (size 9 to 14) (size 15 to 20)
#    0.000    2.385    0.769    3.462    0.000    3.385 
#    0.000    3.846    0.000    1.385    0.000    1.615 
#    0.000    4.308    0.000    0.000    0.000    0.000 
#
# Total GULP energy -644824.377515 kJ/mol
# GULP energy per Si atom -12400.468798 kJ/mol
# Density = 1.744337 g / cm^3
# Si number density = 17.483160 Si / 1000 Ang^3
#
#
#
# Elastic Constant Matrix: (Units=GPa)
#
#
# Indices 1 2 3 4 5 6 
#
# 1 156.1368 43.0728 66.7687 0.0000 0.0000 0.0000
# 2 43.0728 53.3680 28.4127 0.0000 0.0000 0.0000
# 3 66.7687 28.4127 92.8237 0.0000 0.0000 0.0000
# 4 0.0000 0.0000 0.0000 5.5768 0.0000 0.0000
# 5 0.0000 0.0000 0.0000 0.0000 20.7055 0.0000
# 6 0.0000 0.0000 0.0000 0.0000 0.0000 26.0975
#
#
#
# Elastic Compliance Matrix: (Units=1/GPa)
#
#
# Indices 1 2 3 4 5 6 
#
# 1 0.010348 -0.005243 -0.005838 0.000000 0.000000 0.000000
# 2 -0.005243 0.025043 -0.003894 0.000000 0.000000 0.000000
# 3 -0.005838 -0.003894 0.016164 0.000000 0.000000 0.000000
# 4 0.000000 0.000000 0.000000 0.179314 0.000000 0.000000
# 5 0.000000 0.000000 0.000000 0.000000 0.048296 0.000000
# 6 0.000000 0.000000 0.000000 0.000000 0.000000 0.038318
#
#
# Mechanical properties :
#
#
# Convention : Reuss Voigt Hill
#
# Bulk Modulus (GPa) = 46.28754 64.31522 55.30138
# Shear Modulus (GPa) = 14.09902 21.41426 17.75664
#
# Velocity S-wave (km/s) = 2.84286 3.50358 3.19037
# Velocity P-wave (km/s) = 6.10809 7.29614 6.72839
#
# Compressibility (1/GPa) = 0.02160408
#
# Stress axis : x y z
#
# Youngs Moduli (GPa) = 96.64005 39.93185 61.86413
#
# Poissons Ratio (x) = 0.20937 0.36118
# Poissons Ratio (y) = 0.50671 0.24089
# Poissons Ratio (z) = 0.56421 0.15549
#
# Static dielectric constant tensor:
#      x y z
#    x 3.390400 0.000000 0.000000 
#    y 0.000000 3.056910 0.000000 
#    z 0.000000 0.000000 2.972670 
# 
# 
# High freq. dielectric constant tensor:
#      x y z
#    x 1.682170 0.000000 0.000000 
#    y 0.000000 1.659810 0.000000 
#    z 0.000000 0.000000 1.659730 
# 
# From -- ./inp_files/19853.got.cif
#   From: 2010.03.12/outbox.cif.g09.slc.cpg/sg47_10_cif.got.tgz:19853.got - 2010.04.14 03:12:58.
