data_PCOD8195735
_publ_section_title
;
Structure prediction by ZEFSAII (Michael W. Deem and Ramdas Pophale) SiO2 
 PCOD8195735
Probable space group: P M M M
;
_chemical_formula_sum "Si O2"
_cell_formula_units_Z 64
_cell_length_a 14.586230
_cell_length_b 25.749683
_cell_length_c 9.185207
_cell_angle_alpha 90.000000
_cell_angle_beta 90.000000
_cell_angle_gamma 90.000000
_cell_volume 3449.879233
_symmetry_space_group_name_H-M "P M M M"
_symmetry_group_IT_number 47
_symmetry_cell_setting 'orthorhombic'
loop_
_space_group_symop_operation_xyz
x,y,z
-x,-y,z
x,-y,-z
-x,y,-z
-x,-y,-z
x,y,-z
-x,y,z
x,-y,z
loop_
_atom_site_type_symbol
_atom_site_label
_atom_site_fract_x
_atom_site_fract_y
_atom_site_fract_z
Si Si1 0.721344 0.752168 0.827482
Si Si2 0.707770 0.558004 0.174475
Si Si3 0.096237 0.561491 0.838288
Si Si4 0.900816 0.899831 0.327602
Si Si5 0.289763 0.941082 0.328936
Si Si6 0.103012 0.781127 0.669789
Si Si7 0.601626 0.343476 0.826602
Si Si8 0.394186 0.852000 0.170740
O O1 0.822659 0.748575 0.759685
O O2 0.666630 0.702185 0.768316
O O3 0.666605 0.803412 0.775336
O O4 0.730403 0.751187 0.000000
O O5 0.681028 0.500000 0.230398
O O6 0.807560 0.576954 0.238219
O O7 0.634687 0.600056 0.230145
O O8 0.713768 0.557208 0.000000
O O9 0.098255 0.500000 0.851320
O O10 0.000000 0.578847 0.757965
O O11 0.093897 0.585773 0.000000
O O12 0.904137 0.903392 0.500000
O O13 0.814147 0.932380 0.268368
O O14 0.888089 0.840525 0.278686
O O15 0.000000 0.920553 0.267403
O O16 0.293059 0.929040 0.500000
O O17 0.361880 0.903983 0.250768
O O18 0.318580 0.000000 0.294727
O O19 0.125277 0.775734 0.500000
O O20 0.000000 0.760634 0.703347
O O21 0.500000 0.334148 0.764486
O O22 0.600629 0.342589 0.000000
O O23 0.500000 0.840851 0.210128
O O24 0.381852 0.860857 0.000000
#
# Coordination Sequence:
#
# PCOD8195735 Si02
#       8
#     8   8   8   8   8   8   8   8
#     4  10  19  32  51  73  97 127 164 204 242 284
#     4   8  13  21  34  54  81 116 158 197 236 289
#     4   7   9  14  25  41  63  94 133 176 220 266
#     4   8  14  27  48  73  99 125 152 183 226 283
#     4  10  20  33  51  76 102 125 155 200 248 291
#     4   9  17  31  53  77 100 128 159 192 236 290
#     4   9  17  28  41  59  87 124 164 206 249 289
#     4  10  21  36  52  68  89 126 172 208 242 289
#
# _framework density 18.551373999999999
#
# number of rings (size 3 to 8) (size 9 to 14) (size 15 to 20)
#    0.000    3.125    1.250    2.250    0.000    3.000 
#    0.000    4.375    0.000    3.750    0.000    0.875 
#    0.000    0.500    0.000    2.500    0.000    2.250 
#
# Total GULP energy -792857.884487 kJ/mol
# GULP energy per Si atom -12388.404445 kJ/mol
# Density = 1.850915 g / cm^3
# Si number density = 18.551374 Si / 1000 Ang^3
#
#
#
# Elastic Constant Matrix: (Units=GPa)
#
#
# Indices 1 2 3 4 5 6 
#
# 1 143.5394 64.1711 28.4106 0.0000 0.0000 0.0000
# 2 64.1711 104.3146 21.7770 0.0000 0.0000 0.0000
# 3 28.4106 21.7770 16.8204 0.0000 0.0000 0.0000
# 4 0.0000 0.0000 0.0000 8.2491 0.0000 0.0000
# 5 0.0000 0.0000 0.0000 0.0000 21.6254 0.0000
# 6 0.0000 0.0000 0.0000 0.0000 0.0000 29.4602
#
#
#
# Elastic Compliance Matrix: (Units=1/GPa)
#
#
# Indices 1 2 3 4 5 6 
#
# 1 0.011669 -0.004199 -0.014274 0.000000 0.000000 0.000000
# 2 -0.004199 0.014648 -0.011872 0.000000 0.000000 0.000000
# 3 -0.014274 -0.011872 0.098932 0.000000 0.000000 0.000000
# 4 0.000000 0.000000 0.000000 0.121225 0.000000 0.000000
# 5 0.000000 0.000000 0.000000 0.000000 0.046242 0.000000
# 6 0.000000 0.000000 0.000000 0.000000 0.000000 0.033944
#
#
# Mechanical properties :
#
#
# Convention : Reuss Voigt Hill
#
# Bulk Modulus (GPa) = 15.48974 54.82131 35.15552
# Shear Modulus (GPa) = 12.22887 21.88799 17.05843
#
# Velocity S-wave (km/s) = 2.57025 3.43863 3.03565
# Velocity P-wave (km/s) = 4.14440 6.73653 5.59271
#
# Compressibility (1/GPa) = 0.06455888
#
# Stress axis : x y z
#
# Youngs Moduli (GPa) = 85.69768 68.27001 10.10799
#
# Poissons Ratio (x) = 0.28664 0.14428
# Poissons Ratio (y) = 0.35981 0.12001
# Poissons Ratio (z) = 1.22322 0.81053
#
# Static dielectric constant tensor:
#      x y z
#    x 4.019690 0.000000 0.000000 
#    y 0.000000 3.321360 0.000000 
#    z 0.000000 0.000000 2.751350 
# 
# 
# High freq. dielectric constant tensor:
#      x y z
#    x 1.742550 0.000000 0.000000 
#    y 0.000000 1.704190 0.000000 
#    z 0.000000 0.000000 1.646150 
# 
# From -- ./inp_files/7950.got.cif
#   From: 2010.03.12/outbox.cif.g09.slc.cpg/sg47_4_cif.got.tgz:7950.got - 2010.04.14 03:12:58.
