data_PCOD8195711
_publ_section_title
;
Structure prediction by ZEFSAII (Michael W. Deem and Ramdas Pophale) SiO2 
 PCOD8195711
Probable space group: P M M M
;
_chemical_formula_sum "Si O2"
_cell_formula_units_Z 64
_cell_length_a 9.076448
_cell_length_b 19.859136
_cell_length_c 19.898389
_cell_angle_alpha 90.000000
_cell_angle_beta 90.000000
_cell_angle_gamma 90.000000
_cell_volume 3586.692880
_symmetry_space_group_name_H-M "P M M M"
_symmetry_group_IT_number 47
_symmetry_cell_setting 'orthorhombic'
loop_
_space_group_symop_operation_xyz
x,y,z
-x,-y,z
x,-y,-z
-x,y,-z
-x,-y,-z
x,y,-z
-x,y,z
x,-y,z
loop_
_atom_site_type_symbol
_atom_site_label
_atom_site_fract_x
_atom_site_fract_y
_atom_site_fract_z
Si Si1 0.832026 0.574538 0.295985
Si Si2 0.673061 0.337811 0.813452
Si Si3 0.830005 0.924861 0.709768
Si Si4 0.830039 0.576372 0.922004
Si Si5 0.327109 0.799149 0.246256
Si Si6 0.673869 0.391029 0.425477
Si Si7 0.329381 0.102757 0.573250
Si Si8 0.330087 0.753000 0.388244
O O1 0.825389 0.500000 0.263062
O O2 0.741258 0.626492 0.251362
O O3 0.762141 0.567462 0.369970
O O4 0.000000 0.599614 0.300800
O O5 0.500000 0.350774 0.811042
O O6 0.736693 0.368997 0.881501
O O7 0.706558 0.256881 0.811378
O O8 0.753334 0.871627 0.761138
O O9 0.765091 0.926439 0.634139
O O10 0.000000 0.905213 0.704165
O O11 0.809247 0.000000 0.739998
O O12 0.776901 0.500000 0.906669
O O13 0.000000 0.583702 0.900992
O O14 0.808016 0.592859 0.000000
O O15 0.500000 0.815048 0.250430
O O16 0.262420 0.767198 0.314783
O O17 0.709958 0.418889 0.500000
O O18 0.500000 0.397288 0.411395
O O19 0.734271 0.314024 0.421910
O O20 0.286974 0.071298 0.500000
O O21 0.500000 0.087615 0.589919
O O22 0.302603 0.182677 0.565072
O O23 0.500000 0.738697 0.376409
#
# Coordination Sequence:
#
# PCOD8195711 Si02
#       8
#     8   8   8   8   8   8   8   8
#     4  11  24  38  50  67  96 133 169 208 259 317
#     4  11  21  35  57  83 107 133 173 223 262 295
#     4  10  21  34  47  67  97 129 160 202 255 306
#     4   9  19  36  56  81 118 159 189 211 244 296
#     4   9  18  33  53  74  97 126 163 207 254 302
#     4  10  19  32  51  70  89 117 158 212 269 318
#     4   9  17  29  46  66  88 118 157 198 245 309
#     4   8  13  27  47  66  88 113 146 196 254 305
#
# _framework density 17.843736
#
# number of rings (size 3 to 8) (size 9 to 14) (size 15 to 20)
#    0.000    2.375    1.250    3.000    0.000    7.500 
#    0.000    3.125    0.000    1.500    0.000    0.000 
#    0.000    0.500    0.000    5.500    0.000    4.000 
#
# Total GULP energy -793056.018061 kJ/mol
# GULP energy per Si atom -12391.500282 kJ/mol
# Density = 1.780312 g / cm^3
# Si number density = 17.843736 Si / 1000 Ang^3
#
#
#
# Elastic Constant Matrix: (Units=GPa)
#
#
# Indices 1 2 3 4 5 6 
#
# 1 90.8162 52.4241 39.0322 0.0000 0.0000 0.0000
# 2 52.4241 111.7732 36.2460 0.0000 0.0000 0.0000
# 3 39.0322 36.2460 65.8906 0.0000 0.0000 0.0000
# 4 0.0000 0.0000 0.0000 20.8506 0.0000 0.0000
# 5 0.0000 0.0000 0.0000 0.0000 24.8394 0.0000
# 6 0.0000 0.0000 0.0000 0.0000 0.0000 25.4152
#
#
#
# Elastic Compliance Matrix: (Units=1/GPa)
#
#
# Indices 1 2 3 4 5 6 
#
# 1 0.017464 -0.005886 -0.007107 0.000000 0.000000 0.000000
# 2 -0.005886 0.012873 -0.003595 0.000000 0.000000 0.000000
# 3 -0.007107 -0.003595 0.021364 0.000000 0.000000 0.000000
# 4 0.000000 0.000000 0.000000 0.047960 0.000000 0.000000
# 5 0.000000 0.000000 0.000000 0.000000 0.040259 0.000000
# 6 0.000000 0.000000 0.000000 0.000000 0.000000 0.039347
#
#
# Mechanical properties :
#
#
# Convention : Reuss Voigt Hill
#
# Bulk Modulus (GPa) = 53.98072 58.20941 56.09507
# Shear Modulus (GPa) = 22.87103 23.60621 23.23862
#
# Velocity S-wave (km/s) = 3.58402 3.64117 3.61271
# Velocity P-wave (km/s) = 6.88800 7.09719 6.99338
#
# Compressibility (1/GPa) = 0.01852513
#
# Stress axis : x y z
#
# Youngs Moduli (GPa) = 57.26168 77.68159 46.80727
#
# Poissons Ratio (x) = 0.45724 0.33267
# Poissons Ratio (y) = 0.33705 0.16825
# Poissons Ratio (z) = 0.40697 0.27923
#
# Static dielectric constant tensor:
#      x y z
#    x 3.155000 0.000000 0.000000 
#    y 0.000000 3.505570 0.000000 
#    z 0.000000 0.000000 3.062940 
# 
# 
# High freq. dielectric constant tensor:
#      x y z
#    x 1.676010 0.000000 0.000000 
#    y 0.000000 1.695720 0.000000 
#    z 0.000000 0.000000 1.650270 
# 
# From -- ./inp_files/26989.got.cif
#   From: 2010.03.12/outbox.cif.g09.slc.cpg/sg47_14_cif.got.tgz:26989.got - 2010.04.14 03:12:58.
