data_PCOD8195671
_publ_section_title
;
Structure prediction by ZEFSAII (Michael W. Deem and Ramdas Pophale) SiO2 
 PCOD8195671
Probable space group: P M M M
;
_chemical_formula_sum "Si O2"
_cell_formula_units_Z 52
_cell_length_a 9.906831
_cell_length_b 8.095976
_cell_length_c 35.076732
_cell_angle_alpha 90.000000
_cell_angle_beta 90.000000
_cell_angle_gamma 90.000000
_cell_volume 2813.345636
_symmetry_space_group_name_H-M "P M M M"
_symmetry_group_IT_number 47
_symmetry_cell_setting 'orthorhombic'
loop_
_space_group_symop_operation_xyz
x,y,z
-x,-y,z
x,-y,-z
-x,y,-z
-x,-y,-z
x,y,-z
-x,y,z
x,-y,z
loop_
_atom_site_type_symbol
_atom_site_label
_atom_site_fract_x
_atom_site_fract_y
_atom_site_fract_z
Si Si1 0.151190 0.697624 0.606463
Si Si2 0.845882 0.811703 0.231336
Si Si3 0.348882 0.696506 0.457621
Si Si4 0.661011 0.500000 0.956659
Si Si5 0.339710 0.817028 0.911167
Si Si6 0.651356 0.688707 0.831263
Si Si7 0.840153 0.682543 0.310829
O O1 0.150275 0.500000 0.605873
O O2 0.247324 0.772313 0.573662
O O3 0.207773 0.755335 0.648152
O O4 0.000000 0.765096 0.599066
O O5 0.750552 0.705492 0.204346
O O6 0.796117 0.795440 0.275182
O O7 0.000000 0.747252 0.227391
O O8 0.834398 0.000000 0.218669
O O9 0.304787 0.755024 0.500000
O O10 0.500000 0.759853 0.448731
O O11 0.345423 0.500000 0.455743
O O12 0.500000 0.500000 0.954261
O O13 0.719413 0.332235 0.937031
O O14 0.712022 0.500000 0.000000
O O15 0.500000 0.808986 0.913569
O O16 0.294855 0.793428 0.867231
O O17 0.289100 0.000000 0.924737
O O18 0.500000 0.745739 0.819394
O O19 0.648567 0.500000 0.844761
O O20 0.779025 0.500000 0.303894
O O21 0.000000 0.670503 0.313646
#
# Coordination Sequence:
#
# PCOD8195671 Si02
#       7
#     8   8   8   4   8   8   8
#     4   8  13  21  34  50  67  94 133 169 202 249
#     4  10  20  32  47  69  95 122 155 195 237 283
#     4   8  13  20  29  44  70 101 127 156 203 258
#     4   9  16  26  40  62  93 127 167 209 247 299
#     4   9  16  27  43  63  91 127 163 202 250 298
#     4  10  19  32  50  70  94 126 163 199 239 291
#     4   8  14  26  42  58  80 111 143 177 221 268
#
# _framework density 18.483332000000001
#
# number of rings (size 3 to 8) (size 9 to 14) (size 15 to 20)
#    0.000    3.154    0.769    2.308    0.000    2.462 
#    0.000    3.846    0.000    2.769    0.000    0.000 
#    0.000    1.846    0.000   10.923    0.000   12.000 
#
# Total GULP energy -644341.375357 kJ/mol
# GULP energy per Si atom -12391.180295 kJ/mol
# Density = 1.844126 g / cm^3
# Si number density = 18.483332 Si / 1000 Ang^3
#
#
#
# Elastic Constant Matrix: (Units=GPa)
#
#
# Indices 1 2 3 4 5 6 
#
# 1 53.0452 16.9023 52.0286 0.0000 0.0000 0.0000
# 2 16.9023 68.9245 42.5153 0.0000 0.0000 0.0000
# 3 52.0286 42.5153 146.5726 0.0000 0.0000 0.0000
# 4 0.0000 0.0000 0.0000 11.1420 0.0000 0.0000
# 5 0.0000 0.0000 0.0000 0.0000 14.9587 0.0000
# 6 0.0000 0.0000 0.0000 0.0000 0.0000 9.3183
#
#
#
# Elastic Compliance Matrix: (Units=1/GPa)
#
#
# Indices 1 2 3 4 5 6 
#
# 1 0.028970 -0.000927 -0.010014 0.000000 0.000000 0.000000
# 2 -0.000927 0.017700 -0.004805 0.000000 0.000000 0.000000
# 3 -0.010014 -0.004805 0.011771 0.000000 0.000000 0.000000
# 4 0.000000 0.000000 0.000000 0.089750 0.000000 0.000000
# 5 0.000000 0.000000 0.000000 0.000000 0.066851 0.000000
# 6 0.000000 0.000000 0.000000 0.000000 0.000000 0.107316
#
#
# Mechanical properties :
#
#
# Convention : Reuss Voigt Hill
#
# Bulk Modulus (GPa) = 37.10867 54.60386 45.85626
# Shear Modulus (GPa) = 13.78042 17.55685 15.66864
#
# Velocity S-wave (km/s) = 2.73346 3.08535 2.91472
# Velocity P-wave (km/s) = 5.48478 6.50376 6.01588
#
# Compressibility (1/GPa) = 0.02694788
#
# Stress axis : x y z
#
# Youngs Moduli (GPa) = 34.51874 56.49752 84.95347
#
# Poissons Ratio (x) = 0.05237 0.85076
# Poissons Ratio (y) = 0.03200 0.40821
# Poissons Ratio (z) = 0.34569 0.27147
#
# Static dielectric constant tensor:
#      x y z
#    x 3.052260 0.000000 0.000000 
#    y 0.000000 3.214870 0.000000 
#    z 0.000000 0.000000 3.651470 
# 
# 
# High freq. dielectric constant tensor:
#      x y z
#    x 1.659980 0.000000 0.000000 
#    y 0.000000 1.697150 0.000000 
#    z 0.000000 0.000000 1.725180 
# 
# From -- ./inp_files/34542.got.cif
#   From: 2010.03.12/outbox.cif.g09.slc.cpg/sg47_18_cif.got.tgz:34542.got - 2010.04.14 03:12:58.
