data_PCOD8195028
_publ_section_title
;
Structure prediction by ZEFSAII (Michael W. Deem and Ramdas Pophale) SiO2 
 PCOD8195028
Probable space group: P M M M
;
_chemical_formula_sum "Si O2"
_cell_formula_units_Z 44
_cell_length_a 13.887397
_cell_length_b 23.118165
_cell_length_c 7.847233
_cell_angle_alpha 90.000000
_cell_angle_beta 90.000000
_cell_angle_gamma 90.000000
_cell_volume 2519.363063
_symmetry_space_group_name_H-M "P M M M"
_symmetry_group_IT_number 47
_symmetry_cell_setting 'orthorhombic'
loop_
_space_group_symop_operation_xyz
x,y,z
-x,-y,z
x,-y,-z
-x,y,-z
-x,-y,-z
x,y,-z
-x,y,z
x,-y,z
loop_
_atom_site_type_symbol
_atom_site_label
_atom_site_fract_x
_atom_site_fract_y
_atom_site_fract_z
Si Si1 0.892716 0.677499 0.202165
Si Si2 0.613780 0.064245 0.000000
Si Si3 0.387404 0.853903 0.695800
Si Si4 0.209360 0.436329 0.796736
Si Si5 0.295546 0.733753 0.305400
Si Si6 0.604479 0.622826 0.194333
O O1 0.865860 0.612421 0.265422
O O2 0.818819 0.724632 0.276845
O O3 0.000000 0.691901 0.268610
O O4 0.887466 0.680316 0.000000
O O5 0.646724 0.096379 0.826482
O O6 0.500000 0.059451 0.000000
O O7 0.659824 0.000000 0.000000
O O8 0.366773 0.873220 0.500000
O O9 0.500000 0.839205 0.719474
O O10 0.325015 0.798159 0.748237
O O11 0.180023 0.500000 0.727437
O O12 0.315292 0.419442 0.722916
O O13 0.212699 0.436597 0.000000
O O14 0.323044 0.722925 0.500000
O O15 0.357369 0.688551 0.196944
O O16 0.500000 0.616967 0.286839
O O17 0.590970 0.604955 0.000000
#
# Coordination Sequence:
#
# PCOD8195028 Si02
#       6
#     8   4   8   8   8   8
#     4   9  18  31  46  65  87 111 142 185 237 286
#     4   9  18  30  46  70  99 137 174 197 225 261
#     4   9  18  30  45  69  99 131 166 200 231 268
#     4   8  14  25  41  62  86 110 141 183 229 278
#     4  10  19  30  45  65  89 117 150 187 229 277
#     4   9  17  27  41  62  86 114 146 184 230 274
#
# _framework density 17.464732000000001
#
# number of rings (size 3 to 8) (size 9 to 14) (size 15 to 20)
#    0.000    3.000    0.000    2.182    2.545    2.545 
#    0.000    5.455    0.000    8.727    0.000   10.182 
#    0.000    1.455    0.000    4.000    0.000    0.182 
#
# Total GULP energy -545252.988478 kJ/mol
# GULP energy per Si atom -12392.113375 kJ/mol
# Density = 1.742498 g / cm^3
# Si number density = 17.464732 Si / 1000 Ang^3
#
#
#
# Elastic Constant Matrix: (Units=GPa)
#
#
# Indices 1 2 3 4 5 6 
#
# 1 87.7292 35.6447 9.4592 0.0000 0.0000 0.0000
# 2 35.6447 121.6074 33.7436 0.0000 0.0000 0.0000
# 3 9.4592 33.7436 44.4487 0.0000 0.0000 0.0000
# 4 0.0000 0.0000 0.0000 1.3754 0.0000 0.0000
# 5 0.0000 0.0000 0.0000 0.0000 13.5894 0.0000
# 6 0.0000 0.0000 0.0000 0.0000 0.0000 15.7118
#
#
#
# Elastic Compliance Matrix: (Units=1/GPa)
#
#
# Indices 1 2 3 4 5 6 
#
# 1 0.012941 -0.003837 0.000159 0.000000 0.000000 0.000000
# 2 -0.003837 0.011556 -0.007956 0.000000 0.000000 0.000000
# 3 0.000159 -0.007956 0.028504 0.000000 0.000000 0.000000
# 4 0.000000 0.000000 0.000000 0.727069 0.000000 0.000000
# 5 0.000000 0.000000 0.000000 0.000000 0.073587 0.000000
# 6 0.000000 0.000000 0.000000 0.000000 0.000000 0.063646
#
#
# Mechanical properties :
#
#
# Convention : Reuss Voigt Hill
#
# Bulk Modulus (GPa) = 33.63380 45.72004 39.67692
# Shear Modulus (GPa) = 5.26050 17.79785 11.52917
#
# Velocity S-wave (km/s) = 1.73741 3.19576 2.57211
# Velocity P-wave (km/s) = 4.82957 6.31288 5.62037
#
# Compressibility (1/GPa) = 0.02973199
#
# Stress axis : x y z
#
# Youngs Moduli (GPa) = 77.27598 86.53883 35.08313
#
# Poissons Ratio (x) = 0.33207 -0.00558
# Poissons Ratio (y) = 0.29653 0.27912
# Poissons Ratio (z) = -0.01230 0.68849
#
# Static dielectric constant tensor:
#      x y z
#    x 3.353900 0.000000 0.000000 
#    y 0.000000 3.251930 0.000000 
#    z 0.000000 0.000000 3.120390 
# 
# 
# High freq. dielectric constant tensor:
#      x y z
#    x 1.654410 0.000000 0.000000 
#    y 0.000000 1.649360 0.000000 
#    z 0.000000 0.000000 1.663900 
# 
# From -- ./inp_files/6744.got.cif
#   From: 2010.03.12/outbox.cif.g09.slc.cpg/sg47_4_cif.got.tgz:6744.got - 2010.04.14 03:12:58.
