data_PCOD8195013
_publ_section_title
;
Structure prediction by ZEFSAII (Michael W. Deem and Ramdas Pophale) SiO2 
 PCOD8195013
Probable space group: P M M M
;
_chemical_formula_sum "Si O2"
_cell_formula_units_Z 56
_cell_length_a 29.264814
_cell_length_b 13.741265
_cell_length_c 9.275266
_cell_angle_alpha 90.000000
_cell_angle_beta 90.000000
_cell_angle_gamma 90.000000
_cell_volume 3729.914327
_symmetry_space_group_name_H-M "P M M M"
_symmetry_group_IT_number 47
_symmetry_cell_setting 'orthorhombic'
loop_
_space_group_symop_operation_xyz
x,y,z
-x,-y,z
x,-y,-z
-x,y,-z
-x,-y,-z
x,y,-z
-x,y,z
x,-y,z
loop_
_atom_site_type_symbol
_atom_site_label
_atom_site_fract_x
_atom_site_fract_y
_atom_site_fract_z
Si Si1 0.549746 0.790910 0.668300
Si Si2 0.640812 0.111094 0.329702
Si Si3 0.223419 0.611187 0.166939
Si Si4 0.316470 0.283081 0.169629
Si Si5 0.135393 0.384066 0.338331
Si Si6 0.393209 0.609783 0.333729
Si Si7 0.949620 0.615721 0.838079
O O1 0.544358 0.808249 0.500000
O O2 0.500000 0.811357 0.741549
O O3 0.589378 0.863225 0.725359
O O4 0.564068 0.679611 0.701538
O O5 0.644973 0.131738 0.500000
O O6 0.676816 0.178650 0.246042
O O7 0.651793 0.000000 0.291241
O O8 0.235468 0.500000 0.210614
O O9 0.265715 0.680430 0.203792
O O10 0.180348 0.652065 0.255150
O O11 0.210194 0.616253 0.000000
O O12 0.350739 0.363044 0.233392
O O13 0.325344 0.272788 0.000000
O O14 0.137371 0.343304 0.500000
O O15 0.133583 0.500000 0.335643
O O16 0.089791 0.340484 0.264034
O O17 0.377960 0.623107 0.500000
O O18 0.408713 0.500000 0.300793
O O19 0.946910 0.500000 0.837743
O O20 0.000000 0.648781 0.783005
O O21 0.941491 0.654390 0.000000
#
# Coordination Sequence:
#
# PCOD8195013 Si02
#       7
#     8   8   8   8   8   8   8
#     4   8  14  25  42  65  88 106 129 162 196 231
#     4   9  18  32  48  65  84 104 127 159 200 243
#     4   9  17  28  40  54  75 103 132 162 197 237
#     4  10  19  30  45  63  81 103 134 168 200 238
#     4   9  16  23  32  49  71  95 126 165 205 239
#     4   9  17  28  42  61  85 111 136 163 196 233
#     4   8  13  21  32  44  61  91 130 168 204 239
#
# _framework density 15.013749000000001
#
# number of rings (size 3 to 8) (size 9 to 14) (size 15 to 20)
#    0.000    3.143    0.000    2.571    0.000    4.857 
#    0.000    5.714    0.000    6.857    0.000    8.000 
#    0.000    0.000    0.000    0.000    0.000    0.714 
#
# Total GULP energy -694070.562560 kJ/mol
# GULP energy per Si atom -12394.117189 kJ/mol
# Density = 1.497958 g / cm^3
# Si number density = 15.013749 Si / 1000 Ang^3
#
#
#
# Elastic Constant Matrix: (Units=GPa)
#
#
# Indices 1 2 3 4 5 6 
#
# 1 125.5091 32.9963 58.9238 0.0000 0.0000 0.0000
# 2 32.9963 67.1220 26.2922 0.0000 0.0000 0.0000
# 3 58.9238 26.2922 67.7562 0.0000 0.0000 0.0000
# 4 0.0000 0.0000 0.0000 14.5403 0.0000 0.0000
# 5 0.0000 0.0000 0.0000 0.0000 23.5839 0.0000
# 6 0.0000 0.0000 0.0000 0.0000 0.0000 10.3841
#
#
#
# Elastic Compliance Matrix: (Units=1/GPa)
#
#
# Indices 1 2 3 4 5 6 
#
# 1 0.013800 -0.002456 -0.011048 0.000000 0.000000 0.000000
# 2 -0.002456 0.018006 -0.004851 0.000000 0.000000 0.000000
# 3 -0.011048 -0.004851 0.026249 0.000000 0.000000 0.000000
# 4 0.000000 0.000000 0.000000 0.068774 0.000000 0.000000
# 5 0.000000 0.000000 0.000000 0.000000 0.042402 0.000000
# 6 0.000000 0.000000 0.000000 0.000000 0.000000 0.096301
#
#
# Mechanical properties :
#
#
# Convention : Reuss Voigt Hill
#
# Bulk Modulus (GPa) = 46.85050 55.20131 51.02590
# Shear Modulus (GPa) = 16.16253 19.18000 17.67126
#
# Velocity S-wave (km/s) = 3.28459 3.57808 3.43447
# Velocity P-wave (km/s) = 6.75703 7.34284 7.05602
#
# Compressibility (1/GPa) = 0.02134449
#
# Stress axis : x y z
#
# Youngs Moduli (GPa) = 72.46296 55.53738 38.09669
#
# Poissons Ratio (x) = 0.13642 0.42089
# Poissons Ratio (y) = 0.17800 0.18480
# Poissons Ratio (z) = 0.80057 0.26940
#
# Static dielectric constant tensor:
#      x y z
#    x 3.061430 0.000000 0.000000 
#    y 0.000000 2.588600 0.000000 
#    z 0.000000 0.000000 2.870020 
# 
# 
# High freq. dielectric constant tensor:
#      x y z
#    x 1.576310 0.000000 0.000000 
#    y 0.000000 1.525720 0.000000 
#    z 0.000000 0.000000 1.566370 
# 
# From -- ./inp_files/8110.got.cif
#   From: 2010.03.12/outbox.cif.g09.slc.cpg/sg47_5_cif.got.tgz:8110.got - 2010.04.14 03:12:58.
