data_PCOD8195806
_publ_section_title
;
Structure prediction by ZEFSAII (Michael W. Deem and Ramdas Pophale) SiO2 
 PCOD8195806
Probable space group: P M M M
;
_chemical_formula_sum "Si O2"
_cell_formula_units_Z 64
_cell_length_a 20.197866
_cell_length_b 19.959289
_cell_length_c 8.834301
_cell_angle_alpha 90.000000
_cell_angle_beta 90.000000
_cell_angle_gamma 90.000000
_cell_volume 3561.416328
_symmetry_space_group_name_H-M "P M M M"
_symmetry_group_IT_number 47
_symmetry_cell_setting 'orthorhombic'
loop_
_space_group_symop_operation_xyz
x,y,z
-x,-y,z
x,-y,-z
-x,y,-z
-x,-y,-z
x,y,-z
-x,y,z
x,-y,z
loop_
_atom_site_type_symbol
_atom_site_label
_atom_site_fract_x
_atom_site_fract_y
_atom_site_fract_z
Si Si1 0.286959 0.754362 0.820749
Si Si2 0.074772 0.921925 0.174968
Si Si3 0.926357 0.697858 0.326921
Si Si4 0.428970 0.715458 0.821421
Si Si5 0.382486 0.572730 0.825957
Si Si6 0.126956 0.425979 0.173407
Si Si7 0.743976 0.616101 0.323408
Si Si8 0.167732 0.183058 0.678361
O O1 0.364040 0.755379 0.759957
O O2 0.255179 0.684564 0.771360
O O3 0.241878 0.813352 0.749409
O O4 0.285445 0.761708 0.000000
O O5 0.130080 0.883533 0.270435
O O6 0.000000 0.903618 0.228649
O O7 0.087815 0.000000 0.200947
O O8 0.083031 0.902688 0.000000
O O9 0.909325 0.679433 0.500000
O O10 0.924073 0.630669 0.227328
O O11 0.874940 0.753048 0.266003
O O12 0.000000 0.728217 0.312916
O O13 0.500000 0.742808 0.756558
O O14 0.427077 0.636182 0.778280
O O15 0.429213 0.723433 0.000000
O O16 0.418744 0.500000 0.805430
O O17 0.318224 0.570758 0.720331
O O18 0.359950 0.582144 0.000000
O O19 0.094609 0.500000 0.190659
O O20 0.190980 0.424431 0.280064
O O21 0.147105 0.412550 0.000000
O O22 0.743268 0.633610 0.500000
O O23 0.175085 0.181435 0.500000
#
# Coordination Sequence:
#
# PCOD8195806 Si02
#       8
#     8   8   8   8   8   8   8   8
#     4  10  19  32  52  75  99 129 167 211 256 302
#     4   9  19  36  57  83 117 155 189 217 249 293
#     4  10  22  38  53  71  96 127 164 207 256 308
#     4   8  15  28  46  69  96 125 160 207 260 310
#     4   9  17  28  43  64  89 118 155 199 250 312
#     4  11  23  36  50  67  88 118 160 210 264 319
#     4  11  20  31  47  67  90 119 156 202 258 313
#     4  11  21  34  55  82 109 140 176 215 255 299
#
# _framework density 17.970379000000001
#
# number of rings (size 3 to 8) (size 9 to 14) (size 15 to 20)
#    0.000    2.125    1.250    4.125    0.000    5.000 
#    0.000    3.125    0.000    9.375    0.000    3.500 
#    0.000    0.500    0.000    5.750    0.000    1.625 
#
# Total GULP energy -793151.845558 kJ/mol
# GULP energy per Si atom -12392.997587 kJ/mol
# Density = 1.792948 g / cm^3
# Si number density = 17.970379 Si / 1000 Ang^3
#
#
#
# Elastic Constant Matrix: (Units=GPa)
#
#
# Indices 1 2 3 4 5 6 
#
# 1 125.7199 42.4540 34.8675 0.0000 0.0000 0.0000
# 2 42.4540 60.3351 26.3769 0.0000 0.0000 0.0000
# 3 34.8675 26.3769 61.2523 0.0000 0.0000 0.0000
# 4 0.0000 0.0000 0.0000 19.7426 0.0000 0.0000
# 5 0.0000 0.0000 0.0000 0.0000 13.9202 0.0000
# 6 0.0000 0.0000 0.0000 0.0000 0.0000 18.2374
#
#
#
# Elastic Compliance Matrix: (Units=1/GPa)
#
#
# Indices 1 2 3 4 5 6 
#
# 1 0.011050 -0.006191 -0.003624 0.000000 0.000000 0.000000
# 2 -0.006191 0.023886 -0.006762 0.000000 0.000000 0.000000
# 3 -0.003624 -0.006762 0.021301 0.000000 0.000000 0.000000
# 4 0.000000 0.000000 0.000000 0.050652 0.000000 0.000000
# 5 0.000000 0.000000 0.000000 0.000000 0.071838 0.000000
# 6 0.000000 0.000000 0.000000 0.000000 0.000000 0.054832
#
#
# Mechanical properties :
#
#
# Convention : Reuss Voigt Hill
#
# Bulk Modulus (GPa) = 43.32163 50.52267 46.92215
# Shear Modulus (GPa) = 18.22107 19.95397 19.08752
#
# Velocity S-wave (km/s) = 3.18771 3.33585 3.26262
# Velocity P-wave (km/s) = 6.14071 6.55840 6.35299
#
# Compressibility (1/GPa) = 0.02308316
#
# Stress axis : x y z
#
# Youngs Moduli (GPa) = 90.49898 41.86504 46.94637
#
# Poissons Ratio (x) = 0.25917 0.17014
# Poissons Ratio (y) = 0.56025 0.31745
# Poissons Ratio (z) = 0.32798 0.28309
#
# Static dielectric constant tensor:
#      x y z
#    x 3.560140 0.000000 0.000000 
#    y 0.000000 3.039620 0.000000 
#    z 0.000000 0.000000 3.219490 
# 
# 
# High freq. dielectric constant tensor:
#      x y z
#    x 1.693280 0.000000 0.000000 
#    y 0.000000 1.655460 0.000000 
#    z 0.000000 0.000000 1.686090 
# 
# From -- ./inp_files/10021.got.cif
#   From: 2010.03.12/outbox.cif.g09.slc.cpg/sg47_6_cif.got.tgz:10021.got - 2010.04.14 03:12:58.
