data_PCOD8195041
_publ_section_title
;
Structure prediction by ZEFSAII (Michael W. Deem and Ramdas Pophale) SiO2 
 PCOD8195041
Probable space group: P M M M
;
_chemical_formula_sum "Si O2"
_cell_formula_units_Z 52
_cell_length_a 9.278457
_cell_length_b 10.855637
_cell_length_c 29.589924
_cell_angle_alpha 90.000000
_cell_angle_beta 90.000000
_cell_angle_gamma 90.000000
_cell_volume 2980.402518
_symmetry_space_group_name_H-M "P M M M"
_symmetry_group_IT_number 47
_symmetry_cell_setting 'orthorhombic'
loop_
_space_group_symop_operation_xyz
x,y,z
-x,-y,z
x,-y,-z
-x,y,-z
-x,-y,-z
x,y,-z
-x,y,z
x,-y,z
loop_
_atom_site_type_symbol
_atom_site_label
_atom_site_fract_x
_atom_site_fract_y
_atom_site_fract_z
Si Si1 0.159326 0.355201 0.286908
Si Si2 0.829115 0.500000 0.949457
Si Si3 0.828208 0.638838 0.612242
Si Si4 0.658083 0.142756 0.950872
Si Si5 0.169858 0.718792 0.885643
Si Si6 0.335454 0.646295 0.202190
Si Si7 0.828745 0.137490 0.448776
O O1 0.143808 0.500000 0.280821
O O2 0.221213 0.326947 0.336889
O O3 0.269080 0.303691 0.249324
O O4 0.000000 0.295501 0.280445
O O5 0.775315 0.384417 0.920682
O O6 0.000000 0.500000 0.952753
O O7 0.762003 0.500000 0.000000
O O8 0.772488 0.500000 0.598641
O O9 0.764667 0.748159 0.580465
O O10 0.000000 0.636493 0.610106
O O11 0.500000 0.199240 0.938326
O O12 0.775046 0.160069 0.911039
O O13 0.639462 0.000000 0.956579
O O14 0.709669 0.196507 0.000000
O O15 0.244513 0.706851 0.837538
O O16 0.000000 0.718479 0.877586
O O17 0.500000 0.690818 0.199561
O O18 0.323475 0.500000 0.198491
O O19 0.775099 0.156971 0.500000
O O20 0.000000 0.142787 0.446665
O O21 0.778679 0.000000 0.431869
#
# Coordination Sequence:
#
# PCOD8195041 Si02
#       7
#     8   4   8   8   8   8   8
#     4   8  14  25  41  59  81 110 146 187 229 267
#     4   9  18  30  43  65  97 125 145 173 218 265
#     4   8  13  21  34  53  76 106 146 187 224 266
#     4   9  19  36  54  70  91 120 153 189 229 271
#     4  11  20  31  49  71  97 124 152 187 226 271
#     4  10  19  30  45  66  93 121 152 186 225 278
#     4   8  13  20  30  48  79 117 149 176 215 269
#
# _framework density 17.447308
#
# number of rings (size 3 to 8) (size 9 to 14) (size 15 to 20)
#    0.000    3.000    0.769    3.231    0.000    2.154 
#    0.000    2.308    0.000    2.769    0.000    2.154 
#    0.000    0.615    0.000    7.692    0.000    8.923 
#
# Total GULP energy -644185.153700 kJ/mol
# GULP energy per Si atom -12388.176033 kJ/mol
# Density = 1.740760 g / cm^3
# Si number density = 17.447308 Si / 1000 Ang^3
#
#
#
# Elastic Constant Matrix: (Units=GPa)
#
#
# Indices 1 2 3 4 5 6 
#
# 1 67.9668 23.6612 46.8598 0.0000 0.0000 0.0000
# 2 23.6612 71.0025 59.5160 0.0000 0.0000 0.0000
# 3 46.8598 59.5160 141.7820 0.0000 0.0000 0.0000
# 4 0.0000 0.0000 0.0000 12.3198 0.0000 0.0000
# 5 0.0000 0.0000 0.0000 0.0000 11.5781 0.0000
# 6 0.0000 0.0000 0.0000 0.0000 0.0000 12.8133
#
#
#
# Elastic Compliance Matrix: (Units=1/GPa)
#
#
# Indices 1 2 3 4 5 6 
#
# 1 0.019182 -0.001663 -0.005641 0.000000 0.000000 0.000000
# 2 -0.001663 0.021874 -0.008632 0.000000 0.000000 0.000000
# 3 -0.005641 -0.008632 0.012541 0.000000 0.000000 0.000000
# 4 0.000000 0.000000 0.000000 0.081170 0.000000 0.000000
# 5 0.000000 0.000000 0.000000 0.000000 0.086370 0.000000
# 6 0.000000 0.000000 0.000000 0.000000 0.000000 0.078044
#
#
# Mechanical properties :
#
#
# Convention : Reuss Voigt Hill
#
# Bulk Modulus (GPa) = 46.03492 60.09171 53.06331
# Shear Modulus (GPa) = 14.77992 17.38984 16.08488
#
# Velocity S-wave (km/s) = 2.91369 3.16049 3.03959
# Velocity P-wave (km/s) = 6.14506 6.91627 6.54204
#
# Compressibility (1/GPa) = 0.02172264
#
# Stress axis : x y z
#
# Youngs Moduli (GPa) = 52.13326 45.71587 79.73705
#
# Poissons Ratio (x) = 0.07605 0.44983
# Poissons Ratio (y) = 0.08672 0.68832
# Poissons Ratio (z) = 0.29410 0.39464
#
# Static dielectric constant tensor:
#      x y z
#    x 2.981420 0.000000 0.000000 
#    y 0.000000 3.176860 0.000000 
#    z 0.000000 0.000000 3.473160 
# 
# 
# High freq. dielectric constant tensor:
#      x y z
#    x 1.637060 0.000000 0.000000 
#    y 0.000000 1.643610 0.000000 
#    z 0.000000 0.000000 1.680370 
# 
# From -- ./inp_files/14136.got.cif
#   From: 2010.03.12/outbox.cif.g09.slc.cpg/sg47_8_cif.got.tgz:14136.got - 2010.04.14 03:12:58.
