data_PCOD8195397
_publ_section_title
;
Structure prediction by ZEFSAII (Michael W. Deem and Ramdas Pophale) SiO2 
 PCOD8195397
Probable space group: P M M M
;
_chemical_formula_sum "Si O2"
_cell_formula_units_Z 64
_cell_length_a 9.368077
_cell_length_b 14.975915
_cell_length_c 24.985314
_cell_angle_alpha 90.000000
_cell_angle_beta 90.000000
_cell_angle_gamma 90.000000
_cell_volume 3505.327742
_symmetry_space_group_name_H-M "P M M M"
_symmetry_group_IT_number 47
_symmetry_cell_setting 'orthorhombic'
loop_
_space_group_symop_operation_xyz
x,y,z
-x,-y,z
x,-y,-z
-x,y,-z
-x,-y,-z
x,y,-z
-x,y,z
x,-y,z
loop_
_atom_site_type_symbol
_atom_site_label
_atom_site_fract_x
_atom_site_fract_y
_atom_site_fract_z
Si Si1 0.833471 0.716247 0.856019
Si Si2 0.839025 0.599657 0.758220
Si Si3 0.665147 0.256187 0.559196
Si Si4 0.341097 0.335304 0.332533
Si Si5 0.162838 0.099437 0.808446
Si Si6 0.665403 0.399186 0.062295
Si Si7 0.662211 0.135643 0.703742
Si Si8 0.836898 0.901427 0.398754
O O1 0.775347 0.667582 0.802192
O O2 0.802968 0.822784 0.851814
O O3 0.752833 0.676142 0.906673
O O4 0.000000 0.695312 0.863511
O O5 0.829402 0.500000 0.782161
O O6 0.757562 0.599456 0.701531
O O7 0.000000 0.627958 0.745077
O O8 0.684006 0.299086 0.500000
O O9 0.500000 0.230105 0.570286
O O10 0.713916 0.325100 0.605776
O O11 0.757940 0.166420 0.561468
O O12 0.500000 0.375547 0.332771
O O13 0.335648 0.241390 0.302480
O O14 0.271089 0.107484 0.759754
O O15 0.000000 0.112915 0.787885
O O16 0.180552 0.000000 0.834228
O O17 0.500000 0.387057 0.076374
O O18 0.713942 0.500000 0.077949
O O19 0.693480 0.382881 0.000000
O O20 0.500000 0.099485 0.700723
O O21 0.757097 0.092022 0.657740
O O22 0.000000 0.869599 0.389920
O O23 0.833494 0.000000 0.424943
#
# Coordination Sequence:
#
# PCOD8195397 Si02
#       8
#     8   8   8   8   8   8   8   8
#     4  10  20  34  53  79 112 145 179 220 262 309
#     4  10  20  33  51  77 107 137 167 203 254 313
#     4   9  19  35  52  69  90 120 162 211 259 308
#     4   9  18  32  50  72  97 127 163 203 251 310
#     4  10  20  33  50  73 104 143 183 221 263 308
#     4   9  19  36  57  82 112 145 181 222 268 316
#     4  10  19  31  48  70  97 131 173 215 255 304
#     4  10  20  31  44  65  94 126 162 206 255 310
#
# _framework density 18.257922000000001
#
# number of rings (size 3 to 8) (size 9 to 14) (size 15 to 20)
#    0.000    2.375    1.250    2.625    0.000    7.500 
#    0.000    1.875    0.000    0.750    0.000    5.250 
#    0.000    0.000    0.000    0.000    0.000    0.000 
#
# Total GULP energy -793330.201485 kJ/mol
# GULP energy per Si atom -12395.784398 kJ/mol
# Density = 1.821637 g / cm^3
# Si number density = 18.257922 Si / 1000 Ang^3
#
#
#
# Elastic Constant Matrix: (Units=GPa)
#
#
# Indices 1 2 3 4 5 6 
#
# 1 74.9914 28.5405 41.1526 0.0000 0.0000 0.0000
# 2 28.5405 86.8118 44.7066 0.0000 0.0000 0.0000
# 3 41.1526 44.7066 92.6325 0.0000 0.0000 0.0000
# 4 0.0000 0.0000 0.0000 12.7921 0.0000 0.0000
# 5 0.0000 0.0000 0.0000 0.0000 24.4788 0.0000
# 6 0.0000 0.0000 0.0000 0.0000 0.0000 21.3532
#
#
#
# Elastic Compliance Matrix: (Units=1/GPa)
#
#
# Indices 1 2 3 4 5 6 
#
# 1 0.018000 -0.002395 -0.006841 0.000000 0.000000 0.000000
# 2 -0.002395 0.015648 -0.006488 0.000000 0.000000 0.000000
# 3 -0.006841 -0.006488 0.016966 0.000000 0.000000 0.000000
# 4 0.000000 0.000000 0.000000 0.078173 0.000000 0.000000
# 5 0.000000 0.000000 0.000000 0.000000 0.040852 0.000000
# 6 0.000000 0.000000 0.000000 0.000000 0.000000 0.046831
#
#
# Mechanical properties :
#
#
# Convention : Reuss Voigt Hill
#
# Bulk Modulus (GPa) = 52.17530 53.69278 52.93404
# Shear Modulus (GPa) = 19.66130 21.06054 20.36092
#
# Velocity S-wave (km/s) = 3.28512 3.40001 3.34306
# Velocity P-wave (km/s) = 6.55959 6.69964 6.62998
#
# Compressibility (1/GPa) = 0.01916616
#
# Stress axis : x y z
#
# Youngs Moduli (GPa) = 55.55428 63.90701 58.94218
#
# Poissons Ratio (x) = 0.15305 0.40322
# Poissons Ratio (y) = 0.13305 0.38242
# Poissons Ratio (z) = 0.38005 0.41463
#
# Static dielectric constant tensor:
#      x y z
#    x 3.399290 0.000000 0.000000 
#    y 0.000000 3.309770 0.000000 
#    z 0.000000 0.000000 3.155610 
# 
# 
# High freq. dielectric constant tensor:
#      x y z
#    x 1.708620 0.000000 0.000000 
#    y 0.000000 1.696390 0.000000 
#    z 0.000000 0.000000 1.683920 
# 
# From -- ./inp_files/12715.got.cif
#   From: 2010.03.12/outbox.cif.g09.slc.cpg/sg47_7_cif.got.tgz:12715.got - 2010.04.14 03:12:58.
