data_PCOD8195919
_publ_section_title
;
Structure prediction by ZEFSAII (Michael W. Deem and Ramdas Pophale) SiO2 
 PCOD8195919
Probable space group: P M M M
;
_chemical_formula_sum "Si O2"
_cell_formula_units_Z 48
_cell_length_a 8.897087
_cell_length_b 15.529503
_cell_length_c 17.903453
_cell_angle_alpha 90.000000
_cell_angle_beta 90.000000
_cell_angle_gamma 90.000000
_cell_volume 2473.672465
_symmetry_space_group_name_H-M "P M M M"
_symmetry_group_IT_number 47
_symmetry_cell_setting 'orthorhombic'
loop_
_space_group_symop_operation_xyz
x,y,z
-x,-y,z
x,-y,-z
-x,y,-z
-x,-y,-z
x,y,-z
-x,y,z
x,-y,z
loop_
_atom_site_type_symbol
_atom_site_label
_atom_site_fract_x
_atom_site_fract_y
_atom_site_fract_z
Si Si1 0.175827 0.143734 0.692822
Si Si2 0.678937 0.268872 0.082666
Si Si3 0.822257 0.000000 0.581523
Si Si4 0.673473 0.597030 0.794572
Si Si5 0.322200 0.904932 0.153974
Si Si6 0.323013 0.400225 0.500000
Si Si7 0.176620 0.663098 0.651150
O O1 0.229961 0.085790 0.623829
O O2 0.264960 0.110783 0.763510
O O3 0.219676 0.240553 0.673816
O O4 0.000000 0.132886 0.709317
O O5 0.500000 0.272049 0.083594
O O6 0.741068 0.337570 0.143213
O O7 0.737767 0.172230 0.101204
O O8 0.739058 0.293127 0.000000
O O9 0.746128 0.000000 0.500000
O O10 0.000000 0.000000 0.573786
O O11 0.500000 0.619330 0.777978
O O12 0.690326 0.500000 0.825734
O O13 0.763700 0.602354 0.717193
O O14 0.500000 0.901844 0.155945
O O15 0.268574 0.000000 0.125530
O O16 0.279664 0.500000 0.500000
O O17 0.500000 0.385544 0.500000
O O18 0.254832 0.357175 0.426715
O O19 0.000000 0.649266 0.641405
#
# Coordination Sequence:
#
# PCOD8195919 Si02
#       7
#     8   8   4   8   8   4   8
#     4  10  20  34  55  80 106 143 184 222 267 327
#     4   9  18  33  53  80 114 147 182 231 285 334
#     4   9  18  32  53  77 104 137 176 220 263 315
#     4  10  20  35  57  82 109 146 189 230 278 337
#     4  10  19  32  54  81 109 142 181 227 276 328
#     4  11  25  43  61  82 111 148 186 226 278 335
#     4  11  23  37  58  86 114 145 186 232 279 330
#
# _framework density 19.404347999999999
#
# number of rings (size 3 to 8) (size 9 to 14) (size 15 to 20)
#    0.000    2.000    2.500    1.250    1.167    4.333 
#    0.000    3.333    0.000    2.500    0.000    2.333 
#    0.000    0.000    0.000    0.000    0.000    0.000 
#
# Total GULP energy -595138.090649 kJ/mol
# GULP energy per Si atom -12398.710222 kJ/mol
# Density = 1.936018 g / cm^3
# Si number density = 19.404348 Si / 1000 Ang^3
#
#
#
# Elastic Constant Matrix: (Units=GPa)
#
#
# Indices 1 2 3 4 5 6 
#
# 1 18.7004 24.1931 10.1255 0.0000 0.0000 0.0000
# 2 24.1931 127.3050 44.1056 0.0000 0.0000 0.0000
# 3 10.1255 44.1056 130.4358 0.0000 0.0000 0.0000
# 4 0.0000 0.0000 0.0000 25.9839 0.0000 0.0000
# 5 0.0000 0.0000 0.0000 0.0000 11.9742 0.0000
# 6 0.0000 0.0000 0.0000 0.0000 0.0000 18.7891
#
#
#
# Elastic Compliance Matrix: (Units=1/GPa)
#
#
# Indices 1 2 3 4 5 6 
#
# 1 0.071041 -0.013128 -0.001076 0.000000 0.000000 0.000000
# 2 -0.013128 0.011323 -0.002810 0.000000 0.000000 0.000000
# 3 -0.001076 -0.002810 0.008700 0.000000 0.000000 0.000000
# 4 0.000000 0.000000 0.000000 0.038485 0.000000 0.000000
# 5 0.000000 0.000000 0.000000 0.000000 0.083513 0.000000
# 6 0.000000 0.000000 0.000000 0.000000 0.000000 0.053222
#
#
# Mechanical properties :
#
#
# Convention : Reuss Voigt Hill
#
# Bulk Modulus (GPa) = 17.53218 48.14330 32.83774
# Shear Modulus (GPa) = 15.65801 24.55057 20.10429
#
# Velocity S-wave (km/s) = 2.84374 3.56084 3.22230
# Velocity P-wave (km/s) = 4.45390 6.46301 5.55013
#
# Compressibility (1/GPa) = 0.05703797
#
# Stress axis : x y z
#
# Youngs Moduli (GPa) = 14.07630 88.31195 114.93950
#
# Poissons Ratio (x) = 1.15936 0.12364
# Poissons Ratio (y) = 0.18479 0.32296
# Poissons Ratio (z) = 0.01514 0.24814
#
# Static dielectric constant tensor:
#      x y z
#    x 3.247180 0.000000 0.000000 
#    y 0.000000 3.974150 0.000000 
#    z 0.000000 0.000000 4.153680 
# 
# 
# High freq. dielectric constant tensor:
#      x y z
#    x 1.721590 0.000000 0.000000 
#    y 0.000000 1.774410 0.000000 
#    z 0.000000 0.000000 1.758430 
# 
# From -- ./inp_files/6466.got.cif
#   From: 2010.03.12/outbox.cif.g09.slc.cpg/sg47_4_cif.got.tgz:6466.got - 2010.04.14 03:12:58.
