data_PCOD8195200
_publ_section_title
;
Structure prediction by ZEFSAII (Michael W. Deem and Ramdas Pophale) SiO2 
 PCOD8195200
Probable space group: P M M M
;
_chemical_formula_sum "Si O2"
_cell_formula_units_Z 48
_cell_length_a 33.849310
_cell_length_b 7.937562
_cell_length_c 9.356281
_cell_angle_alpha 90.000000
_cell_angle_beta 90.000000
_cell_angle_gamma 90.000000
_cell_volume 2513.854905
_symmetry_space_group_name_H-M "P M M M"
_symmetry_group_IT_number 47
_symmetry_cell_setting 'orthorhombic'
loop_
_space_group_symop_operation_xyz
x,y,z
-x,-y,z
x,-y,-z
-x,y,-z
-x,-y,-z
x,y,-z
-x,y,z
x,-y,z
loop_
_atom_site_type_symbol
_atom_site_label
_atom_site_fract_x
_atom_site_fract_y
_atom_site_fract_z
Si Si1 0.544255 0.187103 0.669447
Si Si2 0.116440 0.808114 0.660522
Si Si3 0.955213 0.697160 0.162718
Si Si4 0.403780 0.500000 0.329118
Si Si5 0.812392 0.308165 0.840881
Si Si6 0.269831 0.813958 0.830606
Si Si7 0.321324 0.500000 0.170892
O O1 0.542963 0.194595 0.500000
O O2 0.500000 0.219774 0.728802
O O3 0.573096 0.333461 0.725469
O O4 0.558862 0.000000 0.718840
O O5 0.113040 0.737121 0.500000
O O6 0.073801 0.796524 0.733749
O O7 0.149098 0.702163 0.743561
O O8 0.130434 0.000000 0.660757
O O9 0.947185 0.500000 0.178886
O O10 0.000000 0.741580 0.206930
O O11 0.947399 0.753739 0.000000
O O12 0.397979 0.500000 0.500000
O O13 0.362639 0.500000 0.249537
O O14 0.798510 0.500000 0.850383
O O15 0.775096 0.208442 0.773623
O O16 0.823045 0.240453 0.000000
O O17 0.298590 0.667457 0.773564
O O18 0.285168 0.000000 0.783022
O O19 0.267901 0.797922 0.000000
O O20 0.327008 0.500000 0.000000
#
# Coordination Sequence:
#
# PCOD8195200 Si02
#       7
#     8   8   8   4   8   8   4
#     4   8  14  26  46  72 100 131 171 219 265 308
#     4  11  24  37  49  74 111 143 170 202 248 309
#     4   9  19  37  59  80 101 129 170 216 256 298
#     4  10  19  30  48  74 102 132 170 215 263 310
#     4  10  19  34  58  83 102 124 165 219 264 306
#     4   9  17  32  55  78 100 130 170 216 260 303
#     4  10  20  35  51  73 104 138 177 213 252 314
#
# _framework density 19.094180999999999
#
# number of rings (size 3 to 8) (size 9 to 14) (size 15 to 20)
#    0.000    2.500    0.833    2.750    0.000    7.000 
#    0.000    3.333    0.000    2.000    0.000    1.167 
#    0.000    0.000    0.000    0.000    0.000    0.000 
#
# Total GULP energy -595038.992402 kJ/mol
# GULP energy per Si atom -12396.645675 kJ/mol
# Density = 1.905072 g / cm^3
# Si number density = 19.094181 Si / 1000 Ang^3
#
#
#
# Elastic Constant Matrix: (Units=GPa)
#
#
# Indices 1 2 3 4 5 6 
#
# 1 138.4308 66.7541 45.0029 0.0000 0.0000 0.0000
# 2 66.7541 123.7103 26.9994 0.0000 0.0000 0.0000
# 3 45.0029 26.9994 59.7815 0.0000 0.0000 0.0000
# 4 0.0000 0.0000 0.0000 16.3583 0.0000 0.0000
# 5 0.0000 0.0000 0.0000 0.0000 157.0752 0.0000
# 6 0.0000 0.0000 0.0000 0.0000 0.0000 24.3592
#
#
#
# Elastic Compliance Matrix: (Units=1/GPa)
#
#
# Indices 1 2 3 4 5 6 
#
# 1 0.011734 -0.004885 -0.006627 0.000000 0.000000 0.000000
# 2 -0.004885 0.011001 -0.001291 0.000000 0.000000 0.000000
# 3 -0.006627 -0.001291 0.022299 0.000000 0.000000 0.000000
# 4 0.000000 0.000000 0.000000 0.061131 0.000000 0.000000
# 5 0.000000 0.000000 0.000000 0.000000 0.006366 0.000000
# 6 0.000000 0.000000 0.000000 0.000000 0.000000 0.041052
#
#
# Mechanical properties :
#
#
# Convention : Reuss Voigt Hill
#
# Bulk Modulus (GPa) = 51.47136 66.60393 59.03764
# Shear Modulus (GPa) = 26.93004 51.76963 39.34983
#
# Velocity S-wave (km/s) = 3.75958 5.21264 4.54456
# Velocity P-wave (km/s) = 6.77207 8.43720 7.65008
#
# Compressibility (1/GPa) = 0.01942828
#
# Stress axis : x y z
#
# Youngs Moduli (GPa) = 85.22254 90.89840 44.84469
#
# Poissons Ratio (x) = 0.44407 0.29718
# Poissons Ratio (y) = 0.41634 0.05789
# Poissons Ratio (z) = 0.56475 0.11734
#
# Static dielectric constant tensor:
#      x y z
#    x 3.442550 0.000000 0.000000 
#    y 0.000000 3.729490 0.000000 
#    z 0.000000 0.000000 3.106540 
# 
# 
# High freq. dielectric constant tensor:
#      x y z
#    x 1.741400 0.000000 0.000000 
#    y 0.000000 1.755110 0.000000 
#    z 0.000000 0.000000 1.694570 
# 
# From -- ./inp_files/2578.got.cif
#   From: 2010.03.12/outbox.cif.g09.slc.cpg/sg47_2_cif.got.tgz:2578.got - 2010.04.14 03:12:58.
