data_PCOD8195657
_publ_section_title
;
Structure prediction by ZEFSAII (Michael W. Deem and Ramdas Pophale) SiO2 
 PCOD8195657
Probable space group: P M M M
;
_chemical_formula_sum "Si O2"
_cell_formula_units_Z 52
_cell_length_a 9.298503
_cell_length_b 12.294388
_cell_length_c 25.441699
_cell_angle_alpha 90.000000
_cell_angle_beta 90.000000
_cell_angle_gamma 90.000000
_cell_volume 2908.479859
_symmetry_space_group_name_H-M "P M M M"
_symmetry_group_IT_number 47
_symmetry_cell_setting 'orthorhombic'
loop_
_space_group_symop_operation_xyz
x,y,z
-x,-y,z
x,-y,-z
-x,y,-z
-x,-y,-z
x,y,-z
-x,y,z
x,-y,z
loop_
_atom_site_type_symbol
_atom_site_label
_atom_site_fract_x
_atom_site_fract_y
_atom_site_fract_z
Si Si1 0.334051 0.119284 0.102322
Si Si2 0.170466 0.500000 0.257053
Si Si3 0.671525 0.500000 0.144629
Si Si4 0.331542 0.338392 0.056525
Si Si5 0.165579 0.876600 0.206880
Si Si6 0.169991 0.268987 0.700330
Si Si7 0.661207 0.871583 0.500000
Si Si8 0.169439 0.873542 0.602991
O O1 0.500000 0.123678 0.118350
O O2 0.296893 0.209886 0.059242
O O3 0.247488 0.147957 0.153962
O O4 0.292513 0.000000 0.079892
O O5 0.248887 0.500000 0.200558
O O6 0.216357 0.604876 0.292134
O O7 0.000000 0.500000 0.245919
O O8 0.500000 0.500000 0.155131
O O9 0.725962 0.601576 0.108776
O O10 0.500000 0.361277 0.055159
O O11 0.266953 0.378905 0.000000
O O12 0.233175 0.798181 0.250720
O O13 0.000000 0.849436 0.196418
O O14 0.186001 0.000000 0.226314
O O15 0.226710 0.210183 0.647576
O O16 0.000000 0.257565 0.700087
O O17 0.500000 0.821468 0.500000
O O18 0.747595 0.833450 0.448714
O O19 0.651866 0.000000 0.500000
O O20 0.000000 0.860883 0.592934
O O21 0.204484 0.000000 0.617606
#
# Coordination Sequence:
#
# PCOD8195657 Si02
#       8
#     8   4   4   8   8   8   4   8
#     4   9  17  28  42  62  87 112 139 174 217 266
#     4  10  20  33  49  68  93 122 147 179 226 273
#     4  10  19  32  50  68  85 109 146 187 223 263
#     4   9  17  29  46  66  85 108 142 183 222 260
#     4   9  16  27  44  64  87 116 147 178 216 264
#     4   9  17  29  46  68  91 117 152 189 222 260
#     4   9  17  29  45  70 103 130 152 183 228 273
#     4   9  16  28  48  71  94 122 157 192 221 254
#
# _framework density 17.878755000000002
#
# number of rings (size 3 to 8) (size 9 to 14) (size 15 to 20)
#    0.000    2.846    0.000    1.846    0.000    4.000 
#    0.000    3.077    0.000    6.462    0.000    5.385 
#    0.000    0.000    0.000    0.000    0.000    0.000 
#
# Total GULP energy -644277.843151 kJ/mol
# GULP energy per Si atom -12389.958522 kJ/mol
# Density = 1.783806 g / cm^3
# Si number density = 17.878755 Si / 1000 Ang^3
#
#
#
# Elastic Constant Matrix: (Units=GPa)
#
#
# Indices 1 2 3 4 5 6 
#
# 1 34.1090 24.5711 33.8736 0.0000 0.0000 0.0000
# 2 24.5711 114.6242 68.2229 0.0000 0.0000 0.0000
# 3 33.8736 68.2229 121.1301 0.0000 0.0000 0.0000
# 4 0.0000 0.0000 0.0000 79.3538 0.0000 0.0000
# 5 0.0000 0.0000 0.0000 0.0000 24.7012 0.0000
# 6 0.0000 0.0000 0.0000 0.0000 0.0000 13.1546
#
#
#
# Elastic Compliance Matrix: (Units=1/GPa)
#
#
# Indices 1 2 3 4 5 6 
#
# 1 0.041253 -0.002974 -0.009861 0.000000 0.000000 0.000000
# 2 -0.002974 0.013338 -0.006681 0.000000 0.000000 0.000000
# 3 -0.009861 -0.006681 0.014776 0.000000 0.000000 0.000000
# 4 0.000000 0.000000 0.000000 0.012602 0.000000 0.000000
# 5 0.000000 0.000000 0.000000 0.000000 0.040484 0.000000
# 6 0.000000 0.000000 0.000000 0.000000 0.000000 0.076019
#
#
# Mechanical properties :
#
#
# Convention : Reuss Voigt Hill
#
# Bulk Modulus (GPa) = 32.96454 58.13318 45.54886
# Shear Modulus (GPa) = 20.19263 32.98830 26.59046
#
# Velocity S-wave (km/s) = 3.36433 4.30014 3.86069
# Velocity P-wave (km/s) = 5.79392 7.56576 6.73833
#
# Compressibility (1/GPa) = 0.03033563
#
# Stress axis : x y z
#
# Youngs Moduli (GPa) = 24.24040 74.97498 67.67771
#
# Poissons Ratio (x) = 0.22296 0.66740
# Poissons Ratio (y) = 0.07209 0.45212
# Poissons Ratio (z) = 0.23905 0.50087
#
# Static dielectric constant tensor:
#      x y z
#    x 3.048660 0.000000 0.000000 
#    y 0.000000 3.529300 0.000000 
#    z 0.000000 0.000000 3.411990 
# 
# 
# High freq. dielectric constant tensor:
#      x y z
#    x 1.651660 0.000000 0.000000 
#    y 0.000000 1.692400 0.000000 
#    z 0.000000 0.000000 1.689180 
# 
# From -- ./inp_files/33292.got.cif
#   From: 2010.03.12/outbox.cif.g09.slc.cpg/sg47_17_cif.got.tgz:33292.got - 2010.04.14 03:12:58.
