data_PCOD8195651
_publ_section_title
;
Structure prediction by ZEFSAII (Michael W. Deem and Ramdas Pophale) SiO2 
 PCOD8195651
Probable space group: P M M M
;
_chemical_formula_sum "Si O2"
_cell_formula_units_Z 52
_cell_length_a 9.017476
_cell_length_b 16.397898
_cell_length_c 20.488336
_cell_angle_alpha 90.000000
_cell_angle_beta 90.000000
_cell_angle_gamma 90.000000
_cell_volume 3029.562131
_symmetry_space_group_name_H-M "P M M M"
_symmetry_group_IT_number 47
_symmetry_cell_setting 'orthorhombic'
loop_
_space_group_symop_operation_xyz
x,y,z
-x,-y,z
x,-y,-z
-x,y,-z
-x,-y,-z
x,y,-z
-x,y,z
x,-y,z
loop_
_atom_site_type_symbol
_atom_site_label
_atom_site_fract_x
_atom_site_fract_y
_atom_site_fract_z
Si Si1 0.826824 0.356137 0.869817
Si Si2 0.674483 0.091013 0.697284
Si Si3 0.333519 0.500000 0.645482
Si Si4 0.329243 0.190756 0.572984
Si Si5 0.675490 0.595815 0.000000
Si Si6 0.667540 0.500000 0.200511
Si Si7 0.170645 0.765973 0.760803
Si Si8 0.174354 0.334371 0.635691
O O1 0.742957 0.357317 0.938366
O O2 0.756882 0.422213 0.822614
O O3 0.803526 0.269339 0.833628
O O4 0.000000 0.374960 0.880611
O O5 0.500000 0.090288 0.706327
O O6 0.719445 0.121925 0.624930
O O7 0.739831 0.150072 0.752982
O O8 0.739456 0.000000 0.706225
O O9 0.500000 0.500000 0.617291
O O10 0.336800 0.500000 0.722824
O O11 0.250133 0.420219 0.620136
O O12 0.305260 0.155831 0.500000
O O13 0.500000 0.215594 0.584776
O O14 0.228958 0.270752 0.581360
O O15 0.720732 0.500000 0.000000
O O16 0.500000 0.605879 0.000000
O O17 0.500000 0.500000 0.170909
O O18 0.222692 0.699471 0.707016
O O19 0.000000 0.786794 0.748485
O O20 0.000000 0.346986 0.630707
#
# Coordination Sequence:
#
# PCOD8195651 Si02
#       8
#     8   8   4   8   4   4   8   8
#     4  11  21  34  51  71  99 138 178 210 247 294
#     4   9  18  32  52  79 105 129 160 198 244 299
#     4  11  21  31  47  71  97 127 166 209 256 299
#     4   9  18  33  51  71  99 133 164 198 244 296
#     4  11  23  35  47  71 105 140 179 216 252 291
#     4  11  21  30  46  72 100 131 167 210 254 295
#     4   9  19  33  50  73  99 129 165 204 248 297
#     4  10  19  32  49  70  96 126 165 210 251 292
#
# _framework density 17.164197999999999
#
# number of rings (size 3 to 8) (size 9 to 14) (size 15 to 20)
#    0.000    2.077    2.308    1.615    0.000    3.692 
#    0.000    1.923    0.000    2.308    0.000    4.846 
#    0.000    4.308    0.000    0.000    0.000    0.000 
#
# Total GULP energy -644796.788840 kJ/mol
# GULP energy per Si atom -12399.938247 kJ/mol
# Density = 1.712513 g / cm^3
# Si number density = 17.164198 Si / 1000 Ang^3
#
#
#
# Elastic Constant Matrix: (Units=GPa)
#
#
# Indices 1 2 3 4 5 6 
#
# 1 77.4014 49.7956 29.6396 0.0000 0.0000 0.0000
# 2 49.7956 128.1338 33.9728 0.0000 0.0000 0.0000
# 3 29.6396 33.9728 74.2460 0.0000 0.0000 0.0000
# 4 0.0000 0.0000 0.0000 24.9114 0.0000 0.0000
# 5 0.0000 0.0000 0.0000 0.0000 25.0430 0.0000
# 6 0.0000 0.0000 0.0000 0.0000 0.0000 23.1572
#
#
#
# Elastic Compliance Matrix: (Units=1/GPa)
#
#
# Indices 1 2 3 4 5 6 
#
# 1 0.018550 -0.005970 -0.004674 0.000000 0.000000 0.000000
# 2 -0.005970 0.010803 -0.002560 0.000000 0.000000 0.000000
# 3 -0.004674 -0.002560 0.016506 0.000000 0.000000 0.000000
# 4 0.000000 0.000000 0.000000 0.040142 0.000000 0.000000
# 5 0.000000 0.000000 0.000000 0.000000 0.039931 0.000000
# 6 0.000000 0.000000 0.000000 0.000000 0.000000 0.043183
#
#
# Mechanical properties :
#
#
# Convention : Reuss Voigt Hill
#
# Bulk Modulus (GPa) = 51.40857 56.28859 53.84858
# Shear Modulus (GPa) = 24.75167 25.71387 25.23277
#
# Velocity S-wave (km/s) = 3.80156 3.87474 3.83832
# Velocity P-wave (km/s) = 7.02034 7.27211 7.14733
#
# Compressibility (1/GPa) = 0.01945201
#
# Stress axis : x y z
#
# Youngs Moduli (GPa) = 53.90837 92.56635 60.58442
#
# Poissons Ratio (x) = 0.55260 0.28315
# Poissons Ratio (y) = 0.32182 0.15510
# Poissons Ratio (z) = 0.25195 0.23697
#
# Static dielectric constant tensor:
#      x y z
#    x 3.297880 0.000000 0.000000 
#    y 0.000000 3.204090 0.000000 
#    z 0.000000 0.000000 3.105050 
# 
# 
# High freq. dielectric constant tensor:
#      x y z
#    x 1.671100 0.000000 0.000000 
#    y 0.000000 1.645180 0.000000 
#    z 0.000000 0.000000 1.644920 
# 
# From -- ./inp_files/29646.got.cif
#   From: 2010.03.12/outbox.cif.g09.slc.cpg/sg47_15_cif.got.tgz:29646.got - 2010.04.14 03:12:58.
