data_PCOD8195380
_publ_section_title
;
Structure prediction by ZEFSAII (Michael W. Deem and Ramdas Pophale) SiO2 
 PCOD8195380
Probable space group: P M M M
;
_chemical_formula_sum "Si O2"
_cell_formula_units_Z 64
_cell_length_a 9.363543
_cell_length_b 20.070167
_cell_length_c 18.145037
_cell_angle_alpha 90.000000
_cell_angle_beta 90.000000
_cell_angle_gamma 90.000000
_cell_volume 3409.958186
_symmetry_space_group_name_H-M "P M M M"
_symmetry_group_IT_number 47
_symmetry_cell_setting 'orthorhombic'
loop_
_space_group_symop_operation_xyz
x,y,z
-x,-y,z
x,-y,-z
-x,y,-z
-x,-y,-z
x,y,-z
-x,y,z
x,-y,z
loop_
_atom_site_type_symbol
_atom_site_label
_atom_site_fract_x
_atom_site_fract_y
_atom_site_fract_z
Si Si1 0.662135 0.395882 0.083213
Si Si2 0.662201 0.750211 0.858588
Si Si3 0.835903 0.801727 0.418154
Si Si4 0.332128 0.922171 0.635691
Si Si5 0.835312 0.427519 0.777234
Si Si6 0.154577 0.076244 0.228674
Si Si7 0.831457 0.712466 0.718414
Si Si8 0.163000 0.863020 0.920050
O O1 0.500000 0.421298 0.091467
O O2 0.671070 0.317942 0.097799
O O3 0.756417 0.432128 0.144362
O O4 0.717156 0.411251 0.000000
O O5 0.500000 0.769023 0.838541
O O6 0.753627 0.752604 0.783316
O O7 0.729798 0.801696 0.915292
O O8 0.818444 0.770587 0.500000
O O9 0.745525 0.870619 0.418689
O O10 0.784043 0.745250 0.359577
O O11 0.000000 0.820887 0.402319
O O12 0.500000 0.910805 0.631566
O O13 0.276908 0.898473 0.716284
O O14 0.295546 0.000000 0.617227
O O15 0.811099 0.500000 0.737904
O O16 0.783680 0.366137 0.724619
O O17 0.000000 0.416169 0.796025
O O18 0.203080 0.085442 0.144410
O O19 0.000000 0.111913 0.244014
O O20 0.132023 0.000000 0.244431
O O21 0.000000 0.719121 0.729398
O O22 0.000000 0.837931 0.911872
O O23 0.184927 0.897496 0.000000
#
# Coordination Sequence:
#
# PCOD8195380 Si02
#       8
#     8   8   8   8   8   8   8   8
#     4   9  18  31  45  64  94 130 164 200 244 290
#     4  10  19  31  48  69  93 123 162 203 243 291
#     4  10  21  36  55  79 105 133 164 198 238 287
#     4  10  21  36  54  77 105 135 165 199 241 290
#     4   9  18  32  50  72  97 128 166 205 246 292
#     4   9  18  33  51  68  89 122 163 203 242 288
#     4   9  18  34  54  74  99 130 163 201 244 291
#     4  10  20  31  44  65  92 122 159 205 254 297
#
# _framework density 18.768559
#
# number of rings (size 3 to 8) (size 9 to 14) (size 15 to 20)
#    0.000    2.500    0.000    1.875    0.000    7.500 
#    0.000    3.750    0.000    0.375    0.000    5.250 
#    0.000    0.000    0.000    7.375    0.000    7.750 
#
# Total GULP energy -792994.203324 kJ/mol
# GULP energy per Si atom -12390.534427 kJ/mol
# Density = 1.872584 g / cm^3
# Si number density = 18.768559 Si / 1000 Ang^3
#
#
#
# Elastic Constant Matrix: (Units=GPa)
#
#
# Indices 1 2 3 4 5 6 
#
# 1 55.9947 29.5016 26.3777 0.0000 0.0000 0.0000
# 2 29.5016 66.5834 41.3915 0.0000 0.0000 0.0000
# 3 26.3777 41.3915 110.2461 0.0000 0.0000 0.0000
# 4 0.0000 0.0000 0.0000 11.3843 0.0000 0.0000
# 5 0.0000 0.0000 0.0000 0.0000 9.9669 0.0000
# 6 0.0000 0.0000 0.0000 0.0000 0.0000 17.5260
#
#
#
# Elastic Compliance Matrix: (Units=1/GPa)
#
#
# Indices 1 2 3 4 5 6 
#
# 1 0.023720 -0.009107 -0.002256 0.000000 0.000000 0.000000
# 2 -0.009107 0.023088 -0.006489 0.000000 0.000000 0.000000
# 3 -0.002256 -0.006489 0.012047 0.000000 0.000000 0.000000
# 4 0.000000 0.000000 0.000000 0.087840 0.000000 0.000000
# 5 0.000000 0.000000 0.000000 0.000000 0.100332 0.000000
# 6 0.000000 0.000000 0.000000 0.000000 0.000000 0.057058
#
#
# Mechanical properties :
#
#
# Convention : Reuss Voigt Hill
#
# Bulk Modulus (GPa) = 43.19736 47.48507 45.34122
# Shear Modulus (GPa) = 14.38821 16.81234 15.60027
#
# Velocity S-wave (km/s) = 2.77178 2.99619 2.88617
# Velocity P-wave (km/s) = 5.77144 6.10940 5.94282
#
# Compressibility (1/GPa) = 0.02314956
#
# Stress axis : x y z
#
# Youngs Moduli (GPa) = 42.15879 43.31243 83.00987
#
# Poissons Ratio (x) = 0.39446 0.18727
# Poissons Ratio (y) = 0.38395 0.53868
# Poissons Ratio (z) = 0.09511 0.28107
#
# Static dielectric constant tensor:
#      x y z
#    x 3.544290 0.000000 0.000000 
#    y 0.000000 3.532710 0.000000 
#    z 0.000000 0.000000 3.415610 
# 
# 
# High freq. dielectric constant tensor:
#      x y z
#    x 1.722980 0.000000 0.000000 
#    y 0.000000 1.722390 0.000000 
#    z 0.000000 0.000000 1.714310 
# 
# From -- ./inp_files/9975.got.cif
#   From: 2010.03.12/outbox.cif.g09.slc.cpg/sg47_5_cif.got.tgz:9975.got - 2010.04.14 03:12:58.
