data_PCOD8195550
_publ_section_title
;
Structure prediction by ZEFSAII (Michael W. Deem and Ramdas Pophale) SiO2 
 PCOD8195550
Probable space group: P M M M
;
_chemical_formula_sum "Si O2"
_cell_formula_units_Z 44
_cell_length_a 17.380296
_cell_length_b 14.590199
_cell_length_c 9.188313
_cell_angle_alpha 90.000000
_cell_angle_beta 90.000000
_cell_angle_gamma 90.000000
_cell_volume 2329.990579
_symmetry_space_group_name_H-M "P M M M"
_symmetry_group_IT_number 47
_symmetry_cell_setting 'orthorhombic'
loop_
_space_group_symop_operation_xyz
x,y,z
-x,-y,z
x,-y,-z
-x,y,-z
-x,-y,-z
x,y,-z
-x,y,z
x,-y,z
loop_
_atom_site_type_symbol
_atom_site_label
_atom_site_fract_x
_atom_site_fract_y
_atom_site_fract_z
Si Si1 0.000000 0.391574 0.667598
Si Si2 0.327809 0.136487 0.664171
Si Si3 0.297378 0.341928 0.333233
Si Si4 0.587479 0.000000 0.155715
Si Si5 0.411842 0.500000 0.327567
Si Si6 0.858860 0.698627 0.829234
Si Si7 0.177282 0.100129 0.834579
O O1 0.925201 0.353676 0.746230
O O2 0.000000 0.500000 0.680977
O O3 0.000000 0.359778 0.500000
O O4 0.332683 0.101997 0.500000
O O5 0.338618 0.244586 0.675509
O O6 0.247996 0.099718 0.726108
O O7 0.395602 0.091567 0.754843
O O8 0.272546 0.364934 0.500000
O O9 0.361769 0.412634 0.274820
O O10 0.221844 0.339913 0.232278
O O11 0.500000 0.000000 0.118859
O O12 0.632335 0.000000 0.000000
O O13 0.500000 0.500000 0.263016
O O14 0.418976 0.500000 0.500000
O O15 0.872467 0.808287 0.800573
O O16 0.862525 0.675933 0.000000
O O17 0.134274 0.000000 0.814827
O O18 0.207225 0.109065 0.000000
#
# Coordination Sequence:
#
# PCOD8195550 Si02
#       7
#     4   8   8   4   4   8   8
#     4  11  25  43  62  83 114 154 193 237 288 337
#     4  10  19  31  50  77 105 136 179 232 278 322
#     4   9  19  35  57  84 114 147 187 232 280 338
#     4  11  23  35  47  67 101 144 185 228 283 345
#     4   9  18  34  57  82 109 146 189 231 280 341
#     4  10  21  37  59  88 118 149 188 233 279 335
#     4   9  17  32  56  82 111 147 181 215 264 328
#
# _framework density 18.884195999999999
#
# number of rings (size 3 to 8) (size 9 to 14) (size 15 to 20)
#    0.000    2.273    0.909    1.636    1.273    3.636 
#    0.000    2.273    0.000    3.818    0.000    0.000 
#    0.000    0.000    0.000    0.000    0.000    0.000 
#
# Total GULP energy -545220.113659 kJ/mol
# GULP energy per Si atom -12391.366220 kJ/mol
# Density = 1.884121 g / cm^3
# Si number density = 18.884196 Si / 1000 Ang^3
#
#
#
# Elastic Constant Matrix: (Units=GPa)
#
#
# Indices 1 2 3 4 5 6 
#
# 1 101.3707 58.4753 56.0545 0.0000 0.0000 0.0000
# 2 58.4753 129.6468 54.9298 0.0000 0.0000 0.0000
# 3 56.0545 54.9298 128.0276 0.0000 0.0000 0.0000
# 4 0.0000 0.0000 0.0000 25.1014 0.0000 0.0000
# 5 0.0000 0.0000 0.0000 0.0000 17.2595 0.0000
# 6 0.0000 0.0000 0.0000 0.0000 0.0000 24.8852
#
#
#
# Elastic Compliance Matrix: (Units=1/GPa)
#
#
# Indices 1 2 3 4 5 6 
#
# 1 0.015231 -0.004943 -0.004548 0.000000 0.000000 0.000000
# 2 -0.004943 0.011031 -0.002569 0.000000 0.000000 0.000000
# 3 -0.004548 -0.002569 0.010904 0.000000 0.000000 0.000000
# 4 0.000000 0.000000 0.000000 0.039838 0.000000 0.000000
# 5 0.000000 0.000000 0.000000 0.000000 0.057939 0.000000
# 6 0.000000 0.000000 0.000000 0.000000 0.000000 0.040185
#
#
# Mechanical properties :
#
#
# Convention : Reuss Voigt Hill
#
# Bulk Modulus (GPa) = 76.64457 77.55159 77.09808
# Shear Modulus (GPa) = 24.55846 26.08823 25.32335
#
# Velocity S-wave (km/s) = 3.61012 3.72087 3.66591
# Velocity P-wave (km/s) = 7.61919 7.72113 7.67033
#
# Compressibility (1/GPa) = 0.01304724
#
# Stress axis : x y z
#
# Youngs Moduli (GPa) = 65.65642 90.65398 91.70867
#
# Poissons Ratio (x) = 0.44808 0.41708
# Poissons Ratio (y) = 0.32452 0.23557
# Poissons Ratio (z) = 0.29860 0.23286
#
# Static dielectric constant tensor:
#      x y z
#    x 3.236640 0.000000 0.000000 
#    y 0.000000 4.416310 0.000000 
#    z 0.000000 0.000000 3.637640 
# 
# 
# High freq. dielectric constant tensor:
#      x y z
#    x 1.704840 0.000000 0.000000 
#    y 0.000000 1.751740 0.000000 
#    z 0.000000 0.000000 1.736000 
# 
# From -- ./inp_files/9079.got.cif
#   From: 2010.03.12/outbox.cif.g09.slc.cpg/sg47_5_cif.got.tgz:9079.got - 2010.04.14 03:12:58.
