data_PCOD8195076
_publ_section_title
;
Structure prediction by ZEFSAII (Michael W. Deem and Ramdas Pophale) SiO2 
 PCOD8195076
Probable space group: P M M M
;
_chemical_formula_sum "Si O2"
_cell_formula_units_Z 52
_cell_length_a 16.236291
_cell_length_b 18.053171
_cell_length_c 10.053793
_cell_angle_alpha 90.000000
_cell_angle_beta 90.000000
_cell_angle_gamma 90.000000
_cell_volume 2946.932996
_symmetry_space_group_name_H-M "P M M M"
_symmetry_group_IT_number 47
_symmetry_cell_setting 'orthorhombic'
loop_
_space_group_symop_operation_xyz
x,y,z
-x,-y,z
x,-y,-z
-x,y,-z
-x,-y,-z
x,y,-z
-x,y,z
x,-y,z
loop_
_atom_site_type_symbol
_atom_site_label
_atom_site_fract_x
_atom_site_fract_y
_atom_site_fract_z
Si Si1 0.747721 0.579934 0.648948
Si Si2 0.747036 0.086114 0.153671
Si Si3 0.596690 0.416594 0.000000
Si Si4 0.405131 0.340964 0.730023
Si Si5 0.327056 0.194856 0.350649
Si Si6 0.091198 0.174465 0.849531
Si Si7 0.841199 0.717841 0.649256
O O1 0.778203 0.568024 0.500000
O O2 0.749683 0.500000 0.724098
O O3 0.654964 0.612387 0.635525
O O4 0.812258 0.638702 0.711761
O O5 0.680126 0.125742 0.249202
O O6 0.840129 0.113187 0.184643
O O7 0.743708 0.000000 0.187045
O O8 0.723692 0.102080 0.000000
O O9 0.624590 0.367359 0.124507
O O10 0.635907 0.500000 0.000000
O O11 0.500000 0.426286 0.000000
O O12 0.500000 0.361416 0.700625
O O13 0.393005 0.252987 0.709608
O O14 0.354593 0.169622 0.500000
O O15 0.238905 0.231919 0.360255
O O16 0.095293 0.244916 0.750850
O O17 0.000000 0.138830 0.833170
O O18 0.104086 0.203557 0.000000
O O19 0.879450 0.710774 0.500000
#
# Coordination Sequence:
#
# PCOD8195076 Si02
#       7
#     8   8   4   8   8   8   8
#     4   9  17  29  45  65  90 121 157 199 244 285
#     4   9  18  32  51  74  99 128 159 191 234 291
#     4   9  18  30  42  62  95 131 160 191 239 295
#     4  10  19  30  46  67  95 127 160 201 245 290
#     4   9  18  31  48  70  95 126 165 204 241 283
#     4   9  17  29  47  72  99 123 150 189 234 279
#     4   8  15  29  45  63  90 123 159 194 229 275
#
# _framework density 17.645465000000002
#
# number of rings (size 3 to 8) (size 9 to 14) (size 15 to 20)
#    0.000    3.000    0.000    1.846    1.077    3.077 
#    4.154    2.308    0.000    0.923    0.000    9.692 
#    0.000    0.000    0.000    0.000    0.000    0.000 
#
# Total GULP energy -644198.964975 kJ/mol
# GULP energy per Si atom -12388.441634 kJ/mol
# Density = 1.760530 g / cm^3
# Si number density = 17.645465 Si / 1000 Ang^3
#
#
#
# Elastic Constant Matrix: (Units=GPa)
#
#
# Indices 1 2 3 4 5 6 
#
# 1 21.8025 22.1653 18.0032 0.0000 0.0000 0.0000
# 2 22.1653 129.0335 54.9595 0.0000 0.0000 0.0000
# 3 18.0032 54.9595 91.5665 0.0000 0.0000 0.0000
# 4 0.0000 0.0000 0.0000 24.6591 0.0000 0.0000
# 5 0.0000 0.0000 0.0000 0.0000 18.4512 0.0000
# 6 0.0000 0.0000 0.0000 0.0000 0.0000 18.0065
#
#
#
# Elastic Compliance Matrix: (Units=1/GPa)
#
#
# Indices 1 2 3 4 5 6 
#
# 1 0.059104 -0.006990 -0.007425 0.000000 0.000000 0.000000
# 2 -0.006990 0.011238 -0.005371 0.000000 0.000000 0.000000
# 3 -0.007425 -0.005371 0.015605 0.000000 0.000000 0.000000
# 4 0.000000 0.000000 0.000000 0.040553 0.000000 0.000000
# 5 0.000000 0.000000 0.000000 0.000000 0.054197 0.000000
# 6 0.000000 0.000000 0.000000 0.000000 0.000000 0.055535
#
#
# Mechanical properties :
#
#
# Convention : Reuss Voigt Hill
#
# Bulk Modulus (GPa) = 21.56361 48.07317 34.81839
# Shear Modulus (GPa) = 17.16659 22.04166 19.60413
#
# Velocity S-wave (km/s) = 3.12246 3.53815 3.33678
# Velocity P-wave (km/s) = 5.02460 6.63283 5.88392
#
# Compressibility (1/GPa) = 0.04637443
#
# Stress axis : x y z
#
# Youngs Moduli (GPa) = 16.91932 88.98038 64.08338
#
# Poissons Ratio (x) = 0.62200 0.47582
# Poissons Ratio (y) = 0.11827 0.34420
# Poissons Ratio (z) = 0.12563 0.47792
#
# Static dielectric constant tensor:
#      x y z
#    x 2.971730 0.000000 0.000000 
#    y 0.000000 3.451700 0.000000 
#    z 0.000000 0.000000 3.561870 
# 
# 
# High freq. dielectric constant tensor:
#      x y z
#    x 1.646250 0.000000 0.000000 
#    y 0.000000 1.671330 0.000000 
#    z 0.000000 0.000000 1.681120 
# 
# From -- ./inp_files/17769.got.cif
#   From: 2010.03.12/outbox.cif.g09.slc.cpg/sg47_9_cif.got.tgz:17769.got - 2010.04.14 03:12:58.
