data_PCOD8195558
_publ_section_title
;
Structure prediction by ZEFSAII (Michael W. Deem and Ramdas Pophale) SiO2 
 PCOD8195558
Probable space group: P M M M
;
_chemical_formula_sum "Si O2"
_cell_formula_units_Z 56
_cell_length_a 20.214291
_cell_length_b 14.911973
_cell_length_c 9.149184
_cell_angle_alpha 90.000000
_cell_angle_beta 90.000000
_cell_angle_gamma 90.000000
_cell_volume 2757.883928
_symmetry_space_group_name_H-M "P M M M"
_symmetry_group_IT_number 47
_symmetry_cell_setting 'orthorhombic'
loop_
_space_group_symop_operation_xyz
x,y,z
-x,-y,z
x,-y,-z
-x,y,-z
-x,-y,-z
x,y,-z
-x,y,z
x,-y,z
loop_
_atom_site_type_symbol
_atom_site_label
_atom_site_fract_x
_atom_site_fract_y
_atom_site_fract_z
Si Si1 0.172322 0.349906 0.667709
Si Si2 0.922259 0.000000 0.164894
Si Si3 0.925727 0.500000 0.326284
Si Si4 0.307423 0.395346 0.826624
Si Si5 0.148546 0.847292 0.664481
Si Si6 0.734618 0.100259 0.160612
Si Si7 0.572823 0.704531 0.667906
Si Si8 0.394182 0.097593 0.336344
O O1 0.192176 0.371585 0.500000
O O2 0.116780 0.416146 0.730333
O O3 0.239614 0.355185 0.761397
O O4 0.131491 0.257021 0.676423
O O5 0.898537 0.908415 0.238760
O O6 0.000000 0.000000 0.174001
O O7 0.895986 0.000000 0.000000
O O8 0.931467 0.500000 0.500000
O O9 0.000000 0.500000 0.258395
O O10 0.314716 0.500000 0.783186
O O11 0.370417 0.339638 0.766999
O O12 0.305438 0.383033 0.000000
O O13 0.144682 0.883895 0.500000
O O14 0.223769 0.846831 0.720311
O O15 0.660035 0.099590 0.211212
O O16 0.764105 0.000000 0.153001
O O17 0.738850 0.145373 0.000000
O O18 0.590672 0.682733 0.500000
O O19 0.500000 0.664603 0.707760
O O20 0.563718 0.812522 0.689578
O O21 0.363197 0.101605 0.500000
O O22 0.432112 0.000000 0.320668
#
# Coordination Sequence:
#
# PCOD8195558 Si02
#       8
#     8   4   4   8   8   8   8   8
#     4  10  21  38  64  95 123 157 199 247 302 361
#     4  11  25  43  59  79 115 165 210 243 286 347
#     4   9  18  36  63  93 124 155 190 237 295 360
#     4  11  24  41  63  90 120 157 201 252 309 369
#     4  11  22  35  57  87 116 150 195 247 297 345
#     4  10  19  31  50  77 110 147 189 236 286 343
#     4  10  22  39  59  86 119 157 203 253 306 366
#     4   9  18  33  54  81 115 153 193 240 292 351
#
# _framework density 20.305423999999999
#
# number of rings (size 3 to 8) (size 9 to 14) (size 15 to 20)
#    0.000    1.857    1.429    2.357    0.000    8.571 
#    0.000    4.286    0.000    0.857    0.000    3.000 
#    0.000    0.000    0.000    0.000    0.000    0.000 
#
# Total GULP energy -693870.303710 kJ/mol
# GULP energy per Si atom -12390.541138 kJ/mol
# Density = 2.025921 g / cm^3
# Si number density = 20.305424 Si / 1000 Ang^3
#
#
#
# Elastic Constant Matrix: (Units=GPa)
#
#
# Indices 1 2 3 4 5 6 
#
# 1 115.8299 44.2551 52.5065 0.0000 0.0000 0.0000
# 2 44.2551 113.1721 47.0327 0.0000 0.0000 0.0000
# 3 52.5065 47.0327 117.3286 0.0000 0.0000 0.0000
# 4 0.0000 0.0000 0.0000 21.1724 0.0000 0.0000
# 5 0.0000 0.0000 0.0000 0.0000 15.8236 0.0000
# 6 0.0000 0.0000 0.0000 0.0000 0.0000 18.3438
#
#
#
# Elastic Compliance Matrix: (Units=1/GPa)
#
#
# Indices 1 2 3 4 5 6 
#
# 1 0.011544 -0.002841 -0.004028 0.000000 0.000000 0.000000
# 2 -0.002841 0.011301 -0.003259 0.000000 0.000000 0.000000
# 3 -0.004028 -0.003259 0.011632 0.000000 0.000000 0.000000
# 4 0.000000 0.000000 0.000000 0.047231 0.000000 0.000000
# 5 0.000000 0.000000 0.000000 0.000000 0.063197 0.000000
# 6 0.000000 0.000000 0.000000 0.000000 0.000000 0.054514
#
#
# Mechanical properties :
#
#
# Convention : Reuss Voigt Hill
#
# Bulk Modulus (GPa) = 70.30801 70.43547 70.37174
# Shear Modulus (GPa) = 22.28006 24.57036 23.42521
#
# Velocity S-wave (km/s) = 3.31607 3.48234 3.40022
# Velocity P-wave (km/s) = 7.02582 7.13668 7.08147
#
# Compressibility (1/GPa) = 0.01422313
#
# Stress axis : x y z
#
# Youngs Moduli (GPa) = 86.62221 88.48549 85.97004
#
# Poissons Ratio (x) = 0.25134 0.34626
# Poissons Ratio (y) = 0.24605 0.28018
# Poissons Ratio (z) = 0.34888 0.28838
#
# Static dielectric constant tensor:
#      x y z
#    x 3.504370 0.000000 0.000000 
#    y 0.000000 3.964150 0.000000 
#    z 0.000000 0.000000 3.637150 
# 
# 
# High freq. dielectric constant tensor:
#      x y z
#    x 1.781010 0.000000 0.000000 
#    y 0.000000 1.804200 0.000000 
#    z 0.000000 0.000000 1.785530 
# 
# From -- ./inp_files/11339.got.cif
#   From: 2010.03.12/outbox.cif.g09.slc.cpg/sg47_6_cif.got.tgz:11339.got - 2010.04.14 03:12:58.
