data_PCOD8195895
_publ_section_title
;
Structure prediction by ZEFSAII (Michael W. Deem and Ramdas Pophale) SiO2 
 PCOD8195895
Probable space group: P M M M
;
_chemical_formula_sum "Si O2"
_cell_formula_units_Z 44
_cell_length_a 17.420311
_cell_length_b 10.283274
_cell_length_c 13.432473
_cell_angle_alpha 90.000000
_cell_angle_beta 90.000000
_cell_angle_gamma 90.000000
_cell_volume 2406.264081
_symmetry_space_group_name_H-M "P M M M"
_symmetry_group_IT_number 47
_symmetry_cell_setting 'orthorhombic'
loop_
_space_group_symop_operation_xyz
x,y,z
-x,-y,z
x,-y,-z
-x,y,-z
-x,-y,-z
x,y,-z
-x,y,z
x,-y,z
loop_
_atom_site_type_symbol
_atom_site_label
_atom_site_fract_x
_atom_site_fract_y
_atom_site_fract_z
Si Si1 0.909811 0.147496 0.885552
Si Si2 0.196008 0.350268 0.219289
Si Si3 0.585452 0.500000 0.382149
Si Si4 0.584658 0.857164 0.743481
Si Si5 0.354091 0.645182 0.883891
Si Si6 0.303843 0.730243 0.383209
O O1 0.871343 0.253953 0.814178
O O2 0.000000 0.159642 0.868632
O O3 0.883000 0.000000 0.858552
O O4 0.888752 0.177795 0.000000
O O5 0.166543 0.500000 0.224491
O O6 0.264605 0.335335 0.140976
O O7 0.223874 0.303102 0.329083
O O8 0.500000 0.500000 0.335276
O O9 0.579816 0.500000 0.500000
O O10 0.633736 0.376390 0.347297
O O11 0.500000 0.835498 0.694777
O O12 0.595125 0.752786 0.830425
O O13 0.652388 0.856414 0.659225
O O14 0.589138 0.000000 0.792348
O O15 0.380352 0.500000 0.850290
O O16 0.365870 0.663881 0.000000
O O17 0.287682 0.737976 0.500000
#
# Coordination Sequence:
#
# PCOD8195895 Si02
#       6
#     8   8   4   8   8   8
#     4   9  19  36  57  82 112 144 176 210 253 311
#     4  10  19  32  53  81 110 136 169 217 268 314
#     4   9  16  28  50  76  96 125 174 224 268 311
#     4  10  22  36  49  71 102 135 174 223 276 324
#     4   9  19  35  53  74 101 135 175 217 263 319
#     4  10  20  35  53  75 103 138 177 220 270 320
#
# _framework density 18.285606999999999
#
# number of rings (size 3 to 8) (size 9 to 14) (size 15 to 20)
#    0.000    2.455    0.909    1.636    1.273    6.909 
#    0.000    3.636    0.000    0.545    0.000    2.545 
#    0.000    0.000    0.000    0.000    0.000    0.000 
#
# Total GULP energy -545351.690420 kJ/mol
# GULP energy per Si atom -12394.356600 kJ/mol
# Density = 1.824399 g / cm^3
# Si number density = 18.285607 Si / 1000 Ang^3
#
#
#
# Elastic Constant Matrix: (Units=GPa)
#
#
# Indices 1 2 3 4 5 6 
#
# 1 69.8953 51.4825 38.6618 0.0000 0.0000 0.0000
# 2 51.4825 124.3154 60.9733 0.0000 0.0000 0.0000
# 3 38.6618 60.9733 99.0077 0.0000 0.0000 0.0000
# 4 0.0000 0.0000 0.0000 19.9809 0.0000 0.0000
# 5 0.0000 0.0000 0.0000 0.0000 27.5139 0.0000
# 6 0.0000 0.0000 0.0000 0.0000 0.0000 37.8192
#
#
#
# Elastic Compliance Matrix: (Units=1/GPa)
#
#
# Indices 1 2 3 4 5 6 
#
# 1 0.021752 -0.006938 -0.004222 0.000000 0.000000 0.000000
# 2 -0.006938 0.013738 -0.005751 0.000000 0.000000 0.000000
# 3 -0.004222 -0.005751 0.015291 0.000000 0.000000 0.000000
# 4 0.000000 0.000000 0.000000 0.050048 0.000000 0.000000
# 5 0.000000 0.000000 0.000000 0.000000 0.036345 0.000000
# 6 0.000000 0.000000 0.000000 0.000000 0.000000 0.026442
#
#
# Mechanical properties :
#
#
# Convention : Reuss Voigt Hill
#
# Bulk Modulus (GPa) = 58.96323 66.16152 62.56238
# Shear Modulus (GPa) = 24.61963 26.53621 25.57792
#
# Velocity S-wave (km/s) = 3.67330 3.81360 3.74411
# Velocity P-wave (km/s) = 7.09271 7.46005 7.27870
#
# Compressibility (1/GPa) = 0.01695972
#
# Stress axis : x y z
#
# Youngs Moduli (GPa) = 45.97221 72.79071 65.39934
#
# Poissons Ratio (x) = 0.50500 0.27609
# Poissons Ratio (y) = 0.31894 0.37614
# Poissons Ratio (z) = 0.19408 0.41865
#
# Static dielectric constant tensor:
#      x y z
#    x 3.128920 0.000000 0.000000 
#    y 0.000000 3.578140 0.000000 
#    z 0.000000 0.000000 3.222300 
# 
# 
# High freq. dielectric constant tensor:
#      x y z
#    x 1.683570 0.000000 0.000000 
#    y 0.000000 1.719990 0.000000 
#    z 0.000000 0.000000 1.699310 
# 
# From -- ./inp_files/24328.got.cif
#   From: 2010.03.12/outbox.cif.g09.slc.cpg/sg47_13_cif.got.tgz:24328.got - 2010.04.14 03:12:58.
