data_PCOD8195509
_publ_section_title
;
Structure prediction by ZEFSAII (Michael W. Deem and Ramdas Pophale) SiO2 
 PCOD8195509
Probable space group: P M M M
;
_chemical_formula_sum "Si O2"
_cell_formula_units_Z 52
_cell_length_a 14.534965
_cell_length_b 25.115869
_cell_length_c 7.889011
_cell_angle_alpha 90.000000
_cell_angle_beta 90.000000
_cell_angle_gamma 90.000000
_cell_volume 2879.948762
_symmetry_space_group_name_H-M "P M M M"
_symmetry_group_IT_number 47
_symmetry_cell_setting 'orthorhombic'
loop_
_space_group_symop_operation_xyz
x,y,z
-x,-y,z
x,-y,-z
-x,y,-z
-x,-y,-z
x,y,-z
-x,y,z
x,-y,z
loop_
_atom_site_type_symbol
_atom_site_label
_atom_site_fract_x
_atom_site_fract_y
_atom_site_fract_z
Si Si1 0.897182 0.158762 0.199784
Si Si2 0.600039 0.109916 0.298388
Si Si3 0.783178 0.941236 0.700288
Si Si4 0.891120 0.559297 0.500000
Si Si5 0.398758 0.769910 0.299890
Si Si6 0.207382 0.739494 0.804862
Si Si7 0.108369 0.365844 0.804141
O O1 0.859521 0.100802 0.246179
O O2 0.834265 0.206308 0.279315
O O3 0.000000 0.163914 0.274912
O O4 0.899401 0.164033 0.000000
O O5 0.602640 0.110274 0.500000
O O6 0.500000 0.088001 0.237292
O O7 0.682895 0.074525 0.223707
O O8 0.613057 0.170039 0.231592
O O9 0.776408 0.942385 0.500000
O O10 0.809409 0.000000 0.769981
O O11 0.848151 0.500000 0.500000
O O12 0.859253 0.588045 0.674407
O O13 0.000000 0.556111 0.500000
O O14 0.389762 0.768351 0.500000
O O15 0.500000 0.748125 0.244619
O O16 0.317118 0.734561 0.222226
O O17 0.158365 0.687011 0.732954
O O18 0.182573 0.741448 0.000000
O O19 0.000000 0.355668 0.792189
O O20 0.135801 0.380141 0.000000
#
# Coordination Sequence:
#
# PCOD8195509 Si02
#       7
#     8   8   8   4   8   8   8
#     4  10  21  36  51  66  87 120 159 196 242 299
#     4   8  14  27  46  67  90 114 144 184 235 296
#     4  10  20  33  49  69  90 112 148 198 243 289
#     4   9  18  32  50  76 109 147 190 220 246 295
#     4   9  17  29  47  70  96 126 156 190 239 300
#     4  10  19  31  50  73  97 127 162 204 251 296
#     4   9  18  32  49  74 109 143 177 220 261 294
#
# _framework density 18.055878
#
# number of rings (size 3 to 8) (size 9 to 14) (size 15 to 20)
#    0.000    2.692    1.538    1.385    1.077    3.692 
#    0.000    4.615    0.000    0.462    0.000    1.077 
#    0.000    1.231    0.000    3.385    0.000    0.154 
#
# Total GULP energy -644406.338711 kJ/mol
# GULP energy per Si atom -12392.429591 kJ/mol
# Density = 1.801478 g / cm^3
# Si number density = 18.055878 Si / 1000 Ang^3
#
#
#
# Elastic Constant Matrix: (Units=GPa)
#
#
# Indices 1 2 3 4 5 6 
#
# 1 107.1469 56.1809 16.7903 0.0000 0.0000 0.0000
# 2 56.1809 130.3402 34.9773 0.0000 0.0000 0.0000
# 3 16.7903 34.9773 41.5140 0.0000 0.0000 0.0000
# 4 0.0000 0.0000 0.0000 20.4721 0.0000 0.0000
# 5 0.0000 0.0000 0.0000 0.0000 19.8805 0.0000
# 6 0.0000 0.0000 0.0000 0.0000 0.0000 19.4338
#
#
#
# Elastic Compliance Matrix: (Units=1/GPa)
#
#
# Indices 1 2 3 4 5 6 
#
# 1 0.012072 -0.005030 -0.000644 0.000000 0.000000 0.000000
# 2 -0.005030 0.012010 -0.008084 0.000000 0.000000 0.000000
# 3 -0.000644 -0.008084 0.031160 0.000000 0.000000 0.000000
# 4 0.000000 0.000000 0.000000 0.048847 0.000000 0.000000
# 5 0.000000 0.000000 0.000000 0.000000 0.050301 0.000000
# 6 0.000000 0.000000 0.000000 0.000000 0.000000 0.051457
#
#
# Mechanical properties :
#
#
# Convention : Reuss Voigt Hill
#
# Bulk Modulus (GPa) = 36.06968 54.98867 45.52917
# Shear Modulus (GPa) = 20.60965 23.36078 21.98522
#
# Velocity S-wave (km/s) = 3.38218 3.60085 3.49323
# Velocity P-wave (km/s) = 5.93905 6.91441 6.44520
#
# Compressibility (1/GPa) = 0.02772412
#
# Stress axis : x y z
#
# Youngs Moduli (GPa) = 82.83966 83.26423 32.09228
#
# Poissons Ratio (x) = 0.41885 0.02067
# Poissons Ratio (y) = 0.41672 0.25945
# Poissons Ratio (z) = 0.05335 0.67314
#
# Static dielectric constant tensor:
#      x y z
#    x 3.512760 0.000000 0.000000 
#    y 0.000000 3.149040 0.000000 
#    z 0.000000 0.000000 3.138720 
# 
# 
# High freq. dielectric constant tensor:
#      x y z
#    x 1.693140 0.000000 0.000000 
#    y 0.000000 1.667690 0.000000 
#    z 0.000000 0.000000 1.683650 
# 
# From -- ./inp_files/7011.got.cif
#   From: 2010.03.12/outbox.cif.g09.slc.cpg/sg47_4_cif.got.tgz:7011.got - 2010.04.14 03:12:58.
