data_PCOD8195712
_publ_section_title
;
Structure prediction by ZEFSAII (Michael W. Deem and Ramdas Pophale) SiO2 
 PCOD8195712
Probable space group: P M M M
;
_chemical_formula_sum "Si O2"
_cell_formula_units_Z 52
_cell_length_a 7.837467
_cell_length_b 16.576811
_cell_length_c 19.850134
_cell_angle_alpha 90.000000
_cell_angle_beta 90.000000
_cell_angle_gamma 90.000000
_cell_volume 2578.933561
_symmetry_space_group_name_H-M "P M M M"
_symmetry_group_IT_number 47
_symmetry_cell_setting 'orthorhombic'
loop_
_space_group_symop_operation_xyz
x,y,z
-x,-y,z
x,-y,-z
-x,y,-z
-x,-y,-z
x,y,-z
-x,y,z
x,-y,z
loop_
_atom_site_type_symbol
_atom_site_label
_atom_site_fract_x
_atom_site_fract_y
_atom_site_fract_z
Si Si1 0.200870 0.406723 0.209790
Si Si2 0.000000 0.911990 0.645809
Si Si3 0.805145 0.330132 0.926211
Si Si4 0.313294 0.856642 0.720996
Si Si5 0.300731 0.832580 0.871086
Si Si6 0.314846 0.687750 0.341025
Si Si7 0.000000 0.735274 0.579409
Si Si8 0.297054 0.000000 0.074867
O O1 0.246719 0.500000 0.217544
O O2 0.280107 0.375801 0.138024
O O3 0.282312 0.360650 0.272419
O O4 0.000000 0.390161 0.210953
O O5 0.832066 0.915351 0.692868
O O6 0.000000 0.830556 0.600660
O O7 0.000000 0.000000 0.606797
O O8 0.795519 0.234336 0.914586
O O9 0.000000 0.357537 0.929909
O O10 0.721385 0.351021 0.000000
O O11 0.500000 0.900831 0.725778
O O12 0.259972 0.819836 0.792799
O O13 0.329437 0.782092 0.671634
O O14 0.500000 0.825234 0.888064
O O15 0.226620 0.920439 0.888867
O O16 0.500000 0.658591 0.370198
O O17 0.161460 0.682290 0.394718
O O18 0.000000 0.733698 0.500000
O O19 0.500000 0.000000 0.076932
O O20 0.225096 0.000000 0.000000
#
# Coordination Sequence:
#
# PCOD8195712 Si02
#       8
#     8   4   8   8   8   8   4   4
#     4  10  20  35  58  85 117 157 199 247 302 356
#     4  10  22  35  56  89 120 155 191 237 289 344
#     4  10  21  34  51  77 112 154 198 248 303 359
#     4   9  19  33  53  81 110 147 195 243 292 344
#     4  10  19  32  51  70  96 140 189 242 301 354
#     4  10  19  36  62  90 119 154 197 242 287 344
#     4  10  22  41  65  92 126 161 193 237 287 348
#     4   9  18  30  43  63  91 129 181 236 290 348
#
# _framework density 20.163374000000001
#
# number of rings (size 3 to 8) (size 9 to 14) (size 15 to 20)
#    0.000    2.231    2.308    0.462    2.154    2.308 
#    0.000    1.923    0.000    2.308    0.000    7.538 
#    0.000    0.000    0.000    0.000    0.000    0.000 
#
# Total GULP energy -644239.138222 kJ/mol
# GULP energy per Si atom -12389.214197 kJ/mol
# Density = 2.011748 g / cm^3
# Si number density = 20.163374 Si / 1000 Ang^3
#
#
#
# Elastic Constant Matrix: (Units=GPa)
#
#
# Indices 1 2 3 4 5 6 
#
# 1 97.1336 30.7677 56.2141 0.0000 0.0000 0.0000
# 2 30.7677 77.2513 22.2704 0.0000 0.0000 0.0000
# 3 56.2141 22.2704 126.6167 0.0000 0.0000 0.0000
# 4 0.0000 0.0000 0.0000 15.1599 0.0000 0.0000
# 5 0.0000 0.0000 0.0000 0.0000 9.0967 0.0000
# 6 0.0000 0.0000 0.0000 0.0000 0.0000 -9.7006
#
#
#
# Elastic Compliance Matrix: (Units=1/GPa)
#
#
# Indices 1 2 3 4 5 6 
#
# 1 0.015099 -0.004299 -0.005947 0.000000 0.000000 0.000000
# 2 -0.004299 0.014860 -0.000705 0.000000 0.000000 0.000000
# 3 -0.005947 -0.000705 0.010662 0.000000 0.000000 0.000000
# 4 0.000000 0.000000 0.000000 0.065963 0.000000 0.000000
# 5 0.000000 0.000000 0.000000 0.000000 0.109930 0.000000
# 6 0.000000 0.000000 0.000000 0.000000 0.000000 -0.103087
#
#
# Mechanical properties :
#
#
# Convention : Reuss Voigt Hill
#
# Bulk Modulus (GPa) = 53.42308 57.72288 55.57298
# Shear Modulus (GPa) = 35.31828 15.69451 25.50639
#
# Velocity S-wave (km/s) = 4.18976 2.79295 3.56052
# Velocity P-wave (km/s) = 7.06810 6.25224 6.67265
#
# Compressibility (1/GPa) = 0.01871850
#
# Stress axis : x y z
#
# Youngs Moduli (GPa) = 66.23093 67.29363 93.78867
#
# Poissons Ratio (x) = 0.28930 0.55778
# Poissons Ratio (y) = 0.28473 0.06613
# Poissons Ratio (z) = 0.39389 0.04745
#
# Static dielectric constant tensor:
#      x y z
#    x 3.934790 0.000000 0.000000 
#    y 0.000000 3.516460 0.000000 
#    z 0.000000 0.000000 3.482970 
# 
# 
# High freq. dielectric constant tensor:
#      x y z
#    x 1.782510 0.000000 0.000000 
#    y 0.000000 1.772700 0.000000 
#    z 0.000000 0.000000 1.763000 
# 
# From -- ./inp_files/26796.got.cif
#   From: 2010.03.12/outbox.cif.g09.slc.cpg/sg47_14_cif.got.tgz:26796.got - 2010.04.14 03:12:58.
