data_PCOD8195125
_publ_section_title
;
Structure prediction by ZEFSAII (Michael W. Deem and Ramdas Pophale) SiO2 
 PCOD8195125
Probable space group: P M M M
;
_chemical_formula_sum "Si O2"
_cell_formula_units_Z 64
_cell_length_a 23.514420
_cell_length_b 18.846871
_cell_length_c 9.110902
_cell_angle_alpha 90.000000
_cell_angle_beta 90.000000
_cell_angle_gamma 90.000000
_cell_volume 4037.707962
_symmetry_space_group_name_H-M "P M M M"
_symmetry_group_IT_number 47
_symmetry_cell_setting 'orthorhombic'
loop_
_space_group_symop_operation_xyz
x,y,z
-x,-y,z
x,-y,-z
-x,y,-z
-x,-y,-z
x,y,-z
-x,y,z
x,-y,z
loop_
_atom_site_type_symbol
_atom_site_label
_atom_site_fract_x
_atom_site_fract_y
_atom_site_fract_z
Si Si1 0.271745 0.712731 0.331384
Si Si2 0.118536 0.576893 0.825888
Si Si3 0.934614 0.279242 0.172061
Si Si4 0.434820 0.081961 0.831003
Si Si5 0.752775 0.421385 0.172344
Si Si6 0.666659 0.853405 0.327756
Si Si7 0.228927 0.082173 0.168997
Si Si8 0.837896 0.801707 0.326768
O O1 0.273143 0.692033 0.500000
O O2 0.285193 0.640490 0.243887
O O3 0.319525 0.771144 0.293463
O O4 0.210146 0.743876 0.287207
O O5 0.095392 0.500000 0.769078
O O6 0.079156 0.641130 0.769688
O O7 0.182811 0.587469 0.769067
O O8 0.119049 0.575687 0.000000
O O9 0.897947 0.222613 0.261543
O O10 0.000000 0.262530 0.204709
O O11 0.920289 0.272549 0.000000
O O12 0.500000 0.102669 0.801357
O O13 0.396839 0.131036 0.726590
O O14 0.424326 0.000000 0.791289
O O15 0.418750 0.095874 0.000000
O O16 0.729933 0.500000 0.215638
O O17 0.750053 0.410980 0.000000
O O18 0.672835 0.868989 0.500000
O O19 0.710057 0.904374 0.242891
O O20 0.179131 0.124140 0.252463
O O21 0.213536 0.000000 0.181960
O O22 0.231866 0.106774 0.000000
O O23 0.842994 0.813469 0.500000
#
# Coordination Sequence:
#
# PCOD8195125 Si02
#       8
#     8   8   8   8   8   8   8   8
#     4   9  18  30  43  63  90 120 152 186 226 270
#     4   8  14  25  41  63  89 114 145 186 225 262
#     4  10  19  30  47  68  88 115 151 187 223 269
#     4   9  18  32  48  67  95 132 171 204 231 264
#     4   9  16  26  43  65  87 115 151 188 226 270
#     4  10  20  31  45  70 101 128 159 195 228 268
#     4  10  20  33  51  73  94 117 146 184 230 276
#     4  10  20  33  48  66  90 118 147 182 226 275
#
# _framework density 15.850576999999999
#
# number of rings (size 3 to 8) (size 9 to 14) (size 15 to 20)
#    0.000    2.625    1.250    3.375    0.000    6.250 
#    0.000    1.875    0.000    0.750    0.000    3.500 
#    0.000    0.500    0.000    5.500    0.000    4.000 
#
# Total GULP energy -793459.025038 kJ/mol
# GULP energy per Si atom -12397.797266 kJ/mol
# Density = 1.581450 g / cm^3
# Si number density = 15.850577 Si / 1000 Ang^3
#
#
#
# Elastic Constant Matrix: (Units=GPa)
#
#
# Indices 1 2 3 4 5 6 
#
# 1 79.4483 50.4354 40.9605 0.0000 0.0000 0.0000
# 2 50.4354 107.1617 56.7904 0.0000 0.0000 0.0000
# 3 40.9605 56.7904 74.3864 0.0000 0.0000 0.0000
# 4 0.0000 0.0000 0.0000 21.7682 0.0000 0.0000
# 5 0.0000 0.0000 0.0000 0.0000 22.5720 0.0000
# 6 0.0000 0.0000 0.0000 0.0000 0.0000 23.9840
#
#
#
# Elastic Compliance Matrix: (Units=1/GPa)
#
#
# Indices 1 2 3 4 5 6 
#
# 1 0.019555 -0.005873 -0.006284 0.000000 0.000000 0.000000
# 2 -0.005873 0.017437 -0.010078 0.000000 0.000000 0.000000
# 3 -0.006284 -0.010078 0.024598 0.000000 0.000000 0.000000
# 4 0.000000 0.000000 0.000000 0.045939 0.000000 0.000000
# 5 0.000000 0.000000 0.000000 0.000000 0.044303 0.000000
# 6 0.000000 0.000000 0.000000 0.000000 0.000000 0.041694
#
#
# Mechanical properties :
#
#
# Convention : Reuss Voigt Hill
#
# Bulk Modulus (GPa) = 58.41483 61.92988 60.17235
# Shear Modulus (GPa) = 20.51684 21.18551 20.85117
#
# Velocity S-wave (km/s) = 3.60167 3.65989 3.63089
# Velocity P-wave (km/s) = 7.36407 7.55087 7.45805
#
# Compressibility (1/GPa) = 0.01711894
#
# Stress axis : x y z
#
# Youngs Moduli (GPa) = 51.13764 57.34969 40.65439
#
# Poissons Ratio (x) = 0.33684 0.25546
# Poissons Ratio (y) = 0.30035 0.40972
# Poissons Ratio (z) = 0.32134 0.57797
#
# Static dielectric constant tensor:
#      x y z
#    x 2.777540 0.000000 0.000000 
#    y 0.000000 3.090600 0.000000 
#    z 0.000000 0.000000 2.917140 
# 
# 
# High freq. dielectric constant tensor:
#      x y z
#    x 1.575140 0.000000 0.000000 
#    y 0.000000 1.607400 0.000000 
#    z 0.000000 0.000000 1.604300 
# 
# From -- ./inp_files/12860.got.cif
#   From: 2010.03.12/outbox.cif.g09.slc.cpg/sg47_7_cif.got.tgz:12860.got - 2010.04.14 03:12:58.
