data_PCOD8195751
_publ_section_title
;
Structure prediction by ZEFSAII (Michael W. Deem and Ramdas Pophale) SiO2 
 PCOD8195751
Probable space group: P M M M
;
_chemical_formula_sum "Si O2"
_cell_formula_units_Z 40
_cell_length_a 8.073782
_cell_length_b 8.032129
_cell_length_c 28.835736
_cell_angle_alpha 90.000000
_cell_angle_beta 90.000000
_cell_angle_gamma 90.000000
_cell_volume 1869.987633
_symmetry_space_group_name_H-M "P M M M"
_symmetry_group_IT_number 47
_symmetry_cell_setting 'orthorhombic'
loop_
_space_group_symop_operation_xyz
x,y,z
-x,-y,z
x,-y,-z
-x,y,-z
-x,-y,-z
x,y,-z
-x,y,z
x,-y,z
loop_
_atom_site_type_symbol
_atom_site_label
_atom_site_fract_x
_atom_site_fract_y
_atom_site_fract_z
Si Si1 0.802297 0.500000 0.947470
Si Si2 0.813190 0.691738 0.793519
Si Si3 0.311455 0.189140 0.699011
Si Si4 0.180762 0.306487 0.605686
Si Si5 0.500000 0.698768 0.552985
Si Si6 0.197011 0.815615 0.890549
O O1 0.731605 0.331865 0.923095
O O2 0.000000 0.500000 0.945620
O O3 0.737137 0.500000 0.000000
O O4 0.808094 0.500000 0.807907
O O5 0.702866 0.722466 0.748502
O O6 0.741080 0.791935 0.837603
O O7 0.000000 0.749161 0.781984
O O8 0.500000 0.201820 0.682357
O O9 0.201369 0.280208 0.660612
O O10 0.251407 0.000000 0.703709
O O11 0.178786 0.500000 0.594642
O O12 0.333897 0.225420 0.577122
O O13 0.000000 0.231654 0.590963
O O14 0.500000 0.500000 0.557740
O O15 0.500000 0.757391 0.500000
O O16 0.000000 0.803015 0.890966
O O17 0.254759 0.000000 0.907803
#
# Coordination Sequence:
#
# PCOD8195751 Si02
#       6
#     4   8   8   8   4   8
#     4   9  16  26  40  62  95 135 181 231 283 344
#     4  10  19  32  51  74 101 136 179 223 274 341
#     4  11  23  36  51  75 108 144 182 226 278 337
#     4  10  20  35  57  83 111 147 189 232 286 349
#     4   9  18  34  57  85 117 149 185 239 295 340
#     4   9  16  27  43  64  95 134 176 227 283 340
#
# _framework density 21.390516000000002
#
# number of rings (size 3 to 8) (size 9 to 14) (size 15 to 20)
#    0.000    2.200    2.000    1.800    0.000    6.000 
#    0.000    4.000    0.000    1.200    0.000    1.400 
#    0.000    1.600    0.000    4.200    0.000    4.000 
#
# Total GULP energy -495856.957445 kJ/mol
# GULP energy per Si atom -12396.423936 kJ/mol
# Density = 2.134183 g / cm^3
# Si number density = 21.390516 Si / 1000 Ang^3
#
#
#
# Elastic Constant Matrix: (Units=GPa)
#
#
# Indices 1 2 3 4 5 6 
#
# 1 98.2560 24.4103 46.6113 0.0000 0.0000 0.0000
# 2 24.4103 89.3920 40.8331 0.0000 0.0000 0.0000
# 3 46.6113 40.8331 146.7086 0.0000 0.0000 0.0000
# 4 0.0000 0.0000 0.0000 13.2446 0.0000 0.0000
# 5 0.0000 0.0000 0.0000 0.0000 16.9182 0.0000
# 6 0.0000 0.0000 0.0000 0.0000 0.0000 11.4645
#
#
#
# Elastic Compliance Matrix: (Units=1/GPa)
#
#
# Indices 1 2 3 4 5 6 
#
# 1 0.012229 -0.001793 -0.003387 0.000000 0.000000 0.000000
# 2 -0.001793 0.013079 -0.003071 0.000000 0.000000 0.000000
# 3 -0.003387 -0.003071 0.008747 0.000000 0.000000 0.000000
# 4 0.000000 0.000000 0.000000 0.075503 0.000000 0.000000
# 5 0.000000 0.000000 0.000000 0.000000 0.059108 0.000000
# 6 0.000000 0.000000 0.000000 0.000000 0.000000 0.087226
#
#
# Mechanical properties :
#
#
# Convention : Reuss Voigt Hill
#
# Bulk Modulus (GPa) = 56.96222 62.00734 59.48478
# Shear Modulus (GPa) = 17.96994 23.15893 20.56443
#
# Velocity S-wave (km/s) = 2.90157 3.29397 3.10398
# Velocity P-wave (km/s) = 6.15735 6.59683 6.38087
#
# Compressibility (1/GPa) = 0.01755550
#
# Stress axis : x y z
#
# Youngs Moduli (GPa) = 81.77055 76.45950 114.32711
#
# Poissons Ratio (x) = 0.13706 0.38717
# Poissons Ratio (y) = 0.14658 0.35106
# Poissons Ratio (z) = 0.27692 0.23478
#
# Static dielectric constant tensor:
#      x y z
#    x 3.950310 0.000000 0.000000 
#    y 0.000000 3.798640 0.000000 
#    z 0.000000 0.000000 3.741130 
# 
# 
# High freq. dielectric constant tensor:
#      x y z
#    x 1.811950 0.000000 0.000000 
#    y 0.000000 1.828520 0.000000 
#    z 0.000000 0.000000 1.831640 
# 
# From -- ./inp_files/33071.got.cif
#   From: 2010.03.12/outbox.cif.g09.slc.cpg/sg47_17_cif.got.tgz:33071.got - 2010.04.14 03:12:58.
