data_PCOD8195226
_publ_section_title
;
Structure prediction by ZEFSAII (Michael W. Deem and Ramdas Pophale) SiO2 
 PCOD8195226
Probable space group: P M M M
;
_chemical_formula_sum "Si O2"
_cell_formula_units_Z 56
_cell_length_a 9.098092
_cell_length_b 14.432435
_cell_length_c 23.274560
_cell_angle_alpha 90.000000
_cell_angle_beta 90.000000
_cell_angle_gamma 90.000000
_cell_volume 3056.127113
_symmetry_space_group_name_H-M "P M M M"
_symmetry_group_IT_number 47
_symmetry_cell_setting 'orthorhombic'
loop_
_space_group_symop_operation_xyz
x,y,z
-x,-y,z
x,-y,-z
-x,y,-z
-x,-y,-z
x,y,-z
-x,y,z
x,-y,z
loop_
_atom_site_type_symbol
_atom_site_label
_atom_site_fract_x
_atom_site_fract_y
_atom_site_fract_z
Si Si1 0.670610 0.395489 0.774833
Si Si2 0.330574 0.270777 0.434929
Si Si3 0.830643 0.608609 0.341294
Si Si4 0.827271 0.106279 0.614323
Si Si5 0.331877 0.892642 0.270264
Si Si6 0.670544 0.218619 0.840613
Si Si7 0.173145 0.896130 0.934584
O O1 0.500000 0.388991 0.757662
O O2 0.714231 0.500000 0.793351
O O3 0.761059 0.361945 0.719451
O O4 0.704442 0.327265 0.828397
O O5 0.314748 0.307177 0.500000
O O6 0.500000 0.262294 0.416801
O O7 0.250465 0.342280 0.393497
O O8 0.255262 0.169698 0.431812
O O9 0.811008 0.500000 0.351009
O O10 0.000000 0.639035 0.341184
O O11 0.771870 0.136623 0.677235
O O12 0.000000 0.123136 0.610616
O O13 0.785619 0.000000 0.601298
O O14 0.500000 0.866814 0.285793
O O15 0.275937 0.837853 0.214901
O O16 0.315112 0.000000 0.255737
O O17 0.500000 0.200869 0.852317
O O18 0.756164 0.183774 0.896138
O O19 0.000000 0.888828 0.928133
O O20 0.224803 0.000000 0.916282
O O21 0.221334 0.877277 0.000000
#
# Coordination Sequence:
#
# PCOD8195226 Si02
#       7
#     8   8   8   8   8   8   8
#     4   9  18  33  53  78 109 141 170 204 250 304
#     4  11  24  39  55  75  99 132 174 214 253 305
#     4  10  21  37  58  83 108 133 164 207 260 313
#     4  10  21  36  54  76 102 133 169 211 260 310
#     4   9  17  29  46  71 103 133 162 202 252 306
#     4  10  19  30  49  77 104 133 172 213 250 291
#     4   9  19  35  52  72 102 139 175 211 255 306
#
# _framework density 18.323844999999999
#
# number of rings (size 3 to 8) (size 9 to 14) (size 15 to 20)
#    0.000    2.286    0.000    3.000    0.000    6.857 
#    0.000    5.000    0.000    0.429    0.000    3.000 
#    0.000    0.000    0.000    0.000    0.000    0.000 
#
# Total GULP energy -694475.617181 kJ/mol
# GULP energy per Si atom -12401.350307 kJ/mol
# Density = 1.828214 g / cm^3
# Si number density = 18.323845 Si / 1000 Ang^3
#
#
#
# Elastic Constant Matrix: (Units=GPa)
#
#
# Indices 1 2 3 4 5 6 
#
# 1 86.8068 39.2044 50.7711 0.0000 0.0000 0.0000
# 2 39.2044 83.9438 58.7357 0.0000 0.0000 0.0000
# 3 50.7711 58.7357 99.2863 0.0000 0.0000 0.0000
# 4 0.0000 0.0000 0.0000 29.7291 0.0000 0.0000
# 5 0.0000 0.0000 0.0000 0.0000 11.0857 0.0000
# 6 0.0000 0.0000 0.0000 0.0000 0.0000 27.8866
#
#
#
# Elastic Compliance Matrix: (Units=1/GPa)
#
#
# Indices 1 2 3 4 5 6 
#
# 1 0.016910 -0.003152 -0.006783 0.000000 0.000000 0.000000
# 2 -0.003152 0.020914 -0.010761 0.000000 0.000000 0.000000
# 3 -0.006783 -0.010761 0.019906 0.000000 0.000000 0.000000
# 4 0.000000 0.000000 0.000000 0.033637 0.000000 0.000000
# 5 0.000000 0.000000 0.000000 0.000000 0.090206 0.000000
# 6 0.000000 0.000000 0.000000 0.000000 0.000000 0.035859
#
#
# Mechanical properties :
#
#
# Convention : Reuss Voigt Hill
#
# Bulk Modulus (GPa) = 61.19898 63.05104 62.12501
# Shear Modulus (GPa) = 18.92007 21.82869 20.37438
#
# Velocity S-wave (km/s) = 3.21680 3.45523 3.33814
# Velocity P-wave (km/s) = 6.87518 7.09944 6.98821
#
# Compressibility (1/GPa) = 0.01634014
#
# Stress axis : x y z
#
# Youngs Moduli (GPa) = 59.13557 47.81522 50.23606
#
# Poissons Ratio (x) = 0.15070 0.34074
# Poissons Ratio (y) = 0.18638 0.54057
# Poissons Ratio (z) = 0.40110 0.51452
#
# Static dielectric constant tensor:
#      x y z
#    x 3.384080 0.000000 0.000000 
#    y 0.000000 3.560740 0.000000 
#    z 0.000000 0.000000 3.208150 
# 
# 
# High freq. dielectric constant tensor:
#      x y z
#    x 1.711690 0.000000 0.000000 
#    y 0.000000 1.716820 0.000000 
#    z 0.000000 0.000000 1.692270 
# 
# From -- ./inp_files/7268.got.cif
#   From: 2010.03.12/outbox.cif.g09.slc.cpg/sg47_4_cif.got.tgz:7268.got - 2010.04.14 03:12:58.
