data_PCOD8195644
_publ_section_title
;
Structure prediction by ZEFSAII (Michael W. Deem and Ramdas Pophale) SiO2 
 PCOD8195644
Probable space group: P M M M
;
_chemical_formula_sum "Si O2"
_cell_formula_units_Z 52
_cell_length_a 9.216788
_cell_length_b 17.677574
_cell_length_c 17.991506
_cell_angle_alpha 90.000000
_cell_angle_beta 90.000000
_cell_angle_gamma 90.000000
_cell_volume 2931.364203
_symmetry_space_group_name_H-M "P M M M"
_symmetry_group_IT_number 47
_symmetry_cell_setting 'orthorhombic'
loop_
_space_group_symop_operation_xyz
x,y,z
-x,-y,z
x,-y,-z
-x,y,-z
-x,-y,-z
x,y,-z
-x,y,z
x,-y,z
loop_
_atom_site_type_symbol
_atom_site_label
_atom_site_fract_x
_atom_site_fract_y
_atom_site_fract_z
Si Si1 0.667499 0.083864 0.722585
Si Si2 0.167304 0.861136 0.416247
Si Si3 0.834150 0.707232 0.337210
Si Si4 0.339525 0.584790 0.586893
Si Si5 0.328645 0.234102 0.800054
Si Si6 0.169965 0.334997 0.087408
Si Si7 0.168340 0.500000 0.086683
O O1 0.500000 0.097866 0.704317
O O2 0.748537 0.088886 0.643818
O O3 0.718408 0.146537 0.783214
O O4 0.695043 0.000000 0.756124
O O5 0.226445 0.875611 0.500000
O O6 0.188612 0.773123 0.397375
O O7 0.000000 0.884737 0.411502
O O8 0.790290 0.629570 0.375189
O O9 0.728191 0.716190 0.267770
O O10 0.000000 0.703569 0.309454
O O11 0.311123 0.585487 0.500000
O O12 0.500000 0.618878 0.604416
O O13 0.331748 0.500000 0.618004
O O14 0.500000 0.242230 0.808524
O O15 0.254978 0.265798 0.874527
O O16 0.228587 0.418473 0.116744
O O17 0.000000 0.326989 0.105386
O O18 0.198323 0.327632 0.000000
O O19 0.000000 0.500000 0.104143
O O20 0.197826 0.500000 0.000000
#
# Coordination Sequence:
#
# PCOD8195644 Si02
#       7
#     8   8   8   8   8   8   4
#     4   9  19  35  52  70  95 129 168 207 246 294
#     4   9  18  31  47  70  98 125 156 200 252 301
#     4  10  19  32  49  68  93 126 166 206 245 294
#     4   9  18  32  48  66  91 124 162 207 257 300
#     4  10  20  34  52  74 100 130 164 203 250 298
#     4   9  17  32  55  80 105 133 165 201 240 287
#     4   7  12  26  49  75 101 129 158 187 224 273
#
# _framework density 17.739180999999999
#
# number of rings (size 3 to 8) (size 9 to 14) (size 15 to 20)
#    0.000    2.846    0.000    2.769    0.000    3.692 
#    1.385    2.692    0.000    1.846    0.000    3.231 
#    0.000    0.000    0.000    0.000    0.000    0.000 
#
# Total GULP energy -644368.312917 kJ/mol
# GULP energy per Si atom -12391.698325 kJ/mol
# Density = 1.769881 g / cm^3
# Si number density = 17.739181 Si / 1000 Ang^3
#
#
#
# Elastic Constant Matrix: (Units=GPa)
#
#
# Indices 1 2 3 4 5 6 
#
# 1 59.5734 45.4541 35.7097 0.0000 0.0000 0.0000
# 2 45.4541 117.0625 52.7558 0.0000 0.0000 0.0000
# 3 35.7097 52.7558 68.1835 0.0000 0.0000 0.0000
# 4 0.0000 0.0000 0.0000 20.6707 0.0000 0.0000
# 5 0.0000 0.0000 0.0000 0.0000 27.6594 0.0000
# 6 0.0000 0.0000 0.0000 0.0000 0.0000 26.4384
#
#
#
# Elastic Compliance Matrix: (Units=1/GPa)
#
#
# Indices 1 2 3 4 5 6 
#
# 1 0.027245 -0.006369 -0.009341 0.000000 0.000000 0.000000
# 2 -0.006369 0.014605 -0.007964 0.000000 0.000000 0.000000
# 3 -0.009341 -0.007964 0.025721 0.000000 0.000000 0.000000
# 4 0.000000 0.000000 0.000000 0.048378 0.000000 0.000000
# 5 0.000000 0.000000 0.000000 0.000000 0.036154 0.000000
# 6 0.000000 0.000000 0.000000 0.000000 0.000000 0.037824
#
#
# Mechanical properties :
#
#
# Convention : Reuss Voigt Hill
#
# Bulk Modulus (GPa) = 49.45277 56.96207 53.20742
# Shear Modulus (GPa) = 20.49049 22.34701 21.41875
#
# Velocity S-wave (km/s) = 3.40236 3.55315 3.47857
# Velocity P-wave (km/s) = 6.58582 7.00098 6.79657
#
# Compressibility (1/GPa) = 0.02022131
#
# Stress axis : x y z
#
# Youngs Moduli (GPa) = 36.70415 68.47015 38.87917
#
# Poissons Ratio (x) = 0.43611 0.36316
# Poissons Ratio (y) = 0.23378 0.30965
# Poissons Ratio (z) = 0.34284 0.54533
#
# Static dielectric constant tensor:
#      x y z
#    x 3.193410 0.000000 0.000000 
#    y 0.000000 3.486080 0.000000 
#    z 0.000000 0.000000 3.063010 
# 
# 
# High freq. dielectric constant tensor:
#      x y z
#    x 1.677770 0.000000 0.000000 
#    y 0.000000 1.689970 0.000000 
#    z 0.000000 0.000000 1.658950 
# 
# From -- ./inp_files/9562.got.cif
#   From: 2010.03.12/outbox.cif.g09.slc.cpg/sg47_5_cif.got.tgz:9562.got - 2010.04.14 03:12:58.
