data_PCOD8195114
_publ_section_title
;
Structure prediction by ZEFSAII (Michael W. Deem and Ramdas Pophale) SiO2 
 PCOD8195114
Probable space group: P M M M
;
_chemical_formula_sum "Si O2"
_cell_formula_units_Z 52
_cell_length_a 11.693848
_cell_length_b 27.753362
_cell_length_c 8.854391
_cell_angle_alpha 90.000000
_cell_angle_beta 90.000000
_cell_angle_gamma 90.000000
_cell_volume 2873.635902
_symmetry_space_group_name_H-M "P M M M"
_symmetry_group_IT_number 47
_symmetry_cell_setting 'orthorhombic'
loop_
_space_group_symop_operation_xyz
x,y,z
-x,-y,z
x,-y,-z
-x,y,-z
-x,-y,-z
x,y,-z
-x,y,z
x,-y,z
loop_
_atom_site_type_symbol
_atom_site_label
_atom_site_fract_x
_atom_site_fract_y
_atom_site_fract_z
Si Si1 0.500000 0.756923 0.178897
Si Si2 0.865287 0.445931 0.170425
Si Si3 0.500000 0.649134 0.821336
Si Si4 0.635354 0.000000 0.169445
Si Si5 0.131657 0.730285 0.677239
Si Si6 0.367797 0.901877 0.678615
Si Si7 0.732905 0.635809 0.676400
Si Si8 0.724654 0.809860 0.179439
O O1 0.500000 0.703265 0.242944
O O2 0.611853 0.783115 0.240835
O O3 0.500000 0.756724 0.000000
O O4 0.821212 0.500000 0.205355
O O5 0.813412 0.409339 0.290587
O O6 0.000000 0.444064 0.188831
O O7 0.829982 0.431113 0.000000
O O8 0.614061 0.624332 0.759593
O O9 0.500000 0.646108 0.000000
O O10 0.676854 0.952878 0.258884
O O11 0.500000 0.000000 0.162765
O O12 0.686638 0.000000 0.000000
O O13 0.148656 0.738202 0.500000
O O14 0.207289 0.685081 0.735824
O O15 0.167306 0.779380 0.762228
O O16 0.000000 0.719291 0.716897
O O17 0.356234 0.901788 0.500000
O O18 0.500000 0.892117 0.727888
O O19 0.281246 0.862903 0.749389
O O20 0.710618 0.639674 0.500000
O O21 0.729830 0.814094 0.000000
#
# Coordination Sequence:
#
# PCOD8195114 Si02
#       8
#     4   8   4   4   8   8   8   8
#     4   9  18  31  49  73 103 135 173 217 258 303
#     4   9  19  37  60  84 109 140 180 223 267 317
#     4  11  21  37  56  78 108 146 183 218 261 317
#     4   9  17  29  45  67  98 137 176 217 261 306
#     4  10  22  38  53  74 107 142 175 214 262 314
#     4  10  19  30  46  71 103 139 175 213 262 318
#     4  11  22  36  56  83 112 142 177 219 268 320
#     4  11  20  33  52  76 104 136 178 221 261 310
#
# _framework density 18.095542999999999
#
# number of rings (size 3 to 8) (size 9 to 14) (size 15 to 20)
#    0.000    1.923    2.308    2.769    0.000    3.692 
#    0.000    1.154    0.000    2.308    0.000    0.538 
#    0.000    4.308    0.000    0.000    0.000    0.000 
#
# Total GULP energy -644877.426261 kJ/mol
# GULP energy per Si atom -12401.488967 kJ/mol
# Density = 1.805436 g / cm^3
# Si number density = 18.095543 Si / 1000 Ang^3
#
#
#
# Elastic Constant Matrix: (Units=GPa)
#
#
# Indices 1 2 3 4 5 6 
#
# 1 71.2146 35.3250 34.7518 0.0000 0.0000 0.0000
# 2 35.3250 117.3217 43.1388 0.0000 0.0000 0.0000
# 3 34.7518 43.1388 79.4995 0.0000 0.0000 0.0000
# 4 0.0000 0.0000 0.0000 34.6269 0.0000 0.0000
# 5 0.0000 0.0000 0.0000 0.0000 25.4838 0.0000
# 6 0.0000 0.0000 0.0000 0.0000 0.0000 24.7450
#
#
#
# Elastic Compliance Matrix: (Units=1/GPa)
#
#
# Indices 1 2 3 4 5 6 
#
# 1 0.018820 -0.003300 -0.006436 0.000000 0.000000 0.000000
# 2 -0.003300 0.011227 -0.004649 0.000000 0.000000 0.000000
# 3 -0.006436 -0.004649 0.017915 0.000000 0.000000 0.000000
# 4 0.000000 0.000000 0.000000 0.028879 0.000000 0.000000
# 5 0.000000 0.000000 0.000000 0.000000 0.039241 0.000000
# 6 0.000000 0.000000 0.000000 0.000000 0.000000 0.040412
#
#
# Mechanical properties :
#
#
# Convention : Reuss Voigt Hill
#
# Bulk Modulus (GPa) = 52.10901 54.94078 53.52490
# Shear Modulus (GPa) = 26.08770 27.29250 26.69010
#
# Velocity S-wave (km/s) = 3.80104 3.88782 3.84468
# Velocity P-wave (km/s) = 6.93708 7.11203 7.02510
#
# Compressibility (1/GPa) = 0.01919054
#
# Stress axis : x y z
#
# Youngs Moduli (GPa) = 53.13589 89.07281 55.81922
#
# Poissons Ratio (x) = 0.29394 0.35925
# Poissons Ratio (y) = 0.17535 0.25953
# Poissons Ratio (z) = 0.34198 0.41414
#
# Static dielectric constant tensor:
#      x y z
#    x 3.130850 0.000000 0.000000 
#    y 0.000000 3.429730 0.000000 
#    z 0.000000 0.000000 3.241980 
# 
# 
# High freq. dielectric constant tensor:
#      x y z
#    x 1.671520 0.000000 0.000000 
#    y 0.000000 1.704240 0.000000 
#    z 0.000000 0.000000 1.702200 
# 
# From -- ./inp_files/4592.got.cif
#   From: 2010.03.12/outbox.cif.g09.slc.cpg/sg47_3_cif.got.tgz:4592.got - 2010.04.14 03:12:58.
