data_PCOD8195840
_publ_section_title
;
Structure prediction by ZEFSAII (Michael W. Deem and Ramdas Pophale) SiO2 
 PCOD8195840
Probable space group: P M M M
;
_chemical_formula_sum "Si O2"
_cell_formula_units_Z 40
_cell_length_a 13.112773
_cell_length_b 16.033302
_cell_length_c 9.658676
_cell_angle_alpha 90.000000
_cell_angle_beta 90.000000
_cell_angle_gamma 90.000000
_cell_volume 2030.650180
_symmetry_space_group_name_H-M "P M M M"
_symmetry_group_IT_number 47
_symmetry_cell_setting 'orthorhombic'
loop_
_space_group_symop_operation_xyz
x,y,z
-x,-y,z
x,-y,-z
-x,y,-z
-x,-y,-z
x,y,-z
-x,y,z
x,-y,z
loop_
_atom_site_type_symbol
_atom_site_label
_atom_site_fract_x
_atom_site_fract_y
_atom_site_fract_z
Si Si1 0.386137 0.233022 0.657264
Si Si2 0.121619 0.500000 0.833985
Si Si3 0.878573 0.091350 0.500000
Si Si4 0.114410 0.179373 0.228575
Si Si5 0.302748 0.904929 0.849481
Si Si6 0.807064 0.658148 0.665345
O O1 0.371846 0.203842 0.500000
O O2 0.500000 0.268115 0.684110
O O3 0.370933 0.150269 0.747994
O O4 0.307677 0.308096 0.690781
O O5 0.175330 0.423928 0.755056
O O6 0.000000 0.500000 0.809085
O O7 0.145289 0.500000 0.000000
O O8 0.838623 0.139285 0.632365
O O9 0.000000 0.090287 0.500000
O O10 0.831313 0.000000 0.500000
O O11 0.193402 0.141387 0.119852
O O12 0.115382 0.277622 0.259988
O O13 0.000000 0.152062 0.187716
O O14 0.289227 0.000000 0.793637
O O15 0.356134 0.907511 0.000000
O O16 0.830051 0.645408 0.500000
#
# Coordination Sequence:
#
# PCOD8195840 Si02
#       6
#     8   4   4   8   8   8
#     4   9  20  40  64  87 110 140 183 237 293 343
#     4  11  25  41  58  85 122 158 189 225 272 329
#     4   9  16  26  44  73 106 140 181 229 278 322
#     4  10  19  32  52  78 110 149 193 238 284 334
#     4  10  22  36  50  76 114 154 195 236 281 338
#     4  10  20  37  61  86 112 144 186 234 284 342
#
# _framework density 19.698124
#
# number of rings (size 3 to 8) (size 9 to 14) (size 15 to 20)
#    0.000    2.200    1.000    1.500    1.400    7.600 
#    0.000    3.500    0.000    3.000    0.000    0.000 
#    0.000    0.000    0.000    0.000    0.000    0.000 
#
# Total GULP energy -495555.423856 kJ/mol
# GULP energy per Si atom -12388.885596 kJ/mol
# Density = 1.965329 g / cm^3
# Si number density = 19.698124 Si / 1000 Ang^3
#
#
#
# Elastic Constant Matrix: (Units=GPa)
#
#
# Indices 1 2 3 4 5 6 
#
# 1 101.7297 28.1703 32.7026 0.0000 0.0000 0.0000
# 2 28.1703 150.3250 57.4065 0.0000 0.0000 0.0000
# 3 32.7026 57.4065 99.5896 0.0000 0.0000 0.0000
# 4 0.0000 0.0000 0.0000 33.0277 0.0000 0.0000
# 5 0.0000 0.0000 0.0000 0.0000 18.5836 0.0000
# 6 0.0000 0.0000 0.0000 0.0000 0.0000 16.9397
#
#
#
# Elastic Compliance Matrix: (Units=1/GPa)
#
#
# Indices 1 2 3 4 5 6 
#
# 1 0.011080 -0.000881 -0.003131 0.000000 0.000000 0.000000
# 2 -0.000881 0.008600 -0.004668 0.000000 0.000000 0.000000
# 3 -0.003131 -0.004668 0.013760 0.000000 0.000000 0.000000
# 4 0.000000 0.000000 0.000000 0.030278 0.000000 0.000000
# 5 0.000000 0.000000 0.000000 0.000000 0.053811 0.000000
# 6 0.000000 0.000000 0.000000 0.000000 0.000000 0.059033
#
#
# Mechanical properties :
#
#
# Convention : Reuss Voigt Hill
#
# Bulk Modulus (GPa) = 62.18476 65.35589 63.77033
# Shear Modulus (GPa) = 25.09017 29.26787 27.17902
#
# Velocity S-wave (km/s) = 3.57281 3.85882 3.71856
# Velocity P-wave (km/s) = 6.97549 7.28730 7.13310
#
# Compressibility (1/GPa) = 0.01608111
#
# Stress axis : x y z
#
# Youngs Moduli (GPa) = 90.25019 116.27960 72.67406
#
# Poissons Ratio (x) = 0.10242 0.22752
# Poissons Ratio (y) = 0.07950 0.33925
# Poissons Ratio (z) = 0.28255 0.54280
#
# Static dielectric constant tensor:
#      x y z
#    x 3.538810 0.000000 0.000000 
#    y 0.000000 3.624580 0.000000 
#    z 0.000000 0.000000 3.494990 
# 
# 
# High freq. dielectric constant tensor:
#      x y z
#    x 1.759750 0.000000 0.000000 
#    y 0.000000 1.758410 0.000000 
#    z 0.000000 0.000000 1.773150 
# 
# From -- ./inp_files/5745.got.cif
#   From: 2010.03.12/outbox.cif.g09.slc.cpg/sg47_3_cif.got.tgz:5745.got - 2010.04.14 03:12:58.
