data_PCOD8195698
_publ_section_title
;
Structure prediction by ZEFSAII (Michael W. Deem and Ramdas Pophale) SiO2 
 PCOD8195698
Probable space group: P M M M
;
_chemical_formula_sum "Si O2"
_cell_formula_units_Z 52
_cell_length_a 8.746991
_cell_length_b 12.642858
_cell_length_c 26.165441
_cell_angle_alpha 90.000000
_cell_angle_beta 90.000000
_cell_angle_gamma 90.000000
_cell_volume 2893.556712
_symmetry_space_group_name_H-M "P M M M"
_symmetry_group_IT_number 47
_symmetry_cell_setting 'orthorhombic'
loop_
_space_group_symop_operation_xyz
x,y,z
-x,-y,z
x,-y,-z
-x,y,-z
-x,-y,-z
x,y,-z
-x,y,z
x,-y,z
loop_
_atom_site_type_symbol
_atom_site_label
_atom_site_fract_x
_atom_site_fract_y
_atom_site_fract_z
Si Si1 0.180170 0.699676 0.942905
Si Si2 0.821412 0.689871 0.706213
Si Si3 0.181988 0.500000 0.119883
Si Si4 0.676099 0.121459 0.120752
Si Si5 0.677333 0.121696 0.761969
Si Si6 0.827732 0.625636 0.500000
Si Si7 0.319795 0.500000 0.231573
Si Si8 0.677129 0.624759 0.604271
O O1 0.245900 0.602536 0.909798
O O2 0.221022 0.809703 0.916510
O O3 0.000000 0.689592 0.946257
O O4 0.250421 0.695554 0.000000
O O5 0.783507 0.806541 0.726531
O O6 0.728272 0.604168 0.738223
O O7 0.773186 0.684941 0.647243
O O8 0.000000 0.666296 0.711776
O O9 0.244925 0.500000 0.176528
O O10 0.000000 0.500000 0.122620
O O11 0.500000 0.149320 0.111121
O O12 0.719534 0.145340 0.179294
O O13 0.709475 0.000000 0.107556
O O14 0.500000 0.147726 0.751934
O O15 0.712126 0.000000 0.748601
O O16 0.830041 0.500000 0.500000
O O17 0.738273 0.666281 0.549871
O O18 0.000000 0.670828 0.500000
O O19 0.500000 0.500000 0.225554
O O20 0.500000 0.654476 0.609308
O O21 0.703400 0.500000 0.610590
#
# Coordination Sequence:
#
# PCOD8195698 Si02
#       8
#     8   8   4   8   8   4   4   8
#     4  10  21  36  54  76 102 132 166 205 252 307
#     4  12  23  34  52  79 111 142 177 222 268 314
#     4  10  21  38  56  74  99 133 170 209 254 305
#     4   9  19  36  56  77 101 130 165 208 257 307
#     4   9  19  37  58  78 104 139 177 216 262 317
#     4   9  17  29  47  71 104 143 182 225 270 315
#     4  12  24  37  53  76 107 140 174 213 262 321
#     4  10  19  32  50  73 105 145 187 224 263 315
#
# _framework density 17.970963000000001
#
# number of rings (size 3 to 8) (size 9 to 14) (size 15 to 20)
#    0.000    1.923    0.769    4.846    0.000    7.385 
#    0.000    3.077    0.000    1.385    0.000    0.538 
#    0.000    4.308    0.000    0.000    0.000    0.000 
#
# Total GULP energy -644971.515713 kJ/mol
# GULP energy per Si atom -12403.298379 kJ/mol
# Density = 1.793006 g / cm^3
# Si number density = 17.970963 Si / 1000 Ang^3
#
#
#
# Elastic Constant Matrix: (Units=GPa)
#
#
# Indices 1 2 3 4 5 6 
#
# 1 25.8256 11.0092 9.6124 0.0000 0.0000 0.0000
# 2 11.0092 75.3597 43.5763 0.0000 0.0000 0.0000
# 3 9.6124 43.5763 120.4176 0.0000 0.0000 0.0000
# 4 0.0000 0.0000 0.0000 21.0919 0.0000 0.0000
# 5 0.0000 0.0000 0.0000 0.0000 28.9409 0.0000
# 6 0.0000 0.0000 0.0000 0.0000 0.0000 26.2948
#
#
#
# Elastic Compliance Matrix: (Units=1/GPa)
#
#
# Indices 1 2 3 4 5 6 
#
# 1 0.041482 -0.005242 -0.001414 0.000000 0.000000 0.000000
# 2 -0.005242 0.017444 -0.005894 0.000000 0.000000 0.000000
# 3 -0.001414 -0.005894 0.010550 0.000000 0.000000 0.000000
# 4 0.000000 0.000000 0.000000 0.047412 0.000000 0.000000
# 5 0.000000 0.000000 0.000000 0.000000 0.034553 0.000000
# 6 0.000000 0.000000 0.000000 0.000000 0.000000 0.038030
#
#
# Mechanical properties :
#
#
# Convention : Reuss Voigt Hill
#
# Bulk Modulus (GPa) = 22.53512 38.88876 30.71194
# Shear Modulus (GPa) = 21.79938 25.75919 23.77928
#
# Velocity S-wave (km/s) = 3.48664 3.79011 3.64154
# Velocity P-wave (km/s) = 5.36431 6.39061 5.89982
#
# Compressibility (1/GPa) = 0.04437518
#
# Stress axis : x y z
#
# Youngs Moduli (GPa) = 24.10658 57.32730 94.78462
#
# Poissons Ratio (x) = 0.30053 0.13405
# Poissons Ratio (y) = 0.12637 0.55866
# Poissons Ratio (z) = 0.03409 0.33789
#
# Static dielectric constant tensor:
#      x y z
#    x 3.261000 0.000000 0.000000 
#    y 0.000000 3.191580 0.000000 
#    z 0.000000 0.000000 3.469730 
# 
# 
# High freq. dielectric constant tensor:
#      x y z
#    x 1.695880 0.000000 0.000000 
#    y 0.000000 1.676540 0.000000 
#    z 0.000000 0.000000 1.703080 
# 
# From -- ./inp_files/33277.got.cif
#   From: 2010.03.12/outbox.cif.g09.slc.cpg/sg47_17_cif.got.tgz:33277.got - 2010.04.14 03:12:58.
