data_PCOD8195326
_publ_section_title
;
Structure prediction by ZEFSAII (Michael W. Deem and Ramdas Pophale) SiO2 
 PCOD8195326
Probable space group: P M M M
;
_chemical_formula_sum "Si O2"
_cell_formula_units_Z 52
_cell_length_a 18.262602
_cell_length_b 18.740746
_cell_length_c 9.371885
_cell_angle_alpha 90.000000
_cell_angle_beta 90.000000
_cell_angle_gamma 90.000000
_cell_volume 3207.572489
_symmetry_space_group_name_H-M "P M M M"
_symmetry_group_IT_number 47
_symmetry_cell_setting 'orthorhombic'
loop_
_space_group_symop_operation_xyz
x,y,z
-x,-y,z
x,-y,-z
-x,y,-z
-x,-y,-z
x,y,-z
-x,y,z
x,-y,z
loop_
_atom_site_type_symbol
_atom_site_label
_atom_site_fract_x
_atom_site_fract_y
_atom_site_fract_z
Si Si1 0.581241 0.308699 0.836046
Si Si2 0.359278 0.918995 0.834870
Si Si3 0.802879 0.671844 0.666932
Si Si4 0.085797 0.581079 0.163405
Si Si5 0.279696 0.217116 0.836058
Si Si6 0.660849 0.419465 0.334277
Si Si7 0.500000 0.915482 0.339991
O O1 0.500000 0.279402 0.798904
O O2 0.640682 0.249052 0.796916
O O3 0.595388 0.380357 0.746883
O O4 0.587194 0.330693 0.000000
O O5 0.288920 0.867792 0.806367
O O6 0.427392 0.890527 0.742522
O O7 0.336644 0.000000 0.794828
O O8 0.383305 0.913441 0.000000
O O9 0.816323 0.683677 0.500000
O O10 0.875254 0.638557 0.735873
O O11 0.783257 0.748608 0.737168
O O12 0.737847 0.617373 0.700822
O O13 0.105211 0.500000 0.210378
O O14 0.000000 0.594400 0.180023
O O15 0.110295 0.593147 0.000000
O O16 0.258444 0.232350 0.000000
O O17 0.642605 0.415788 0.500000
O O18 0.666059 0.500000 0.278650
O O19 0.500000 0.883096 0.500000
O O20 0.500000 0.000000 0.345540
#
# Coordination Sequence:
#
# PCOD8195326 Si02
#       7
#     8   8   8   8   8   8   4
#     4   9  18  30  42  57  77 103 139 182 225 267
#     4   9  17  29  46  66  86 112 150 193 234 279
#     4  10  19  31  47  67  93 120 151 186 221 266
#     4   9  18  32  50  73 100 128 156 185 219 261
#     4   9  18  31  47  63  85 117 150 186 230 277
#     4   9  18  31  44  58  78 106 140 178 221 263
#     4   9  17  27  39  59  87 115 142 179 232 287
#
# _framework density 16.211638000000001
#
# number of rings (size 3 to 8) (size 9 to 14) (size 15 to 20)
#    0.000    2.846    0.000    1.615    1.077    4.308 
#    0.000    2.308    0.000    0.000    0.000    0.000 
#    0.000    0.615    0.000    7.077    0.000    2.000 
#
# Total GULP energy -644683.491185 kJ/mol
# GULP energy per Si atom -12397.759446 kJ/mol
# Density = 1.617474 g / cm^3
# Si number density = 16.211638 Si / 1000 Ang^3
#
#
#
# Elastic Constant Matrix: (Units=GPa)
#
#
# Indices 1 2 3 4 5 6 
#
# 1 56.8681 32.2048 36.8514 0.0000 0.0000 0.0000
# 2 32.2048 88.4767 41.5583 0.0000 0.0000 0.0000
# 3 36.8514 41.5583 72.3193 0.0000 0.0000 0.0000
# 4 0.0000 0.0000 0.0000 18.6901 0.0000 0.0000
# 5 0.0000 0.0000 0.0000 0.0000 22.4171 0.0000
# 6 0.0000 0.0000 0.0000 0.0000 0.0000 24.0537
#
#
#
# Elastic Compliance Matrix: (Units=1/GPa)
#
#
# Indices 1 2 3 4 5 6 
#
# 1 0.027619 -0.004715 -0.011364 0.000000 0.000000 0.000000
# 2 -0.004715 0.016286 -0.006956 0.000000 0.000000 0.000000
# 3 -0.011364 -0.006956 0.023616 0.000000 0.000000 0.000000
# 4 0.000000 0.000000 0.000000 0.053504 0.000000 0.000000
# 5 0.000000 0.000000 0.000000 0.000000 0.044609 0.000000
# 6 0.000000 0.000000 0.000000 0.000000 0.000000 0.041574
#
#
# Mechanical properties :
#
#
# Convention : Reuss Voigt Hill
#
# Bulk Modulus (GPa) = 46.62033 48.76590 47.69312
# Shear Modulus (GPa) = 19.19918 20.16882 19.68400
#
# Velocity S-wave (km/s) = 3.44508 3.53100 3.48830
# Velocity P-wave (km/s) = 6.68165 6.83886 6.76072
#
# Compressibility (1/GPa) = 0.02144987
#
# Stress axis : x y z
#
# Youngs Moduli (GPa) = 36.20710 61.40232 42.34493
#
# Poissons Ratio (x) = 0.28953 0.48121
# Poissons Ratio (y) = 0.17073 0.29455
# Poissons Ratio (z) = 0.41146 0.42712
#
# Static dielectric constant tensor:
#      x y z
#    x 2.798760 0.000000 0.000000 
#    y 0.000000 3.118330 0.000000 
#    z 0.000000 0.000000 3.114440 
# 
# 
# High freq. dielectric constant tensor:
#      x y z
#    x 1.588200 0.000000 0.000000 
#    y 0.000000 1.614600 0.000000 
#    z 0.000000 0.000000 1.626290 
# 
# From -- ./inp_files/9585.got.cif
#   From: 2010.03.12/outbox.cif.g09.slc.cpg/sg47_5_cif.got.tgz:9585.got - 2010.04.14 03:12:58.
