data_PCOD8195248
_publ_section_title
;
Structure prediction by ZEFSAII (Michael W. Deem and Ramdas Pophale) SiO2 
 PCOD8195248
Probable space group: P M M M
;
_chemical_formula_sum "Si O2"
_cell_formula_units_Z 64
_cell_length_a 23.944779
_cell_length_b 9.205652
_cell_length_c 15.641396
_cell_angle_alpha 90.000000
_cell_angle_beta 90.000000
_cell_angle_gamma 90.000000
_cell_volume 3447.790731
_symmetry_space_group_name_H-M "P M M M"
_symmetry_group_IT_number 47
_symmetry_cell_setting 'orthorhombic'
loop_
_space_group_symop_operation_xyz
x,y,z
-x,-y,z
x,-y,-z
-x,y,-z
-x,-y,-z
x,y,-z
-x,y,z
x,-y,z
loop_
_atom_site_type_symbol
_atom_site_label
_atom_site_fract_x
_atom_site_fract_y
_atom_site_fract_z
Si Si1 0.665350 0.666560 0.094407
Si Si2 0.324877 0.670954 0.407461
Si Si3 0.935348 0.168007 0.097928
Si Si4 0.742409 0.673071 0.246572
Si Si5 0.937096 0.327434 0.405309
Si Si6 0.438354 0.333936 0.327721
Si Si7 0.562680 0.169421 0.153434
Si Si8 0.868791 0.326906 0.756736
O O1 0.651728 0.500000 0.116722
O O2 0.708916 0.730580 0.163518
O O3 0.607244 0.753121 0.092897
O O4 0.692308 0.681123 0.000000
O O5 0.307052 0.735991 0.500000
O O6 0.314993 0.500000 0.408137
O O7 0.287339 0.737923 0.331499
O O8 0.390573 0.706068 0.395535
O O9 0.898896 0.267140 0.159613
O O10 0.000000 0.204109 0.114168
O O11 0.923167 0.000000 0.117628
O O12 0.919414 0.204522 0.000000
O O13 0.742095 0.500000 0.247931
O O14 0.805455 0.731197 0.243094
O O15 0.916863 0.274850 0.500000
O O16 0.936323 0.500000 0.403170
O O17 0.897408 0.266379 0.330308
O O18 0.000000 0.271015 0.388483
O O19 0.500000 0.312387 0.369114
O O20 0.430712 0.500000 0.295891
O O21 0.430188 0.228879 0.248407
O O22 0.500000 0.200439 0.119075
O O23 0.575658 0.000000 0.154532
O O24 0.871735 0.500000 0.760383
#
# Coordination Sequence:
#
# PCOD8195248 Si02
#       8
#     8   8   8   8   8   8   8   8
#     4  10  20  35  54  71  93 130 169 203 245 300
#     4   9  16  27  47  74 102 131 164 206 253 297
#     4   9  19  36  55  75 103 137 168 203 254 311
#     4   9  18  32  47  71 105 133 164 208 251 288
#     4   8  14  25  42  69 106 139 164 197 244 293
#     4   9  16  28  49  74 100 130 164 202 246 300
#     4  10  20  33  51  75 101 126 155 200 257 306
#     4  10  19  30  51  79 104 134 173 215 252 289
#
# _framework density 18.562612000000001
#
# number of rings (size 3 to 8) (size 9 to 14) (size 15 to 20)
#    0.000    2.750    1.250    1.500    0.000    3.500 
#    0.000    7.500    0.000    0.750    0.000    3.500 
#    0.000    0.000    0.000    0.000    0.000    0.000 
#
# Total GULP energy -793265.679051 kJ/mol
# GULP energy per Si atom -12394.776235 kJ/mol
# Density = 1.852036 g / cm^3
# Si number density = 18.562612 Si / 1000 Ang^3
#
#
#
# Elastic Constant Matrix: (Units=GPa)
#
#
# Indices 1 2 3 4 5 6 
#
# 1 135.6071 29.2737 85.1675 0.0000 0.0000 0.0000
# 2 29.2737 30.9674 26.2622 0.0000 0.0000 0.0000
# 3 85.1675 26.2622 150.4233 0.0000 0.0000 0.0000
# 4 0.0000 0.0000 0.0000 8.8310 0.0000 0.0000
# 5 0.0000 0.0000 0.0000 0.0000 16.3487 0.0000
# 6 0.0000 0.0000 0.0000 0.0000 0.0000 14.3375
#
#
#
# Elastic Compliance Matrix: (Units=1/GPa)
#
#
# Indices 1 2 3 4 5 6 
#
# 1 0.012575 -0.006866 -0.005921 0.000000 0.000000 0.000000
# 2 -0.006866 0.041653 -0.003385 0.000000 0.000000 0.000000
# 3 -0.005921 -0.003385 0.010591 0.000000 0.000000 0.000000
# 4 0.000000 0.000000 0.000000 0.113237 0.000000 0.000000
# 5 0.000000 0.000000 0.000000 0.000000 0.061167 0.000000
# 6 0.000000 0.000000 0.000000 0.000000 0.000000 0.069747
#
#
# Mechanical properties :
#
#
# Convention : Reuss Voigt Hill
#
# Bulk Modulus (GPa) = 30.79226 66.48942 48.64084
# Shear Modulus (GPa) = 14.19895 19.65643 16.92769
#
# Velocity S-wave (km/s) = 2.76872 3.25764 3.02308
# Velocity P-wave (km/s) = 5.18126 7.07435 6.20048
#
# Compressibility (1/GPa) = 0.03247570
#
# Stress axis : x y z
#
# Youngs Moduli (GPa) = 79.52187 24.00801 94.41689
#
# Poissons Ratio (x) = 0.16484 0.55906
# Poissons Ratio (y) = 0.54599 0.31958
# Poissons Ratio (z) = 0.47086 0.08126
#
# Static dielectric constant tensor:
#      x y z
#    x 3.601140 0.000000 0.000000 
#    y 0.000000 2.953970 0.000000 
#    z 0.000000 0.000000 3.571340 
# 
# 
# High freq. dielectric constant tensor:
#      x y z
#    x 1.721110 0.000000 0.000000 
#    y 0.000000 1.667490 0.000000 
#    z 0.000000 0.000000 1.726840 
# 
# From -- ./inp_files/25604.got.cif
#   From: 2010.03.12/outbox.cif.g09.slc.cpg/sg47_13_cif.got.tgz:25604.got - 2010.04.14 03:12:58.
