data_PCOD8195007
_publ_section_title
;
Structure prediction by ZEFSAII (Michael W. Deem and Ramdas Pophale) SiO2 
 PCOD8195007
Probable space group: P M M M
;
_chemical_formula_sum "Si O2"
_cell_formula_units_Z 64
_cell_length_a 9.372857
_cell_length_b 14.186884
_cell_length_c 30.774733
_cell_angle_alpha 90.000000
_cell_angle_beta 90.000000
_cell_angle_gamma 90.000000
_cell_volume 4092.166564
_symmetry_space_group_name_H-M "P M M M"
_symmetry_group_IT_number 47
_symmetry_cell_setting 'orthorhombic'
loop_
_space_group_symop_operation_xyz
x,y,z
-x,-y,z
x,-y,-z
-x,y,-z
-x,-y,-z
x,y,-z
-x,y,z
x,-y,z
loop_
_atom_site_type_symbol
_atom_site_label
_atom_site_fract_x
_atom_site_fract_y
_atom_site_fract_z
Si Si1 0.665158 0.393150 0.258986
Si Si2 0.668938 0.602042 0.160917
Si Si3 0.660872 0.112011 0.452341
Si Si4 0.167943 0.777470 0.287222
Si Si5 0.836785 0.109042 0.050180
Si Si6 0.166974 0.891523 0.371026
Si Si7 0.164287 0.890323 0.201567
Si Si8 0.669994 0.202811 0.124288
O O1 0.500000 0.364297 0.261570
O O2 0.687735 0.500000 0.275409
O O3 0.724366 0.382297 0.209875
O O4 0.755516 0.323585 0.289201
O O5 0.500000 0.598391 0.162875
O O6 0.725648 0.500000 0.143240
O O7 0.719541 0.688487 0.130943
O O8 0.712713 0.148239 0.500000
O O9 0.500000 0.146480 0.443869
O O10 0.759558 0.152544 0.413946
O O11 0.668582 0.000000 0.452003
O O12 0.220635 0.835686 0.328872
O O13 0.213985 0.833894 0.244105
O O14 0.000000 0.761510 0.288433
O O15 0.729145 0.172519 0.077657
O O16 0.000000 0.132240 0.062772
O O17 0.804670 0.000000 0.059884
O O18 0.808875 0.132476 0.000000
O O19 0.000000 0.880439 0.377888
O O20 0.210534 0.000000 0.363987
O O21 0.263667 0.862529 0.161420
O O22 0.000000 0.867997 0.189645
O O23 0.184770 0.000000 0.211737
O O24 0.500000 0.191728 0.125338
#
# Coordination Sequence:
#
# PCOD8195007 Si02
#       8
#     8   8   8   8   8   8   8   8
#     4   9  17  31  49  65  85 116 151 186 226 269
#     4   8  15  29  47  66  90 118 145 177 221 268
#     4   8  14  25  40  58  81 110 147 191 233 268
#     4  10  19  30  44  63  89 120 154 190 221 255
#     4   9  19  36  54  69  90 123 154 177 213 268
#     4   9  17  28  41  59  86 121 157 188 222 265
#     4  10  20  32  44  60  89 128 158 178 210 260
#     4  11  20  30  49  74  94 113 146 190 227 257
#
# _framework density 15.639637
#
# number of rings (size 3 to 8) (size 9 to 14) (size 15 to 20)
#    0.000    2.750    1.250    2.625    0.000    4.750 
#    0.000    1.875    0.000    4.125    0.000    2.625 
#    0.000    0.500    0.000    5.500    0.000    4.250 
#
# Total GULP energy -793391.489342 kJ/mol
# GULP energy per Si atom -12396.742021 kJ/mol
# Density = 1.560404 g / cm^3
# Si number density = 15.639637 Si / 1000 Ang^3
#
#
#
# Elastic Constant Matrix: (Units=GPa)
#
#
# Indices 1 2 3 4 5 6 
#
# 1 48.1938 36.1280 42.8483 0.0000 0.0000 0.0000
# 2 36.1280 86.2747 46.9110 0.0000 0.0000 0.0000
# 3 42.8483 46.9110 102.3585 0.0000 0.0000 0.0000
# 4 0.0000 0.0000 0.0000 9.6502 0.0000 0.0000
# 5 0.0000 0.0000 0.0000 0.0000 26.1055 0.0000
# 6 0.0000 0.0000 0.0000 0.0000 0.0000 22.5094
#
#
#
# Elastic Compliance Matrix: (Units=1/GPa)
#
#
# Indices 1 2 3 4 5 6 
#
# 1 0.038375 -0.009769 -0.011587 0.000000 0.000000 0.000000
# 2 -0.009769 0.017925 -0.004126 0.000000 0.000000 0.000000
# 3 -0.011587 -0.004126 0.016511 0.000000 0.000000 0.000000
# 4 0.000000 0.000000 0.000000 0.103625 0.000000 0.000000
# 5 0.000000 0.000000 0.000000 0.000000 0.038306 0.000000
# 6 0.000000 0.000000 0.000000 0.000000 0.000000 0.044426
#
#
# Mechanical properties :
#
#
# Convention : Reuss Voigt Hill
#
# Bulk Modulus (GPa) = 45.77266 54.28907 50.03087
# Shear Modulus (GPa) = 15.75236 19.04899 17.40068
#
# Velocity S-wave (km/s) = 3.17710 3.49376 3.33919
# Velocity P-wave (km/s) = 6.54135 7.14584 6.85026
#
# Compressibility (1/GPa) = 0.02184710
#
# Stress axis : x y z
#
# Youngs Moduli (GPa) = 26.05890 55.78777 60.56707
#
# Poissons Ratio (x) = 0.54501 0.70177
# Poissons Ratio (y) = 0.25458 0.24987
# Poissons Ratio (z) = 0.30194 0.23015
#
# Static dielectric constant tensor:
#      x y z
#    x 2.882520 0.000000 0.000000 
#    y 0.000000 3.039640 0.000000 
#    z 0.000000 0.000000 3.051940 
# 
# 
# High freq. dielectric constant tensor:
#      x y z
#    x 1.591000 0.000000 0.000000 
#    y 0.000000 1.582280 0.000000 
#    z 0.000000 0.000000 1.589810 
# 
# From -- ./inp_files/8327.got.cif
#   From: 2010.03.12/outbox.cif.g09.slc.cpg/sg47_5_cif.got.tgz:8327.got - 2010.04.14 03:12:58.
