data_PCOD8195853
_publ_section_title
;
Structure prediction by ZEFSAII (Michael W. Deem and Ramdas Pophale) SiO2 
 PCOD8195853
Probable space group: P M M M
;
_chemical_formula_sum "Si O2"
_cell_formula_units_Z 48
_cell_length_a 7.687844
_cell_length_b 8.945574
_cell_length_c 34.548765
_cell_angle_alpha 90.000000
_cell_angle_beta 90.000000
_cell_angle_gamma 90.000000
_cell_volume 2375.993796
_symmetry_space_group_name_H-M "P M M M"
_symmetry_group_IT_number 47
_symmetry_cell_setting 'orthorhombic'
loop_
_space_group_symop_operation_xyz
x,y,z
-x,-y,z
x,-y,-z
-x,y,-z
-x,-y,-z
x,y,-z
-x,y,z
x,-y,z
loop_
_atom_site_type_symbol
_atom_site_label
_atom_site_fract_x
_atom_site_fract_y
_atom_site_fract_z
Si Si1 0.000000 0.321976 0.818918
Si Si2 0.000000 0.178614 0.097929
Si Si3 0.703884 0.331634 0.309310
Si Si4 0.297705 0.175985 0.769437
Si Si5 0.793166 0.667425 0.457613
Si Si6 0.306699 0.822721 0.043043
Si Si7 0.199814 0.162580 0.615215
O O1 0.823832 0.259514 0.799916
O O2 0.000000 0.500000 0.816212
O O3 0.000000 0.268157 0.862663
O O4 0.831603 0.234594 0.074214
O O5 0.000000 0.000000 0.105154
O O6 0.500000 0.328976 0.315228
O O7 0.771915 0.500000 0.302128
O O8 0.758933 0.229721 0.273137
O O9 0.788233 0.268626 0.347890
O O10 0.500000 0.216074 0.777875
O O11 0.265131 0.000000 0.772497
O O12 0.738351 0.731446 0.500000
O O13 0.719949 0.500000 0.453021
O O14 0.710423 0.765433 0.422885
O O15 0.000000 0.663712 0.454290
O O16 0.500000 0.768897 0.055426
O O17 0.299501 0.000000 0.041582
O O18 0.261703 0.761235 0.000000
O O19 0.000000 0.139572 0.605312
O O20 0.286335 0.000000 0.623486
#
# Coordination Sequence:
#
# PCOD8195853 Si02
#       7
#     4   4   8   8   8   8   8
#     4  12  26  41  59  85 120 162 201 241 292 354
#     4  10  19  32  52  80 112 148 194 245 293 342
#     4  10  21  37  57  80 106 137 172 213 268 331
#     4  10  22  42  66  88 112 145 189 243 297 349
#     4   8  14  26  44  66  95 131 169 210 257 310
#     4   8  14  26  48  80 114 147 188 242 300 349
#     4  10  20  31  47  75 106 136 171 212 257 310
#
# _framework density 20.202072999999999
#
# number of rings (size 3 to 8) (size 9 to 14) (size 15 to 20)
#    0.000    2.500    0.000    3.500    1.167    5.000 
#    0.000    3.333    0.000    1.500    0.000    4.667 
#    0.000    0.000    0.000    0.000    0.000    0.000 
#
# Total GULP energy -594980.754019 kJ/mol
# GULP energy per Si atom -12395.432375 kJ/mol
# Density = 2.015609 g / cm^3
# Si number density = 20.202073 Si / 1000 Ang^3
#
#
#
# Elastic Constant Matrix: (Units=GPa)
#
#
# Indices 1 2 3 4 5 6 
#
# 1 80.8244 41.4349 67.6883 0.0000 0.0000 0.0000
# 2 41.4349 112.0800 63.1442 0.0000 0.0000 0.0000
# 3 67.6883 63.1442 172.3938 0.0000 0.0000 0.0000
# 4 0.0000 0.0000 0.0000 15.1197 0.0000 0.0000
# 5 0.0000 0.0000 0.0000 0.0000 63.4235 0.0000
# 6 0.0000 0.0000 0.0000 0.0000 0.0000 16.4085
#
#
#
# Elastic Compliance Matrix: (Units=1/GPa)
#
#
# Indices 1 2 3 4 5 6 
#
# 1 0.019557 -0.003659 -0.006338 0.000000 0.000000 0.000000
# 2 -0.003659 0.011927 -0.002932 0.000000 0.000000 0.000000
# 3 -0.006338 -0.002932 0.009363 0.000000 0.000000 0.000000
# 4 0.000000 0.000000 0.000000 0.066139 0.000000 0.000000
# 5 0.000000 0.000000 0.000000 0.000000 0.015767 0.000000
# 6 0.000000 0.000000 0.000000 0.000000 0.000000 0.060944
#
#
# Mechanical properties :
#
#
# Convention : Reuss Voigt Hill
#
# Bulk Modulus (GPa) = 66.71987 78.87033 72.79510
# Shear Modulus (GPa) = 23.30447 31.85904 27.58176
#
# Velocity S-wave (km/s) = 3.40011 3.97548 3.69900
# Velocity P-wave (km/s) = 6.96507 7.75874 7.37259
#
# Compressibility (1/GPa) = 0.01498804
#
# Stress axis : x y z
#
# Youngs Moduli (GPa) = 51.13382 83.84610 106.80034
#
# Poissons Ratio (x) = 0.30678 0.67695
# Poissons Ratio (y) = 0.18709 0.31312
# Poissons Ratio (z) = 0.32411 0.24582
#
# Static dielectric constant tensor:
#      x y z
#    x 3.670490 0.000000 0.000000 
#    y 0.000000 3.729770 0.000000 
#    z 0.000000 0.000000 3.785960 
# 
# 
# High freq. dielectric constant tensor:
#      x y z
#    x 1.778780 0.000000 0.000000 
#    y 0.000000 1.771350 0.000000 
#    z 0.000000 0.000000 1.793400 
# 
# From -- ./inp_files/34134.got.cif
#   From: 2010.03.12/outbox.cif.g09.slc.cpg/sg47_18_cif.got.tgz:34134.got - 2010.04.14 03:12:58.
