data_PCOD8195218
_publ_section_title
;
Structure prediction by ZEFSAII (Michael W. Deem and Ramdas Pophale) SiO2 
 PCOD8195218
Probable space group: P M M M
;
_chemical_formula_sum "Si O2"
_cell_formula_units_Z 64
_cell_length_a 27.943775
_cell_length_b 13.772511
_cell_length_c 9.374846
_cell_angle_alpha 90.000000
_cell_angle_beta 90.000000
_cell_angle_gamma 90.000000
_cell_volume 3607.965250
_symmetry_space_group_name_H-M "P M M M"
_symmetry_group_IT_number 47
_symmetry_cell_setting 'orthorhombic'
loop_
_space_group_symop_operation_xyz
x,y,z
-x,-y,z
x,-y,-z
-x,y,-z
-x,-y,-z
x,y,-z
-x,y,z
x,-y,z
loop_
_atom_site_type_symbol
_atom_site_label
_atom_site_fract_x
_atom_site_fract_y
_atom_site_fract_z
Si Si1 0.443138 0.394172 0.840552
Si Si2 0.055538 0.611331 0.162973
Si Si3 0.819540 0.887913 0.834812
Si Si4 0.553325 0.214747 0.336145
Si Si5 0.276465 0.225090 0.166494
Si Si6 0.353190 0.109980 0.335369
Si Si7 0.772003 0.387812 0.334846
Si Si8 0.132024 0.725087 0.666423
O O1 0.500000 0.393953 0.838410
O O2 0.424579 0.500000 0.787571
O O3 0.424051 0.309114 0.739979
O O4 0.424190 0.374626 0.000000
O O5 0.065180 0.500000 0.206470
O O6 0.084015 0.681681 0.267521
O O7 0.000000 0.636675 0.180564
O O8 0.071899 0.628783 0.000000
O O9 0.766103 0.850644 0.804034
O O10 0.857036 0.828272 0.739844
O O11 0.822371 0.000000 0.789287
O O12 0.832939 0.873234 0.000000
O O13 0.549691 0.243214 0.500000
O O14 0.500000 0.186369 0.278652
O O15 0.589974 0.126545 0.310969
O O16 0.324075 0.181815 0.234995
O O17 0.265378 0.328490 0.238931
O O18 0.285104 0.242569 0.000000
O O19 0.339441 0.129602 0.500000
O O20 0.341694 0.000000 0.291634
O O21 0.758699 0.372235 0.500000
O O22 0.769099 0.500000 0.290289
O O23 0.825485 0.350777 0.303727
O O24 0.123939 0.743554 0.500000
#
# Coordination Sequence:
#
# PCOD8195218 Si02
#       8
#     8   8   8   8   8   8   8   8
#     4   8  14  26  45  68  93 120 148 180 222 270
#     4   9  18  32  49  70  99 137 178 215 251 296
#     4   9  18  33  52  73  98 129 165 205 249 297
#     4   9  18  32  50  73  98 123 156 197 236 278
#     4  10  20  34  53  77 102 127 161 204 245 288
#     4  10  21  36  53  72  96 128 162 196 241 295
#     4   9  18  33  52  75 106 140 169 199 240 294
#     4  10  19  30  48  76 106 134 167 209 256 301
#
# _framework density 17.738530000000001
#
# number of rings (size 3 to 8) (size 9 to 14) (size 15 to 20)
#    0.000    2.750    0.000    2.250    0.000    4.250 
#    0.000    3.750    0.000    1.125    0.000    5.250 
#    0.000    0.000    0.000    0.000    0.000    0.000 
#
# Total GULP energy -793542.548647 kJ/mol
# GULP energy per Si atom -12399.102323 kJ/mol
# Density = 1.769816 g / cm^3
# Si number density = 17.738530 Si / 1000 Ang^3
#
#
#
# Elastic Constant Matrix: (Units=GPa)
#
#
# Indices 1 2 3 4 5 6 
#
# 1 72.6580 47.5718 45.7044 0.0000 0.0000 0.0000
# 2 47.5718 124.9012 60.0962 0.0000 0.0000 0.0000
# 3 45.7044 60.0962 83.4034 0.0000 0.0000 0.0000
# 4 0.0000 0.0000 0.0000 23.4922 0.0000 0.0000
# 5 0.0000 0.0000 0.0000 0.0000 25.6787 0.0000
# 6 0.0000 0.0000 0.0000 0.0000 0.0000 26.7349
#
#
#
# Elastic Compliance Matrix: (Units=1/GPa)
#
#
# Indices 1 2 3 4 5 6 
#
# 1 0.022229 -0.003988 -0.009308 0.000000 0.000000 0.000000
# 2 -0.003988 0.012971 -0.007160 0.000000 0.000000 0.000000
# 3 -0.009308 -0.007160 0.022250 0.000000 0.000000 0.000000
# 4 0.000000 0.000000 0.000000 0.042567 0.000000 0.000000
# 5 0.000000 0.000000 0.000000 0.000000 0.038943 0.000000
# 6 0.000000 0.000000 0.000000 0.000000 0.000000 0.037404
#
#
# Mechanical properties :
#
#
# Convention : Reuss Voigt Hill
#
# Bulk Modulus (GPa) = 60.47051 65.30084 62.88567
# Shear Modulus (GPa) = 22.44273 23.68716 23.06494
#
# Velocity S-wave (km/s) = 3.56082 3.65821 3.60984
# Velocity P-wave (km/s) = 7.14632 7.39839 7.27345
#
# Compressibility (1/GPa) = 0.01653699
#
# Stress axis : x y z
#
# Youngs Moduli (GPa) = 44.98590 77.09766 44.94383
#
# Poissons Ratio (x) = 0.30747 0.41833
# Poissons Ratio (y) = 0.17941 0.32182
# Poissons Ratio (z) = 0.41872 0.55206
#
# Static dielectric constant tensor:
#      x y z
#    x 3.071430 0.000000 0.000000 
#    y 0.000000 3.380550 0.000000 
#    z 0.000000 0.000000 3.311030 
# 
# 
# High freq. dielectric constant tensor:
#      x y z
#    x 1.665930 0.000000 0.000000 
#    y 0.000000 1.684120 0.000000 
#    z 0.000000 0.000000 1.686730 
# 
# From -- ./inp_files/14180.got.cif
#   From: 2010.03.12/outbox.cif.g09.slc.cpg/sg47_8_cif.got.tgz:14180.got - 2010.04.14 03:12:58.
