data_PCOD8195899
_publ_section_title
;
Structure prediction by ZEFSAII (Michael W. Deem and Ramdas Pophale) SiO2 
 PCOD8195899
Probable space group: P M M M
;
_chemical_formula_sum "Si O2"
_cell_formula_units_Z 56
_cell_length_a 20.554642
_cell_length_b 14.926978
_cell_length_c 8.858781
_cell_angle_alpha 90.000000
_cell_angle_beta 90.000000
_cell_angle_gamma 90.000000
_cell_volume 2718.039572
_symmetry_space_group_name_H-M "P M M M"
_symmetry_group_IT_number 47
_symmetry_cell_setting 'orthorhombic'
loop_
_space_group_symop_operation_xyz
x,y,z
-x,-y,z
x,-y,-z
-x,y,-z
-x,-y,-z
x,y,-z
-x,y,z
x,-y,z
loop_
_atom_site_type_symbol
_atom_site_label
_atom_site_fract_x
_atom_site_fract_y
_atom_site_fract_z
Si Si1 0.168179 0.352387 0.671151
Si Si2 0.923483 0.000000 0.170024
Si Si3 0.926764 0.500000 0.319166
Si Si4 0.311729 0.395631 0.677938
Si Si5 0.150952 0.845966 0.671114
Si Si6 0.727316 0.100219 0.167685
Si Si7 0.571542 0.717351 0.825211
Si Si8 0.404707 0.100330 0.323847
O O1 0.179266 0.384198 0.500000
O O2 0.114520 0.416462 0.746272
O O3 0.241505 0.360081 0.742020
O O4 0.130971 0.257346 0.676337
O O5 0.902270 0.910205 0.255802
O O6 0.000000 0.000000 0.167325
O O7 0.895010 0.000000 0.000000
O O8 0.931487 0.500000 0.500000
O O9 0.000000 0.500000 0.251485
O O10 0.316495 0.381289 0.500000
O O11 0.320205 0.500000 0.722512
O O12 0.371086 0.337993 0.746076
O O13 0.164424 0.878612 0.500000
O O14 0.215488 0.839724 0.770595
O O15 0.671181 0.107425 0.289704
O O16 0.755386 0.000000 0.160580
O O17 0.704629 0.131382 0.000000
O O18 0.500000 0.671778 0.800643
O O19 0.561952 0.819210 0.765631
O O20 0.589548 0.721892 0.000000
O O21 0.417558 0.114213 0.500000
O O22 0.429633 0.000000 0.274867
#
# Coordination Sequence:
#
# PCOD8195899 Si02
#       8
#     8   4   4   8   8   8   8   8
#     4   9  18  33  55  89 124 153 190 240 297 355
#     4  11  25  43  57  73 109 163 212 251 302 367
#     4   9  16  30  54  84 122 159 186 224 289 363
#     4  10  20  38  66  93 121 157 200 251 307 369
#     4  11  21  33  56  86 117 151 195 251 300 349
#     4  10  19  32  53  81 115 151 191 236 288 351
#     4  11  25  42  59  84 121 162 205 256 313 374
#     4  10  21  37  59  87 119 156 201 251 302 357
#
# _framework density 20.603085
#
# number of rings (size 3 to 8) (size 9 to 14) (size 15 to 20)
#    0.000    1.857    1.429    2.786    0.000    5.714 
#    0.000    5.000    0.000    0.000    0.000    0.000 
#    0.000    4.000    0.000    0.000    0.000    0.000 
#
# Total GULP energy -693841.480301 kJ/mol
# GULP energy per Si atom -12390.026434 kJ/mol
# Density = 2.055619 g / cm^3
# Si number density = 20.603085 Si / 1000 Ang^3
#
#
#
# Elastic Constant Matrix: (Units=GPa)
#
#
# Indices 1 2 3 4 5 6 
#
# 1 139.7607 61.7878 34.0568 0.0000 0.0000 0.0000
# 2 61.7878 125.7265 40.2471 0.0000 0.0000 0.0000
# 3 34.0568 40.2471 73.4177 0.0000 0.0000 0.0000
# 4 0.0000 0.0000 0.0000 9.7966 0.0000 0.0000
# 5 0.0000 0.0000 0.0000 0.0000 20.5672 0.0000
# 6 0.0000 0.0000 0.0000 0.0000 0.0000 -1.5681
#
#
#
# Elastic Compliance Matrix: (Units=1/GPa)
#
#
# Indices 1 2 3 4 5 6 
#
# 1 0.009431 -0.003923 -0.002225 0.000000 0.000000 0.000000
# 2 -0.003923 0.011278 -0.004363 0.000000 0.000000 0.000000
# 3 -0.002225 -0.004363 0.017044 0.000000 0.000000 0.000000
# 4 0.000000 0.000000 0.000000 0.102076 0.000000 0.000000
# 5 0.000000 0.000000 0.000000 0.000000 0.048621 0.000000
# 6 0.000000 0.000000 0.000000 0.000000 0.000000 -0.637722
#
#
# Mechanical properties :
#
#
# Convention : Reuss Voigt Hill
#
# Bulk Modulus (GPa) = 59.76094 67.89868 63.82981
# Shear Modulus (GPa) = -11.82950 19.28003 3.72526
#
# Velocity S-wave (km/s) = -2.39877 3.06238 1.34612
# Velocity P-wave (km/s) = 4.62565 6.74769 5.78481
#
# Compressibility (1/GPa) = 0.01673334
#
# Stress axis : x y z
#
# Youngs Moduli (GPa) = 106.02786 88.66544 58.67049
#
# Poissons Ratio (x) = 0.34783 0.13051
# Poissons Ratio (y) = 0.41594 0.25598
# Poissons Ratio (z) = 0.23586 0.38684
#
# Static dielectric constant tensor:
#      x y z
#    x 3.765570 0.000000 0.000000 
#    y 0.000000 3.881090 0.000000 
#    z 0.000000 0.000000 3.622670 
# 
# 
# High freq. dielectric constant tensor:
#      x y z
#    x 1.809020 0.000000 0.000000 
#    y 0.000000 1.810350 0.000000 
#    z 0.000000 0.000000 1.782630 
# 
# From -- ./inp_files/11340.got.cif
#   From: 2010.03.12/outbox.cif.g09.slc.cpg/sg47_6_cif.got.tgz:11340.got - 2010.04.14 03:12:58.
