data_PCOD8195238
_publ_section_title
;
Structure prediction by ZEFSAII (Michael W. Deem and Ramdas Pophale) SiO2 
 PCOD8195238
Probable space group: P M M M
;
_chemical_formula_sum "Si O2"
_cell_formula_units_Z 64
_cell_length_a 23.658241
_cell_length_b 9.578038
_cell_length_c 15.550720
_cell_angle_alpha 90.000000
_cell_angle_beta 90.000000
_cell_angle_gamma 90.000000
_cell_volume 3523.785864
_symmetry_space_group_name_H-M "P M M M"
_symmetry_group_IT_number 47
_symmetry_cell_setting 'orthorhombic'
loop_
_space_group_symop_operation_xyz
x,y,z
-x,-y,z
x,-y,-z
-x,y,-z
-x,-y,-z
x,y,-z
-x,y,z
x,-y,z
loop_
_atom_site_type_symbol
_atom_site_label
_atom_site_fract_x
_atom_site_fract_y
_atom_site_fract_z
Si Si1 0.664352 0.658761 0.095563
Si Si2 0.335648 0.658761 0.404437
Si Si3 0.936933 0.165576 0.904461
Si Si4 0.744283 0.664717 0.250000
Si Si5 0.936933 0.165576 0.404461
Si Si6 0.436331 0.160910 0.349978
Si Si7 0.563669 0.160910 0.150022
Si Si8 0.859037 0.166876 0.750000
O O1 0.647610 0.500000 0.116613
O O2 0.709627 0.710705 0.165369
O O3 0.607118 0.747044 0.096764
O O4 0.691011 0.672847 0.000000
O O5 0.308989 0.672847 0.500000
O O6 0.352390 0.500000 0.383387
O O7 0.290373 0.710705 0.334631
O O8 0.392882 0.747044 0.403236
O O9 0.893000 0.220457 0.833801
O O10 0.000000 0.223068 0.884285
O O11 0.938878 0.000000 0.900491
O O12 0.917817 0.214939 0.000000
O O13 0.758548 0.500000 0.250000
O O14 0.799990 0.755992 0.250000
O O15 0.917817 0.214939 0.500000
O O16 0.893000 0.220458 0.333801
O O17 0.000000 0.223068 0.384285
O O18 0.938878 0.000000 0.400491
O O19 0.500000 0.196720 0.379884
O O20 0.429130 0.195026 0.250000
O O21 0.422882 0.000000 0.368704
O O22 0.500000 0.196720 0.120116
O O23 0.577118 0.000000 0.131296
O O24 0.850137 0.000000 0.750000
#
# Coordination Sequence:
#
# PCOD8195238 Si02
#       8
#     8   8   8   8   8   8   8   8
#     4  10  21  37  56  75  96 130 176 216 251 299
#     4  10  21  37  56  75  96 130 176 216 251 299
#     4   8  14  26  46  74 106 133 158 197 248 294
#     4  10  22  39  52  68 100 137 169 210 259 298
#     4   8  14  26  46  74 106 133 158 197 248 294
#     4   9  18  33  54  80 108 134 160 198 254 314
#     4   9  18  33  54  80 108 134 160 198 254 314
#     4  10  19  30  50  77  99 126 169 211 241 288
#
# _framework density 18.162285000000001
#
# number of rings (size 3 to 8) (size 9 to 14) (size 15 to 20)
#    0.000    2.750    1.250    1.875    0.000    5.000 
#    0.000    3.750    0.000    1.500    0.000    1.750 
#    0.000    0.000    0.000    0.000    0.000    0.000 
#
# Total GULP energy -793412.931405 kJ/mol
# GULP energy per Si atom -12397.077053 kJ/mol
# Density = 1.812095 g / cm^3
# Si number density = 18.162285 Si / 1000 Ang^3
#
#
#
# Elastic Constant Matrix: (Units=GPa)
#
#
# Indices 1 2 3 4 5 6 
#
# 1 134.4677 47.7769 83.2240 0.0000 0.0000 0.0000
# 2 47.7769 40.2819 36.1671 0.0000 0.0000 0.0000
# 3 83.2240 36.1671 140.1999 0.0000 0.0000 0.0000
# 4 0.0000 0.0000 0.0000 15.9545 0.0000 0.0000
# 5 0.0000 0.0000 0.0000 0.0000 13.9632 0.0000
# 6 0.0000 0.0000 0.0000 0.0000 0.0000 -18.7886
#
#
#
# Elastic Compliance Matrix: (Units=1/GPa)
#
#
# Indices 1 2 3 4 5 6 
#
# 1 0.015948 -0.013555 -0.005970 0.000000 0.000000 0.000000
# 2 -0.013555 0.043829 -0.003260 0.000000 0.000000 0.000000
# 3 -0.005970 -0.003260 0.011518 0.000000 0.000000 0.000000
# 4 0.000000 0.000000 0.000000 0.062678 0.000000 0.000000
# 5 0.000000 0.000000 0.000000 0.000000 0.071617 0.000000
# 6 0.000000 0.000000 0.000000 0.000000 0.000000 -0.053224
#
#
# Mechanical properties :
#
#
# Convention : Reuss Voigt Hill
#
# Bulk Modulus (GPa) = 38.87374 72.14283 55.50828
# Shear Modulus (GPa) = 24.21174 12.07790 18.14482
#
# Velocity S-wave (km/s) = 3.65509 2.58156 3.16419
# Velocity P-wave (km/s) = 6.26602 6.97806 6.63160
#
# Compressibility (1/GPa) = 0.02572431
#
# Stress axis : x y z
#
# Youngs Moduli (GPa) = 62.70470 22.81579 86.82393
#
# Poissons Ratio (x) = 0.30927 0.51834
# Poissons Ratio (y) = 0.84996 0.28307
# Poissons Ratio (z) = 0.37435 0.07438
#
# Static dielectric constant tensor:
#      x y z
#    x 3.289140 0.000000 0.000000 
#    y 0.000000 3.008750 0.000000 
#    z 0.000000 0.000000 3.670640 
# 
# 
# High freq. dielectric constant tensor:
#      x y z
#    x 1.695290 0.000000 0.000000 
#    y 0.000000 1.667690 0.000000 
#    z 0.000000 0.000000 1.718840 
# 
# From -- ./inp_files/25605.got.cif
#   From: 2010.03.12/outbox.cif.g09.slc.cpg/sg47_13_cif.got.tgz:25605.got - 2010.04.14 03:12:58.
