data_PCOD8195733
_publ_section_title
;
Structure prediction by ZEFSAII (Michael W. Deem and Ramdas Pophale) SiO2 
 PCOD8195733
Probable space group: P M M M
;
_chemical_formula_sum "Si O2"
_cell_formula_units_Z 64
_cell_length_a 20.734574
_cell_length_b 9.005848
_cell_length_c 19.663431
_cell_angle_alpha 90.000000
_cell_angle_beta 90.000000
_cell_angle_gamma 90.000000
_cell_volume 3671.800091
_symmetry_space_group_name_H-M "P M M M"
_symmetry_group_IT_number 47
_symmetry_cell_setting 'orthorhombic'
loop_
_space_group_symop_operation_xyz
x,y,z
-x,-y,z
x,-y,-z
-x,y,-z
-x,-y,-z
x,y,-z
-x,y,z
x,-y,z
loop_
_atom_site_type_symbol
_atom_site_label
_atom_site_fract_x
_atom_site_fract_y
_atom_site_fract_z
Si Si1 0.622139 0.327172 0.922932
Si Si2 0.071050 0.174265 0.296653
Si Si3 0.426939 0.170443 0.796795
Si Si4 0.684320 0.323734 0.284270
Si Si5 0.876730 0.327330 0.423207
Si Si6 0.245138 0.169184 0.075021
Si Si7 0.731595 0.324061 0.573641
Si Si8 0.193964 0.827441 0.215639
O O1 0.617076 0.500000 0.905300
O O2 0.576127 0.236794 0.872675
O O3 0.695543 0.278186 0.911278
O O4 0.599796 0.294408 0.000000
O O5 0.077314 0.242363 0.371487
O O6 0.126456 0.234295 0.245536
O O7 0.000000 0.216613 0.267906
O O8 0.078095 0.000000 0.304293
O O9 0.500000 0.185809 0.770201
O O10 0.381121 0.258882 0.745818
O O11 0.404629 0.000000 0.798944
O O12 0.683418 0.500000 0.276436
O O13 0.686714 0.273427 0.363702
O O14 0.746813 0.263554 0.245989
O O15 0.901112 0.298618 0.500000
O O16 0.879504 0.500000 0.405097
O O17 0.804067 0.264758 0.414327
O O18 0.192081 0.196675 0.133736
O O19 0.270956 0.000000 0.079056
O O20 0.214880 0.200250 0.000000
O O21 0.705379 0.265020 0.500000
O O22 0.735527 0.500000 0.570587
O O23 0.204037 0.000000 0.233816
#
# Coordination Sequence:
#
# PCOD8195733 Si02
#       8
#     8   8   8   8   8   8   8   8
#     4  10  20  33  51  77 107 136 169 212 256 298
#     4  10  21  34  47  68 102 141 175 211 257 305
#     4  11  24  39  53  72 104 144 178 208 249 304
#     4  11  20  32  56  82 102 129 168 216 261 302
#     4   9  17  31  50  71  98 132 170 210 252 302
#     4   9  17  30  50  74  99 130 168 209 255 307
#     4   8  15  29  50  77 105 129 158 204 259 308
#     4  10  19  32  51  73 100 134 171 212 255 305
#
# _framework density 17.430143999999999
#
# number of rings (size 3 to 8) (size 9 to 14) (size 15 to 20)
#    0.000    2.250    2.500    1.875    0.000    2.750 
#    0.000    2.500    0.000    2.250    0.000    5.250 
#    0.000    0.000    0.000    5.375    0.000    5.750 
#
# Total GULP energy -793323.121641 kJ/mol
# GULP energy per Si atom -12395.673776 kJ/mol
# Density = 1.739047 g / cm^3
# Si number density = 17.430144 Si / 1000 Ang^3
#
#
#
# Elastic Constant Matrix: (Units=GPa)
#
#
# Indices 1 2 3 4 5 6 
#
# 1 97.3928 35.2229 62.2826 0.0000 0.0000 0.0000
# 2 35.2229 52.1517 36.3020 0.0000 0.0000 0.0000
# 3 62.2826 36.3020 126.1246 0.0000 0.0000 0.0000
# 4 0.0000 0.0000 0.0000 23.0471 0.0000 0.0000
# 5 0.0000 0.0000 0.0000 0.0000 24.2002 0.0000
# 6 0.0000 0.0000 0.0000 0.0000 0.0000 15.6959
#
#
#
# Elastic Compliance Matrix: (Units=1/GPa)
#
#
# Indices 1 2 3 4 5 6 
#
# 1 0.016817 -0.006975 -0.006297 0.000000 0.000000 0.000000
# 2 -0.006975 0.026872 -0.004290 0.000000 0.000000 0.000000
# 3 -0.006297 -0.004290 0.012273 0.000000 0.000000 0.000000
# 4 0.000000 0.000000 0.000000 0.043389 0.000000 0.000000
# 5 0.000000 0.000000 0.000000 0.000000 0.041322 0.000000
# 6 0.000000 0.000000 0.000000 0.000000 0.000000 0.063711
#
#
# Mechanical properties :
#
#
# Convention : Reuss Voigt Hill
#
# Bulk Modulus (GPa) = 47.98926 60.36490 54.17708
# Shear Modulus (GPa) = 20.28773 22.04610 21.16691
#
# Velocity S-wave (km/s) = 3.41537 3.56030 3.48858
# Velocity P-wave (km/s) = 6.56849 7.18391 6.88308
#
# Compressibility (1/GPa) = 0.02083800
#
# Stress axis : x y z
#
# Youngs Moduli (GPa) = 59.46291 37.21364 81.47912
#
# Poissons Ratio (x) = 0.25956 0.51308
# Poissons Ratio (y) = 0.41475 0.34955
# Poissons Ratio (z) = 0.37444 0.15965
#
# Static dielectric constant tensor:
#      x y z
#    x 3.112320 0.000000 0.000000 
#    y 0.000000 3.170930 0.000000 
#    z 0.000000 0.000000 3.689610 
# 
# 
# High freq. dielectric constant tensor:
#      x y z
#    x 1.644220 0.000000 0.000000 
#    y 0.000000 1.666130 0.000000 
#    z 0.000000 0.000000 1.681770 
# 
# From -- ./inp_files/31356.got.cif
#   From: 2010.03.12/outbox.cif.g09.slc.cpg/sg47_16_cif.got.tgz:31356.got - 2010.04.14 03:12:58.
