data_PCOD8195286
_publ_section_title
;
Structure prediction by ZEFSAII (Michael W. Deem and Ramdas Pophale) SiO2 
 PCOD8195286
Probable space group: P M M M
;
_chemical_formula_sum "Si O2"
_cell_formula_units_Z 64
_cell_length_a 14.142807
_cell_length_b 30.540605
_cell_length_c 9.418811
_cell_angle_alpha 90.000000
_cell_angle_beta 90.000000
_cell_angle_gamma 90.000000
_cell_volume 4068.265925
_symmetry_space_group_name_H-M "P M M M"
_symmetry_group_IT_number 47
_symmetry_cell_setting 'orthorhombic'
loop_
_space_group_symop_operation_xyz
x,y,z
-x,-y,z
x,-y,-z
-x,y,-z
-x,-y,-z
x,y,-z
-x,y,z
x,-y,z
loop_
_atom_site_type_symbol
_atom_site_label
_atom_site_fract_x
_atom_site_fract_y
_atom_site_fract_z
Si Si1 0.105051 0.167080 0.663160
Si Si2 0.389505 0.201323 0.837462
Si Si3 0.895120 0.252726 0.162908
Si Si4 0.611206 0.369946 0.664710
Si Si5 0.612284 0.451713 0.840688
Si Si6 0.704805 0.293160 0.163157
Si Si7 0.608640 0.050665 0.163144
Si Si8 0.295374 0.124081 0.666068
O O1 0.107915 0.181333 0.500000
O O2 0.132598 0.209978 0.749842
O O3 0.182988 0.129891 0.693782
O O4 0.000000 0.149650 0.705015
O O5 0.500000 0.207865 0.813389
O O6 0.339797 0.246620 0.796309
O O7 0.353568 0.163418 0.735147
O O8 0.366585 0.188309 0.000000
O O9 0.817947 0.290616 0.190276
O O10 0.000000 0.270241 0.204121
O O11 0.891232 0.237915 0.000000
O O12 0.636383 0.371456 0.500000
O O13 0.500000 0.364525 0.691771
O O14 0.650758 0.414798 0.733932
O O15 0.663523 0.329362 0.734208
O O16 0.500000 0.451939 0.837527
O O17 0.649287 0.500000 0.793936
O O18 0.647770 0.440992 0.000000
O O19 0.681379 0.305368 0.000000
O O20 0.500000 0.063436 0.192878
O O21 0.676194 0.078189 0.264853
O O22 0.626043 0.000000 0.197761
O O23 0.633623 0.060928 0.000000
O O24 0.319476 0.122988 0.500000
#
# Coordination Sequence:
#
# PCOD8195286 Si02
#       8
#     8   8   8   8   8   8   8   8
#     4   9  18  32  48  67  93 122 149 180 223 273
#     4  10  20  32  45  63  90 125 159 186 217 263
#     4   9  17  30  49  70  88 110 148 196 236 266
#     4  10  20  30  41  61  90 124 159 194 230 267
#     4   8  14  26  44  63  83 112 152 194 233 274
#     4  10  19  31  46  63  88 122 156 188 224 271
#     4   9  19  36  55  72  92 121 153 183 220 268
#     4  11  21  31  48  73  96 118 149 188 226 265
#
# _framework density 15.731519
#
# number of rings (size 3 to 8) (size 9 to 14) (size 15 to 20)
#    0.000    2.500    1.250    2.250    0.000    5.250 
#    0.000    1.875    0.000    0.375    0.000    2.625 
#    0.000    0.500    0.000    5.750    0.000    1.875 
#
# Total GULP energy -793466.944110 kJ/mol
# GULP energy per Si atom -12397.921002 kJ/mol
# Density = 1.569571 g / cm^3
# Si number density = 15.731519 Si / 1000 Ang^3
#
#
#
# Elastic Constant Matrix: (Units=GPa)
#
#
# Indices 1 2 3 4 5 6 
#
# 1 73.4586 45.7159 47.0535 0.0000 0.0000 0.0000
# 2 45.7159 100.3655 66.4161 0.0000 0.0000 0.0000
# 3 47.0535 66.4161 92.1572 0.0000 0.0000 0.0000
# 4 0.0000 0.0000 0.0000 2.0700 0.0000 0.0000
# 5 0.0000 0.0000 0.0000 0.0000 20.1007 0.0000
# 6 0.0000 0.0000 0.0000 0.0000 0.0000 6.0829
#
#
#
# Elastic Compliance Matrix: (Units=1/GPa)
#
#
# Indices 1 2 3 4 5 6 
#
# 1 0.021377 -0.004807 -0.007450 0.000000 0.000000 0.000000
# 2 -0.004807 0.020128 -0.012052 0.000000 0.000000 0.000000
# 3 -0.007450 -0.012052 0.023341 0.000000 0.000000 0.000000
# 4 0.000000 0.000000 0.000000 0.483083 0.000000 0.000000
# 5 0.000000 0.000000 0.000000 0.000000 0.049749 0.000000
# 6 0.000000 0.000000 0.000000 0.000000 0.000000 0.164394
#
#
# Mechanical properties :
#
#
# Convention : Reuss Voigt Hill
#
# Bulk Modulus (GPa) = 61.62324 64.92804 63.27564
# Shear Modulus (GPa) = 6.12671 12.77046 9.44858
#
# Velocity S-wave (km/s) = 1.97560 2.85226 2.45340
# Velocity P-wave (km/s) = 6.66790 7.22560 6.95235
#
# Compressibility (1/GPa) = 0.01622764
#
# Stress axis : x y z
#
# Youngs Moduli (GPa) = 46.77958 49.68135 42.84374
#
# Poissons Ratio (x) = 0.23881 0.31920
# Poissons Ratio (y) = 0.22486 0.51635
# Poissons Ratio (z) = 0.34853 0.59875
#
# Static dielectric constant tensor:
#      x y z
#    x 3.087330 0.000000 0.000000 
#    y 0.000000 2.982490 0.000000 
#    z 0.000000 0.000000 3.075840 
# 
# 
# High freq. dielectric constant tensor:
#      x y z
#    x 1.588260 0.000000 0.000000 
#    y 0.000000 1.588640 0.000000 
#    z 0.000000 0.000000 1.609750 
# 
# From -- ./inp_files/8204.got.cif
#   From: 2010.03.12/outbox.cif.g09.slc.cpg/sg47_5_cif.got.tgz:8204.got - 2010.04.14 03:12:58.
