data_PCOD8195535
_publ_section_title
;
Structure prediction by ZEFSAII (Michael W. Deem and Ramdas Pophale) SiO2 
 PCOD8195535
Probable space group: P M M M
;
_chemical_formula_sum "Si O2"
_cell_formula_units_Z 64
_cell_length_a 9.043243
_cell_length_b 16.116934
_cell_length_c 23.104165
_cell_angle_alpha 90.000000
_cell_angle_beta 90.000000
_cell_angle_gamma 90.000000
_cell_volume 3367.417044
_symmetry_space_group_name_H-M "P M M M"
_symmetry_group_IT_number 47
_symmetry_cell_setting 'orthorhombic'
loop_
_space_group_symop_operation_xyz
x,y,z
-x,-y,z
x,-y,-z
-x,y,-z
-x,-y,-z
x,y,-z
-x,y,z
x,-y,z
loop_
_atom_site_type_symbol
_atom_site_label
_atom_site_fract_x
_atom_site_fract_y
_atom_site_fract_z
Si Si1 0.674086 0.259488 0.437365
Si Si2 0.827179 0.356730 0.737351
Si Si3 0.839534 0.095221 0.239882
Si Si4 0.673047 0.796111 0.684604
Si Si5 0.326346 0.594397 0.853678
Si Si6 0.834414 0.592291 0.610985
Si Si7 0.824652 0.092571 0.110967
Si Si8 0.172496 0.268214 0.066274
O O1 0.736685 0.227901 0.500000
O O2 0.500000 0.257579 0.440098
O O3 0.729323 0.205727 0.382345
O O4 0.723017 0.353709 0.426754
O O5 0.761994 0.265680 0.726416
O O6 0.743527 0.399625 0.790115
O O7 0.795503 0.408819 0.679156
O O8 0.000000 0.352027 0.752544
O O9 0.717761 0.116174 0.288745
O O10 0.774795 0.114083 0.176245
O O11 0.000000 0.140163 0.249091
O O12 0.870243 0.000000 0.246103
O O13 0.500000 0.777348 0.688158
O O14 0.500000 0.611966 0.849348
O O15 0.296802 0.500000 0.876581
O O16 0.257375 0.663753 0.895657
O O17 0.821400 0.500000 0.586565
O O18 0.000000 0.627861 0.602677
O O19 0.768959 0.172515 0.074196
O O20 0.000000 0.086051 0.107116
O O21 0.762379 0.000000 0.091641
O O22 0.000000 0.272169 0.083314
O O23 0.199021 0.292980 0.000000
#
# Coordination Sequence:
#
# PCOD8195535 Si02
#       8
#     8   8   8   8   8   8   8   8
#     4   9  19  34  48  64  90 127 170 210 247 291
#     4  10  19  33  54  77 102 131 164 206 259 315
#     4   9  17  30  50  76 105 136 168 203 249 307
#     4  10  19  31  50  75 102 133 169 210 256 305
#     4  11  24  39  55  76 103 138 180 226 274 318
#     4   9  18  31  47  70  98 125 155 196 248 303
#     4   8  15  30  53  81 111 139 166 201 250 308
#     4  10  21  36  56  82 108 138 179 221 259 307
#
# _framework density 19.005663999999999
#
# number of rings (size 3 to 8) (size 9 to 14) (size 15 to 20)
#    0.000    2.500    0.000    3.000    0.000    5.250 
#    0.000    3.750    0.000    1.500    0.000    3.500 
#    0.000    0.000    0.000    0.000    0.000    0.000 
#
# Total GULP energy -792933.542654 kJ/mol
# GULP energy per Si atom -12389.586604 kJ/mol
# Density = 1.896241 g / cm^3
# Si number density = 19.005664 Si / 1000 Ang^3
#
#
#
# Elastic Constant Matrix: (Units=GPa)
#
#
# Indices 1 2 3 4 5 6 
#
# 1 50.5400 29.7205 31.9524 0.0000 0.0000 0.0000
# 2 29.7205 60.8086 45.9517 0.0000 0.0000 0.0000
# 3 31.9524 45.9517 88.9156 0.0000 0.0000 0.0000
# 4 0.0000 0.0000 0.0000 10.7110 0.0000 0.0000
# 5 0.0000 0.0000 0.0000 0.0000 23.9303 0.0000
# 6 0.0000 0.0000 0.0000 0.0000 0.0000 23.0044
#
#
#
# Elastic Compliance Matrix: (Units=1/GPa)
#
#
# Indices 1 2 3 4 5 6 
#
# 1 0.029111 -0.010374 -0.005100 0.000000 0.000000 0.000000
# 2 -0.010374 0.030680 -0.012127 0.000000 0.000000 0.000000
# 3 -0.005100 -0.012127 0.019347 0.000000 0.000000 0.000000
# 4 0.000000 0.000000 0.000000 0.093362 0.000000 0.000000
# 5 0.000000 0.000000 0.000000 0.000000 0.041788 0.000000
# 6 0.000000 0.000000 0.000000 0.000000 0.000000 0.043470
#
#
# Mechanical properties :
#
#
# Convention : Reuss Voigt Hill
#
# Bulk Modulus (GPa) = 41.78021 46.16815 43.97418
# Shear Modulus (GPa) = 15.57924 17.70510 16.64217
#
# Velocity S-wave (km/s) = 2.86617 3.05547 2.96234
# Velocity P-wave (km/s) = 5.74317 6.06567 5.90662
#
# Compressibility (1/GPa) = 0.02393478
#
# Stress axis : x y z
#
# Youngs Moduli (GPa) = 34.35094 32.59452 51.68848
#
# Poissons Ratio (x) = 0.33815 0.26360
# Poissons Ratio (y) = 0.35637 0.62684
# Poissons Ratio (z) = 0.17518 0.39528
#
# Static dielectric constant tensor:
#      x y z
#    x 3.485380 0.000000 0.000000 
#    y 0.000000 3.563300 0.000000 
#    z 0.000000 0.000000 3.802150 
# 
# 
# High freq. dielectric constant tensor:
#      x y z
#    x 1.720060 0.000000 0.000000 
#    y 0.000000 1.730280 0.000000 
#    z 0.000000 0.000000 1.737730 
# 
# From -- ./inp_files/21941.got.cif
#   From: 2010.03.12/outbox.cif.g09.slc.cpg/sg47_11_cif.got.tgz:21941.got - 2010.04.14 03:12:58.
