data_PCOD8195498
_publ_section_title
;
Structure prediction by ZEFSAII (Michael W. Deem and Ramdas Pophale) SiO2 
 PCOD8195498
Probable space group: P M M M
;
_chemical_formula_sum "Si O2"
_cell_formula_units_Z 48
_cell_length_a 15.842777
_cell_length_b 16.997791
_cell_length_c 9.157620
_cell_angle_alpha 90.000000
_cell_angle_beta 90.000000
_cell_angle_gamma 90.000000
_cell_volume 2466.075749
_symmetry_space_group_name_H-M "P M M M"
_symmetry_group_IT_number 47
_symmetry_cell_setting 'orthorhombic'
loop_
_space_group_symop_operation_xyz
x,y,z
-x,-y,z
x,-y,-z
-x,y,-z
-x,-y,-z
x,y,-z
-x,y,z
x,-y,z
loop_
_atom_site_type_symbol
_atom_site_label
_atom_site_fract_x
_atom_site_fract_y
_atom_site_fract_z
Si Si1 0.402861 0.817866 0.829185
Si Si2 0.683727 0.654769 0.170780
Si Si3 0.408445 0.500000 0.826850
Si Si4 0.834605 0.591138 0.328111
Si Si5 0.093528 0.093502 0.834605
Si Si6 0.257390 0.906671 0.666155
Si Si7 0.000000 0.407227 0.837637
O O1 0.500000 0.828691 0.777234
O O2 0.374078 0.729362 0.794040
O O3 0.341736 0.877268 0.745560
O O4 0.395221 0.836134 0.000000
O O5 0.636018 0.578148 0.228770
O O6 0.768127 0.654227 0.266183
O O7 0.706674 0.649780 0.000000
O O8 0.500000 0.500000 0.754912
O O9 0.413942 0.500000 0.000000
O O10 0.843312 0.600235 0.500000
O O11 0.813242 0.500000 0.285794
O O12 0.919794 0.620547 0.253302
O O13 0.170913 0.127479 0.738158
O O14 0.000000 0.121912 0.779462
O O15 0.095554 0.000000 0.828535
O O16 0.107857 0.122773 0.000000
O O17 0.259021 0.877288 0.500000
O O18 0.258175 0.000000 0.676999
O O19 0.000000 0.500000 0.852354
O O20 0.000000 0.369233 0.000000
#
# Coordination Sequence:
#
# PCOD8195498 Si02
#       7
#     8   8   4   8   8   8   4
#     4  10  22  39  58  81 109 143 185 232 281 330
#     4  10  19  33  55  80 106 138 179 224 273 325
#     4   9  16  28  51  80 105 130 167 217 266 315
#     4  10  19  31  49  76 110 144 178 218 268 323
#     4   8  14  27  51  83 115 145 177 216 265 320
#     4  10  21  36  56  83 113 147 186 226 272 329
#     4   9  17  29  49  75 103 137 182 227 268 315
#
# _framework density 19.464123000000001
#
# number of rings (size 3 to 8) (size 9 to 14) (size 15 to 20)
#    0.000    2.500    0.833    2.250    0.000    6.333 
#    0.000    3.333    1.833    2.000    0.000    0.000 
#    0.000    0.000    0.000    0.000    0.000    0.000 
#
# Total GULP energy -594994.465313 kJ/mol
# GULP energy per Si atom -12395.718027 kJ/mol
# Density = 1.941982 g / cm^3
# Si number density = 19.464123 Si / 1000 Ang^3
#
#
#
# Elastic Constant Matrix: (Units=GPa)
#
#
# Indices 1 2 3 4 5 6 
#
# 1 189.3164 29.1630 78.2952 0.0000 0.0000 0.0000
# 2 29.1630 29.8030 23.5772 0.0000 0.0000 0.0000
# 3 78.2952 23.5772 93.3766 0.0000 0.0000 0.0000
# 4 0.0000 0.0000 0.0000 19.0851 0.0000 0.0000
# 5 0.0000 0.0000 0.0000 0.0000 3.7269 0.0000
# 6 0.0000 0.0000 0.0000 0.0000 0.0000 25.4748
#
#
#
# Elastic Compliance Matrix: (Units=1/GPa)
#
#
# Indices 1 2 3 4 5 6 
#
# 1 0.008336 -0.003283 -0.006160 0.000000 0.000000 0.000000
# 2 -0.003283 0.043222 -0.008161 0.000000 0.000000 0.000000
# 3 -0.006160 -0.008161 0.017935 0.000000 0.000000 0.000000
# 4 0.000000 0.000000 0.000000 0.052397 0.000000 0.000000
# 5 0.000000 0.000000 0.000000 0.000000 0.268317 0.000000
# 6 0.000000 0.000000 0.000000 0.000000 0.000000 0.039254
#
#
# Mechanical properties :
#
#
# Convention : Reuss Voigt Hill
#
# Bulk Modulus (GPa) = 29.16733 63.84076 46.50404
# Shear Modulus (GPa) = 10.50204 21.75475 16.12839
#
# Velocity S-wave (km/s) = 2.32536 3.34681 2.88170
# Velocity P-wave (km/s) = 4.71460 6.91413 5.91746
#
# Compressibility (1/GPa) = 0.03428494
#
# Stress axis : x y z
#
# Youngs Moduli (GPa) = 119.96685 23.13626 55.75633
#
# Poissons Ratio (x) = 0.07596 0.34348
# Poissons Ratio (y) = 0.39387 0.45500
# Poissons Ratio (z) = 0.73904 0.18880
#
# Static dielectric constant tensor:
#      x y z
#    x 3.969930 0.000000 0.000000 
#    y 0.000000 3.227120 0.000000 
#    z 0.000000 0.000000 3.477920 
# 
# 
# High freq. dielectric constant tensor:
#      x y z
#    x 1.775440 0.000000 0.000000 
#    y 0.000000 1.725440 0.000000 
#    z 0.000000 0.000000 1.744580 
# 
# From -- ./inp_files/6424.got.cif
#   From: 2010.03.12/outbox.cif.g09.slc.cpg/sg47_4_cif.got.tgz:6424.got - 2010.04.14 03:12:58.
