data_PCOD8195328
_publ_section_title
;
Structure prediction by ZEFSAII (Michael W. Deem and Ramdas Pophale) SiO2 
 PCOD8195328
Probable space group: P M M M
;
_chemical_formula_sum "Si O2"
_cell_formula_units_Z 52
_cell_length_a 23.853224
_cell_length_b 13.095057
_cell_length_c 9.700908
_cell_angle_alpha 90.000000
_cell_angle_beta 90.000000
_cell_angle_gamma 90.000000
_cell_volume 3030.169103
_symmetry_space_group_name_H-M "P M M M"
_symmetry_group_IT_number 47
_symmetry_cell_setting 'orthorhombic'
loop_
_space_group_symop_operation_xyz
x,y,z
-x,-y,z
x,-y,-z
-x,y,-z
-x,-y,-z
x,y,-z
-x,y,z
x,-y,z
loop_
_atom_site_type_symbol
_atom_site_label
_atom_site_fract_x
_atom_site_fract_y
_atom_site_fract_z
Si Si1 0.936738 0.181850 0.651442
Si Si2 0.112575 0.383271 0.286817
Si Si3 0.837506 0.117105 0.159511
Si Si4 0.062253 0.618910 0.000000
Si Si5 0.561871 0.378687 0.154993
Si Si6 0.338121 0.617877 0.340271
Si Si7 0.777089 0.723255 0.340343
O O1 0.928398 0.130933 0.500000
O O2 0.923716 0.302541 0.626950
O O3 0.897096 0.130617 0.764766
O O4 0.000000 0.166663 0.703424
O O5 0.095600 0.500000 0.322026
O O6 0.099659 0.350582 0.130040
O O7 0.178326 0.367974 0.316914
O O8 0.790758 0.182099 0.240648
O O9 0.818700 0.000000 0.167634
O O10 0.842632 0.152161 0.000000
O O11 0.051293 0.500000 0.000000
O O12 0.000000 0.671653 0.000000
O O13 0.500000 0.338211 0.198945
O O14 0.561613 0.500000 0.162932
O O15 0.609382 0.335142 0.256662
O O16 0.575684 0.342364 0.000000
O O17 0.352523 0.630036 0.500000
O O18 0.327328 0.500000 0.301732
O O19 0.283410 0.681220 0.298548
O O20 0.778883 0.758718 0.500000
#
# Coordination Sequence:
#
# PCOD8195328 Si02
#       7
#     8   8   8   4   8   8   8
#     4  10  22  36  51  74  97 119 149 185 231 285
#     4  10  19  31  47  67  94 127 158 188 224 273
#     4  10  22  39  57  74  90 113 148 192 242 293
#     4   9  18  30  42  60  85 115 152 190 227 264
#     4   8  14  25  40  61  93 134 177 213 240 266
#     4   9  17  29  45  68 100 135 169 203 234 269
#     4  10  21  34  50  73  98 125 157 194 239 288
#
# _framework density 17.160758000000001
#
# number of rings (size 3 to 8) (size 9 to 14) (size 15 to 20)
#    0.000    2.538    0.000    3.231    4.308    5.538 
#    0.000    3.846    0.000    0.000    0.000    0.000 
#    0.000    0.615    0.000    6.769    0.000    5.231 
#
# Total GULP energy -644465.350748 kJ/mol
# GULP energy per Si atom -12393.564437 kJ/mol
# Density = 1.712170 g / cm^3
# Si number density = 17.160758 Si / 1000 Ang^3
#
#
#
# Elastic Constant Matrix: (Units=GPa)
#
#
# Indices 1 2 3 4 5 6 
#
# 1 145.9429 24.5364 74.7150 0.0000 0.0000 0.0000
# 2 24.5364 54.9095 31.4182 0.0000 0.0000 0.0000
# 3 74.7150 31.4182 115.0558 0.0000 0.0000 0.0000
# 4 0.0000 0.0000 0.0000 17.9630 0.0000 0.0000
# 5 0.0000 0.0000 0.0000 0.0000 37.3494 0.0000
# 6 0.0000 0.0000 0.0000 0.0000 0.0000 8.9219
#
#
#
# Elastic Compliance Matrix: (Units=1/GPa)
#
#
# Indices 1 2 3 4 5 6 
#
# 1 0.010303 -0.000919 -0.006440 0.000000 0.000000 0.000000
# 2 -0.000919 0.021666 -0.005319 0.000000 0.000000 0.000000
# 3 -0.006440 -0.005319 0.014326 0.000000 0.000000 0.000000
# 4 0.000000 0.000000 0.000000 0.055670 0.000000 0.000000
# 5 0.000000 0.000000 0.000000 0.000000 0.026774 0.000000
# 6 0.000000 0.000000 0.000000 0.000000 0.000000 0.112084
#
#
# Mechanical properties :
#
#
# Convention : Reuss Voigt Hill
#
# Bulk Modulus (GPa) = 47.75896 64.13860 55.94878
# Shear Modulus (GPa) = 18.30427 25.19610 21.75018
#
# Velocity S-wave (km/s) = 3.26948 3.83592 3.56397
# Velocity P-wave (km/s) = 6.49180 7.55482 7.04339
#
# Compressibility (1/GPa) = 0.02093848
#
# Stress axis : x y z
#
# Youngs Moduli (GPa) = 97.05564 46.15472 69.80395
#
# Poissons Ratio (x) = 0.04243 0.44952
# Poissons Ratio (y) = 0.08923 0.37131
# Poissons Ratio (z) = 0.62501 0.24551
#
# Static dielectric constant tensor:
#      x y z
#    x 3.268260 0.000000 0.000000 
#    y 0.000000 2.922660 0.000000 
#    z 0.000000 0.000000 3.514890 
# 
# 
# High freq. dielectric constant tensor:
#      x y z
#    x 1.650460 0.000000 0.000000 
#    y 0.000000 1.622840 0.000000 
#    z 0.000000 0.000000 1.677080 
# 
# From -- ./inp_files/12573.got.cif
#   From: 2010.03.12/outbox.cif.g09.slc.cpg/sg47_7_cif.got.tgz:12573.got - 2010.04.14 03:12:58.
