data_PCOD8195534
_publ_section_title
;
Structure prediction by ZEFSAII (Michael W. Deem and Ramdas Pophale) SiO2 
 PCOD8195534
Probable space group: P M M M
;
_chemical_formula_sum "Si O2"
_cell_formula_units_Z 64
_cell_length_a 8.984832
_cell_length_b 20.654371
_cell_length_c 18.645462
_cell_angle_alpha 90.000000
_cell_angle_beta 90.000000
_cell_angle_gamma 90.000000
_cell_volume 3460.151254
_symmetry_space_group_name_H-M "P M M M"
_symmetry_group_IT_number 47
_symmetry_cell_setting 'orthorhombic'
loop_
_space_group_symop_operation_xyz
x,y,z
-x,-y,z
x,-y,-z
-x,y,-z
-x,-y,-z
x,y,-z
-x,y,z
x,-y,z
loop_
_atom_site_type_symbol
_atom_site_label
_atom_site_fract_x
_atom_site_fract_y
_atom_site_fract_z
Si Si1 0.178217 0.206218 0.339146
Si Si2 0.328642 0.321735 0.416688
Si Si3 0.833389 0.070926 0.820465
Si Si4 0.170173 0.575355 0.675747
Si Si5 0.324255 0.198914 0.186483
Si Si6 0.825404 0.573081 0.160650
Si Si7 0.166288 0.931904 0.349855
Si Si8 0.675026 0.312176 0.081014
O O1 0.228935 0.261504 0.392803
O O2 0.245880 0.217862 0.260781
O O3 0.237760 0.137095 0.372913
O O4 0.000000 0.205248 0.331970
O O5 0.301628 0.334245 0.500000
O O6 0.500000 0.306631 0.399270
O O7 0.280236 0.386138 0.375613
O O8 0.725202 0.128928 0.845030
O O9 0.838270 0.070210 0.735328
O O10 0.000000 0.083773 0.850036
O O11 0.776698 0.000000 0.847978
O O12 0.190232 0.500000 0.658931
O O13 0.214696 0.590944 0.757463
O O14 0.000000 0.596723 0.661484
O O15 0.500000 0.198378 0.198486
O O16 0.271598 0.252256 0.129330
O O17 0.772495 0.500000 0.143762
O O18 0.743923 0.620815 0.107097
O O19 0.000000 0.579152 0.148549
O O20 0.000000 0.935243 0.381009
O O21 0.248202 0.000000 0.374228
O O22 0.500000 0.320140 0.085819
O O23 0.727874 0.298659 0.000000
#
# Coordination Sequence:
#
# PCOD8195534 Si02
#       8
#     8   8   8   8   8   8   8   8
#     4  10  19  32  53  77 101 132 170 211 255 307
#     4  11  24  38  51  72 105 140 172 210 253 296
#     4   8  14  26  45  70 100 131 164 206 255 305
#     4   9  19  37  60  83 105 130 163 204 249 302
#     4  10  19  31  50  75 102 132 169 214 260 305
#     4   9  19  36  57  81 105 127 158 204 254 301
#     4   7  11  22  42  69  97 122 152 195 246 294
#     4  10  22  37  50  69 101 139 175 209 247 297
#
# _framework density 18.496302
#
# number of rings (size 3 to 8) (size 9 to 14) (size 15 to 20)
#    0.000    2.750    0.000    4.125    0.000    6.000 
#    0.000    3.750    0.000    1.875    0.000    5.250 
#    0.000    0.000    0.000    0.000    0.000    0.000 
#
# Total GULP energy -793089.456007 kJ/mol
# GULP energy per Si atom -12392.022750 kJ/mol
# Density = 1.845420 g / cm^3
# Si number density = 18.496302 Si / 1000 Ang^3
#
#
#
# Elastic Constant Matrix: (Units=GPa)
#
#
# Indices 1 2 3 4 5 6 
#
# 1 47.4893 32.0683 25.2838 0.0000 0.0000 0.0000
# 2 32.0683 96.6624 19.7768 0.0000 0.0000 0.0000
# 3 25.2838 19.7768 41.5520 0.0000 0.0000 0.0000
# 4 0.0000 0.0000 0.0000 1.7630 0.0000 0.0000
# 5 0.0000 0.0000 0.0000 0.0000 17.9557 0.0000
# 6 0.0000 0.0000 0.0000 0.0000 0.0000 27.6367
#
#
#
# Elastic Compliance Matrix: (Units=1/GPa)
#
#
# Indices 1 2 3 4 5 6 
#
# 1 0.036358 -0.008349 -0.018150 0.000000 0.000000 0.000000
# 2 -0.008349 0.013378 -0.001287 0.000000 0.000000 0.000000
# 3 -0.018150 -0.001287 0.035723 0.000000 0.000000 0.000000
# 4 0.000000 0.000000 0.000000 0.567206 0.000000 0.000000
# 5 0.000000 0.000000 0.000000 0.000000 0.055693 0.000000
# 6 0.000000 0.000000 0.000000 0.000000 0.000000 0.036184
#
#
# Mechanical properties :
#
#
# Convention : Reuss Voigt Hill
#
# Bulk Modulus (GPa) = 33.45871 37.77348 35.61610
# Shear Modulus (GPa) = 6.17226 16.70940 11.44083
#
# Velocity S-wave (km/s) = 1.82873 3.00891 2.48976
# Velocity P-wave (km/s) = 4.75265 5.70420 5.25003
#
# Compressibility (1/GPa) = 0.02988758
#
# Stress axis : x y z
#
# Youngs Moduli (GPa) = 27.50413 74.74738 27.99317
#
# Poissons Ratio (x) = 0.62404 0.50807
# Poissons Ratio (y) = 0.22962 0.03604
# Poissons Ratio (z) = 0.49920 0.09623
#
# Static dielectric constant tensor:
#      x y z
#    x 3.282920 0.000000 0.000000 
#    y 0.000000 4.003790 0.000000 
#    z 0.000000 0.000000 3.122590 
# 
# 
# High freq. dielectric constant tensor:
#      x y z
#    x 1.700300 0.000000 0.000000 
#    y 0.000000 1.743270 0.000000 
#    z 0.000000 0.000000 1.681170 
# 
# From -- ./inp_files/27014.got.cif
#   From: 2010.03.12/outbox.cif.g09.slc.cpg/sg47_14_cif.got.tgz:27014.got - 2010.04.14 03:12:58.
