data_PCOD8195762
_publ_section_title
;
Structure prediction by ZEFSAII (Michael W. Deem and Ramdas Pophale) SiO2 
 PCOD8195762
Probable space group: P M M M
;
_chemical_formula_sum "Si O2"
_cell_formula_units_Z 64
_cell_length_a 19.457327
_cell_length_b 20.691017
_cell_length_c 9.394970
_cell_angle_alpha 90.000000
_cell_angle_beta 90.000000
_cell_angle_gamma 90.000000
_cell_volume 3782.338670
_symmetry_space_group_name_H-M "P M M M"
_symmetry_group_IT_number 47
_symmetry_cell_setting 'orthorhombic'
loop_
_space_group_symop_operation_xyz
x,y,z
-x,-y,z
x,-y,-z
-x,y,-z
-x,-y,-z
x,y,-z
-x,y,z
x,-y,z
loop_
_atom_site_type_symbol
_atom_site_label
_atom_site_fract_x
_atom_site_fract_y
_atom_site_fract_z
Si Si1 0.802845 0.927942 0.336852
Si Si2 0.285466 0.427079 0.832191
Si Si3 0.422188 0.775657 0.165792
Si Si4 0.921834 0.875498 0.834760
Si Si5 0.574152 0.628756 0.831313
Si Si6 0.076428 0.252558 0.661185
Si Si7 0.214694 0.683503 0.663725
Si Si8 0.704672 0.812887 0.667243
O O1 0.822684 0.913260 0.500000
O O2 0.871860 0.925406 0.243322
O O3 0.748075 0.875179 0.282824
O O4 0.771468 0.000000 0.320567
O O5 0.264103 0.500000 0.793032
O O6 0.363480 0.415483 0.776043
O O7 0.234240 0.378042 0.756945
O O8 0.281343 0.414603 0.000000
O O9 0.500000 0.799764 0.195438
O O10 0.413674 0.702046 0.219150
O O11 0.368500 0.818339 0.254300
O O12 0.404338 0.781813 0.000000
O O13 0.910326 0.804931 0.769833
O O14 0.000000 0.899019 0.811542
O O15 0.902805 0.872244 0.000000
O O16 0.500000 0.603763 0.771908
O O17 0.570909 0.627478 0.000000
O O18 0.085183 0.225568 0.500000
O O19 0.133144 0.307447 0.688695
O O20 0.000000 0.282218 0.682971
O O21 0.231655 0.668333 0.500000
O O22 0.254936 0.747944 0.713197
O O23 0.691151 0.814410 0.500000
#
# Coordination Sequence:
#
# PCOD8195762 Si02
#       8
#     8   8   8   8   8   8   8   8
#     4  10  21  37  54  72  99 136 175 212 250 297
#     4  10  20  32  48  72 100 132 169 203 242 297
#     4   9  17  30  50  75 100 129 165 202 245 297
#     4  10  20  32  48  74 107 138 167 203 249 299
#     4   8  14  26  44  67  95 125 160 199 234 275
#     4   9  17  32  54  76  99 128 166 210 251 295
#     4  10  19  32  51  75 100 127 162 206 252 295
#     4  10  19  32  51  77 101 125 164 209 253 297
#
# _framework density 16.920748
#
# number of rings (size 3 to 8) (size 9 to 14) (size 15 to 20)
#    0.000    2.500    2.500    1.125    0.000    3.000 
#    0.000    2.500    0.000    1.125    0.000    6.125 
#    0.000    0.000    0.000    0.000    0.000    0.000 
#
# Total GULP energy -793420.988929 kJ/mol
# GULP energy per Si atom -12397.202952 kJ/mol
# Density = 1.688224 g / cm^3
# Si number density = 16.920748 Si / 1000 Ang^3
#
#
#
# Elastic Constant Matrix: (Units=GPa)
#
#
# Indices 1 2 3 4 5 6 
#
# 1 114.4718 59.4864 45.3196 0.0000 0.0000 0.0000
# 2 59.4864 100.9066 39.2846 0.0000 0.0000 0.0000
# 3 45.3196 39.2846 54.6465 0.0000 0.0000 0.0000
# 4 0.0000 0.0000 0.0000 20.6494 0.0000 0.0000
# 5 0.0000 0.0000 0.0000 0.0000 29.3608 0.0000
# 6 0.0000 0.0000 0.0000 0.0000 0.0000 23.2354
#
#
#
# Elastic Compliance Matrix: (Units=1/GPa)
#
#
# Indices 1 2 3 4 5 6 
#
# 1 0.014942 -0.005533 -0.008414 0.000000 0.000000 0.000000
# 2 -0.005533 0.015810 -0.006777 0.000000 0.000000 0.000000
# 3 -0.008414 -0.006777 0.030150 0.000000 0.000000 0.000000
# 4 0.000000 0.000000 0.000000 0.048428 0.000000 0.000000
# 5 0.000000 0.000000 0.000000 0.000000 0.034059 0.000000
# 6 0.000000 0.000000 0.000000 0.000000 0.000000 0.043038
#
#
# Mechanical properties :
#
#
# Convention : Reuss Voigt Hill
#
# Bulk Modulus (GPa) = 51.40542 62.02289 56.71416
# Shear Modulus (GPa) = 21.33461 23.04472 22.18966
#
# Velocity S-wave (km/s) = 3.55470 3.69442 3.62524
# Velocity P-wave (km/s) = 6.87706 7.41167 7.14936
#
# Compressibility (1/GPa) = 0.01945320
#
# Stress axis : x y z
#
# Youngs Moduli (GPa) = 66.92417 63.24936 33.16762
#
# Poissons Ratio (x) = 0.34995 0.27909
# Poissons Ratio (y) = 0.37028 0.22479
# Poissons Ratio (z) = 0.56313 0.42866
#
# Static dielectric constant tensor:
#      x y z
#    x 3.411480 0.000000 0.000000 
#    y 0.000000 2.941860 0.000000 
#    z 0.000000 0.000000 3.033230 
# 
# 
# High freq. dielectric constant tensor:
#      x y z
#    x 1.657420 0.000000 0.000000 
#    y 0.000000 1.624390 0.000000 
#    z 0.000000 0.000000 1.638360 
# 
# From -- ./inp_files/11609.got.cif
#   From: 2010.03.12/outbox.cif.g09.slc.cpg/sg47_6_cif.got.tgz:11609.got - 2010.04.14 03:12:58.
