data_PCOD8195147
_publ_section_title
;
Structure prediction by ZEFSAII (Michael W. Deem and Ramdas Pophale) SiO2 
 PCOD8195147
Probable space group: P M M M
;
_chemical_formula_sum "Si O2"
_cell_formula_units_Z 48
_cell_length_a 18.084911
_cell_length_b 18.371737
_cell_length_c 7.678976
_cell_angle_alpha 90.000000
_cell_angle_beta 90.000000
_cell_angle_gamma 90.000000
_cell_volume 2551.349210
_symmetry_space_group_name_H-M "P M M M"
_symmetry_group_IT_number 47
_symmetry_cell_setting 'orthorhombic'
loop_
_space_group_symop_operation_xyz
x,y,z
-x,-y,z
x,-y,-z
-x,y,-z
-x,-y,-z
x,y,-z
-x,y,z
x,-y,z
loop_
_atom_site_type_symbol
_atom_site_label
_atom_site_fract_x
_atom_site_fract_y
_atom_site_fract_z
Si Si1 0.326293 0.922094 0.697280
Si Si2 0.361482 0.233127 0.703267
Si Si3 0.783927 0.679988 0.694172
Si Si4 0.730147 0.585771 0.000000
Si Si5 0.916940 0.776200 0.205982
Si Si6 0.581499 0.670332 0.000000
Si Si7 0.837685 0.080355 0.202422
O O1 0.352716 0.927451 0.500000
O O2 0.366441 0.850421 0.774252
O O3 0.238580 0.910299 0.695961
O O4 0.346570 0.000000 0.791264
O O5 0.385231 0.240839 0.500000
O O6 0.276775 0.257840 0.730126
O O7 0.413733 0.281100 0.825255
O O8 0.775124 0.647514 0.500000
O O9 0.772438 0.614697 0.829618
O O10 0.864471 0.715533 0.710620
O O11 0.734893 0.500000 0.000000
O O12 0.643891 0.608439 0.000000
O O13 0.894277 0.857633 0.266372
O O14 0.000000 0.761614 0.272340
O O15 0.911464 0.769416 0.000000
O O16 0.500000 0.633955 0.000000
O O17 0.872129 0.000000 0.239107
O O18 0.819107 0.089995 0.000000
#
# Coordination Sequence:
#
# PCOD8195147 Si02
#       7
#     8   8   8   4   8   4   8
#     4   9  16  26  43  68  97 134 183 235 279 311
#     4   9  18  32  53  78 107 145 185 226 265 303
#     4  10  19  34  57  83 110 141 184 226 263 316
#     4  10  22  41  65  89 115 139 161 202 258 317
#     4  10  19  30  47  71 107 153 193 235 284 324
#     4  10  22  37  59  89 115 140 168 199 247 320
#     4   9  17  26  40  65 100 143 189 238 285 325
#
# _framework density 18.813573999999999
#
# number of rings (size 3 to 8) (size 9 to 14) (size 15 to 20)
#    0.000    2.500    2.500    0.000    1.167    1.500 
#    0.000    1.667    0.000    2.000    0.000   11.667 
#    0.000    0.000    0.000    0.000    0.000    0.000 
#
# Total GULP energy -594842.362123 kJ/mol
# GULP energy per Si atom -12392.549211 kJ/mol
# Density = 1.877075 g / cm^3
# Si number density = 18.813574 Si / 1000 Ang^3
#
#
#
# Elastic Constant Matrix: (Units=GPa)
#
#
# Indices 1 2 3 4 5 6 
#
# 1 71.3911 34.4964 15.9618 0.0000 0.0000 0.0000
# 2 34.4964 135.7794 47.1825 0.0000 0.0000 0.0000
# 3 15.9618 47.1825 73.9905 0.0000 0.0000 0.0000
# 4 0.0000 0.0000 0.0000 12.7798 0.0000 0.0000
# 5 0.0000 0.0000 0.0000 0.0000 11.8712 0.0000
# 6 0.0000 0.0000 0.0000 0.0000 0.0000 15.1739
#
#
#
# Elastic Compliance Matrix: (Units=1/GPa)
#
#
# Indices 1 2 3 4 5 6 
#
# 1 0.016038 -0.003690 -0.001107 0.000000 0.000000 0.000000
# 2 -0.003690 0.010310 -0.005779 0.000000 0.000000 0.000000
# 3 -0.001107 -0.005779 0.017439 0.000000 0.000000 0.000000
# 4 0.000000 0.000000 0.000000 0.078248 0.000000 0.000000
# 5 0.000000 0.000000 0.000000 0.000000 0.084237 0.000000
# 6 0.000000 0.000000 0.000000 0.000000 0.000000 0.065903
#
#
# Mechanical properties :
#
#
# Convention : Reuss Voigt Hill
#
# Bulk Modulus (GPa) = 44.17695 52.93807 48.55751
# Shear Modulus (GPa) = 16.61836 20.19967 18.40901
#
# Velocity S-wave (km/s) = 2.97529 3.28025 3.13149
# Velocity P-wave (km/s) = 5.94437 6.52273 6.24026
#
# Compressibility (1/GPa) = 0.02263624
#
# Stress axis : x y z
#
# Youngs Moduli (GPa) = 62.35260 96.98883 57.34267
#
# Poissons Ratio (x) = 0.35789 0.06346
# Poissons Ratio (y) = 0.23008 0.33137
# Poissons Ratio (z) = 0.06901 0.56048
#
# Static dielectric constant tensor:
#      x y z
#    x 3.163180 0.000000 0.000000 
#    y 0.000000 3.322970 0.000000 
#    z 0.000000 0.000000 3.522010 
# 
# 
# High freq. dielectric constant tensor:
#      x y z
#    x 1.696950 0.000000 0.000000 
#    y 0.000000 1.710050 0.000000 
#    z 0.000000 0.000000 1.731670 
# 
# From -- ./inp_files/6528.got.cif
#   From: 2010.03.12/outbox.cif.g09.slc.cpg/sg47_4_cif.got.tgz:6528.got - 2010.04.14 03:12:58.
