data_PCOD8195713
_publ_section_title
;
Structure prediction by ZEFSAII (Michael W. Deem and Ramdas Pophale) SiO2 
 PCOD8195713
Probable space group: P M M M
;
_chemical_formula_sum "Si O2"
_cell_formula_units_Z 64
_cell_length_a 9.083630
_cell_length_b 14.260913
_cell_length_c 31.694214
_cell_angle_alpha 90.000000
_cell_angle_beta 90.000000
_cell_angle_gamma 90.000000
_cell_volume 4105.695648
_symmetry_space_group_name_H-M "P M M M"
_symmetry_group_IT_number 47
_symmetry_cell_setting 'orthorhombic'
loop_
_space_group_symop_operation_xyz
x,y,z
-x,-y,z
x,-y,-z
-x,y,-z
-x,-y,-z
x,y,-z
-x,y,z
x,-y,z
loop_
_atom_site_type_symbol
_atom_site_label
_atom_site_fract_x
_atom_site_fract_y
_atom_site_fract_z
Si Si1 0.326999 0.892816 0.716652
Si Si2 0.828313 0.606342 0.922384
Si Si3 0.667052 0.396587 0.836441
Si Si4 0.670580 0.796552 0.801060
Si Si5 0.172594 0.890699 0.120391
Si Si6 0.165695 0.887865 0.634678
Si Si7 0.330807 0.780547 0.952401
Si Si8 0.824856 0.894661 0.544691
O O1 0.500000 0.884970 0.712536
O O2 0.268177 0.833631 0.756457
O O3 0.261155 0.849584 0.673637
O O4 0.275591 0.000000 0.723171
O O5 0.795709 0.500000 0.937051
O O6 0.778975 0.622138 0.874335
O O7 0.737845 0.676346 0.951932
O O8 0.000000 0.630083 0.925655
O O9 0.500000 0.390174 0.854100
O O10 0.695447 0.500000 0.816474
O O11 0.692220 0.316260 0.801454
O O12 0.500000 0.824944 0.806702
O O13 0.761154 0.842731 0.838500
O O14 0.243959 0.849802 0.078167
O O15 0.000000 0.870063 0.118942
O O16 0.208634 0.000000 0.122316
O O17 0.228624 0.848320 0.589240
O O18 0.000000 0.852741 0.642281
O O19 0.172201 0.000000 0.632645
O O20 0.500000 0.775400 0.937695
O O21 0.317971 0.819487 0.000000
O O22 0.776678 0.843928 0.500000
O O23 0.000000 0.897723 0.547402
O O24 0.762930 0.000000 0.542497
#
# Coordination Sequence:
#
# PCOD8195713 Si02
#       8
#     8   8   8   8   8   8   8   8
#     4   9  17  27  38  55  81 113 146 177 210 249
#     4  10  20  34  54  79 104 126 146 173 213 257
#     4   9  17  30  50  74  96 117 143 175 211 254
#     4  10  19  32  51  71  91 118 148 177 213 258
#     4  11  24  39  55  75  96 118 146 183 224 260
#     4   8  13  21  33  49  70  98 134 176 218 254
#     4  11  24  40  57  76  97 123 153 181 211 253
#     4   7   9  14  26  44  64  88 124 171 217 256
#
# _framework density 15.588101999999999
#
# number of rings (size 3 to 8) (size 9 to 14) (size 15 to 20)
#    0.000    2.625    1.250    2.625    0.000    4.250 
#    0.000    3.750    0.000    0.375    0.000    2.625 
#    0.000    0.000    0.000    0.000    0.000    0.625 
#
# Total GULP energy -793022.487531 kJ/mol
# GULP energy per Si atom -12390.976368 kJ/mol
# Density = 1.555262 g / cm^3
# Si number density = 15.588102 Si / 1000 Ang^3
#
#
#
# Elastic Constant Matrix: (Units=GPa)
#
#
# Indices 1 2 3 4 5 6 
#
# 1 54.9533 31.8875 39.0444 0.0000 0.0000 0.0000
# 2 31.8875 67.9533 49.3065 0.0000 0.0000 0.0000
# 3 39.0444 49.3065 137.6007 0.0000 0.0000 0.0000
# 4 0.0000 0.0000 0.0000 6.0900 0.0000 0.0000
# 5 0.0000 0.0000 0.0000 0.0000 20.9462 0.0000
# 6 0.0000 0.0000 0.0000 0.0000 0.0000 17.3880
#
#
#
# Elastic Compliance Matrix: (Units=1/GPa)
#
#
# Indices 1 2 3 4 5 6 
#
# 1 0.026663 -0.009490 -0.004165 0.000000 0.000000 0.000000
# 2 -0.009490 0.023264 -0.005643 0.000000 0.000000 0.000000
# 3 -0.004165 -0.005643 0.010472 0.000000 0.000000 0.000000
# 4 0.000000 0.000000 0.000000 0.164203 0.000000 0.000000
# 5 0.000000 0.000000 0.000000 0.000000 0.047741 0.000000
# 6 0.000000 0.000000 0.000000 0.000000 0.000000 0.057511
#
#
# Mechanical properties :
#
#
# Convention : Reuss Voigt Hill
#
# Bulk Modulus (GPa) = 45.86748 55.66490 50.76619
# Shear Modulus (GPa) = 13.30786 18.23611 15.77198
#
# Velocity S-wave (km/s) = 2.92502 3.42405 3.18433
# Velocity P-wave (km/s) = 6.39501 7.17074 6.79396
#
# Compressibility (1/GPa) = 0.02180194
#
# Stress axis : x y z
#
# Youngs Moduli (GPa) = 37.50483 42.98509 95.49682
#
# Poissons Ratio (x) = 0.40791 0.39778
# Poissons Ratio (y) = 0.35590 0.53893
# Poissons Ratio (z) = 0.15622 0.24259
#
# Static dielectric constant tensor:
#      x y z
#    x 2.951850 0.000000 0.000000 
#    y 0.000000 2.872180 0.000000 
#    z 0.000000 0.000000 3.248860 
# 
# 
# High freq. dielectric constant tensor:
#      x y z
#    x 1.592770 0.000000 0.000000 
#    y 0.000000 1.559050 0.000000 
#    z 0.000000 0.000000 1.596750 
# 
# From -- ./inp_files/34454.got.cif
#   From: 2010.03.12/outbox.cif.g09.slc.cpg/sg47_18_cif.got.tgz:34454.got - 2010.04.14 03:12:58.
