data_PCOD8195266
_publ_section_title
;
Structure prediction by ZEFSAII (Michael W. Deem and Ramdas Pophale) SiO2 
 PCOD8195266
Probable space group: P M M M
;
_chemical_formula_sum "Si O2"
_cell_formula_units_Z 56
_cell_length_a 23.284569
_cell_length_b 8.912290
_cell_length_c 21.910698
_cell_angle_alpha 90.000000
_cell_angle_beta 90.000000
_cell_angle_gamma 90.000000
_cell_volume 4546.882445
_symmetry_space_group_name_H-M "P M M M"
_symmetry_group_IT_number 47
_symmetry_cell_setting 'orthorhombic'
loop_
_space_group_symop_operation_xyz
x,y,z
-x,-y,z
x,-y,-z
-x,y,-z
-x,-y,-z
x,y,-z
-x,y,z
x,-y,z
loop_
_atom_site_type_symbol
_atom_site_label
_atom_site_fract_x
_atom_site_fract_y
_atom_site_fract_z
Si Si1 0.931757 0.331285 0.120667
Si Si2 0.000000 0.170217 0.427808
Si Si3 0.211083 0.826313 0.571687
Si Si4 0.673859 0.667035 0.572465
Si Si5 0.893906 0.322377 0.364152
Si Si6 0.563015 0.168738 0.427428
Si Si7 0.932624 0.174757 0.755877
Si Si8 0.068550 0.830549 0.000000
O O1 0.907344 0.500000 0.124927
O O2 0.911448 0.236917 0.179125
O O3 0.907209 0.253148 0.059815
O O4 0.000000 0.333812 0.117691
O O5 0.056351 0.252948 0.405212
O O6 0.000000 0.170303 0.500000
O O7 0.000000 0.000000 0.402115
O O8 0.201851 0.798879 0.500000
O O9 0.274395 0.775376 0.592651
O O10 0.166626 0.724560 0.608010
O O11 0.202371 0.000000 0.588605
O O12 0.669897 0.663035 0.500000
O O13 0.684283 0.500000 0.598381
O O14 0.613837 0.728844 0.600028
O O15 0.900134 0.500000 0.364342
O O16 0.897493 0.262509 0.295406
O O17 0.566782 0.167981 0.500000
O O18 0.500000 0.229917 0.407090
O O19 0.571457 0.000000 0.402893
O O20 0.000000 0.205076 0.745461
O O21 0.918023 0.000000 0.752694
O O22 0.000000 0.829405 0.000000
O O23 0.091875 0.000000 0.000000
#
# Coordination Sequence:
#
# PCOD8195266 Si02
#       8
#     8   4   8   8   8   8   8   4
#     4   9  16  25  38  55  75  94 114 137 162 189
#     4  11  23  37  49  59  71  86 105 132 171 219
#     4  10  20  33  46  56  68  88 112 138 172 215
#     4   9  16  25  37  53  71  88 108 135 165 197
#     4  12  23  33  46  60  73  86 107 139 176 214
#     4   8  13  21  33  49  69  92 114 132 153 187
#     4  10  19  31  45  57  72  92 113 135 165 207
#     4   9  15  23  35  53  75  97 119 135 155 187
#
# _framework density 12.316132
#
# number of rings (size 3 to 8) (size 9 to 14) (size 15 to 20)
#    0.000    2.286    0.714    4.286    0.000    8.286 
#    0.000    1.429    0.000    0.000    0.000    0.000 
#    0.000    0.000    0.000    0.000    0.000    0.000 
#
# Total GULP energy -694332.116106 kJ/mol
# GULP energy per Si atom -12398.787788 kJ/mol
# Density = 1.228810 g / cm^3
# Si number density = 12.316132 Si / 1000 Ang^3
#
#
#
# Elastic Constant Matrix: (Units=GPa)
#
#
# Indices 1 2 3 4 5 6 
#
# 1 63.6755 32.6607 23.5192 0.0000 0.0000 0.0000
# 2 32.6607 104.6397 37.6217 0.0000 0.0000 0.0000
# 3 23.5192 37.6217 58.5173 0.0000 0.0000 0.0000
# 4 0.0000 0.0000 0.0000 18.9307 0.0000 0.0000
# 5 0.0000 0.0000 0.0000 0.0000 6.0307 0.0000
# 6 0.0000 0.0000 0.0000 0.0000 0.0000 5.7291
#
#
#
# Elastic Compliance Matrix: (Units=1/GPa)
#
#
# Indices 1 2 3 4 5 6 
#
# 1 0.019842 -0.004326 -0.005194 0.000000 0.000000 0.000000
# 2 -0.004326 0.013373 -0.006859 0.000000 0.000000 0.000000
# 3 -0.005194 -0.006859 0.023586 0.000000 0.000000 0.000000
# 4 0.000000 0.000000 0.000000 0.052824 0.000000 0.000000
# 5 0.000000 0.000000 0.000000 0.000000 0.165818 0.000000
# 6 0.000000 0.000000 0.000000 0.000000 0.000000 0.174547
#
#
# Mechanical properties :
#
#
# Convention : Reuss Voigt Hill
#
# Bulk Modulus (GPa) = 41.59067 46.04842 43.81954
# Shear Modulus (GPa) = 10.18824 15.00683 12.59753
#
# Velocity S-wave (km/s) = 2.87928 3.49445 3.20167
# Velocity P-wave (km/s) = 6.70046 7.33153 7.02309
#
# Compressibility (1/GPa) = 0.02404385
#
# Stress axis : x y z
#
# Youngs Moduli (GPa) = 50.39867 74.77845 42.39776
#
# Poissons Ratio (x) = 0.32348 0.22020
# Poissons Ratio (y) = 0.21802 0.29081
# Poissons Ratio (z) = 0.26175 0.51290
#
# Static dielectric constant tensor:
#      x y z
#    x 2.443570 0.000000 0.000000 
#    y 0.000000 2.746340 0.000000 
#    z 0.000000 0.000000 2.354490 
# 
# 
# High freq. dielectric constant tensor:
#      x y z
#    x 1.434270 0.000000 0.000000 
#    y 0.000000 1.488480 0.000000 
#    z 0.000000 0.000000 1.429550 
# 
# From -- ./inp_files/31454.got.cif
#   From: 2010.03.12/outbox.cif.g09.slc.cpg/sg47_16_cif.got.tgz:31454.got - 2010.04.14 03:12:58.
