data_PCOD8195625
_publ_section_title
;
Structure prediction by ZEFSAII (Michael W. Deem and Ramdas Pophale) SiO2 
 PCOD8195625
Probable space group: P M M M
;
_chemical_formula_sum "Si O2"
_cell_formula_units_Z 64
_cell_length_a 18.500627
_cell_length_b 14.180099
_cell_length_c 15.082384
_cell_angle_alpha 90.000000
_cell_angle_beta 90.000000
_cell_angle_gamma 90.000000
_cell_volume 3956.723514
_symmetry_space_group_name_H-M "P M M M"
_symmetry_group_IT_number 47
_symmetry_cell_setting 'orthorhombic'
loop_
_space_group_symop_operation_xyz
x,y,z
-x,-y,z
x,-y,-z
-x,y,-z
-x,-y,-z
x,y,-z
-x,y,z
x,-y,z
loop_
_atom_site_type_symbol
_atom_site_label
_atom_site_fract_x
_atom_site_fract_y
_atom_site_fract_z
Si Si1 0.652080 0.388340 0.903423
Si Si2 0.154381 0.389984 0.398817
Si Si3 0.583503 0.609971 0.276651
Si Si4 0.770523 0.102887 0.603025
Si Si5 0.920261 0.104841 0.685189
Si Si6 0.185677 0.392535 0.897827
Si Si7 0.918974 0.295897 0.763718
Si Si8 0.697821 0.709248 0.396505
O O1 0.654166 0.500000 0.910623
O O2 0.599579 0.356144 0.824223
O O3 0.733364 0.353314 0.883080
O O4 0.625964 0.348533 0.000000
O O5 0.133978 0.362965 0.500000
O O6 0.144905 0.500000 0.381079
O O7 0.101815 0.334477 0.333310
O O8 0.237405 0.363679 0.379520
O O9 0.500000 0.627691 0.296984
O O10 0.603963 0.500000 0.288735
O O11 0.627873 0.673571 0.344701
O O12 0.755612 0.101011 0.500000
O O13 0.855889 0.122920 0.615493
O O14 0.721944 0.187950 0.642237
O O15 0.749010 0.000000 0.644236
O O16 0.913860 0.182140 0.762950
O O17 0.000000 0.115086 0.639218
O O18 0.912586 0.000000 0.727044
O O19 0.179608 0.500000 0.864509
O O20 0.132712 0.329708 0.840795
O O21 0.162948 0.384596 0.000000
O O22 0.000000 0.330064 0.785153
O O23 0.677689 0.714507 0.500000
#
# Coordination Sequence:
#
# PCOD8195625 Si02
#       8
#     8   8   8   8   8   8   8   8
#     4   8  15  29  48  68  91 120 152 189 233 276
#     4  10  20  32  45  63  89 125 165 196 227 275
#     4  10  20  31  46  71 100 129 159 189 225 277
#     4   9  17  30  49  71  91 116 157 204 247 286
#     4   9  18  31  46  67  94 121 152 196 250 299
#     4   9  18  32  49  69  93 123 161 200 234 274
#     4  11  21  31  46  66  91 125 160 198 245 285
#     4  10  19  32  48  66  92 126 160 196 235 273
#
# _framework density 16.174999
#
# number of rings (size 3 to 8) (size 9 to 14) (size 15 to 20)
#    0.000    2.500    1.250    2.250    0.000    4.000 
#    0.000    5.625    0.000    0.750    0.000    3.500 
#    0.000    0.500    0.000    1.125    0.000    0.125 
#
# Total GULP energy -793166.061211 kJ/mol
# GULP energy per Si atom -12393.219706 kJ/mol
# Density = 1.613818 g / cm^3
# Si number density = 16.174999 Si / 1000 Ang^3
#
#
#
# Elastic Constant Matrix: (Units=GPa)
#
#
# Indices 1 2 3 4 5 6 
#
# 1 86.9881 43.6279 38.2743 0.0000 0.0000 0.0000
# 2 43.6279 84.2144 31.1261 0.0000 0.0000 0.0000
# 3 38.2743 31.1261 55.8242 0.0000 0.0000 0.0000
# 4 0.0000 0.0000 0.0000 13.3161 0.0000 0.0000
# 5 0.0000 0.0000 0.0000 0.0000 17.2674 0.0000
# 6 0.0000 0.0000 0.0000 0.0000 0.0000 21.8571
#
#
#
# Elastic Compliance Matrix: (Units=1/GPa)
#
#
# Indices 1 2 3 4 5 6 
#
# 1 0.018756 -0.006252 -0.009373 0.000000 0.000000 0.000000
# 2 -0.006252 0.017041 -0.005215 0.000000 0.000000 0.000000
# 3 -0.009373 -0.005215 0.027248 0.000000 0.000000 0.000000
# 4 0.000000 0.000000 0.000000 0.075097 0.000000 0.000000
# 5 0.000000 0.000000 0.000000 0.000000 0.057913 0.000000
# 6 0.000000 0.000000 0.000000 0.000000 0.000000 0.045752
#
#
# Mechanical properties :
#
#
# Convention : Reuss Voigt Hill
#
# Bulk Modulus (GPa) = 46.80885 50.34259 48.57572
# Shear Modulus (GPa) = 17.20536 18.08803 17.64669
#
# Velocity S-wave (km/s) = 3.26498 3.34768 3.30659
# Velocity P-wave (km/s) = 6.57383 6.79220 6.68391
#
# Compressibility (1/GPa) = 0.02136348
#
# Stress axis : x y z
#
# Youngs Moduli (GPa) = 53.31715 58.68243 36.70038
#
# Poissons Ratio (x) = 0.36689 0.34400
# Poissons Ratio (y) = 0.33334 0.19139
# Poissons Ratio (z) = 0.49976 0.30603
#
# Static dielectric constant tensor:
#      x y z
#    x 2.975750 0.000000 0.000000 
#    y 0.000000 3.241350 0.000000 
#    z 0.000000 0.000000 3.019590 
# 
# 
# High freq. dielectric constant tensor:
#      x y z
#    x 1.614040 0.000000 0.000000 
#    y 0.000000 1.607730 0.000000 
#    z 0.000000 0.000000 1.604040 
# 
# From -- ./inp_files/24105.got.cif
#   From: 2010.03.12/outbox.cif.g09.slc.cpg/sg47_13_cif.got.tgz:24105.got - 2010.04.14 03:12:58.
