data_PCOD8195304
_publ_section_title
;
Structure prediction by ZEFSAII (Michael W. Deem and Ramdas Pophale) SiO2 
 PCOD8195304
Probable space group: P M M M
;
_chemical_formula_sum "Si O2"
_cell_formula_units_Z 40
_cell_length_a 19.812207
_cell_length_b 13.876367
_cell_length_c 9.789787
_cell_angle_alpha 90.000000
_cell_angle_beta 90.000000
_cell_angle_gamma 90.000000
_cell_volume 2691.422490
_symmetry_space_group_name_H-M "P M M M"
_symmetry_group_IT_number 47
_symmetry_cell_setting 'orthorhombic'
loop_
_space_group_symop_operation_xyz
x,y,z
-x,-y,z
x,-y,-z
-x,y,-z
-x,-y,-z
x,y,-z
-x,y,z
x,-y,z
loop_
_atom_site_type_symbol
_atom_site_label
_atom_site_fract_x
_atom_site_fract_y
_atom_site_fract_z
Si Si1 0.420285 0.733474 0.253852
Si Si2 0.806671 0.885510 0.155692
Si Si3 0.579903 0.394628 0.500000
Si Si4 0.075563 0.114627 0.653034
Si Si5 0.580028 0.609390 0.000000
Si Si6 0.319055 0.112959 0.340272
O O1 0.500000 0.754003 0.252528
O O2 0.395013 0.663400 0.371207
O O3 0.384394 0.835789 0.275161
O O4 0.394836 0.674002 0.124489
O O5 0.873415 0.844467 0.232078
O O6 0.744020 0.852383 0.249101
O O7 0.809318 0.000000 0.149195
O O8 0.802047 0.844393 0.000000
O O9 0.613574 0.500000 0.500000
O O10 0.500000 0.404881 0.500000
O O11 0.095671 0.150375 0.500000
O O12 0.000000 0.150167 0.689593
O O13 0.078483 0.000000 0.653852
O O14 0.610524 0.500000 0.000000
O O15 0.500000 0.598905 0.000000
O O16 0.307503 0.139360 0.500000
O O17 0.332122 0.000000 0.324179
#
# Coordination Sequence:
#
# PCOD8195304 Si02
#       6
#     8   8   4   8   4   8
#     4  10  19  31  46  66  85 107 142 179 219 265
#     4   9  17  27  39  55  76 106 144 181 213 248
#     4   9  16  28  47  67  85 101 127 174 224 270
#     4   8  13  22  37  56  77 101 132 172 214 253
#     4   9  18  32  49  67  87 107 127 164 222 280
#     4  10  20  32  44  58  82 117 152 185 217 250
#
# _framework density 14.862029
#
# number of rings (size 3 to 8) (size 9 to 14) (size 15 to 20)
#    0.000    2.800    1.000    1.800    1.400    5.600 
#    0.000    3.000    0.000    1.800    0.000    0.000 
#    0.000    0.000    0.000    0.000    0.000    6.000 
#
# Total GULP energy -495623.419287 kJ/mol
# GULP energy per Si atom -12390.585482 kJ/mol
# Density = 1.482820 g / cm^3
# Si number density = 14.862029 Si / 1000 Ang^3
#
#
#
# Elastic Constant Matrix: (Units=GPa)
#
#
# Indices 1 2 3 4 5 6 
#
# 1 79.6857 32.9022 56.0347 0.0000 0.0000 0.0000
# 2 32.9022 47.6709 38.0645 0.0000 0.0000 0.0000
# 3 56.0347 38.0645 142.3480 0.0000 0.0000 0.0000
# 4 0.0000 0.0000 0.0000 28.3495 0.0000 0.0000
# 5 0.0000 0.0000 0.0000 0.0000 25.2773 0.0000
# 6 0.0000 0.0000 0.0000 0.0000 0.0000 1.6359
#
#
#
# Elastic Compliance Matrix: (Units=1/GPa)
#
#
# Indices 1 2 3 4 5 6 
#
# 1 0.020381 -0.009741 -0.005418 0.000000 0.000000 0.000000
# 2 -0.009741 0.031327 -0.004543 0.000000 0.000000 0.000000
# 3 -0.005418 -0.004543 0.010373 0.000000 0.000000 0.000000
# 4 0.000000 0.000000 0.000000 0.035274 0.000000 0.000000
# 5 0.000000 0.000000 0.000000 0.000000 0.039561 0.000000
# 6 0.000000 0.000000 0.000000 0.000000 0.000000 0.611271
#
#
# Mechanical properties :
#
#
# Convention : Reuss Voigt Hill
#
# Bulk Modulus (GPa) = 44.09553 58.18972 51.14263
# Shear Modulus (GPa) = 6.28812 20.56610 13.42711
#
# Velocity S-wave (km/s) = 2.05917 3.72398 3.00901
# Velocity P-wave (km/s) = 5.94877 7.59796 6.82338
#
# Compressibility (1/GPa) = 0.02267803
#
# Stress axis : x y z
#
# Youngs Moduli (GPa) = 49.06438 31.92096 96.40695
#
# Poissons Ratio (x) = 0.31093 0.52237
# Poissons Ratio (y) = 0.47792 0.43795
# Poissons Ratio (z) = 0.26585 0.14501
#
# Static dielectric constant tensor:
#      x y z
#    x 2.804180 0.000000 0.000000 
#    y 0.000000 2.560780 0.000000 
#    z 0.000000 0.000000 3.224670 
# 
# 
# High freq. dielectric constant tensor:
#      x y z
#    x 1.546980 0.000000 0.000000 
#    y 0.000000 1.517180 0.000000 
#    z 0.000000 0.000000 1.589950 
# 
# From -- ./inp_files/10829.got.cif
#   From: 2010.03.12/outbox.cif.g09.slc.cpg/sg47_6_cif.got.tgz:10829.got - 2010.04.14 03:12:58.
