data_PCOD8195603
_publ_section_title
;
Structure prediction by ZEFSAII (Michael W. Deem and Ramdas Pophale) SiO2 
 PCOD8195603
Probable space group: P M M M
;
_chemical_formula_sum "Si O2"
_cell_formula_units_Z 56
_cell_length_a 22.432437
_cell_length_b 9.123672
_cell_length_c 14.858885
_cell_angle_alpha 90.000000
_cell_angle_beta 90.000000
_cell_angle_gamma 90.000000
_cell_volume 3041.111490
_symmetry_space_group_name_H-M "P M M M"
_symmetry_group_IT_number 47
_symmetry_cell_setting 'orthorhombic'
loop_
_space_group_symop_operation_xyz
x,y,z
-x,-y,z
x,-y,-z
-x,y,-z
-x,-y,-z
x,y,-z
-x,y,z
x,-y,z
loop_
_atom_site_type_symbol
_atom_site_label
_atom_site_fract_x
_atom_site_fract_y
_atom_site_fract_z
Si Si1 0.216187 0.829008 0.101768
Si Si2 0.349970 0.833546 0.864921
Si Si3 0.568555 0.673257 0.000000
Si Si4 0.274223 0.666166 0.400496
Si Si5 0.500000 0.327535 0.604594
Si Si6 0.383430 0.833256 0.340101
Si Si7 0.169743 0.673924 0.270182
Si Si8 0.066807 0.674124 0.600571
O O1 0.284278 0.773528 0.111079
O O2 0.173214 0.744249 0.171091
O O3 0.212904 0.000000 0.125309
O O4 0.193962 0.797379 0.000000
O O5 0.399685 0.734562 0.911433
O O6 0.358926 0.822343 0.759750
O O7 0.356783 0.000000 0.899852
O O8 0.573731 0.500000 0.000000
O O9 0.500000 0.724782 0.000000
O O10 0.244937 0.672643 0.500000
O O11 0.293310 0.500000 0.377003
O O12 0.332747 0.766202 0.403412
O O13 0.226931 0.724101 0.327975
O O14 0.500000 0.500000 0.620548
O O15 0.500000 0.286205 0.500000
O O16 0.442972 0.259836 0.652378
O O17 0.396297 0.000000 0.369250
O O18 0.166925 0.500000 0.259693
O O19 0.111916 0.735135 0.323579
O O20 0.083203 0.732246 0.500000
O O21 0.070854 0.500000 0.599051
O O22 0.000000 0.725302 0.626309
#
# Coordination Sequence:
#
# PCOD8195603 Si02
#       8
#     8   8   4   8   4   8   8   8
#     4  10  20  37  57  76 103 140 179 220 272 330
#     4  10  21  39  58  76 101 136 173 213 266 324
#     4  11  25  39  55  83 109 131 166 215 270 327
#     4  10  20  33  50  76 111 144 171 209 268 325
#     4  11  25  43  59  74  99 136 173 213 266 321
#     4  11  23  38  57  79 101 131 176 221 260 312
#     4  10  19  31  52  83 113 141 181 229 271 315
#     4   8  14  27  50  81 117 155 190 223 264 317
#
# _framework density 18.41432
#
# number of rings (size 3 to 8) (size 9 to 14) (size 15 to 20)
#    0.000    2.000    2.143    2.143    1.000    6.857 
#    0.000    0.000    0.000    2.143    0.000    4.000 
#    0.000    0.000    0.000    0.000    0.000    0.000 
#
# Total GULP energy -694429.660187 kJ/mol
# GULP energy per Si atom -12400.529646 kJ/mol
# Density = 1.837241 g / cm^3
# Si number density = 18.414320 Si / 1000 Ang^3
#
#
#
# Elastic Constant Matrix: (Units=GPa)
#
#
# Indices 1 2 3 4 5 6 
#
# 1 117.0026 34.9114 55.2820 0.0000 0.0000 0.0000
# 2 34.9114 52.8730 33.5346 0.0000 0.0000 0.0000
# 3 55.2820 33.5346 111.2645 0.0000 0.0000 0.0000
# 4 0.0000 0.0000 0.0000 26.3675 0.0000 0.0000
# 5 0.0000 0.0000 0.0000 0.0000 30.1845 0.0000
# 6 0.0000 0.0000 0.0000 0.0000 0.0000 -25.8481
#
#
#
# Elastic Compliance Matrix: (Units=1/GPa)
#
#
# Indices 1 2 3 4 5 6 
#
# 1 0.012233 -0.005220 -0.004505 0.000000 0.000000 0.000000
# 2 -0.005220 0.025611 -0.005125 0.000000 0.000000 0.000000
# 3 -0.004505 -0.005125 0.012770 0.000000 0.000000 0.000000
# 4 0.000000 0.000000 0.000000 0.037926 0.000000 0.000000
# 5 0.000000 0.000000 0.000000 0.000000 0.033130 0.000000
# 6 0.000000 0.000000 0.000000 0.000000 0.000000 -0.038688
#
#
# Mechanical properties :
#
#
# Convention : Reuss Voigt Hill
#
# Bulk Modulus (GPa) = 47.81500 58.73288 53.27394
# Shear Modulus (GPa) = 41.78759 16.63492 29.21125
#
# Velocity S-wave (km/s) = 4.76888 3.00887 3.98720
# Velocity P-wave (km/s) = 7.50637 6.63593 7.08453
#
# Compressibility (1/GPa) = 0.02091394
#
# Stress axis : x y z
#
# Youngs Moduli (GPa) = 81.74787 39.04609 78.30584
#
# Poissons Ratio (x) = 0.20383 0.35273
# Poissons Ratio (y) = 0.42673 0.40134
# Poissons Ratio (z) = 0.36824 0.20012
#
# Static dielectric constant tensor:
#      x y z
#    x 3.398930 0.000000 0.000000 
#    y 0.000000 3.228380 0.000000 
#    z 0.000000 0.000000 3.452350 
# 
# 
# High freq. dielectric constant tensor:
#      x y z
#    x 1.701670 0.000000 0.000000 
#    y 0.000000 1.694840 0.000000 
#    z 0.000000 0.000000 1.722670 
# 
# From -- ./inp_files/25217.got.cif
#   From: 2010.03.12/outbox.cif.g09.slc.cpg/sg47_13_cif.got.tgz:25217.got - 2010.04.14 03:12:58.
