data_PCOD8195408
_publ_section_title
;
Structure prediction by ZEFSAII (Michael W. Deem and Ramdas Pophale) SiO2 
 PCOD8195408
Probable space group: P M M M
;
_chemical_formula_sum "Si O2"
_cell_formula_units_Z 44
_cell_length_a 9.968535
_cell_length_b 29.564861
_cell_length_c 8.124420
_cell_angle_alpha 90.000000
_cell_angle_beta 90.000000
_cell_angle_gamma 90.000000
_cell_volume 2394.415671
_symmetry_space_group_name_H-M "P M M M"
_symmetry_group_IT_number 47
_symmetry_cell_setting 'orthorhombic'
loop_
_space_group_symop_operation_xyz
x,y,z
-x,-y,z
x,-y,-z
-x,y,-z
-x,-y,-z
x,y,-z
-x,y,z
x,-y,z
loop_
_atom_site_type_symbol
_atom_site_label
_atom_site_fract_x
_atom_site_fract_y
_atom_site_fract_z
Si Si1 0.650777 0.800258 0.188272
Si Si2 0.145785 0.625025 0.307808
Si Si3 0.348974 0.449506 0.193968
Si Si4 0.155795 0.274922 0.691096
Si Si5 0.340049 0.948490 0.000000
Si Si6 0.340902 0.104741 0.682343
O O1 0.500000 0.785567 0.241658
O O2 0.751266 0.758727 0.207846
O O3 0.701340 0.842945 0.294405
O O4 0.650150 0.816263 0.000000
O O5 0.128703 0.631098 0.500000
O O6 0.253431 0.586984 0.273170
O O7 0.188261 0.674458 0.240636
O O8 0.000000 0.610997 0.233181
O O9 0.500000 0.440152 0.255394
O O10 0.304662 0.500000 0.248737
O O11 0.341233 0.445128 0.000000
O O12 0.192397 0.270216 0.500000
O O13 0.000000 0.263391 0.722366
O O14 0.281667 0.925413 0.167558
O O15 0.500000 0.945051 0.000000
O O16 0.290468 0.000000 0.000000
O O17 0.289211 0.088944 0.500000
O O18 0.500000 0.100793 0.688716
#
# Coordination Sequence:
#
# PCOD8195408 Si02
#       6
#     8   8   8   8   4   8
#     4  10  19  31  48  71  99 130 167 209 250 298
#     4   9  19  35  52  71  97 127 159 199 246 294
#     4   9  19  35  52  71  97 127 159 198 243 291
#     4   9  19  35  51  69  97 130 163 202 248 298
#     4   9  16  26  40  62  95 131 169 213 256 305
#     4   9  16  27  43  63  92 130 168 209 257 304
#
# _framework density 18.376090000000001
#
# number of rings (size 3 to 8) (size 9 to 14) (size 15 to 20)
#    0.000    2.818    0.909    2.182    0.000    4.727 
#    0.000   10.000    0.000    0.000    0.000    0.000 
#    0.000    1.455    0.000    3.818    0.000    3.636 
#
# Total GULP energy -545308.608707 kJ/mol
# GULP energy per Si atom -12393.377471 kJ/mol
# Density = 1.833427 g / cm^3
# Si number density = 18.376090 Si / 1000 Ang^3
#
#
#
# Elastic Constant Matrix: (Units=GPa)
#
#
# Indices 1 2 3 4 5 6 
#
# 1 52.5217 49.8961 21.5525 0.0000 0.0000 0.0000
# 2 49.8961 125.4183 48.4980 0.0000 0.0000 0.0000
# 3 21.5525 48.4980 82.6371 0.0000 0.0000 0.0000
# 4 0.0000 0.0000 0.0000 29.9054 0.0000 0.0000
# 5 0.0000 0.0000 0.0000 0.0000 204.4196 0.0000
# 6 0.0000 0.0000 0.0000 0.0000 0.0000 -35.7166
#
#
#
# Elastic Compliance Matrix: (Units=1/GPa)
#
#
# Indices 1 2 3 4 5 6 
#
# 1 0.030683 -0.011787 -0.001085 0.000000 0.000000 0.000000
# 2 -0.011787 0.014842 -0.005636 0.000000 0.000000 0.000000
# 3 -0.001085 -0.005636 0.015692 0.000000 0.000000 0.000000
# 4 0.000000 0.000000 0.000000 0.033439 0.000000 0.000000
# 5 0.000000 0.000000 0.000000 0.000000 0.004892 0.000000
# 6 0.000000 0.000000 0.000000 0.000000 0.000000 -0.027998
#
#
# Mechanical properties :
#
#
# Convention : Reuss Voigt Hill
#
# Bulk Modulus (GPa) = 41.32172 55.60782 48.46477
# Shear Modulus (GPa) = 42.86933 49.09703 45.98318
#
# Velocity S-wave (km/s) = 4.83524 5.17454 5.00776
# Velocity P-wave (km/s) = 7.32859 8.12575 7.73744
#
# Compressibility (1/GPa) = 0.02420035
#
# Stress axis : x y z
#
# Youngs Moduli (GPa) = 32.59128 67.37470 63.72736
#
# Poissons Ratio (x) = 0.79418 0.06912
# Poissons Ratio (y) = 0.38417 0.35919
# Poissons Ratio (z) = 0.03535 0.37975
#
# Static dielectric constant tensor:
#      x y z
#    x 2.728420 0.000000 0.000000 
#    y 0.000000 4.087950 0.000000 
#    z 0.000000 0.000000 3.431320 
# 
# 
# High freq. dielectric constant tensor:
#      x y z
#    x 1.672290 0.000000 0.000000 
#    y 0.000000 1.713870 0.000000 
#    z 0.000000 0.000000 1.714530 
# 
# From -- ./inp_files/1969.got.cif
#   From: 2010.03.12/outbox.cif.g09.slc.cpg/sg47_1_cif.got.tgz:1969.got - 2010.04.14 03:12:58.
