data_PCOD8195606
_publ_section_title
;
Structure prediction by ZEFSAII (Michael W. Deem and Ramdas Pophale) SiO2 
 PCOD8195606
Probable space group: P M M M
;
_chemical_formula_sum "Si O2"
_cell_formula_units_Z 64
_cell_length_a 15.455334
_cell_length_b 23.824738
_cell_length_c 9.509784
_cell_angle_alpha 90.000000
_cell_angle_beta 90.000000
_cell_angle_gamma 90.000000
_cell_volume 3501.685848
_symmetry_space_group_name_H-M "P M M M"
_symmetry_group_IT_number 47
_symmetry_cell_setting 'orthorhombic'
loop_
_space_group_symop_operation_xyz
x,y,z
-x,-y,z
x,-y,-z
-x,y,-z
-x,-y,-z
x,y,-z
-x,y,z
x,-y,z
loop_
_atom_site_type_symbol
_atom_site_label
_atom_site_fract_x
_atom_site_fract_y
_atom_site_fract_z
Si Si1 0.850840 0.936795 0.661364
Si Si2 0.899976 0.565006 0.338050
Si Si3 0.095837 0.164016 0.160854
Si Si4 0.751106 0.241341 0.833116
Si Si5 0.596123 0.834688 0.838719
Si Si6 0.595472 0.562993 0.166933
Si Si7 0.351045 0.063263 0.661893
Si Si8 0.240572 0.631876 0.831866
O O1 0.872545 0.923758 0.500000
O O2 0.903945 0.894371 0.756872
O O3 0.749928 0.928837 0.691151
O O4 0.879555 0.000000 0.699282
O O5 0.877500 0.578364 0.500000
O O6 0.881399 0.500000 0.304953
O O7 0.842292 0.602493 0.235675
O O8 0.000000 0.579225 0.307400
O O9 0.164779 0.208088 0.223687
O O10 0.000000 0.190597 0.173980
O O11 0.119445 0.150546 0.000000
O O12 0.664723 0.210151 0.776937
O O13 0.754967 0.304466 0.775436
O O14 0.750229 0.243794 0.000000
O O15 0.500000 0.808541 0.824832
O O16 0.597069 0.893182 0.756331
O O17 0.619124 0.848149 0.000000
O O18 0.500000 0.583626 0.218224
O O19 0.612573 0.500000 0.222904
O O20 0.671171 0.603019 0.224083
O O21 0.597253 0.563114 0.000000
O O22 0.373010 0.075322 0.500000
O O23 0.379666 0.000000 0.701538
O O24 0.231558 0.627992 0.000000
#
# Coordination Sequence:
#
# PCOD8195606 Si02
#       8
#     8   8   8   8   8   8   8   8
#     4   9  18  33  53  76 100 125 156 201 256 306
#     4   9  19  36  55  76 107 143 172 205 258 315
#     4  10  20  34  52  71  95 131 169 202 245 305
#     4   9  19  35  50  71 104 135 165 209 258 291
#     4  10  20  34  53  75 100 134 174 210 249 304
#     4   8  14  25  43  72 108 136 159 198 252 300
#     4   9  18  33  53  76 101 129 162 205 260 314
#     4  10  19  31  53  80 103 134 178 220 253 293
#
# _framework density 18.276910999999998
#
# number of rings (size 3 to 8) (size 9 to 14) (size 15 to 20)
#    0.000    2.750    1.250    1.875    0.000    3.500 
#    0.000    9.375    0.000    0.375    0.000    1.750 
#    0.000    0.000    0.000    0.000    0.000    0.000 
#
# Total GULP energy -793443.267181 kJ/mol
# GULP energy per Si atom -12397.551050 kJ/mol
# Density = 1.823531 g / cm^3
# Si number density = 18.276911 Si / 1000 Ang^3
#
#
#
# Elastic Constant Matrix: (Units=GPa)
#
#
# Indices 1 2 3 4 5 6 
#
# 1 128.6160 76.7167 36.0999 0.0000 0.0000 0.0000
# 2 76.7167 131.5764 40.1177 0.0000 0.0000 0.0000
# 3 36.0999 40.1177 40.7015 0.0000 0.0000 0.0000
# 4 0.0000 0.0000 0.0000 16.7518 0.0000 0.0000
# 5 0.0000 0.0000 0.0000 0.0000 18.6253 0.0000
# 6 0.0000 0.0000 0.0000 0.0000 0.0000 14.6244
#
#
#
# Elastic Compliance Matrix: (Units=1/GPa)
#
#
# Indices 1 2 3 4 5 6 
#
# 1 0.012786 -0.005715 -0.005708 0.000000 0.000000 0.000000
# 2 -0.005715 0.013420 -0.008159 0.000000 0.000000 0.000000
# 3 -0.005708 -0.008159 0.037673 0.000000 0.000000 0.000000
# 4 0.000000 0.000000 0.000000 0.059695 0.000000 0.000000
# 5 0.000000 0.000000 0.000000 0.000000 0.053690 0.000000
# 6 0.000000 0.000000 0.000000 0.000000 0.000000 0.068379
#
#
# Mechanical properties :
#
#
# Convention : Reuss Voigt Hill
#
# Bulk Modulus (GPa) = 40.45834 67.41806 53.93820
# Shear Modulus (GPa) = 17.06234 19.86429 18.46331
#
# Velocity S-wave (km/s) = 3.05871 3.30032 3.18181
# Velocity P-wave (km/s) = 5.88716 7.17565 6.56310
#
# Compressibility (1/GPa) = 0.02471678
#
# Stress axis : x y z
#
# Youngs Moduli (GPa) = 78.21232 74.51755 26.54413
#
# Poissons Ratio (x) = 0.42584 0.15150
# Poissons Ratio (y) = 0.44695 0.21656
# Poissons Ratio (z) = 0.44641 0.60796
#
# Static dielectric constant tensor:
#      x y z
#    x 3.507310 0.000000 0.000000 
#    y 0.000000 3.450150 0.000000 
#    z 0.000000 0.000000 3.021130 
# 
# 
# High freq. dielectric constant tensor:
#      x y z
#    x 1.720420 0.000000 0.000000 
#    y 0.000000 1.702450 0.000000 
#    z 0.000000 0.000000 1.671710 
# 
# From -- ./inp_files/7870.got.cif
#   From: 2010.03.12/outbox.cif.g09.slc.cpg/sg47_4_cif.got.tgz:7870.got - 2010.04.14 03:12:58.
