data_PCOD8195878
_publ_section_title
;
Structure prediction by ZEFSAII (Michael W. Deem and Ramdas Pophale) SiO2 
 PCOD8195878
Probable space group: P M M M
;
_chemical_formula_sum "Si O2"
_cell_formula_units_Z 40
_cell_length_a 9.392119
_cell_length_b 8.044438
_cell_length_c 27.437897
_cell_angle_alpha 90.000000
_cell_angle_beta 90.000000
_cell_angle_gamma 90.000000
_cell_volume 2073.051622
_symmetry_space_group_name_H-M "P M M M"
_symmetry_group_IT_number 47
_symmetry_cell_setting 'orthorhombic'
loop_
_space_group_symop_operation_xyz
x,y,z
-x,-y,z
x,-y,-z
-x,y,-z
-x,-y,-z
x,y,-z
-x,y,z
x,-y,z
loop_
_atom_site_type_symbol
_atom_site_label
_atom_site_fract_x
_atom_site_fract_y
_atom_site_fract_z
Si Si1 0.334567 0.313520 0.617022
Si Si2 0.330853 0.000000 0.445432
Si Si3 0.339622 0.801403 0.000000
Si Si4 0.840497 0.804635 0.090306
Si Si5 0.168315 0.688083 0.806956
Si Si6 0.164616 0.189716 0.295405
O O1 0.500000 0.282329 0.627718
O O2 0.310593 0.500000 0.595024
O O3 0.276576 0.169475 0.580782
O O4 0.252501 0.304676 0.668060
O O5 0.500000 0.000000 0.447322
O O6 0.267356 0.000000 0.500000
O O7 0.258871 0.731251 0.952280
O O8 0.500000 0.731381 0.000000
O O9 0.340663 0.000000 0.000000
O O10 0.769594 0.760831 0.142594
O O11 0.000000 0.728011 0.085420
O O12 0.850366 0.000000 0.084770
O O13 0.218690 0.500000 0.801023
O O14 0.223882 0.787354 0.759595
O O15 0.000000 0.707251 0.809769
O O16 0.000000 0.244696 0.298094
O O17 0.185479 0.000000 0.311279
#
# Coordination Sequence:
#
# PCOD8195878 Si02
#       6
#     8   4   4   8   8   8
#     4  10  20  34  54  80 109 141 178 221 269 318
#     4   9  18  34  55  79 109 143 181 226 269 310
#     4   9  17  29  46  67  90 116 150 193 242 296
#     4   9  16  28  47  68  88 114 153 198 240 286
#     4   9  17  29  46  70  98 126 160 204 248 294
#     4  10  19  32  53  79 106 139 176 213 259 315
#
# _framework density 19.295226
#
# number of rings (size 3 to 8) (size 9 to 14) (size 15 to 20)
#    0.000    2.600    1.000    1.500    0.000    5.200 
#    0.000    3.500    0.000    8.400    0.000    1.400 
#    0.000    0.000    0.000    0.000    0.000    0.000 
#
# Total GULP energy -495845.336138 kJ/mol
# GULP energy per Si atom -12396.133403 kJ/mol
# Density = 1.925131 g / cm^3
# Si number density = 19.295226 Si / 1000 Ang^3
#
#
#
# Elastic Constant Matrix: (Units=GPa)
#
#
# Indices 1 2 3 4 5 6 
#
# 1 51.6315 23.5748 47.1858 0.0000 0.0000 0.0000
# 2 23.5748 85.1672 50.9672 0.0000 0.0000 0.0000
# 3 47.1858 50.9672 159.6496 0.0000 0.0000 0.0000
# 4 0.0000 0.0000 0.0000 18.8681 0.0000 0.0000
# 5 0.0000 0.0000 0.0000 0.0000 19.0961 0.0000
# 6 0.0000 0.0000 0.0000 0.0000 0.0000 15.0143
#
#
#
# Elastic Compliance Matrix: (Units=1/GPa)
#
#
# Indices 1 2 3 4 5 6 
#
# 1 0.027297 -0.003372 -0.006991 0.000000 0.000000 0.000000
# 2 -0.003372 0.014931 -0.003770 0.000000 0.000000 0.000000
# 3 -0.006991 -0.003770 0.009534 0.000000 0.000000 0.000000
# 4 0.000000 0.000000 0.000000 0.053000 0.000000 0.000000
# 5 0.000000 0.000000 0.000000 0.000000 0.052367 0.000000
# 6 0.000000 0.000000 0.000000 0.000000 0.000000 0.066603
#
#
# Mechanical properties :
#
#
# Convention : Reuss Voigt Hill
#
# Bulk Modulus (GPa) = 42.56249 59.98933 51.27591
# Shear Modulus (GPa) = 19.24336 22.24373 20.74355
#
# Velocity S-wave (km/s) = 3.16145 3.39899 3.28237
# Velocity P-wave (km/s) = 5.95255 6.82363 6.40292
#
# Compressibility (1/GPa) = 0.02349486
#
# Stress axis : x y z
#
# Youngs Moduli (GPa) = 36.63393 66.97407 104.89183
#
# Poissons Ratio (x) = 0.22585 0.73334
# Poissons Ratio (y) = 0.12353 0.39544
# Poissons Ratio (z) = 0.25612 0.25249
#
# Static dielectric constant tensor:
#      x y z
#    x 3.234030 0.000000 0.000000 
#    y 0.000000 3.455670 0.000000 
#    z 0.000000 0.000000 3.731680 
# 
# 
# High freq. dielectric constant tensor:
#      x y z
#    x 1.702850 0.000000 0.000000 
#    y 0.000000 1.747030 0.000000 
#    z 0.000000 0.000000 1.757540 
# 
# From -- ./inp_files/1854.got.cif
#   From: 2010.03.12/outbox.cif.g09.slc.cpg/sg47_1_cif.got.tgz:1854.got - 2010.04.14 03:12:58.
