data_PCOD8195631
_publ_section_title
;
Structure prediction by ZEFSAII (Michael W. Deem and Ramdas Pophale) SiO2 
 PCOD8195631
Probable space group: P M M M
;
_chemical_formula_sum "Si O2"
_cell_formula_units_Z 56
_cell_length_a 16.645370
_cell_length_b 28.569524
_cell_length_c 8.912333
_cell_angle_alpha 90.000000
_cell_angle_beta 90.000000
_cell_angle_gamma 90.000000
_cell_volume 4238.262611
_symmetry_space_group_name_H-M "P M M M"
_symmetry_group_IT_number 47
_symmetry_cell_setting 'orthorhombic'
loop_
_space_group_symop_operation_xyz
x,y,z
-x,-y,z
x,-y,-z
-x,y,-z
-x,-y,-z
x,y,-z
-x,y,z
x,-y,z
loop_
_atom_site_type_symbol
_atom_site_label
_atom_site_fract_x
_atom_site_fract_y
_atom_site_fract_z
Si Si1 0.178793 0.586354 0.677873
Si Si2 0.095499 0.948746 0.668841
Si Si3 0.500000 0.555536 0.668930
Si Si4 0.905005 0.500000 0.170062
Si Si5 0.904664 0.233776 0.332156
Si Si6 0.337661 0.555004 0.175065
Si Si7 0.905520 0.672127 0.173833
Si Si8 0.095927 0.142168 0.168032
O O1 0.180096 0.581475 0.500000
O O2 0.124147 0.545831 0.745853
O O3 0.268621 0.583365 0.740678
O O4 0.141710 0.635607 0.724502
O O5 0.127340 0.941952 0.500000
O O6 0.131040 0.906849 0.769286
O O7 0.000000 0.946167 0.669697
O O8 0.122921 0.000000 0.730328
O O9 0.500000 0.500000 0.664999
O O10 0.500000 0.575889 0.500000
O O11 0.578366 0.573073 0.757378
O O12 0.000000 0.500000 0.167830
O O13 0.870496 0.500000 0.000000
O O14 0.870319 0.240668 0.500000
O O15 0.877573 0.276544 0.226684
O O16 0.870131 0.185410 0.265071
O O17 0.000000 0.231045 0.336489
O O18 0.324312 0.500000 0.204393
O O19 0.336250 0.566836 0.000000
O O20 0.000000 0.664798 0.200042
O O21 0.882912 0.665429 0.000000
O O22 0.000000 0.141742 0.172326
O O23 0.127922 0.148336 0.000000
#
# Coordination Sequence:
#
# PCOD8195631 Si02
#       8
#     8   8   4   4   8   8   8   8
#     4  12  23  33  47  64  82 101 125 154 184 217
#     4   8  13  20  28  38  54  76 100 126 159 201
#     4   9  17  29  47  69  91 107 125 149 174 204
#     4  11  23  37  49  60  77 102 129 155 185 221
#     4   9  16  26  39  52  65  82 108 142 177 213
#     4  10  19  32  49  66  86 108 129 148 174 212
#     4  10  20  33  46  58  74  96 122 153 189 226
#     4   9  15  21  30  44  60  78 101 130 166 207
#
# _framework density 13.212961
#
# number of rings (size 3 to 8) (size 9 to 14) (size 15 to 20)
#    0.000    2.286    0.714    4.286    0.000    8.286 
#    0.000    1.429    0.000    0.000    0.000    0.000 
#    0.000    0.000    0.000    0.000    0.000    0.000 
#
# Total GULP energy -694315.477456 kJ/mol
# GULP energy per Si atom -12398.490669 kJ/mol
# Density = 1.318289 g / cm^3
# Si number density = 13.212961 Si / 1000 Ang^3
#
#
#
# Elastic Constant Matrix: (Units=GPa)
#
#
# Indices 1 2 3 4 5 6 
#
# 1 43.2361 23.0499 30.3237 0.0000 0.0000 0.0000
# 2 23.0499 88.6305 41.5620 0.0000 0.0000 0.0000
# 3 30.3237 41.5620 109.1687 0.0000 0.0000 0.0000
# 4 0.0000 0.0000 0.0000 24.7889 0.0000 0.0000
# 5 0.0000 0.0000 0.0000 0.0000 15.6132 0.0000
# 6 0.0000 0.0000 0.0000 0.0000 0.0000 1.4014
#
#
#
# Elastic Compliance Matrix: (Units=1/GPa)
#
#
# Indices 1 2 3 4 5 6 
#
# 1 0.030308 -0.004789 -0.006595 0.000000 0.000000 0.000000
# 2 -0.004789 0.014492 -0.004187 0.000000 0.000000 0.000000
# 3 -0.006595 -0.004187 0.012586 0.000000 0.000000 0.000000
# 4 0.000000 0.000000 0.000000 0.040341 0.000000 0.000000
# 5 0.000000 0.000000 0.000000 0.000000 0.064048 0.000000
# 6 0.000000 0.000000 0.000000 0.000000 0.000000 0.713563
#
#
# Mechanical properties :
#
#
# Convention : Reuss Voigt Hill
#
# Bulk Modulus (GPa) = 38.10585 47.87850 42.99218
# Shear Modulus (GPa) = 5.46312 18.10070 11.78191
#
# Velocity S-wave (km/s) = 2.03559 3.70526 2.98936
# Velocity P-wave (km/s) = 5.86747 7.39053 6.67260
#
# Compressibility (1/GPa) = 0.02624269
#
# Stress axis : x y z
#
# Youngs Moduli (GPa) = 32.99504 69.00500 79.45309
#
# Poissons Ratio (x) = 0.33049 0.52400
# Poissons Ratio (y) = 0.15802 0.33266
# Poissons Ratio (z) = 0.21761 0.28891
#
# Static dielectric constant tensor:
#      x y z
#    x 2.279140 0.000000 0.000000 
#    y 0.000000 2.763600 0.000000 
#    z 0.000000 0.000000 2.868450 
# 
# 
# High freq. dielectric constant tensor:
#      x y z
#    x 1.437740 0.000000 0.000000 
#    y 0.000000 1.496230 0.000000 
#    z 0.000000 0.000000 1.523970 
# 
# From -- ./inp_files/8184.got.cif
#   From: 2010.03.12/outbox.cif.g09.slc.cpg/sg47_5_cif.got.tgz:8184.got - 2010.04.14 03:12:58.
