data_PCOD8195195
_publ_section_title
;
Structure prediction by ZEFSAII (Michael W. Deem and Ramdas Pophale) SiO2 
 PCOD8195195
Probable space group: P M M M
;
_chemical_formula_sum "Si O2"
_cell_formula_units_Z 64
_cell_length_a 16.218576
_cell_length_b 8.985958
_cell_length_c 23.612210
_cell_angle_alpha 90.000000
_cell_angle_beta 90.000000
_cell_angle_gamma 90.000000
_cell_volume 3441.230328
_symmetry_space_group_name_H-M "P M M M"
_symmetry_group_IT_number 47
_symmetry_cell_setting 'orthorhombic'
loop_
_space_group_symop_operation_xyz
x,y,z
-x,-y,z
x,-y,-z
-x,y,-z
-x,-y,-z
x,y,-z
-x,y,z
x,-y,z
loop_
_atom_site_type_symbol
_atom_site_label
_atom_site_fract_x
_atom_site_fract_y
_atom_site_fract_z
Si Si1 0.670049 0.832054 0.644974
Si Si2 0.091755 0.676637 0.063926
Si Si3 0.219405 0.673727 0.435905
Si Si4 0.242600 0.323022 0.140796
Si Si5 0.803726 0.169200 0.744030
Si Si6 0.592496 0.660655 0.266877
Si Si7 0.093704 0.329725 0.659628
Si Si8 0.595000 0.824296 0.844934
O O1 0.700974 0.764073 0.585915
O O2 0.737234 0.817174 0.694448
O O3 0.596489 0.732789 0.670410
O O4 0.641221 0.000000 0.634205
O O5 0.093774 0.500000 0.065368
O O6 0.166948 0.738127 0.102200
O O7 0.000000 0.729771 0.085076
O O8 0.105909 0.734238 0.000000
O O9 0.199547 0.722292 0.500000
O O10 0.239668 0.500000 0.432085
O O11 0.142714 0.719383 0.396685
O O12 0.250254 0.500000 0.137680
O O13 0.222126 0.272577 0.204206
O O14 0.331509 0.255214 0.118885
O O15 0.886932 0.231220 0.715084
O O16 0.816252 0.000000 0.764637
O O17 0.500000 0.621390 0.253628
O O18 0.640607 0.500000 0.263054
O O19 0.619937 0.778961 0.219101
O O20 0.114016 0.500000 0.675201
O O21 0.000000 0.305381 0.642862
O O22 0.500000 0.776801 0.861538
O O23 0.604028 0.000000 0.851026
#
# Coordination Sequence:
#
# PCOD8195195 Si02
#       8
#     8   8   8   8   8   8   8   8
#     4  10  19  31  48  68  96 131 162 197 242 298
#     4   8  16  33  55  79 107 138 177 226 274 317
#     4   9  18  32  50  70  91 120 161 208 255 302
#     4  11  20  30  53  83 108 138 177 222 268 315
#     4  10  20  32  46  68 100 135 167 200 246 307
#     4  10  19  30  48  74 101 129 163 204 248 297
#     4   9  18  32  49  69  95 126 161 206 256 307
#     4  10  20  33  49  73 109 148 180 211 254 312
#
# _framework density 18.597999000000002
#
# number of rings (size 3 to 8) (size 9 to 14) (size 15 to 20)
#    0.000    2.375    1.250    2.250    0.000    3.750 
#    0.000    2.500    0.000    3.375    0.000   12.250 
#    0.000    0.000    0.000    0.000    0.000    0.000 
#
# Total GULP energy -792919.571713 kJ/mol
# GULP energy per Si atom -12389.368308 kJ/mol
# Density = 1.855567 g / cm^3
# Si number density = 18.597999 Si / 1000 Ang^3
#
#
#
# Elastic Constant Matrix: (Units=GPa)
#
#
# Indices 1 2 3 4 5 6 
#
# 1 106.3665 33.3088 49.3331 0.0000 0.0000 0.0000
# 2 33.3088 77.6905 24.5978 0.0000 0.0000 0.0000
# 3 49.3331 24.5978 60.3397 0.0000 0.0000 0.0000
# 4 0.0000 0.0000 0.0000 9.6878 0.0000 0.0000
# 5 0.0000 0.0000 0.0000 0.0000 25.0568 0.0000
# 6 0.0000 0.0000 0.0000 0.0000 0.0000 24.2653
#
#
#
# Elastic Compliance Matrix: (Units=1/GPa)
#
#
# Indices 1 2 3 4 5 6 
#
# 1 0.015758 -0.003074 -0.011631 0.000000 0.000000 0.000000
# 2 -0.003074 0.015379 -0.003756 0.000000 0.000000 0.000000
# 3 -0.011631 -0.003756 0.027613 0.000000 0.000000 0.000000
# 4 0.000000 0.000000 0.000000 0.103223 0.000000 0.000000
# 5 0.000000 0.000000 0.000000 0.000000 0.039909 0.000000
# 6 0.000000 0.000000 0.000000 0.000000 0.000000 0.041211
#
#
# Mechanical properties :
#
#
# Convention : Reuss Voigt Hill
#
# Bulk Modulus (GPa) = 45.81088 50.98625 48.39857
# Shear Modulus (GPa) = 17.40394 20.94579 19.17487
#
# Velocity S-wave (km/s) = 3.06240 3.35959 3.21443
# Velocity P-wave (km/s) = 6.09836 6.52101 6.31322
#
# Compressibility (1/GPa) = 0.02182887
#
# Stress axis : x y z
#
# Youngs Moduli (GPa) = 63.45804 65.02522 36.21438
#
# Poissons Ratio (x) = 0.19987 0.42121
# Poissons Ratio (y) = 0.19505 0.13603
# Poissons Ratio (z) = 0.73807 0.24424
#
# Static dielectric constant tensor:
#      x y z
#    x 3.705840 0.000000 0.000000 
#    y 0.000000 3.436220 0.000000 
#    z 0.000000 0.000000 3.321920 
# 
# 
# High freq. dielectric constant tensor:
#      x y z
#    x 1.722760 0.000000 0.000000 
#    y 0.000000 1.717140 0.000000 
#    z 0.000000 0.000000 1.687100 
# 
# From -- ./inp_files/28921.got.cif
#   From: 2010.03.12/outbox.cif.g09.slc.cpg/sg47_15_cif.got.tgz:28921.got - 2010.04.14 03:12:58.
