data_PCOD8195817
_publ_section_title
;
Structure prediction by ZEFSAII (Michael W. Deem and Ramdas Pophale) SiO2 
 PCOD8195817
Probable space group: P M M M
;
_chemical_formula_sum "Si O2"
_cell_formula_units_Z 60
_cell_length_a 20.478418
_cell_length_b 8.730299
_cell_length_c 17.978054
_cell_angle_alpha 90.000000
_cell_angle_beta 90.000000
_cell_angle_gamma 90.000000
_cell_volume 3214.165254
_symmetry_space_group_name_H-M "P M M M"
_symmetry_group_IT_number 47
_symmetry_cell_setting 'orthorhombic'
loop_
_space_group_symop_operation_xyz
x,y,z
-x,-y,z
x,-y,-z
-x,y,-z
-x,-y,-z
x,y,-z
-x,y,z
x,-y,z
loop_
_atom_site_type_symbol
_atom_site_label
_atom_site_fract_x
_atom_site_fract_y
_atom_site_fract_z
Si Si1 0.258116 0.828363 0.644999
Si Si2 0.573270 0.181355 0.827113
Si Si3 0.866792 0.322089 0.583973
Si Si4 0.610928 0.678064 0.328469
Si Si5 0.500000 0.169935 0.586545
Si Si6 0.803773 0.829609 0.804887
Si Si7 0.073150 0.819724 0.723639
Si Si8 0.302389 0.816800 0.084163
O O1 0.201177 0.766510 0.592429
O O2 0.318398 0.714297 0.638272
O O3 0.237840 0.831126 0.730478
O O4 0.277065 0.000000 0.619184
O O5 0.500000 0.244801 0.845812
O O6 0.595269 0.229674 0.745774
O O7 0.627719 0.244150 0.885131
O O8 0.571788 0.000000 0.830380
O O9 0.893252 0.295517 0.500000
O O10 0.854840 0.500000 0.600018
O O11 0.919155 0.259159 0.643233
O O12 0.603601 0.500000 0.311271
O O13 0.562323 0.731706 0.391764
O O14 0.500000 0.147694 0.500000
O O15 0.500000 0.000000 0.624325
O O16 0.874527 0.752827 0.784506
O O17 0.759089 0.747420 0.868160
O O18 0.818384 0.000000 0.834050
O O19 0.000000 0.788538 0.753164
O O20 0.087136 0.000000 0.712280
O O21 0.301383 0.000000 0.090033
O O22 0.294399 0.758891 0.000000
#
# Coordination Sequence:
#
# PCOD8195817 Si02
#       8
#     8   8   8   8   4   8   8   8
#     4  10  19  34  56  76  99 135 178 219 260 310
#     4  10  19  32  52  76 106 143 182 223 265 322
#     4  10  21  35  50  74 108 138 168 215 272 323
#     4  12  23  35  55  80 105 136 174 222 275 323
#     4  11  25  43  59  75  98 133 178 225 273 326
#     4   8  14  27  48  73 100 132 170 217 261 302
#     4   9  18  32  51  74 100 137 185 228 264 312
#     4   9  16  27  48  80 111 138 175 224 273 317
#
# _framework density 18.667366999999999
#
# number of rings (size 3 to 8) (size 9 to 14) (size 15 to 20)
#    0.000    2.200    2.000    3.000    0.000    2.933 
#    0.000    2.667    0.000    0.800    0.000    3.733 
#    0.000    0.000    0.000    3.467    0.000    4.533 
#
# Total GULP energy -743630.536516 kJ/mol
# GULP energy per Si atom -12393.842275 kJ/mol
# Density = 1.862488 g / cm^3
# Si number density = 18.667367 Si / 1000 Ang^3
#
#
#
# Elastic Constant Matrix: (Units=GPa)
#
#
# Indices 1 2 3 4 5 6 
#
# 1 142.1023 18.4453 44.8755 0.0000 0.0000 0.0000
# 2 18.4453 26.3998 11.0665 0.0000 0.0000 0.0000
# 3 44.8755 11.0665 83.1529 0.0000 0.0000 0.0000
# 4 0.0000 0.0000 0.0000 5.7679 0.0000 0.0000
# 5 0.0000 0.0000 0.0000 0.0000 20.1698 0.0000
# 6 0.0000 0.0000 0.0000 0.0000 0.0000 -199.7885
#
#
#
# Elastic Compliance Matrix: (Units=1/GPa)
#
#
# Indices 1 2 3 4 5 6 
#
# 1 0.008957 -0.004482 -0.004237 0.000000 0.000000 0.000000
# 2 -0.004482 0.042360 -0.003219 0.000000 0.000000 0.000000
# 3 -0.004237 -0.003219 0.014741 0.000000 0.000000 0.000000
# 4 0.000000 0.000000 0.000000 0.173372 0.000000 0.000000
# 5 0.000000 0.000000 0.000000 0.000000 0.049579 0.000000
# 6 0.000000 0.000000 0.000000 0.000000 0.000000 -0.005005
#
#
# Mechanical properties :
#
#
# Convention : Reuss Voigt Hill
#
# Bulk Modulus (GPa) = 23.70681 44.49218 34.09949
# Shear Modulus (GPa) = 15.53080 -22.95231 -3.71076
#
# Velocity S-wave (km/s) = 2.88753 -3.51029 -1.41143
# Velocity P-wave (km/s) = 4.88306 2.73065 3.95605
#
# Compressibility (1/GPa) = 0.04218198
#
# Stress axis : x y z
#
# Youngs Moduli (GPa) = 111.64295 23.60724 67.83684
#
# Poissons Ratio (x) = 0.10581 0.28745
# Poissons Ratio (y) = 0.50038 0.21835
# Poissons Ratio (z) = 0.47308 0.07599
#
# Static dielectric constant tensor:
#      x y z
#    x 3.763060 0.000000 0.000000 
#    y 0.000000 3.231980 0.000000 
#    z 0.000000 0.000000 3.315270 
# 
# 
# High freq. dielectric constant tensor:
#      x y z
#    x 1.734300 0.000000 0.000000 
#    y 0.000000 1.695500 0.000000 
#    z 0.000000 0.000000 1.702820 
# 
# From -- ./inp_files/28775.got.cif
#   From: 2010.03.12/outbox.cif.g09.slc.cpg/sg47_15_cif.got.tgz:28775.got - 2010.04.14 03:12:58.
