data_PCOD8195947
_publ_section_title
;
Structure prediction by ZEFSAII (Michael W. Deem and Ramdas Pophale) SiO2 
 PCOD8195947
Probable space group: P M M M
;
_chemical_formula_sum "Si O2"
_cell_formula_units_Z 36
_cell_length_a 9.401933
_cell_length_b 20.924992
_cell_length_c 11.599383
_cell_angle_alpha 90.000000
_cell_angle_beta 90.000000
_cell_angle_gamma 90.000000
_cell_volume 2282.008939
_symmetry_space_group_name_H-M "P M M M"
_symmetry_group_IT_number 47
_symmetry_cell_setting 'orthorhombic'
loop_
_space_group_symop_operation_xyz
x,y,z
-x,-y,z
x,-y,-z
-x,y,-z
-x,-y,-z
x,y,-z
-x,y,z
x,-y,z
loop_
_atom_site_type_symbol
_atom_site_label
_atom_site_fract_x
_atom_site_fract_y
_atom_site_fract_z
Si Si1 0.830754 0.500000 0.126625
Si Si2 0.332667 0.928900 0.500000
Si Si3 0.163415 0.000000 0.863666
Si Si4 0.334331 0.756404 0.867935
Si Si5 0.159655 0.363261 0.862144
Si Si6 0.667990 0.113347 0.747845
O O1 0.786796 0.432705 0.188342
O O2 0.000000 0.500000 0.114160
O O3 0.760501 0.500000 0.000000
O O4 0.500000 0.936907 0.500000
O O5 0.285591 0.890661 0.613976
O O6 0.263685 0.000000 0.500000
O O7 0.243988 0.937697 0.819534
O O8 0.000000 0.000000 0.820359
O O9 0.170198 0.000000 0.000000
O O10 0.500000 0.742999 0.858596
O O11 0.257876 0.693877 0.816057
O O12 0.288507 0.816901 0.792230
O O13 0.288504 0.769409 0.000000
O O14 0.000000 0.348807 0.819917
O O15 0.165417 0.367257 0.000000
O O16 0.500000 0.100024 0.765471
#
# Coordination Sequence:
#
# PCOD8195947 Si02
#       6
#     4   4   4   8   8   8
#     4   7  10  18  33  53  75 104 143 174 196 233
#     4   9  16  30  52  72  82  99 142 189 219 252
#     4  11  23  34  45  66  92 113 138 175 214 255
#     4   9  17  27  39  59  86 113 139 167 205 254
#     4   8  13  22  37  55  78 110 143 172 201 238
#     4  10  19  33  51  66  84 112 145 179 216 260
#
# _framework density 15.775574000000001
#
# number of rings (size 3 to 8) (size 9 to 14) (size 15 to 20)
#    0.000    3.000    1.111    2.333    0.000    2.667 
#    0.000    3.889    0.000    3.333    0.000    0.000 
#    0.000    0.889    0.000   11.111    0.000    4.000 
#
# Total GULP energy -446060.787358 kJ/mol
# GULP energy per Si atom -12390.577427 kJ/mol
# Density = 1.573967 g / cm^3
# Si number density = 15.775574 Si / 1000 Ang^3
#
#
#
# Elastic Constant Matrix: (Units=GPa)
#
#
# Indices 1 2 3 4 5 6 
#
# 1 48.5444 58.4553 23.3360 0.0000 0.0000 0.0000
# 2 58.4553 183.5073 53.6758 0.0000 0.0000 0.0000
# 3 23.3360 53.6758 61.5178 0.0000 0.0000 0.0000
# 4 0.0000 0.0000 0.0000 -2.6423 0.0000 0.0000
# 5 0.0000 0.0000 0.0000 0.0000 9.7817 0.0000
# 6 0.0000 0.0000 0.0000 0.0000 0.0000 28.2505
#
#
#
# Elastic Compliance Matrix: (Units=1/GPa)
#
#
# Indices 1 2 3 4 5 6 
#
# 1 0.034394 -0.009586 -0.004683 0.000000 0.000000 0.000000
# 2 -0.009586 0.009989 -0.005079 0.000000 0.000000 0.000000
# 3 -0.004683 -0.005079 0.022463 0.000000 0.000000 0.000000
# 4 0.000000 0.000000 0.000000 -0.378460 0.000000 0.000000
# 5 0.000000 0.000000 0.000000 0.000000 0.102232 0.000000
# 6 0.000000 0.000000 0.000000 0.000000 0.000000 0.035398
#
#
# Mechanical properties :
#
#
# Convention : Reuss Voigt Hill
#
# Bulk Modulus (GPa) = 35.52356 62.72263 49.12309
# Shear Modulus (GPa) = -39.71237 17.61814 -11.04711
#
# Velocity S-wave (km/s) = -5.02275 3.34548 -2.64913
# Velocity P-wave (km/s) = 3.32721 7.40058 4.67431
#
# Compressibility (1/GPa) = 0.02815033
#
# Stress axis : x y z
#
# Youngs Moduli (GPa) = 29.07453 100.11347 44.51731
#
# Poissons Ratio (x) = 0.95974 0.20846
# Poissons Ratio (y) = 0.27872 0.22610
# Poissons Ratio (z) = 0.13614 0.50846
#
# Static dielectric constant tensor:
#      x y z
#    x 2.876330 0.000000 0.000000 
#    y 0.000000 3.432350 0.000000 
#    z 0.000000 0.000000 2.778790 
# 
# 
# High freq. dielectric constant tensor:
#      x y z
#    x 1.584900 0.000000 0.000000 
#    y 0.000000 1.622790 0.000000 
#    z 0.000000 0.000000 1.555770 
# 
# From -- ./inp_files/15012.got.cif
#   From: 2010.03.12/outbox.cif.g09.slc.cpg/sg47_8_cif.got.tgz:15012.got - 2010.04.14 03:12:58.
