data_PCOD8195917
_publ_section_title
;
Structure prediction by ZEFSAII (Michael W. Deem and Ramdas Pophale) SiO2 
 PCOD8195917
Probable space group: P M M M
;
_chemical_formula_sum "Si O2"
_cell_formula_units_Z 52
_cell_length_a 9.205604
_cell_length_b 14.127398
_cell_length_c 20.980988
_cell_angle_alpha 90.000000
_cell_angle_beta 90.000000
_cell_angle_gamma 90.000000
_cell_volume 2728.603328
_symmetry_space_group_name_H-M "P M M M"
_symmetry_group_IT_number 47
_symmetry_cell_setting 'orthorhombic'
loop_
_space_group_symop_operation_xyz
x,y,z
-x,-y,z
x,-y,-z
-x,y,-z
-x,-y,-z
x,y,-z
-x,y,z
x,-y,z
loop_
_atom_site_type_symbol
_atom_site_label
_atom_site_fract_x
_atom_site_fract_y
_atom_site_fract_z
Si Si1 0.833672 0.608532 0.243591
Si Si2 0.172581 0.607972 0.000000
Si Si3 0.170368 0.728613 0.879371
Si Si4 0.167021 0.890387 0.689165
Si Si5 0.670029 0.391337 0.631140
Si Si6 0.832009 0.766845 0.570598
Si Si7 0.670767 0.890139 0.817246
O O1 0.802459 0.500000 0.226390
O O2 0.791178 0.668087 0.182406
O O3 0.735523 0.643783 0.301779
O O4 0.000000 0.624573 0.263655
O O5 0.227242 0.666945 0.938862
O O6 0.235631 0.500000 0.000000
O O7 0.000000 0.600835 0.000000
O O8 0.256824 0.827920 0.873676
O O9 0.000000 0.750888 0.885976
O O10 0.221411 0.839431 0.624826
O O11 0.261820 0.858060 0.749533
O O12 0.000000 0.865584 0.705153
O O13 0.188582 0.000000 0.675091
O O14 0.500000 0.374580 0.632765
O O15 0.710892 0.500000 0.618214
O O16 0.740635 0.329834 0.575197
O O17 0.805303 0.810346 0.500000
O O18 0.000000 0.741914 0.580391
O O19 0.500000 0.871433 0.815249
O O20 0.706562 0.000000 0.831214
#
# Coordination Sequence:
#
# PCOD8195917 Si02
#       7
#     8   4   8   8   8   8   8
#     4   9  17  30  50  76 103 130 163 205 254 307
#     4   9  18  34  56  83 114 144 175 211 252 301
#     4  10  19  32  54  81 107 138 174 211 252 299
#     4   9  18  34  56  80 105 132 164 207 257 307
#     4  10  21  35  50  70  97 130 169 213 259 303
#     4  10  21  35  51  73 100 131 167 205 250 307
#     4  10  21  36  54  77 105 137 173 214 260 305
#
# _framework density 19.057369000000001
#
# number of rings (size 3 to 8) (size 9 to 14) (size 15 to 20)
#    0.000    2.385    0.000    2.308    0.000    9.538 
#    0.000    3.846    0.000    4.154    0.000    3.231 
#    0.000    0.000    0.000    0.000    0.000    0.000 
#
# Total GULP energy -644846.263418 kJ/mol
# GULP energy per Si atom -12400.889681 kJ/mol
# Density = 1.901399 g / cm^3
# Si number density = 19.057369 Si / 1000 Ang^3
#
#
#
# Elastic Constant Matrix: (Units=GPa)
#
#
# Indices 1 2 3 4 5 6 
#
# 1 56.7355 42.9805 39.8214 0.0000 0.0000 0.0000
# 2 42.9805 101.5310 72.2764 0.0000 0.0000 0.0000
# 3 39.8214 72.2764 105.8934 0.0000 0.0000 0.0000
# 4 0.0000 0.0000 0.0000 30.3208 0.0000 0.0000
# 5 0.0000 0.0000 0.0000 0.0000 1.3078 0.0000
# 6 0.0000 0.0000 0.0000 0.0000 0.0000 26.4477
#
#
#
# Elastic Compliance Matrix: (Units=1/GPa)
#
#
# Indices 1 2 3 4 5 6 
#
# 1 0.027043 -0.008186 -0.004582 0.000000 0.000000 0.000000
# 2 -0.008186 0.021635 -0.011688 0.000000 0.000000 0.000000
# 3 -0.004582 -0.011688 0.019145 0.000000 0.000000 0.000000
# 4 0.000000 0.000000 0.000000 0.032981 0.000000 0.000000
# 5 0.000000 0.000000 0.000000 0.000000 0.764630 0.000000
# 6 0.000000 0.000000 0.000000 0.000000 0.000000 0.037810
#
#
# Mechanical properties :
#
#
# Convention : Reuss Voigt Hill
#
# Bulk Modulus (GPa) = 52.88435 63.81297 58.34866
# Shear Modulus (GPa) = 5.21670 18.88737 12.05204
#
# Velocity S-wave (km/s) = 1.65629 3.15156 2.51750
# Velocity P-wave (km/s) = 5.60964 6.84109 6.25574
#
# Compressibility (1/GPa) = 0.01890919
#
# Stress axis : x y z
#
# Youngs Moduli (GPa) = 36.97765 46.22098 52.23427
#
# Poissons Ratio (x) = 0.37837 0.23936
# Poissons Ratio (y) = 0.30270 0.61054
# Poissons Ratio (z) = 0.16945 0.54025
#
# Static dielectric constant tensor:
#      x y z
#    x 3.320940 0.000000 0.000000 
#    y 0.000000 3.667600 0.000000 
#    z 0.000000 0.000000 3.514530 
# 
# 
# High freq. dielectric constant tensor:
#      x y z
#    x 1.721910 0.000000 0.000000 
#    y 0.000000 1.750390 0.000000 
#    z 0.000000 0.000000 1.732080 
# 
# From -- ./inp_files/6965.got.cif
#   From: 2010.03.12/outbox.cif.g09.slc.cpg/sg47_4_cif.got.tgz:6965.got - 2010.04.14 03:12:58.
