data_PCOD8195133
_publ_section_title
;
Structure prediction by ZEFSAII (Michael W. Deem and Ramdas Pophale) SiO2 
 PCOD8195133
Probable space group: P M M M
;
_chemical_formula_sum "Si O2"
_cell_formula_units_Z 60
_cell_length_a 9.150167
_cell_length_b 18.785598
_cell_length_c 21.148447
_cell_angle_alpha 90.000000
_cell_angle_beta 90.000000
_cell_angle_gamma 90.000000
_cell_volume 3635.235293
_symmetry_space_group_name_H-M "P M M M"
_symmetry_group_IT_number 47
_symmetry_cell_setting 'orthorhombic'
loop_
_space_group_symop_operation_xyz
x,y,z
-x,-y,z
x,-y,-z
-x,y,-z
-x,-y,-z
x,y,-z
-x,y,z
x,-y,z
loop_
_atom_site_type_symbol
_atom_site_label
_atom_site_fract_x
_atom_site_fract_y
_atom_site_fract_z
Si Si1 0.672161 0.356200 0.368619
Si Si2 0.672179 0.698715 0.820036
Si Si3 0.828649 0.220450 0.072740
Si Si4 0.167547 0.582181 0.252296
Si Si5 0.171620 0.079200 0.723660
Si Si6 0.331890 0.213676 0.696503
Si Si7 0.826709 0.077020 0.866735
Si Si8 0.326896 0.419853 0.500000
O O1 0.500000 0.370424 0.358652
O O2 0.758218 0.405945 0.320151
O O3 0.707997 0.273080 0.356023
O O4 0.726804 0.376805 0.438507
O O5 0.500000 0.686854 0.826696
O O6 0.738345 0.723491 0.886400
O O7 0.746837 0.624250 0.802269
O O8 0.709671 0.755839 0.765550
O O9 0.771381 0.140640 0.088546
O O10 0.000000 0.227751 0.088528
O O11 0.795777 0.236755 0.000000
O O12 0.177342 0.500000 0.234026
O O13 0.000000 0.608312 0.255398
O O14 0.244549 0.141146 0.681670
O O15 0.229762 0.088254 0.795308
O O16 0.000000 0.090238 0.720085
O O17 0.213811 0.000000 0.698617
O O18 0.500000 0.193270 0.693105
O O19 0.000000 0.075508 0.865637
O O20 0.769498 0.000000 0.892176
O O21 0.261705 0.500000 0.500000
O O22 0.500000 0.424197 0.500000
#
# Coordination Sequence:
#
# PCOD8195133 Si02
#       8
#     8   8   8   8   8   8   8   4
#     4   9  18  31  48  73 102 132 166 195 223 268
#     4  10  20  33  49  68  92 123 156 193 236 281
#     4  10  19  30  47  69  92 122 158 194 235 284
#     4  10  20  33  51  75  99 122 151 191 238 281
#     4   9  16  26  43  65  88 118 155 195 239 284
#     4   9  17  28  43  66  93 120 154 196 237 274
#     4   8  14  25  41  63  90 119 154 194 233 275
#     4   9  16  28  49  73 100 137 170 192 219 263
#
# _framework density 16.505120999999999
#
# number of rings (size 3 to 8) (size 9 to 14) (size 15 to 20)
#    0.000    2.733    1.333    2.800    0.000    4.533 
#    0.000    1.667    0.000    2.000    0.000    4.200 
#    0.000    3.733    0.000    0.000    0.000    0.000 
#
# Total GULP energy -743796.669552 kJ/mol
# GULP energy per Si atom -12396.611159 kJ/mol
# Density = 1.646755 g / cm^3
# Si number density = 16.505121 Si / 1000 Ang^3
#
#
#
# Elastic Constant Matrix: (Units=GPa)
#
#
# Indices 1 2 3 4 5 6 
#
# 1 59.4762 54.1191 35.7765 0.0000 0.0000 0.0000
# 2 54.1191 126.1576 62.7996 0.0000 0.0000 0.0000
# 3 35.7765 62.7996 96.5946 0.0000 0.0000 0.0000
# 4 0.0000 0.0000 0.0000 25.4831 0.0000 0.0000
# 5 0.0000 0.0000 0.0000 0.0000 17.5976 0.0000
# 6 0.0000 0.0000 0.0000 0.0000 0.0000 25.7262
#
#
#
# Elastic Compliance Matrix: (Units=1/GPa)
#
#
# Indices 1 2 3 4 5 6 
#
# 1 0.028518 -0.010314 -0.003857 0.000000 0.000000 0.000000
# 2 -0.010314 0.015449 -0.006224 0.000000 0.000000 0.000000
# 3 -0.003857 -0.006224 0.015828 0.000000 0.000000 0.000000
# 4 0.000000 0.000000 0.000000 0.039242 0.000000 0.000000
# 5 0.000000 0.000000 0.000000 0.000000 0.056826 0.000000
# 6 0.000000 0.000000 0.000000 0.000000 0.000000 0.038871
#
#
# Mechanical properties :
#
#
# Convention : Reuss Voigt Hill
#
# Bulk Modulus (GPa) = 52.61734 65.29098 58.95416
# Shear Modulus (GPa) = 20.67316 22.39693 21.53505
#
# Velocity S-wave (km/s) = 3.54295 3.68770 3.61605
# Velocity P-wave (km/s) = 6.97748 7.60106 7.29594
#
# Compressibility (1/GPa) = 0.01900514
#
# Stress axis : x y z
#
# Youngs Moduli (GPa) = 35.06497 64.72791 63.18030
#
# Poissons Ratio (x) = 0.66759 0.24370
# Poissons Ratio (y) = 0.36165 0.39324
# Poissons Ratio (z) = 0.13526 0.40287
#
# Static dielectric constant tensor:
#      x y z
#    x 2.929900 0.000000 0.000000 
#    y 0.000000 3.255640 0.000000 
#    z 0.000000 0.000000 2.936630 
# 
# 
# High freq. dielectric constant tensor:
#      x y z
#    x 1.619340 0.000000 0.000000 
#    y 0.000000 1.641430 0.000000 
#    z 0.000000 0.000000 1.602160 
# 
# From -- ./inp_files/29976.got.cif
#   From: 2010.03.12/outbox.cif.g09.slc.cpg/sg47_15_cif.got.tgz:29976.got - 2010.04.14 03:12:58.
