data_PCOD8195823
_publ_section_title
;
Structure prediction by ZEFSAII (Michael W. Deem and Ramdas Pophale) SiO2 
 PCOD8195823
Probable space group: P M M M
;
_chemical_formula_sum "Si O2"
_cell_formula_units_Z 52
_cell_length_a 8.709082
_cell_length_b 23.001581
_cell_length_c 13.491980
_cell_angle_alpha 90.000000
_cell_angle_beta 90.000000
_cell_angle_gamma 90.000000
_cell_volume 2702.749256
_symmetry_space_group_name_H-M "P M M M"
_symmetry_group_IT_number 47
_symmetry_cell_setting 'orthorhombic'
loop_
_space_group_symop_operation_xyz
x,y,z
-x,-y,z
x,-y,-z
-x,y,-z
-x,-y,-z
x,y,-z
-x,y,z
x,-y,z
loop_
_atom_site_type_symbol
_atom_site_label
_atom_site_fract_x
_atom_site_fract_y
_atom_site_fract_z
Si Si1 0.320567 0.678982 0.388002
Si Si2 0.677660 0.361370 0.889146
Si Si3 0.682479 0.934110 0.390013
Si Si4 0.680384 0.563426 0.291368
Si Si5 0.682767 0.065804 0.000000
Si Si6 0.317831 0.868683 0.803964
Si Si7 0.179155 0.255387 0.787043
O O1 0.287312 0.696236 0.500000
O O2 0.500000 0.683848 0.360536
O O3 0.263544 0.612557 0.369032
O O4 0.227290 0.724355 0.322557
O O5 0.500000 0.344711 0.871995
O O6 0.725467 0.414713 0.818542
O O7 0.777114 0.304453 0.866518
O O8 0.710556 0.382433 0.000000
O O9 0.737171 0.911981 0.500000
O O10 0.500000 0.932429 0.386736
O O11 0.749138 0.895206 0.299551
O O12 0.740171 0.000000 0.373861
O O13 0.500000 0.555603 0.301391
O O14 0.757940 0.500000 0.311173
O O15 0.745401 0.096716 0.900062
O O16 0.500000 0.067296 0.000000
O O17 0.744367 0.000000 0.000000
O O18 0.500000 0.872026 0.801653
O O19 0.266945 0.802715 0.815815
O O20 0.000000 0.243112 0.790152
#
# Coordination Sequence:
#
# PCOD8195823 Si02
#       7
#     8   8   8   8   4   8   8
#     4   9  18  34  55  77 103 137 175 214 258 308
#     4   9  18  33  53  74  99 133 172 214 259 307
#     4   8  14  26  47  75 102 126 157 202 252 300
#     4   8  14  26  47  79 111 131 157 205 263 318
#     4   9  18  32  53  81 107 133 168 215 266 313
#     4  10  19  32  52  77 103 133 171 214 260 310
#     4  11  23  36  50  72 103 137 175 217 259 306
#
# _framework density 19.239668999999999
#
# number of rings (size 3 to 8) (size 9 to 14) (size 15 to 20)
#    0.000    2.846    0.000    3.231    1.077    3.692 
#    0.000    4.615    0.000    9.692    0.000    9.692 
#    0.000    0.000    0.000    0.000    0.000    0.000 
#
# Total GULP energy -644497.164311 kJ/mol
# GULP energy per Si atom -12394.176237 kJ/mol
# Density = 1.919588 g / cm^3
# Si number density = 19.239669 Si / 1000 Ang^3
#
#
#
# Elastic Constant Matrix: (Units=GPa)
#
#
# Indices 1 2 3 4 5 6 
#
# 1 9.8513 4.5333 13.5602 0.0000 0.0000 0.0000
# 2 4.5333 108.3357 26.2476 0.0000 0.0000 0.0000
# 3 13.5602 26.2476 101.9374 0.0000 0.0000 0.0000
# 4 0.0000 0.0000 0.0000 26.3475 0.0000 0.0000
# 5 0.0000 0.0000 0.0000 0.0000 9.7164 0.0000
# 6 0.0000 0.0000 0.0000 0.0000 0.0000 -1.2424
#
#
#
# Elastic Compliance Matrix: (Units=1/GPa)
#
#
# Indices 1 2 3 4 5 6 
#
# 1 0.124428 -0.001276 -0.016223 0.000000 0.000000 0.000000
# 2 -0.001276 0.009858 -0.002369 0.000000 0.000000 0.000000
# 3 -0.016223 -0.002369 0.012578 0.000000 0.000000 0.000000
# 4 0.000000 0.000000 0.000000 0.037954 0.000000 0.000000
# 5 0.000000 0.000000 0.000000 0.000000 0.102919 0.000000
# 6 0.000000 0.000000 0.000000 0.000000 0.000000 -0.804869
#
#
# Mechanical properties :
#
#
# Convention : Reuss Voigt Hill
#
# Bulk Modulus (GPa) = 9.33468 34.31184 21.82326
# Shear Modulus (GPa) = -11.32024 18.68317 3.68147
#
# Velocity S-wave (km/s) = -2.42829 3.11959 1.38479
# Velocity P-wave (km/s) = 1.73199 5.55413 3.73153
#
# Compressibility (1/GPa) = 0.10712740
#
# Stress axis : x y z
#
# Youngs Moduli (GPa) = 8.03681 101.44239 79.50442
#
# Poissons Ratio (x) = 0.12945 1.28983
# Poissons Ratio (y) = 0.01026 0.18831
# Poissons Ratio (z) = 0.13038 0.24027
#
# Static dielectric constant tensor:
#      x y z
#    x 2.957490 0.000000 0.000000 
#    y 0.000000 3.541220 0.000000 
#    z 0.000000 0.000000 3.808000 
# 
# 
# High freq. dielectric constant tensor:
#      x y z
#    x 1.688820 0.000000 0.000000 
#    y 0.000000 1.749800 0.000000 
#    z 0.000000 0.000000 1.760860 
# 
# From -- ./inp_files/11030.got.cif
#   From: 2010.03.12/outbox.cif.g09.slc.cpg/sg47_6_cif.got.tgz:11030.got - 2010.04.14 03:12:58.
