data_PCOD8195752
_publ_section_title
;
Structure prediction by ZEFSAII (Michael W. Deem and Ramdas Pophale) SiO2 
 PCOD8195752
Probable space group: P M M M
;
_chemical_formula_sum "Si O2"
_cell_formula_units_Z 52
_cell_length_a 7.890028
_cell_length_b 12.335881
_cell_length_c 27.056187
_cell_angle_alpha 90.000000
_cell_angle_beta 90.000000
_cell_angle_gamma 90.000000
_cell_volume 2633.390761
_symmetry_space_group_name_H-M "P M M M"
_symmetry_group_IT_number 47
_symmetry_cell_setting 'orthorhombic'
loop_
_space_group_symop_operation_xyz
x,y,z
-x,-y,z
x,-y,-z
-x,y,-z
-x,-y,-z
x,y,-z
-x,y,z
x,-y,z
loop_
_atom_site_type_symbol
_atom_site_label
_atom_site_fract_x
_atom_site_fract_y
_atom_site_fract_z
Si Si1 0.199980 0.120109 0.088730
Si Si2 0.303675 0.500000 0.245823
Si Si3 0.702102 0.500000 0.134122
Si Si4 0.305573 0.338846 0.053145
Si Si5 0.201571 0.881339 0.199098
Si Si6 0.198905 0.272018 0.718484
Si Si7 0.500000 0.872883 0.554493
Si Si8 0.197197 0.873322 0.625691
O O1 0.286737 0.209474 0.054947
O O2 0.270851 0.136941 0.144111
O O3 0.000000 0.136321 0.087152
O O4 0.248496 0.000000 0.069479
O O5 0.500000 0.500000 0.236832
O O6 0.219216 0.500000 0.190172
O O7 0.254870 0.603228 0.279288
O O8 0.500000 0.500000 0.138841
O O9 0.772450 0.602717 0.101888
O O10 0.500000 0.371887 0.052123
O O11 0.225949 0.376509 0.000000
O O12 0.281428 0.790378 0.234777
O O13 0.000000 0.875174 0.198681
O O14 0.257770 0.000000 0.218462
O O15 0.253788 0.207692 0.669436
O O16 0.000000 0.266510 0.722691
O O17 0.500000 0.818000 0.500000
O O18 0.325358 0.839613 0.581927
O O19 0.500000 0.000000 0.548273
O O20 0.000000 0.854235 0.610064
O O21 0.221870 0.000000 0.641166
#
# Coordination Sequence:
#
# PCOD8195752 Si02
#       8
#     8   4   4   8   8   8   4   8
#     4   9  18  32  49  70  97 126 154 190 241 302
#     4  11  23  34  49  72 100 135 167 206 261 315
#     4   9  19  37  54  70  94 122 159 207 256 308
#     4  10  20  34  53  71  88 118 159 203 250 300
#     4   8  14  27  49  73  95 124 161 199 245 304
#     4  10  19  32  51  74 102 135 173 215 258 312
#     4   9  18  32  52  81 119 159 193 230 273 318
#     4   9  18  32  53  82 114 150 189 230 275 320
#
# _framework density 19.746404999999999
#
# number of rings (size 3 to 8) (size 9 to 14) (size 15 to 20)
#    0.000    2.692    0.000    2.769    1.077    4.000 
#    0.000    4.231    0.000    1.846    0.000    1.077 
#    0.000    2.462    0.000    0.000    0.000    0.000 
#
# Total GULP energy -644196.729621 kJ/mol
# GULP energy per Si atom -12388.398647 kJ/mol
# Density = 1.970146 g / cm^3
# Si number density = 19.746405 Si / 1000 Ang^3
#
#
#
# Elastic Constant Matrix: (Units=GPa)
#
#
# Indices 1 2 3 4 5 6 
#
# 1 32.9883 7.7985 34.7340 0.0000 0.0000 0.0000
# 2 7.7985 121.7969 56.6800 0.0000 0.0000 0.0000
# 3 34.7340 56.6800 123.6066 0.0000 0.0000 0.0000
# 4 0.0000 0.0000 0.0000 20.0539 0.0000 0.0000
# 5 0.0000 0.0000 0.0000 0.0000 15.7468 0.0000
# 6 0.0000 0.0000 0.0000 0.0000 0.0000 17.7451
#
#
#
# Elastic Compliance Matrix: (Units=1/GPa)
#
#
# Indices 1 2 3 4 5 6 
#
# 1 0.044369 0.003765 -0.014194 0.000000 0.000000 0.000000
# 2 0.003765 0.010757 -0.005991 0.000000 0.000000 0.000000
# 3 -0.014194 -0.005991 0.014826 0.000000 0.000000 0.000000
# 4 0.000000 0.000000 0.000000 0.049866 0.000000 0.000000
# 5 0.000000 0.000000 0.000000 0.000000 0.063505 0.000000
# 6 0.000000 0.000000 0.000000 0.000000 0.000000 0.056354
#
#
# Mechanical properties :
#
#
# Convention : Reuss Voigt Hill
#
# Bulk Modulus (GPa) = 26.94567 52.97965 39.96266
# Shear Modulus (GPa) = 17.55080 22.65444 20.10262
#
# Velocity S-wave (km/s) = 2.98453 3.39081 3.19413
# Velocity P-wave (km/s) = 5.05490 6.49757 5.82110
#
# Compressibility (1/GPa) = 0.03711172
#
# Stress axis : x y z
#
# Youngs Moduli (GPa) = 22.53820 92.96150 67.45006
#
# Poissons Ratio (x) = -0.34996 0.95740
# Poissons Ratio (y) = -0.08485 0.40406
# Poissons Ratio (z) = 0.31991 0.55689
#
# Static dielectric constant tensor:
#      x y z
#    x 3.276590 0.000000 0.000000 
#    y 0.000000 3.507620 0.000000 
#    z 0.000000 0.000000 3.860610 
# 
# 
# High freq. dielectric constant tensor:
#      x y z
#    x 1.745190 0.000000 0.000000 
#    y 0.000000 1.763630 0.000000 
#    z 0.000000 0.000000 1.750930 
# 
# From -- ./inp_files/33290.got.cif
#   From: 2010.03.12/outbox.cif.g09.slc.cpg/sg47_17_cif.got.tgz:33290.got - 2010.04.14 03:12:58.
