data_PCOD8195786
_publ_section_title
;
Structure prediction by ZEFSAII (Michael W. Deem and Ramdas Pophale) SiO2 
 PCOD8195786
Probable space group: P M M M
;
_chemical_formula_sum "Si O2"
_cell_formula_units_Z 52
_cell_length_a 8.855876
_cell_length_b 28.306965
_cell_length_c 11.636926
_cell_angle_alpha 90.000000
_cell_angle_beta 90.000000
_cell_angle_gamma 90.000000
_cell_volume 2917.179194
_symmetry_space_group_name_H-M "P M M M"
_symmetry_group_IT_number 47
_symmetry_cell_setting 'orthorhombic'
loop_
_space_group_symop_operation_xyz
x,y,z
-x,-y,z
x,-y,-z
-x,y,-z
-x,-y,-z
x,y,-z
-x,y,z
x,-y,z
loop_
_atom_site_type_symbol
_atom_site_label
_atom_site_fract_x
_atom_site_fract_y
_atom_site_fract_z
Si Si1 0.178998 0.448071 0.871343
Si Si2 0.321776 0.215836 0.500000
Si Si3 0.673663 0.269859 0.135085
Si Si4 0.329379 0.000000 0.863436
Si Si5 0.178201 0.813814 0.731214
Si Si6 0.178000 0.905384 0.130681
Si Si7 0.173869 0.317120 0.500000
Si Si8 0.176871 0.356111 0.745320
O O1 0.240494 0.500000 0.833943
O O2 0.233302 0.408462 0.780862
O O3 0.000000 0.449481 0.872939
O O4 0.237625 0.435791 0.000000
O O5 0.500000 0.213646 0.500000
O O6 0.259539 0.188271 0.390448
O O7 0.273811 0.270373 0.500000
O O8 0.500000 0.261504 0.170631
O O9 0.778103 0.230566 0.191691
O O10 0.726598 0.320474 0.178785
O O11 0.696493 0.267298 0.000000
O O12 0.249302 0.047097 0.815819
O O13 0.500000 0.000000 0.819435
O O14 0.316464 0.000000 0.000000
O O15 0.233147 0.861330 0.793980
O O16 0.000000 0.813070 0.712093
O O17 0.000000 0.911235 0.134613
O O18 0.233640 0.896919 0.000000
O O19 0.211363 0.348819 0.610805
O O20 0.000000 0.300584 0.500000
O O21 0.000000 0.348683 0.772372
#
# Coordination Sequence:
#
# PCOD8195786 Si02
#       8
#     8   4   8   4   8   8   4   8
#     4   8  14  26  46  73 102 132 171 219 269 319
#     4  12  24  38  56  76 104 143 181 219 270 320
#     4  11  23  35  49  75 109 139 170 215 269 323
#     4   9  17  29  49  78 111 146 179 213 259 315
#     4  11  22  37  57  79 105 139 182 225 264 315
#     4   9  18  33  54  80 109 141 177 218 264 313
#     4  10  20  34  51  74 101 135 179 225 259 306
#     4  10  19  32  52  74 100 136 178 220 264 315
#
# _framework density 17.825438999999999
#
# number of rings (size 3 to 8) (size 9 to 14) (size 15 to 20)
#    0.000    2.077    1.538    3.231    0.000    4.615 
#    0.000    1.923    0.000    3.231    0.000    5.385 
#    0.000    1.846    0.000    0.000    0.000    0.000 
#
# Total GULP energy -644818.185065 kJ/mol
# GULP energy per Si atom -12400.349713 kJ/mol
# Density = 1.778487 g / cm^3
# Si number density = 17.825439 Si / 1000 Ang^3
#
#
#
# Elastic Constant Matrix: (Units=GPa)
#
#
# Indices 1 2 3 4 5 6 
#
# 1 56.8973 38.7692 40.2920 0.0000 0.0000 0.0000
# 2 38.7692 157.2305 69.7854 0.0000 0.0000 0.0000
# 3 40.2920 69.7854 105.6211 0.0000 0.0000 0.0000
# 4 0.0000 0.0000 0.0000 -6.5774 0.0000 0.0000
# 5 0.0000 0.0000 0.0000 0.0000 20.2555 0.0000
# 6 0.0000 0.0000 0.0000 0.0000 0.0000 2.7340
#
#
#
# Elastic Compliance Matrix: (Units=1/GPa)
#
#
# Indices 1 2 3 4 5 6 
#
# 1 0.024876 -0.002719 -0.007693 0.000000 0.000000 0.000000
# 2 -0.002719 0.009296 -0.005105 0.000000 0.000000 0.000000
# 3 -0.007693 -0.005105 0.015775 0.000000 0.000000 0.000000
# 4 0.000000 0.000000 0.000000 -0.152036 0.000000 0.000000
# 5 0.000000 0.000000 0.000000 0.000000 0.049369 0.000000
# 6 0.000000 0.000000 0.000000 0.000000 0.000000 0.365764
#
#
# Mechanical properties :
#
#
# Convention : Reuss Voigt Hill
#
# Bulk Modulus (GPa) = 52.87222 68.60469 60.73846
# Shear Modulus (GPa) = 14.27004 14.67592 14.47298
#
# Velocity S-wave (km/s) = 2.83246 2.87246 2.85253
# Velocity P-wave (km/s) = 6.35788 7.04073 6.70800
#
# Compressibility (1/GPa) = 0.01891352
#
# Stress axis : x y z
#
# Youngs Moduli (GPa) = 40.19889 107.56878 63.39007
#
# Poissons Ratio (x) = 0.29253 0.48766
# Poissons Ratio (y) = 0.10932 0.32360
# Poissons Ratio (z) = 0.30925 0.54912
#
# Static dielectric constant tensor:
#      x y z
#    x 3.182220 0.000000 0.000000 
#    y 0.000000 3.566660 0.000000 
#    z 0.000000 0.000000 3.351870 
# 
# 
# High freq. dielectric constant tensor:
#      x y z
#    x 1.677140 0.000000 0.000000 
#    y 0.000000 1.696040 0.000000 
#    z 0.000000 0.000000 1.679450 
# 
# From -- ./inp_files/15561.got.cif
#   From: 2010.03.12/outbox.cif.g09.slc.cpg/sg47_8_cif.got.tgz:15561.got - 2010.04.14 03:12:58.
