data_PCOD8195077
_publ_section_title
;
Structure prediction by ZEFSAII (Michael W. Deem and Ramdas Pophale) SiO2 
 PCOD8195077
Probable space group: P M M M
;
_chemical_formula_sum "Si O2"
_cell_formula_units_Z 52
_cell_length_a 9.127687
_cell_length_b 20.168890
_cell_length_c 15.953848
_cell_angle_alpha 90.000000
_cell_angle_beta 90.000000
_cell_angle_gamma 90.000000
_cell_volume 2937.028674
_symmetry_space_group_name_H-M "P M M M"
_symmetry_group_IT_number 47
_symmetry_cell_setting 'orthorhombic'
loop_
_space_group_symop_operation_xyz
x,y,z
-x,-y,z
x,-y,-z
-x,y,-z
-x,-y,-z
x,y,-z
-x,y,z
x,-y,z
loop_
_atom_site_type_symbol
_atom_site_label
_atom_site_fract_x
_atom_site_fract_y
_atom_site_fract_z
Si Si1 0.169117 0.922250 0.594496
Si Si2 0.327744 0.169876 0.275976
Si Si3 0.825976 0.571999 0.405043
Si Si4 0.670624 0.576895 0.000000
Si Si5 0.835997 0.330878 0.884076
Si Si6 0.331479 0.801911 0.091189
Si Si7 0.834297 0.695402 0.694813
O O1 0.216286 0.899930 0.500000
O O2 0.262695 0.888045 0.667122
O O3 0.000000 0.904015 0.608711
O O4 0.195281 0.000000 0.604074
O O5 0.500000 0.170707 0.289719
O O6 0.288294 0.157394 0.176377
O O7 0.264290 0.239283 0.309014
O O8 0.772755 0.575906 0.500000
O O9 0.774274 0.500000 0.367782
O O10 0.760168 0.636950 0.360034
O O11 0.000000 0.575988 0.397835
O O12 0.742393 0.607822 0.082687
O O13 0.705342 0.500000 0.000000
O O14 0.500000 0.592791 0.000000
O O15 0.766401 0.262753 0.915161
O O16 0.837231 0.336529 0.785444
O O17 0.000000 0.334244 0.920319
O O18 0.500000 0.780057 0.101066
O O19 0.310482 0.839933 0.000000
O O20 0.000000 0.714081 0.665750
#
# Coordination Sequence:
#
# PCOD8195077 Si02
#       7
#     8   8   8   4   8   8   8
#     4   9  19  37  59  80 105 141 179 212 255 312
#     4  10  20  32  50  80 110 135 171 215 255 302
#     4   8  14  26  45  67  89 118 160 204 245 295
#     4  11  23  35  45  59  85 123 162 201 254 319
#     4  10  19  30  46  68  91 117 156 206 253 296
#     4   9  17  31  51  71  98 137 170 199 245 304
#     4   9  18  31  48  72 101 130 161 204 257 305
#
# _framework density 17.704969999999999
#
# number of rings (size 3 to 8) (size 9 to 14) (size 15 to 20)
#    0.000    2.692    0.769    2.077    0.000    3.692 
#    0.000    3.846    0.000    0.923    0.000    4.308 
#    0.000    0.000    0.000    0.000    0.000    0.000 
#
# Total GULP energy -644226.910583 kJ/mol
# GULP energy per Si atom -12388.979050 kJ/mol
# Density = 1.766467 g / cm^3
# Si number density = 17.704970 Si / 1000 Ang^3
#
#
#
# Elastic Constant Matrix: (Units=GPa)
#
#
# Indices 1 2 3 4 5 6 
#
# 1 75.1348 41.7816 41.2962 0.0000 0.0000 0.0000
# 2 41.7816 72.9755 57.5752 0.0000 0.0000 0.0000
# 3 41.2962 57.5752 117.6963 0.0000 0.0000 0.0000
# 4 0.0000 0.0000 0.0000 26.6993 0.0000 0.0000
# 5 0.0000 0.0000 0.0000 0.0000 23.7842 0.0000
# 6 0.0000 0.0000 0.0000 0.0000 0.0000 21.8397
#
#
#
# Elastic Compliance Matrix: (Units=1/GPa)
#
#
# Indices 1 2 3 4 5 6 
#
# 1 0.019899 -0.009583 -0.002294 0.000000 0.000000 0.000000
# 2 -0.009583 0.026931 -0.009812 0.000000 0.000000 0.000000
# 3 -0.002294 -0.009812 0.014101 0.000000 0.000000 0.000000
# 4 0.000000 0.000000 0.000000 0.037454 0.000000 0.000000
# 5 0.000000 0.000000 0.000000 0.000000 0.042045 0.000000
# 6 0.000000 0.000000 0.000000 0.000000 0.000000 0.045788
#
#
# Mechanical properties :
#
#
# Convention : Reuss Voigt Hill
#
# Bulk Modulus (GPa) = 56.96914 60.79028 58.87971
# Shear Modulus (GPa) = 21.23603 22.80822 22.02213
#
# Velocity S-wave (km/s) = 3.46705 3.59310 3.53064
# Velocity P-wave (km/s) = 6.94795 7.18495 7.06744
#
# Compressibility (1/GPa) = 0.01755336
#
# Stress axis : x y z
#
# Youngs Moduli (GPa) = 50.25252 37.13147 70.91588
#
# Poissons Ratio (x) = 0.35584 0.16269
# Poissons Ratio (y) = 0.48159 0.69582
# Poissons Ratio (z) = 0.11529 0.36433
#
# Static dielectric constant tensor:
#      x y z
#    x 3.213530 0.000000 0.000000 
#    y 0.000000 3.140360 0.000000 
#    z 0.000000 0.000000 3.773510 
# 
# 
# High freq. dielectric constant tensor:
#      x y z
#    x 1.671860 0.000000 0.000000 
#    y 0.000000 1.659810 0.000000 
#    z 0.000000 0.000000 1.697960 
# 
# From -- ./inp_files/26753.got.cif
#   From: 2010.03.12/outbox.cif.g09.slc.cpg/sg47_14_cif.got.tgz:26753.got - 2010.04.14 03:12:58.
