data_PCOD8195597
_publ_section_title
;
Structure prediction by ZEFSAII (Michael W. Deem and Ramdas Pophale) SiO2 
 PCOD8195597
Probable space group: P M M M
;
_chemical_formula_sum "Si O2"
_cell_formula_units_Z 40
_cell_length_a 22.283714
_cell_length_b 11.934698
_cell_length_c 7.869891
_cell_angle_alpha 90.000000
_cell_angle_beta 90.000000
_cell_angle_gamma 90.000000
_cell_volume 2092.992765
_symmetry_space_group_name_H-M "P M M M"
_symmetry_group_IT_number 47
_symmetry_cell_setting 'orthorhombic'
loop_
_space_group_symop_operation_xyz
x,y,z
-x,-y,z
x,-y,-z
-x,y,-z
-x,-y,-z
x,y,-z
-x,y,z
x,-y,z
loop_
_atom_site_type_symbol
_atom_site_label
_atom_site_fract_x
_atom_site_fract_y
_atom_site_fract_z
Si Si1 0.429691 0.726478 0.500000
Si Si2 0.230064 0.632470 0.195697
Si Si3 0.888166 0.762110 0.198958
Si Si4 0.309918 0.625020 0.500000
Si Si5 0.067712 0.000000 0.698373
Si Si6 0.429157 0.123583 0.185822
Si Si7 0.000000 0.373764 0.796584
O O1 0.500000 0.689323 0.500000
O O2 0.382942 0.624683 0.500000
O O3 0.409452 0.795195 0.664916
O O4 0.215245 0.500000 0.210260
O O5 0.173681 0.705896 0.259329
O O6 0.283073 0.674247 0.323241
O O7 0.248161 0.660677 0.000000
O O8 0.942584 0.691163 0.279417
O O9 0.893596 0.892228 0.247783
O O10 0.892268 0.750212 0.000000
O O11 0.287313 0.500000 0.500000
O O12 0.059926 0.000000 0.500000
O O13 0.000000 0.000000 0.780642
O O14 0.500000 0.112943 0.191019
O O15 0.401375 0.000000 0.216343
O O16 0.408756 0.169557 0.000000
O O17 0.000000 0.500000 0.726241
O O18 0.000000 0.373831 0.000000
#
# Coordination Sequence:
#
# PCOD8195597 Si02
#       7
#     4   8   8   4   4   8   4
#     4  10  19  31  52  81 110 140 175 216 267 328
#     4   9  19  37  60  83 105 136 183 235 282 327
#     4  10  19  33  56  79 103 139 182 225 270 324
#     4  10  22  38  57  79 105 142 180 221 272 326
#     4  11  23  35  49  75 115 155 185 218 267 332
#     4   8  14  26  47  76 107 137 169 206 251 306
#     4   9  16  27  49  82 110 129 164 225 282 316
#
# _framework density 19.111388999999999
#
# number of rings (size 3 to 8) (size 9 to 14) (size 15 to 20)
#    0.000    2.600    1.000    1.800    1.400    5.000 
#    0.000    0.000    4.400    0.600    0.000    5.600 
#    0.000    0.000    0.000    0.000    0.000    0.000 
#
# Total GULP energy -495552.688954 kJ/mol
# GULP energy per Si atom -12388.817224 kJ/mol
# Density = 1.906789 g / cm^3
# Si number density = 19.111389 Si / 1000 Ang^3
#
#
#
# Elastic Constant Matrix: (Units=GPa)
#
#
# Indices 1 2 3 4 5 6 
#
# 1 117.6129 43.1665 43.7387 0.0000 0.0000 0.0000
# 2 43.1665 83.7849 12.2085 0.0000 0.0000 0.0000
# 3 43.7387 12.2085 83.3540 0.0000 0.0000 0.0000
# 4 0.0000 0.0000 0.0000 11.7175 0.0000 0.0000
# 5 0.0000 0.0000 0.0000 0.0000 18.6662 0.0000
# 6 0.0000 0.0000 0.0000 0.0000 0.0000 22.1531
#
#
#
# Elastic Compliance Matrix: (Units=1/GPa)
#
#
# Indices 1 2 3 4 5 6 
#
# 1 0.012791 -0.005734 -0.005872 0.000000 0.000000 0.000000
# 2 -0.005734 0.014766 0.000846 0.000000 0.000000 0.000000
# 3 -0.005872 0.000846 0.014954 0.000000 0.000000 0.000000
# 4 0.000000 0.000000 0.000000 0.085342 0.000000 0.000000
# 5 0.000000 0.000000 0.000000 0.000000 0.053573 0.000000
# 6 0.000000 0.000000 0.000000 0.000000 0.000000 0.045140
#
#
# Mechanical properties :
#
#
# Convention : Reuss Voigt Hill
#
# Bulk Modulus (GPa) = 47.63837 53.66435 50.65136
# Shear Modulus (GPa) = 19.60141 22.88325 21.24233
#
# Velocity S-wave (km/s) = 3.20604 3.46405 3.33753
# Velocity P-wave (km/s) = 6.21978 6.64381 6.43529
#
# Compressibility (1/GPa) = 0.02099148
#
# Stress axis : x y z
#
# Youngs Moduli (GPa) = 78.18155 67.72155 66.87067
#
# Poissons Ratio (x) = 0.38833 0.39266
# Poissons Ratio (y) = 0.44831 -0.05659
# Poissons Ratio (z) = 0.45907 -0.05731
#
# Static dielectric constant tensor:
#      x y z
#    x 3.323780 0.000000 0.000000 
#    y 0.000000 3.363240 0.000000 
#    z 0.000000 0.000000 3.805390 
# 
# 
# High freq. dielectric constant tensor:
#      x y z
#    x 1.717170 0.000000 0.000000 
#    y 0.000000 1.728200 0.000000 
#    z 0.000000 0.000000 1.748770 
# 
# From -- ./inp_files/10775.got.cif
#   From: 2010.03.12/outbox.cif.g09.slc.cpg/sg47_6_cif.got.tgz:10775.got - 2010.04.14 03:12:58.
