data_PCOD8195790
_publ_section_title
;
Structure prediction by ZEFSAII (Michael W. Deem and Ramdas Pophale) SiO2 
 PCOD8195790
Probable space group: P M M M
;
_chemical_formula_sum "Si O2"
_cell_formula_units_Z 64
_cell_length_a 9.092153
_cell_length_b 17.570405
_cell_length_c 23.023341
_cell_angle_alpha 90.000000
_cell_angle_beta 90.000000
_cell_angle_gamma 90.000000
_cell_volume 3678.043433
_symmetry_space_group_name_H-M "P M M M"
_symmetry_group_IT_number 47
_symmetry_cell_setting 'orthorhombic'
loop_
_space_group_symop_operation_xyz
x,y,z
-x,-y,z
x,-y,-z
-x,y,-z
-x,-y,-z
x,y,-z
-x,y,z
x,-y,z
loop_
_atom_site_type_symbol
_atom_site_label
_atom_site_fract_x
_atom_site_fract_y
_atom_site_fract_z
Si Si1 0.170182 0.911027 0.345602
Si Si2 0.671948 0.767985 0.067058
Si Si3 0.825620 0.286701 0.171897
Si Si4 0.173013 0.414842 0.739066
Si Si5 0.163827 0.916668 0.931358
Si Si6 0.665313 0.182237 0.744098
Si Si7 0.673584 0.802730 0.433162
Si Si8 0.338007 0.681508 0.653590
O O1 0.252342 0.888642 0.285831
O O2 0.238841 0.869624 0.401386
O O3 0.000000 0.887449 0.339830
O O4 0.190008 0.000000 0.355951
O O5 0.500000 0.759083 0.077783
O O6 0.759025 0.706945 0.106838
O O7 0.720489 0.852487 0.087510
O O8 0.713832 0.752409 0.000000
O O9 0.775540 0.361753 0.207466
O O10 0.757680 0.210612 0.200461
O O11 0.000000 0.279531 0.169512
O O12 0.232634 0.500000 0.750528
O O13 0.232240 0.384539 0.677172
O O14 0.000000 0.414127 0.733637
O O15 0.000000 0.895249 0.908472
O O16 0.211030 0.000000 0.906525
O O17 0.159799 0.921838 0.000000
O O18 0.500000 0.158610 0.763136
O O19 0.658603 0.249618 0.698339
O O20 0.720090 0.803163 0.500000
O O21 0.500000 0.817170 0.424130
O O22 0.716087 0.719259 0.406998
O O23 0.500000 0.645531 0.646570
#
# Coordination Sequence:
#
# PCOD8195790 Si02
#       8
#     8   8   8   8   8   8   8   8
#     4  10  20  32  46  67  97 130 165 208 253 293
#     4  10  20  32  47  69  98 131 165 200 237 282
#     4  10  19  32  52  74  97 124 154 193 238 286
#     4   9  18  32  51  76 101 122 148 187 236 288
#     4   8  14  26  44  64  86 114 150 191 231 269
#     4   9  17  31  50  69  91 120 156 198 242 288
#     4   9  18  32  49  69  95 130 171 210 245 285
#     4   8  15  28  47  71  95 120 153 192 233 278
#
# _framework density 17.400555000000001
#
# number of rings (size 3 to 8) (size 9 to 14) (size 15 to 20)
#    0.000    2.875    0.000    2.625    0.000    6.250 
#    0.000    3.125    0.000    4.500    0.000    5.250 
#    0.000    0.000    0.000    0.000    0.000    0.000 
#
# Total GULP energy -793259.668938 kJ/mol
# GULP energy per Si atom -12394.682327 kJ/mol
# Density = 1.736095 g / cm^3
# Si number density = 17.400555 Si / 1000 Ang^3
#
#
#
# Elastic Constant Matrix: (Units=GPa)
#
#
# Indices 1 2 3 4 5 6 
#
# 1 82.7129 44.8427 46.1765 0.0000 0.0000 0.0000
# 2 44.8427 92.9355 50.6097 0.0000 0.0000 0.0000
# 3 46.1765 50.6097 92.8561 0.0000 0.0000 0.0000
# 4 0.0000 0.0000 0.0000 18.6598 0.0000 0.0000
# 5 0.0000 0.0000 0.0000 0.0000 26.4290 0.0000
# 6 0.0000 0.0000 0.0000 0.0000 0.0000 20.8945
#
#
#
# Elastic Compliance Matrix: (Units=1/GPa)
#
#
# Indices 1 2 3 4 5 6 
#
# 1 0.018578 -0.005593 -0.006190 0.000000 0.000000 0.000000
# 2 -0.005593 0.016986 -0.006476 0.000000 0.000000 0.000000
# 3 -0.006190 -0.006476 0.017378 0.000000 0.000000 0.000000
# 4 0.000000 0.000000 0.000000 0.053591 0.000000 0.000000
# 5 0.000000 0.000000 0.000000 0.000000 0.037837 0.000000
# 6 0.000000 0.000000 0.000000 0.000000 0.000000 0.047859
#
#
# Mechanical properties :
#
#
# Convention : Reuss Voigt Hill
#
# Bulk Modulus (GPa) = 60.89458 61.30692 61.10075
# Shear Modulus (GPa) = 21.34715 21.65502 21.50109
#
# Velocity S-wave (km/s) = 3.50638 3.53158 3.51900
# Velocity P-wave (km/s) = 7.17389 7.20684 7.19039
#
# Compressibility (1/GPa) = 0.01642182
#
# Stress axis : x y z
#
# Youngs Moduli (GPa) = 53.82636 58.87276 57.54544
#
# Poissons Ratio (x) = 0.32929 0.35622
# Poissons Ratio (y) = 0.30106 0.37269
# Poissons Ratio (z) = 0.33320 0.38128
#
# Static dielectric constant tensor:
#      x y z
#    x 3.329130 0.000000 0.000000 
#    y 0.000000 3.246670 0.000000 
#    z 0.000000 0.000000 3.332580 
# 
# 
# High freq. dielectric constant tensor:
#      x y z
#    x 1.677220 0.000000 0.000000 
#    y 0.000000 1.645900 0.000000 
#    z 0.000000 0.000000 1.660640 
# 
# From -- ./inp_files/32206.got.cif
#   From: 2010.03.12/outbox.cif.g09.slc.cpg/sg47_17_cif.got.tgz:32206.got - 2010.04.14 03:12:58.
