data_PCOD8195407
_publ_section_title
;
Structure prediction by ZEFSAII (Michael W. Deem and Ramdas Pophale) SiO2 
 PCOD8195407
Probable space group: P M M M
;
_chemical_formula_sum "Si O2"
_cell_formula_units_Z 44
_cell_length_a 13.730023
_cell_length_b 9.761621
_cell_length_c 19.378468
_cell_angle_alpha 90.000000
_cell_angle_beta 90.000000
_cell_angle_gamma 90.000000
_cell_volume 2597.243373
_symmetry_space_group_name_H-M "P M M M"
_symmetry_group_IT_number 47
_symmetry_cell_setting 'orthorhombic'
loop_
_space_group_symop_operation_xyz
x,y,z
-x,-y,z
x,-y,-z
-x,y,-z
-x,-y,-z
x,y,-z
-x,y,z
x,-y,z
loop_
_atom_site_type_symbol
_atom_site_label
_atom_site_fract_x
_atom_site_fract_y
_atom_site_fract_z
Si Si1 0.389720 0.161487 0.629388
Si Si2 0.806323 0.757149 0.662994
Si Si3 0.885622 0.846333 0.195943
Si Si4 0.109180 0.000000 0.418561
Si Si5 0.116086 0.500000 0.582412
Si Si6 0.884137 0.653393 0.923047
Si Si7 0.386866 0.346558 0.500000
O O1 0.500000 0.194096 0.655024
O O2 0.307966 0.214290 0.683591
O O3 0.358421 0.253675 0.564552
O O4 0.381046 0.000000 0.612177
O O5 0.865389 0.764524 0.733886
O O6 0.830941 0.622118 0.621367
O O7 0.835016 0.870026 0.608092
O O8 0.839928 0.760899 0.132024
O O9 0.000000 0.857462 0.185712
O O10 0.840334 0.000000 0.197991
O O11 0.107371 0.000000 0.500000
O O12 0.000000 0.000000 0.388183
O O13 0.136706 0.500000 0.500000
O O14 0.000000 0.500000 0.595571
O O15 0.846119 0.500000 0.905935
O O16 0.000000 0.653636 0.919117
O O17 0.850152 0.696754 0.000000
O O18 0.336542 0.500000 0.500000
O O19 0.500000 0.373556 0.500000
#
# Coordination Sequence:
#
# PCOD8195407 Si02
#       7
#     8   8   8   4   4   8   4
#     4  10  21  36  53  73  97 126 164 210 260 316
#     4  12  23  36  54  74  97 132 171 216 264 308
#     4  10  19  31  48  71  99 130 166 206 247 297
#     4  11  22  36  53  69  92 130 175 214 253 301
#     4  11  26  42  53  71 100 132 175 222 263 309
#     4   8  15  28  46  69  98 132 165 195 234 288
#     4   9  19  33  51  71  92 117 152 205 264 313
#
# _framework density 16.941037999999999
#
# number of rings (size 3 to 8) (size 9 to 14) (size 15 to 20)
#    0.000    1.909    1.818    3.000    5.091    2.909 
#    0.000    1.818    0.000    0.000    0.000    0.000 
#    0.000    0.727    0.000    5.818    0.000    1.091 
#
# Total GULP energy -545136.143339 kJ/mol
# GULP energy per Si atom -12389.457803 kJ/mol
# Density = 1.690248 g / cm^3
# Si number density = 16.941038 Si / 1000 Ang^3
#
#
#
# Elastic Constant Matrix: (Units=GPa)
#
#
# Indices 1 2 3 4 5 6 
#
# 1 70.9963 28.9838 11.9169 0.0000 0.0000 0.0000
# 2 28.9838 131.9965 57.6348 0.0000 0.0000 0.0000
# 3 11.9169 57.6348 95.6248 0.0000 0.0000 0.0000
# 4 0.0000 0.0000 0.0000 -43.1314 0.0000 0.0000
# 5 0.0000 0.0000 0.0000 0.0000 3.8385 0.0000
# 6 0.0000 0.0000 0.0000 0.0000 0.0000 19.1539
#
#
#
# Elastic Compliance Matrix: (Units=1/GPa)
#
#
# Indices 1 2 3 4 5 6 
#
# 1 0.015474 -0.003469 0.000162 0.000000 0.000000 0.000000
# 2 -0.003469 0.011059 -0.006233 0.000000 0.000000 0.000000
# 3 0.000162 -0.006233 0.014194 0.000000 0.000000 0.000000
# 4 0.000000 0.000000 0.000000 -0.023185 0.000000 0.000000
# 5 0.000000 0.000000 0.000000 0.000000 0.260519 0.000000
# 6 0.000000 0.000000 0.000000 0.000000 0.000000 0.052209
#
#
# Mechanical properties :
#
#
# Convention : Reuss Voigt Hill
#
# Bulk Modulus (GPa) = 46.19348 55.07648 50.63498
# Shear Modulus (GPa) = 14.02266 9.31100 11.66683
#
# Velocity S-wave (km/s) = 2.88016 2.34692 2.62710
# Velocity P-wave (km/s) = 6.19571 6.31865 6.25748
#
# Compressibility (1/GPa) = 0.02164808
#
# Stress axis : x y z
#
# Youngs Moduli (GPa) = 64.62430 90.42129 70.45076
#
# Poissons Ratio (x) = 0.31364 -0.01143
# Poissons Ratio (y) = 0.22416 0.43915
# Poissons Ratio (z) = -0.01048 0.56363
#
# Static dielectric constant tensor:
#      x y z
#    x 3.260430 0.000000 0.000000 
#    y 0.000000 3.447550 0.000000 
#    z 0.000000 0.000000 3.141830 
# 
# 
# High freq. dielectric constant tensor:
#      x y z
#    x 1.625440 0.000000 0.000000 
#    y 0.000000 1.672550 0.000000 
#    z 0.000000 0.000000 1.627580 
# 
# From -- ./inp_files/27930.got.cif
#   From: 2010.03.12/outbox.cif.g09.slc.cpg/sg47_14_cif.got.tgz:27930.got - 2010.04.14 03:12:58.
