data_PCOD8195141
_publ_section_title
;
Structure prediction by ZEFSAII (Michael W. Deem and Ramdas Pophale) SiO2 
 PCOD8195141
Probable space group: P M M M
;
_chemical_formula_sum "Si O2"
_cell_formula_units_Z 64
_cell_length_a 20.507641
_cell_length_b 18.725893
_cell_length_c 9.275563
_cell_angle_alpha 90.000000
_cell_angle_beta 90.000000
_cell_angle_gamma 90.000000
_cell_volume 3562.037795
_symmetry_space_group_name_H-M "P M M M"
_symmetry_group_IT_number 47
_symmetry_cell_setting 'orthorhombic'
loop_
_space_group_symop_operation_xyz
x,y,z
-x,-y,z
x,-y,-z
-x,y,-z
-x,-y,-z
x,y,-z
-x,y,z
x,-y,z
loop_
_atom_site_type_symbol
_atom_site_label
_atom_site_fract_x
_atom_site_fract_y
_atom_site_fract_z
Si Si1 0.691886 0.329725 0.328187
Si Si2 0.427945 0.080087 0.328779
Si Si3 0.427823 0.419884 0.671511
Si Si4 0.926547 0.824136 0.166369
Si Si5 0.305103 0.167710 0.671835
Si Si6 0.194349 0.917832 0.832493
Si Si7 0.925995 0.317077 0.331151
Si Si8 0.813829 0.420044 0.671359
O O1 0.691277 0.330431 0.500000
O O2 0.625659 0.365162 0.266158
O O3 0.696995 0.248895 0.271835
O O4 0.752761 0.375088 0.268260
O O5 0.427228 0.080280 0.500000
O O6 0.500000 0.104479 0.274541
O O7 0.372692 0.133479 0.270244
O O8 0.412896 0.000000 0.272490
O O9 0.425696 0.419109 0.500000
O O10 0.500000 0.396553 0.724799
O O11 0.411848 0.500000 0.726019
O O12 0.878419 0.889500 0.200357
O O13 0.903292 0.755432 0.255319
O O14 0.000000 0.847324 0.210662
O O15 0.923649 0.802187 0.000000
O O16 0.300039 0.163172 0.500000
O O17 0.245004 0.125524 0.737475
O O18 0.196506 0.000000 0.785353
O O19 0.212141 0.908239 0.000000
O O20 0.917637 0.303729 0.500000
O O21 0.880417 0.381820 0.278376
O O22 0.000000 0.337316 0.289819
O O23 0.810169 0.423764 0.500000
O O24 0.812352 0.500000 0.736309
#
# Coordination Sequence:
#
# PCOD8195141 Si02
#       8
#     8   8   8   8   8   8   8   8
#     4   9  16  24  36  57  84 113 147 186 223 260
#     4   8  14  25  41  62  88 116 146 181 221 265
#     4   8  13  21  33  51  81 121 155 181 218 268
#     4   9  18  33  52  71  91 118 150 182 221 271
#     4  10  19  30  47  70  94 121 153 190 232 275
#     4  10  21  35  50  69  93 120 150 186 226 268
#     4   9  17  29  46  68  92 116 144 182 224 262
#     4   9  16  25  38  57  83 115 148 181 217 258
#
# _framework density 17.967243
#
# number of rings (size 3 to 8) (size 9 to 14) (size 15 to 20)
#    0.000    3.000    0.000    2.250    0.000    4.750 
#    0.000    5.000    0.000    0.750    0.000    6.125 
#    0.000    1.500    0.000    1.375    0.000    2.125 
#
# Total GULP energy -793375.514878 kJ/mol
# GULP energy per Si atom -12396.492420 kJ/mol
# Density = 1.792635 g / cm^3
# Si number density = 17.967243 Si / 1000 Ang^3
#
#
#
# Elastic Constant Matrix: (Units=GPa)
#
#
# Indices 1 2 3 4 5 6 
#
# 1 143.0386 96.9888 22.3183 0.0000 0.0000 0.0000
# 2 96.9888 163.7803 23.7126 0.0000 0.0000 0.0000
# 3 22.3183 23.7126 14.5182 0.0000 0.0000 0.0000
# 4 0.0000 0.0000 0.0000 11.7262 0.0000 0.0000
# 5 0.0000 0.0000 0.0000 0.0000 13.4680 0.0000
# 6 0.0000 0.0000 0.0000 0.0000 0.0000 40.5807
#
#
#
# Elastic Compliance Matrix: (Units=1/GPa)
#
#
# Indices 1 2 3 4 5 6 
#
# 1 0.012591 -0.006095 -0.009400 0.000000 0.000000 0.000000
# 2 -0.006095 0.010947 -0.008511 0.000000 0.000000 0.000000
# 3 -0.009400 -0.008511 0.097230 0.000000 0.000000 0.000000
# 4 0.000000 0.000000 0.000000 0.085279 0.000000 0.000000
# 5 0.000000 0.000000 0.000000 0.000000 0.074250 0.000000
# 6 0.000000 0.000000 0.000000 0.000000 0.000000 0.024642
#
#
# Mechanical properties :
#
#
# Convention : Reuss Voigt Hill
#
# Bulk Modulus (GPa) = 13.74447 67.48626 40.61536
# Shear Modulus (GPa) = 13.25545 25.04280 19.14912
#
# Velocity S-wave (km/s) = 2.71911 3.73742 3.26817
# Velocity P-wave (km/s) = 4.18622 7.50111 6.07417
#
# Compressibility (1/GPa) = 0.07275654
#
# Stress axis : x y z
#
# Youngs Moduli (GPa) = 79.42415 91.34630 10.28489
#
# Poissons Ratio (x) = 0.55676 0.09668
# Poissons Ratio (y) = 0.48409 0.08753
# Poissons Ratio (z) = 0.74659 0.77741
#
# Static dielectric constant tensor:
#      x y z
#    x 3.673080 0.000000 0.000000 
#    y 0.000000 3.521370 0.000000 
#    z 0.000000 0.000000 2.749820 
# 
# 
# High freq. dielectric constant tensor:
#      x y z
#    x 1.713720 0.000000 0.000000 
#    y 0.000000 1.699560 0.000000 
#    z 0.000000 0.000000 1.628910 
# 
# From -- ./inp_files/11553.got.cif
#   From: 2010.03.12/outbox.cif.g09.slc.cpg/sg47_6_cif.got.tgz:11553.got - 2010.04.14 03:12:58.
