data_PCOD8195117
_publ_section_title
;
Structure prediction by ZEFSAII (Michael W. Deem and Ramdas Pophale) SiO2 
 PCOD8195117
Probable space group: P M M M
;
_chemical_formula_sum "Si O2"
_cell_formula_units_Z 44
_cell_length_a 31.882816
_cell_length_b 7.908188
_cell_length_c 9.543586
_cell_angle_alpha 90.000000
_cell_angle_beta 90.000000
_cell_angle_gamma 90.000000
_cell_volume 2406.274947
_symmetry_space_group_name_H-M "P M M M"
_symmetry_group_IT_number 47
_symmetry_cell_setting 'orthorhombic'
loop_
_space_group_symop_operation_xyz
x,y,z
-x,-y,z
x,-y,-z
-x,y,-z
-x,-y,-z
x,y,-z
-x,y,z
x,-y,z
loop_
_atom_site_type_symbol
_atom_site_label
_atom_site_fract_x
_atom_site_fract_y
_atom_site_fract_z
Si Si1 0.162772 0.304824 0.848110
Si Si2 0.000000 0.302004 0.339435
Si Si3 0.397194 0.000000 0.667603
Si Si4 0.088272 0.804827 0.342655
Si Si5 0.688758 0.000000 0.832725
Si Si6 0.546921 0.687776 0.666064
Si Si7 0.253903 0.690137 0.166440
O O1 0.169063 0.500000 0.875976
O O2 0.124569 0.281688 0.743889
O O3 0.207546 0.244162 0.784258
O O4 0.153369 0.217282 0.000000
O O5 0.042701 0.228811 0.270854
O O6 0.000000 0.500000 0.320106
O O7 0.000000 0.241624 0.500000
O O8 0.422048 0.166612 0.720213
O O9 0.390184 0.000000 0.500000
O O10 0.354036 0.000000 0.749026
O O11 0.088518 0.727754 0.500000
O O12 0.098352 0.000000 0.345940
O O13 0.712916 0.169821 0.782615
O O14 0.681425 0.000000 0.000000
O O15 0.545320 0.695060 0.500000
O O16 0.500000 0.721781 0.724632
O O17 0.562260 0.500000 0.714681
O O18 0.264746 0.500000 0.224964
O O19 0.253346 0.682944 0.000000
#
# Coordination Sequence:
#
# PCOD8195117 Si02
#       7
#     8   4   4   8   4   8   8
#     4   9  18  33  53  75  95 118 155 202 246 285
#     4   9  17  31  50  67  90 129 166 190 220 273
#     4  10  19  30  46  72 102 128 157 205 252 285
#     4  10  20  32  48  73 101 127 155 190 232 283
#     4  10  20  33  51  71  94 131 169 196 239 297
#     4   8  14  26  46  71  97 128 167 205 241 286
#     4   8  16  32  52  72  93 121 163 207 240 284
#
# _framework density 18.285525
#
# number of rings (size 3 to 8) (size 9 to 14) (size 15 to 20)
#    0.000    3.000    0.000    2.727    1.273    4.364 
#    0.000    1.364    0.000    4.909    0.000    1.273 
#    0.000    0.000    0.000    0.000    0.000    0.000 
#
# Total GULP energy -545139.288714 kJ/mol
# GULP energy per Si atom -12389.529289 kJ/mol
# Density = 1.824391 g / cm^3
# Si number density = 18.285525 Si / 1000 Ang^3
#
#
#
# Elastic Constant Matrix: (Units=GPa)
#
#
# Indices 1 2 3 4 5 6 
#
# 1 165.3546 71.6029 40.0984 0.0000 0.0000 0.0000
# 2 71.6029 99.4688 18.8132 0.0000 0.0000 0.0000
# 3 40.0984 18.8132 32.8981 0.0000 0.0000 0.0000
# 4 0.0000 0.0000 0.0000 13.1576 0.0000 0.0000
# 5 0.0000 0.0000 0.0000 0.0000 56.9549 0.0000
# 6 0.0000 0.0000 0.0000 0.0000 0.0000 29.2072
#
#
#
# Elastic Compliance Matrix: (Units=1/GPa)
#
#
# Indices 1 2 3 4 5 6 
#
# 1 0.011139 -0.006112 -0.010082 0.000000 0.000000 0.000000
# 2 -0.006112 0.014626 -0.000915 0.000000 0.000000 0.000000
# 3 -0.010082 -0.000915 0.043209 0.000000 0.000000 0.000000
# 4 0.000000 0.000000 0.000000 0.076002 0.000000 0.000000
# 5 0.000000 0.000000 0.000000 0.000000 0.017558 0.000000
# 6 0.000000 0.000000 0.000000 0.000000 0.000000 0.034238
#
#
# Mechanical properties :
#
#
# Convention : Reuss Voigt Hill
#
# Bulk Modulus (GPa) = 28.77134 62.08339 45.42736
# Shear Modulus (GPa) = 20.61235 31.01107 25.81171
#
# Velocity S-wave (km/s) = 3.36110 4.12264 3.76119
# Velocity P-wave (km/s) = 5.55259 7.52911 6.61509
#
# Compressibility (1/GPa) = 0.03475681
#
# Stress axis : x y z
#
# Youngs Moduli (GPa) = 89.77528 68.37226 23.14354
#
# Poissons Ratio (x) = 0.41786 0.23333
# Poissons Ratio (y) = 0.54866 0.02117
# Poissons Ratio (z) = 0.90511 0.06255
#
# Static dielectric constant tensor:
#      x y z
#    x 3.609830 0.000000 0.000000 
#    y 0.000000 3.676010 0.000000 
#    z 0.000000 0.000000 2.917040 
# 
# 
# High freq. dielectric constant tensor:
#      x y z
#    x 1.716160 0.000000 0.000000 
#    y 0.000000 1.720170 0.000000 
#    z 0.000000 0.000000 1.646130 
# 
# From -- ./inp_files/13718.got.cif
#   From: 2010.03.12/outbox.cif.g09.slc.cpg/sg47_7_cif.got.tgz:13718.got - 2010.04.14 03:12:58.
