data_PCOD8195775
_publ_section_title
;
Structure prediction by ZEFSAII (Michael W. Deem and Ramdas Pophale) SiO2 
 PCOD8195775
Probable space group: P M M M
;
_chemical_formula_sum "Si O2"
_cell_formula_units_Z 52
_cell_length_a 9.180423
_cell_length_b 12.154153
_cell_length_c 25.418481
_cell_angle_alpha 90.000000
_cell_angle_beta 90.000000
_cell_angle_gamma 90.000000
_cell_volume 2836.200865
_symmetry_space_group_name_H-M "P M M M"
_symmetry_group_IT_number 47
_symmetry_cell_setting 'orthorhombic'
loop_
_space_group_symop_operation_xyz
x,y,z
-x,-y,z
x,-y,-z
-x,y,-z
-x,-y,-z
x,y,-z
-x,y,z
x,-y,z
loop_
_atom_site_type_symbol
_atom_site_label
_atom_site_fract_x
_atom_site_fract_y
_atom_site_fract_z
Si Si1 0.670600 0.714656 0.843746
Si Si2 0.169718 0.255563 0.656780
Si Si3 0.171681 0.784176 0.939993
Si Si4 0.173064 0.876243 0.442156
Si Si5 0.660598 0.000000 0.938417
Si Si6 0.671079 0.127845 0.249741
Si Si7 0.835057 0.500000 0.680921
Si Si8 0.670902 0.500000 0.214416
O O1 0.500000 0.709326 0.857604
O O2 0.761267 0.700905 0.897996
O O3 0.706202 0.822211 0.808171
O O4 0.729449 0.609225 0.812908
O O5 0.234956 0.202520 0.603444
O O6 0.249670 0.202216 0.706727
O O7 0.193641 0.386939 0.649081
O O8 0.000000 0.227511 0.663911
O O9 0.000000 0.795924 0.934066
O O10 0.246943 0.896132 0.921209
O O11 0.212720 0.751096 0.000000
O O12 0.229945 0.838402 0.500000
O O13 0.000000 0.872414 0.442145
O O14 0.227256 0.000000 0.430434
O O15 0.500000 0.000000 0.910982
O O16 0.637632 0.000000 0.000000
O O17 0.500000 0.136922 0.261056
O O18 0.722812 0.000000 0.251303
O O19 0.720485 0.500000 0.726611
O O20 0.000000 0.500000 0.702866
O O21 0.500000 0.500000 0.214063
#
# Coordination Sequence:
#
# PCOD8195775 Si02
#       8
#     8   8   8   8   4   8   4   4
#     4  10  21  36  56  78 101 133 176 219 260 314
#     4  10  19  32  51  76 105 139 179 220 262 313
#     4  10  21  36  53  77 108 139 172 212 263 322
#     4   8  14  26  46  72 102 138 179 220 262 310
#     4   9  17  31  53  77 103 139 177 211 250 301
#     4  10  21  35  52  78 109 137 168 214 266 314
#     4  10  20  32  49  75 105 136 176 222 266 313
#     4  10  20  38  59  76  97 136 184 219 256 313
#
# _framework density 18.334385999999999
#
# number of rings (size 3 to 8) (size 9 to 14) (size 15 to 20)
#    0.000    2.385    1.538    1.615    1.077    4.000 
#    0.000    0.769    0.000    5.077    0.000    2.154 
#    0.000    1.846    0.000    0.000    0.000    0.000 
#
# Total GULP energy -644414.802243 kJ/mol
# GULP energy per Si atom -12392.592351 kJ/mol
# Density = 1.829266 g / cm^3
# Si number density = 18.334386 Si / 1000 Ang^3
#
#
#
# Elastic Constant Matrix: (Units=GPa)
#
#
# Indices 1 2 3 4 5 6 
#
# 1 35.7241 22.0321 33.6812 0.0000 0.0000 0.0000
# 2 22.0321 113.1186 51.6112 0.0000 0.0000 0.0000
# 3 33.6812 51.6112 125.1360 0.0000 0.0000 0.0000
# 4 0.0000 0.0000 0.0000 49.8569 0.0000 0.0000
# 5 0.0000 0.0000 0.0000 0.0000 15.2763 0.0000
# 6 0.0000 0.0000 0.0000 0.0000 0.0000 21.8296
#
#
#
# Elastic Compliance Matrix: (Units=1/GPa)
#
#
# Indices 1 2 3 4 5 6 
#
# 1 0.038555 -0.003418 -0.008968 0.000000 0.000000 0.000000
# 2 -0.003418 0.011192 -0.003696 0.000000 0.000000 0.000000
# 3 -0.008968 -0.003696 0.011930 0.000000 0.000000 0.000000
# 4 0.000000 0.000000 0.000000 0.020057 0.000000 0.000000
# 5 0.000000 0.000000 0.000000 0.000000 0.065461 0.000000
# 6 0.000000 0.000000 0.000000 0.000000 0.000000 0.045809
#
#
# Mechanical properties :
#
#
# Convention : Reuss Voigt Hill
#
# Bulk Modulus (GPa) = 33.88286 54.29196 44.08741
# Shear Modulus (GPa) = 21.27606 28.50284 24.88945
#
# Velocity S-wave (km/s) = 3.41023 3.94713 3.68846
# Velocity P-wave (km/s) = 5.83325 7.10278 6.49909
#
# Compressibility (1/GPa) = 0.02951345
#
# Stress axis : x y z
#
# Youngs Moduli (GPa) = 25.93692 89.34619 83.82554
#
# Poissons Ratio (x) = 0.30536 0.75173
# Poissons Ratio (y) = 0.08865 0.30984
# Poissons Ratio (z) = 0.23260 0.33025
#
# Static dielectric constant tensor:
#      x y z
#    x 3.172350 0.000000 0.000000 
#    y 0.000000 3.532750 0.000000 
#    z 0.000000 0.000000 3.496710 
# 
# 
# High freq. dielectric constant tensor:
#      x y z
#    x 1.689810 0.000000 0.000000 
#    y 0.000000 1.710180 0.000000 
#    z 0.000000 0.000000 1.709970 
# 
# From -- ./inp_files/33330.got.cif
#   From: 2010.03.12/outbox.cif.g09.slc.cpg/sg47_17_cif.got.tgz:33330.got - 2010.04.14 03:12:58.
