data_PCOD8195346
_publ_section_title
;
Structure prediction by ZEFSAII (Michael W. Deem and Ramdas Pophale) SiO2 
 PCOD8195346
Probable space group: P M M M
;
_chemical_formula_sum "Si O2"
_cell_formula_units_Z 52
_cell_length_a 26.366815
_cell_length_b 12.706751
_cell_length_c 8.838231
_cell_angle_alpha 90.000000
_cell_angle_beta 90.000000
_cell_angle_gamma 90.000000
_cell_volume 2961.130448
_symmetry_space_group_name_H-M "P M M M"
_symmetry_group_IT_number 47
_symmetry_cell_setting 'orthorhombic'
loop_
_space_group_symop_operation_xyz
x,y,z
-x,-y,z
x,-y,-z
-x,y,-z
-x,-y,-z
x,y,-z
-x,y,z
x,-y,z
loop_
_atom_site_type_symbol
_atom_site_label
_atom_site_fract_x
_atom_site_fract_y
_atom_site_fract_z
Si Si1 0.202654 0.698444 0.320990
Si Si2 0.369673 0.119897 0.325181
Si Si3 0.732797 0.500000 0.320238
Si Si4 0.264404 0.121610 0.824115
Si Si5 0.381630 0.500000 0.319404
Si Si6 0.556583 0.300388 0.320627
Si Si7 0.000000 0.374932 0.329250
Si Si8 0.897419 0.378414 0.821853
O O1 0.197409 0.694031 0.500000
O O2 0.238336 0.603767 0.260557
O O3 0.225262 0.809753 0.271333
O O4 0.147409 0.689539 0.248824
O O5 0.355405 0.141298 0.500000
O O6 0.321269 0.149871 0.225665
O O7 0.416294 0.192180 0.272134
O O8 0.386780 0.000000 0.299129
O O9 0.731441 0.500000 0.500000
O O10 0.675652 0.500000 0.254896
O O11 0.252555 0.000000 0.788290
O O12 0.258365 0.147600 0.000000
O O13 0.380205 0.500000 0.500000
O O14 0.410990 0.602059 0.256734
O O15 0.553027 0.309024 0.500000
O O16 0.500000 0.302225 0.250610
O O17 0.049944 0.333318 0.243989
O O18 0.000000 0.500000 0.325309
O O19 0.000000 0.331710 0.500000
O O20 0.889632 0.500000 0.775440
O O21 0.898230 0.363535 0.000000
#
# Coordination Sequence:
#
# PCOD8195346 Si02
#       8
#     8   8   4   8   4   8   4   8
#     4  11  20  32  51  75 104 134 169 211 254 301
#     4   9  17  30  48  68  90 117 151 193 244 299
#     4   9  18  29  45  71 101 130 160 199 247 296
#     4  10  21  36  52  71  97 129 166 207 254 307
#     4   9  15  24  37  57  89 125 154 183 228 286
#     4   9  16  25  40  64  92 119 150 191 237 286
#     4   9  17  29  47  69  98 139 184 223 257 296
#     4  10  19  31  47  71 106 143 177 212 255 304
#
# _framework density 17.560860000000002
#
# number of rings (size 3 to 8) (size 9 to 14) (size 15 to 20)
#    0.000    2.385    0.769    2.769    0.000    6.154 
#    0.000    1.538    0.000    0.462    0.000    2.692 
#    0.000    6.769    0.000    0.000    0.000    0.000 
#
# Total GULP energy -644885.597240 kJ/mol
# GULP energy per Si atom -12401.646101 kJ/mol
# Density = 1.752089 g / cm^3
# Si number density = 17.560860 Si / 1000 Ang^3
#
#
#
# Elastic Constant Matrix: (Units=GPa)
#
#
# Indices 1 2 3 4 5 6 
#
# 1 159.1070 65.6704 33.9219 0.0000 0.0000 0.0000
# 2 65.6704 87.4423 23.6183 0.0000 0.0000 0.0000
# 3 33.9219 23.6183 47.7180 0.0000 0.0000 0.0000
# 4 0.0000 0.0000 0.0000 17.7444 0.0000 0.0000
# 5 0.0000 0.0000 0.0000 0.0000 13.2457 0.0000
# 6 0.0000 0.0000 0.0000 0.0000 0.0000 19.9935
#
#
#
# Elastic Compliance Matrix: (Units=1/GPa)
#
#
# Indices 1 2 3 4 5 6 
#
# 1 0.009666 -0.006237 -0.003784 0.000000 0.000000 0.000000
# 2 -0.006237 0.017226 -0.004092 0.000000 0.000000 0.000000
# 3 -0.003784 -0.004092 0.025672 0.000000 0.000000 0.000000
# 4 0.000000 0.000000 0.000000 0.056356 0.000000 0.000000
# 5 0.000000 0.000000 0.000000 0.000000 0.075496 0.000000
# 6 0.000000 0.000000 0.000000 0.000000 0.000000 0.050016
#
#
# Mechanical properties :
#
#
# Convention : Reuss Voigt Hill
#
# Bulk Modulus (GPa) = 41.09023 60.07650 50.58337
# Shear Modulus (GPa) = 18.46573 21.60051 20.03312
#
# Velocity S-wave (km/s) = 3.24624 3.51099 3.38121
# Velocity P-wave (km/s) = 6.12375 7.12186 6.64158
#
# Compressibility (1/GPa) = 0.02433668
#
# Stress axis : x y z
#
# Youngs Moduli (GPa) = 103.45143 58.05276 38.95289
#
# Poissons Ratio (x) = 0.36210 0.14741
# Poissons Ratio (y) = 0.64527 0.15939
# Poissons Ratio (z) = 0.39150 0.23755
#
# Static dielectric constant tensor:
#      x y z
#    x 3.401980 0.000000 0.000000 
#    y 0.000000 3.186170 0.000000 
#    z 0.000000 0.000000 3.021430 
# 
# 
# High freq. dielectric constant tensor:
#      x y z
#    x 1.685050 0.000000 0.000000 
#    y 0.000000 1.661710 0.000000 
#    z 0.000000 0.000000 1.655080 
# 
# From -- ./inp_files/13322.got.cif
#   From: 2010.03.12/outbox.cif.g09.slc.cpg/sg47_7_cif.got.tgz:13322.got - 2010.04.14 03:12:58.
