data_PCOD8195986
_publ_section_title
;
Structure prediction by ZEFSAII (Michael W. Deem and Ramdas Pophale) SiO2 
 PCOD8195986
Probable space group: P M M M
;
_chemical_formula_sum "Si O2"
_cell_formula_units_Z 56
_cell_length_a 19.041694
_cell_length_b 8.937748
_cell_length_c 18.726578
_cell_angle_alpha 90.000000
_cell_angle_beta 90.000000
_cell_angle_gamma 90.000000
_cell_volume 3187.073734
_symmetry_space_group_name_H-M "P M M M"
_symmetry_group_IT_number 47
_symmetry_cell_setting 'orthorhombic'
loop_
_space_group_symop_operation_xyz
x,y,z
-x,-y,z
x,-y,-z
-x,y,-z
-x,-y,-z
x,y,-z
-x,y,z
x,-y,z
loop_
_atom_site_type_symbol
_atom_site_label
_atom_site_fract_x
_atom_site_fract_y
_atom_site_fract_z
Si Si1 0.578671 0.827306 0.804177
Si Si2 0.209899 0.177222 0.705500
Si Si3 0.287045 0.327716 0.581965
Si Si4 0.170291 0.825382 0.919235
Si Si5 0.578841 0.827016 0.637557
Si Si6 0.922814 0.176488 0.210315
Si Si7 0.286780 0.676158 0.164092
O O1 0.500000 0.790649 0.830802
O O2 0.585178 0.789829 0.720754
O O3 0.632374 0.723546 0.848431
O O4 0.596767 0.000000 0.818369
O O5 0.229357 0.237506 0.627603
O O6 0.129941 0.224469 0.725871
O O7 0.262757 0.246583 0.762664
O O8 0.219453 0.000000 0.707536
O O9 0.266181 0.303726 0.500000
O O10 0.283499 0.500000 0.604466
O O11 0.366226 0.271621 0.593909
O O12 0.108635 0.770934 0.865991
O O13 0.241010 0.734246 0.902413
O O14 0.186523 0.000000 0.906981
O O15 0.146176 0.792218 0.000000
O O16 0.500000 0.789562 0.610751
O O17 0.596374 0.000000 0.623459
O O18 0.000000 0.250153 0.221589
O O19 0.930872 0.000000 0.209561
O O20 0.279339 0.500000 0.170823
#
# Coordination Sequence:
#
# PCOD8195986 Si02
#       7
#     8   8   8   8   8   8   8
#     4   9  17  30  49  72  97 126 164 211 257 300
#     4  10  19  33  53  74  98 129 168 207 245 297
#     4  11  23  35  48  70 100 133 169 211 257 300
#     4   9  18  32  51  76 106 140 172 199 234 287
#     4   9  18  32  50  71  96 129 167 207 253 304
#     4   8  15  29  52  82 108 128 157 203 251 288
#     4  11  20  30  49  74 101 133 168 208 252 293
#
# _framework density 17.570978
#
# number of rings (size 3 to 8) (size 9 to 14) (size 15 to 20)
#    0.000    2.429    1.429    3.857    0.000    2.571 
#    0.000    4.286    0.000   11.571    0.000   10.000 
#    0.000    0.000    0.000    0.000    0.000    0.000 
#
# Total GULP energy -694284.507251 kJ/mol
# GULP energy per Si atom -12397.937629 kJ/mol
# Density = 1.753099 g / cm^3
# Si number density = 17.570978 Si / 1000 Ang^3
#
#
#
# Elastic Constant Matrix: (Units=GPa)
#
#
# Indices 1 2 3 4 5 6 
#
# 1 141.7957 48.5231 54.6464 0.0000 0.0000 0.0000
# 2 48.5231 79.2956 34.2867 0.0000 0.0000 0.0000
# 3 54.6464 34.2867 74.4634 0.0000 0.0000 0.0000
# 4 0.0000 0.0000 0.0000 20.7868 0.0000 0.0000
# 5 0.0000 0.0000 0.0000 0.0000 20.1760 0.0000
# 6 0.0000 0.0000 0.0000 0.0000 0.0000 5.5233
#
#
#
# Elastic Compliance Matrix: (Units=1/GPa)
#
#
# Indices 1 2 3 4 5 6 
#
# 1 0.010741 -0.003951 -0.006063 0.000000 0.000000 0.000000
# 2 -0.003951 0.017199 -0.005020 0.000000 0.000000 0.000000
# 3 -0.006063 -0.005020 0.020191 0.000000 0.000000 0.000000
# 4 0.000000 0.000000 0.000000 0.048107 0.000000 0.000000
# 5 0.000000 0.000000 0.000000 0.000000 0.049564 0.000000
# 6 0.000000 0.000000 0.000000 0.000000 0.000000 0.181053
#
#
# Mechanical properties :
#
#
# Convention : Reuss Voigt Hill
#
# Bulk Modulus (GPa) = 55.36342 63.38523 59.37433
# Shear Modulus (GPa) = 13.77621 19.83711 16.80666
#
# Velocity S-wave (km/s) = 2.80309 3.36366 3.09609
# Velocity P-wave (km/s) = 6.48485 7.15806 6.82975
#
# Compressibility (1/GPa) = 0.01806247
#
# Stress axis : x y z
#
# Youngs Moduli (GPa) = 93.09908 58.14165 49.52812
#
# Poissons Ratio (x) = 0.22972 0.30031
# Poissons Ratio (y) = 0.36784 0.24862
# Poissons Ratio (z) = 0.56450 0.29186
#
# Static dielectric constant tensor:
#      x y z
#    x 3.585020 0.000000 0.000000 
#    y 0.000000 3.106080 0.000000 
#    z 0.000000 0.000000 3.075180 
# 
# 
# High freq. dielectric constant tensor:
#      x y z
#    x 1.680000 0.000000 0.000000 
#    y 0.000000 1.665750 0.000000 
#    z 0.000000 0.000000 1.652880 
# 
# From -- ./inp_files/28726.got.cif
#   From: 2010.03.12/outbox.cif.g09.slc.cpg/sg47_15_cif.got.tgz:28726.got - 2010.04.14 03:12:58.
