data_PCOD8195754
_publ_section_title
;
Structure prediction by ZEFSAII (Michael W. Deem and Ramdas Pophale) SiO2 
 PCOD8195754
Probable space group: P M M M
;
_chemical_formula_sum "Si O2"
_cell_formula_units_Z 40
_cell_length_a 27.124914
_cell_length_b 9.528379
_cell_length_c 8.102307
_cell_angle_alpha 90.000000
_cell_angle_beta 90.000000
_cell_angle_gamma 90.000000
_cell_volume 2094.093593
_symmetry_space_group_name_H-M "P M M M"
_symmetry_group_IT_number 47
_symmetry_cell_setting 'orthorhombic'
loop_
_space_group_symop_operation_xyz
x,y,z
-x,-y,z
x,-y,-z
-x,y,-z
-x,-y,-z
x,y,-z
-x,y,z
x,-y,z
loop_
_atom_site_type_symbol
_atom_site_label
_atom_site_fract_x
_atom_site_fract_y
_atom_site_fract_z
Si Si1 0.884756 0.666999 0.183299
Si Si2 0.591208 0.158528 0.692225
Si Si3 0.217723 0.656964 0.311546
Si Si4 0.500000 0.338142 0.194393
Si Si5 0.944036 0.667365 0.500000
Si Si6 0.303776 0.839808 0.810709
O O1 0.886016 0.500000 0.193401
O O2 0.828287 0.718065 0.207520
O O3 0.918707 0.727246 0.331845
O O4 0.902737 0.717145 0.000000
O O5 0.602437 0.160998 0.500000
O O6 0.547849 0.264416 0.733077
O O7 0.640295 0.212342 0.784193
O O8 0.577066 0.000000 0.749466
O O9 0.200089 0.654880 0.500000
O O10 0.231134 0.500000 0.251401
O O11 0.266089 0.750567 0.296267
O O12 0.500000 0.500000 0.250116
O O13 0.500000 0.322186 0.000000
O O14 0.941412 0.500000 0.500000
O O15 0.000000 0.721341 0.500000
O O16 0.299855 0.000000 0.750864
O O17 0.289090 0.821920 0.000000
#
# Coordination Sequence:
#
# PCOD8195754 Si02
#       6
#     8   8   8   4   4   8
#     4   9  16  27  43  64  94 132 173 217 265 317
#     4  10  21  38  59  80 102 133 172 211 257 312
#     4  10  19  32  51  74 102 138 177 216 262 318
#     4  11  24  39  56  80 108 137 170 211 256 304
#     4   9  16  26  40  62  95 133 175 220 263 314
#     4  10  21  36  54  78 107 137 172 216 262 311
#
# _framework density 19.101343
#
# number of rings (size 3 to 8) (size 9 to 14) (size 15 to 20)
#    0.000    2.200    1.000    2.400    0.000    6.800 
#    0.000    2.000    0.000    0.000    0.000    0.000 
#    0.000    1.600    0.000    4.200    0.000    4.000 
#
# Total GULP energy -495950.389819 kJ/mol
# GULP energy per Si atom -12398.759745 kJ/mol
# Density = 1.905787 g / cm^3
# Si number density = 19.101343 Si / 1000 Ang^3
#
#
#
# Elastic Constant Matrix: (Units=GPa)
#
#
# Indices 1 2 3 4 5 6 
#
# 1 131.6921 45.1553 48.2429 0.0000 0.0000 0.0000
# 2 45.1553 51.7644 24.2975 0.0000 0.0000 0.0000
# 3 48.2429 24.2975 102.5227 0.0000 0.0000 0.0000
# 4 0.0000 0.0000 0.0000 19.4664 0.0000 0.0000
# 5 0.0000 0.0000 0.0000 0.0000 30.2012 0.0000
# 6 0.0000 0.0000 0.0000 0.0000 0.0000 -19.8751
#
#
#
# Elastic Compliance Matrix: (Units=1/GPa)
#
#
# Indices 1 2 3 4 5 6 
#
# 1 0.011866 -0.008698 -0.003522 0.000000 0.000000 0.000000
# 2 -0.008698 0.028112 -0.002570 0.000000 0.000000 0.000000
# 3 -0.003522 -0.002570 0.012020 0.000000 0.000000 0.000000
# 4 0.000000 0.000000 0.000000 0.051371 0.000000 0.000000
# 5 0.000000 0.000000 0.000000 0.000000 0.033111 0.000000
# 6 0.000000 0.000000 0.000000 0.000000 0.000000 -0.050314
#
#
# Mechanical properties :
#
#
# Convention : Reuss Voigt Hill
#
# Bulk Modulus (GPa) = 44.60539 57.93007 51.26773
# Shear Modulus (GPa) = 40.57843 17.17741 28.87792
#
# Velocity S-wave (km/s) = 4.61410 3.00205 3.89244
# Velocity P-wave (km/s) = 7.19647 6.51229 6.86291
#
# Compressibility (1/GPa) = 0.02241882
#
# Stress axis : x y z
#
# Youngs Moduli (GPa) = 84.27314 35.57243 83.19199
#
# Poissons Ratio (x) = 0.30940 0.29303
# Poissons Ratio (y) = 0.73299 0.21376
# Poissons Ratio (z) = 0.29684 0.09140
#
# Static dielectric constant tensor:
#      x y z
#    x 3.469970 0.000000 0.000000 
#    y 0.000000 3.138070 0.000000 
#    z 0.000000 0.000000 3.688500 
# 
# 
# High freq. dielectric constant tensor:
#      x y z
#    x 1.745550 0.000000 0.000000 
#    y 0.000000 1.693440 0.000000 
#    z 0.000000 0.000000 1.759680 
# 
# From -- ./inp_files/13051.got.cif
#   From: 2010.03.12/outbox.cif.g09.slc.cpg/sg47_7_cif.got.tgz:13051.got - 2010.04.14 03:12:58.
