data_PCOD8195312
_publ_section_title
;
Structure prediction by ZEFSAII (Michael W. Deem and Ramdas Pophale) SiO2 
 PCOD8195312
Probable space group: P M M M
;
_chemical_formula_sum "Si O2"
_cell_formula_units_Z 40
_cell_length_a 18.318476
_cell_length_b 18.435474
_cell_length_c 7.966460
_cell_angle_alpha 90.000000
_cell_angle_beta 90.000000
_cell_angle_gamma 90.000000
_cell_volume 2690.351518
_symmetry_space_group_name_H-M "P M M M"
_symmetry_group_IT_number 47
_symmetry_cell_setting 'orthorhombic'
loop_
_space_group_symop_operation_xyz
x,y,z
-x,-y,z
x,-y,-z
-x,y,-z
-x,-y,-z
x,y,-z
-x,y,z
x,-y,z
loop_
_atom_site_type_symbol
_atom_site_label
_atom_site_fract_x
_atom_site_fract_y
_atom_site_fract_z
Si Si1 0.085965 0.422158 0.693320
Si Si2 0.581628 0.913853 0.000000
Si Si3 0.172172 0.137184 0.194849
Si Si4 0.322200 0.915548 0.688501
Si Si5 0.913884 0.000000 0.306005
Si Si6 0.081173 0.729508 0.193369
O O1 0.106626 0.414892 0.500000
O O2 0.117388 0.500000 0.762031
O O3 0.117297 0.350662 0.785156
O O4 0.000000 0.423721 0.721775
O O5 0.621643 0.886632 0.170079
O O6 0.500000 0.881118 0.000000
O O7 0.578194 0.000000 0.000000
O O8 0.246319 0.126846 0.297743
O O9 0.133572 0.209184 0.271540
O O10 0.117391 0.070582 0.215972
O O11 0.192608 0.145856 0.000000
O O12 0.354206 0.903255 0.500000
O O13 0.305455 0.000000 0.720638
O O14 0.890361 0.000000 0.500000
O O15 0.000000 0.000000 0.282359
O O16 0.000000 0.732508 0.277801
O O17 0.072768 0.748042 0.000000
#
# Coordination Sequence:
#
# PCOD8195312 Si02
#       6
#     8   4   8   8   4   8
#     4   8  14  25  40  56  74  98 129 168 217 266
#     4   9  18  32  50  70  88 108 135 170 215 257
#     4  11  20  31  45  58  80 112 147 182 222 264
#     4  10  19  31  47  66  87 112 143 175 213 261
#     4  11  23  33  41  57  77 104 149 195 229 263
#     4   9  18  29  40  57  79 104 140 185 223 256
#
# _framework density 14.867945000000001
#
# number of rings (size 3 to 8) (size 9 to 14) (size 15 to 20)
#    0.000    2.400    2.000    2.100    0.000    4.000 
#    0.000    6.000    0.000    0.000    0.000    0.000 
#    0.000    0.000    0.000    0.000    0.000    2.000 
#
# Total GULP energy -495717.096051 kJ/mol
# GULP energy per Si atom -12392.927401 kJ/mol
# Density = 1.483410 g / cm^3
# Si number density = 14.867945 Si / 1000 Ang^3
#
#
#
# Elastic Constant Matrix: (Units=GPa)
#
#
# Indices 1 2 3 4 5 6 
#
# 1 74.2841 35.6763 29.3973 0.0000 0.0000 0.0000
# 2 35.6763 101.7700 20.6888 0.0000 0.0000 0.0000
# 3 29.3973 20.6888 65.5366 0.0000 0.0000 0.0000
# 4 0.0000 0.0000 0.0000 15.1023 0.0000 0.0000
# 5 0.0000 0.0000 0.0000 0.0000 14.2177 0.0000
# 6 0.0000 0.0000 0.0000 0.0000 0.0000 4.7577
#
#
#
# Elastic Compliance Matrix: (Units=1/GPa)
#
#
# Indices 1 2 3 4 5 6 
#
# 1 0.018594 -0.005153 -0.006714 0.000000 0.000000 0.000000
# 2 -0.005153 0.011928 -0.001454 0.000000 0.000000 0.000000
# 3 -0.006714 -0.001454 0.018729 0.000000 0.000000 0.000000
# 4 0.000000 0.000000 0.000000 0.066215 0.000000 0.000000
# 5 0.000000 0.000000 0.000000 0.000000 0.070335 0.000000
# 6 0.000000 0.000000 0.000000 0.000000 0.000000 0.210184
#
#
# Mechanical properties :
#
#
# Convention : Reuss Voigt Hill
#
# Bulk Modulus (GPa) = 44.22980 45.90174 45.06577
# Shear Modulus (GPa) = 11.62350 17.20411 14.41380
#
# Velocity S-wave (km/s) = 2.79907 3.40535 3.11698
# Velocity P-wave (km/s) = 6.34503 6.81189 6.58260
#
# Compressibility (1/GPa) = 0.02260919
#
# Stress axis : x y z
#
# Youngs Moduli (GPa) = 53.78169 83.83498 53.39286
#
# Poissons Ratio (x) = 0.43203 0.35846
# Poissons Ratio (y) = 0.27716 0.07763
# Poissons Ratio (z) = 0.36107 0.12189
#
# Static dielectric constant tensor:
#      x y z
#    x 2.663940 0.000000 0.000000 
#    y 0.000000 2.943030 0.000000 
#    z 0.000000 0.000000 2.925720 
# 
# 
# High freq. dielectric constant tensor:
#      x y z
#    x 1.520260 0.000000 0.000000 
#    y 0.000000 1.551480 0.000000 
#    z 0.000000 0.000000 1.576820 
# 
# From -- ./inp_files/9371.got.cif
#   From: 2010.03.12/outbox.cif.g09.slc.cpg/sg47_5_cif.got.tgz:9371.got - 2010.04.14 03:12:58.
