data_PCOD8195049
_publ_section_title
;
Structure prediction by ZEFSAII (Michael W. Deem and Ramdas Pophale) SiO2 
 PCOD8195049
Probable space group: P M M M
;
_chemical_formula_sum "Si O2"
_cell_formula_units_Z 64
_cell_length_a 14.642648
_cell_length_b 9.304390
_cell_length_c 28.111273
_cell_angle_alpha 90.000000
_cell_angle_beta 90.000000
_cell_angle_gamma 90.000000
_cell_volume 3829.905348
_symmetry_space_group_name_H-M "P M M M"
_symmetry_group_IT_number 47
_symmetry_cell_setting 'orthorhombic'
loop_
_space_group_symop_operation_xyz
x,y,z
-x,-y,z
x,-y,-z
-x,y,-z
-x,-y,-z
x,y,-z
-x,y,z
x,-y,z
loop_
_atom_site_type_symbol
_atom_site_label
_atom_site_fract_x
_atom_site_fract_y
_atom_site_fract_z
Si Si1 0.222767 0.329521 0.766664
Si Si2 0.098326 0.336387 0.404488
Si Si3 0.398822 0.168342 0.738816
Si Si4 0.848141 0.159902 0.320504
Si Si5 0.287901 0.668787 0.553019
Si Si6 0.108432 0.161527 0.947958
Si Si7 0.649836 0.157125 0.363002
Si Si8 0.896017 0.332478 0.857871
O O1 0.229183 0.500000 0.757583
O O2 0.325009 0.262677 0.767509
O O3 0.161148 0.255557 0.726563
O O4 0.172350 0.291874 0.815595
O O5 0.116798 0.500000 0.388315
O O6 0.086321 0.241166 0.357090
O O7 0.181961 0.286616 0.437929
O O8 0.000000 0.323956 0.431578
O O9 0.500000 0.192761 0.760869
O O10 0.404201 0.216483 0.683140
O O11 0.369935 0.000000 0.741366
O O12 0.753276 0.145500 0.347111
O O13 0.885709 0.000000 0.307922
O O14 0.313264 0.721989 0.500000
O O15 0.301369 0.500000 0.557584
O O16 0.357100 0.739987 0.591039
O O17 0.145325 0.260127 0.905359
O O18 0.000000 0.165706 0.947803
O O19 0.143618 0.000000 0.939158
O O20 0.143396 0.215779 0.000000
O O21 0.612194 0.000000 0.377807
O O22 0.896434 0.500000 0.867626
O O23 0.000000 0.280254 0.846360
#
# Coordination Sequence:
#
# PCOD8195049 Si02
#       8
#     8   8   8   8   8   8   8   8
#     4  10  19  30  45  67  95 123 153 189 226 267
#     4   9  17  28  41  57  78 105 138 178 221 261
#     4   9  18  33  52  72  93 117 146 182 225 272
#     4   9  17  29  43  58  78 107 142 177 214 257
#     4   9  17  28  42  60  81 106 136 170 211 259
#     4   8  14  25  41  61  85 115 155 202 243 273
#     4   8  15  28  45  63  81 102 130 165 204 250
#     4   9  18  30  42  60  90 128 164 194 226 265
#
# _framework density 16.710597
#
# number of rings (size 3 to 8) (size 9 to 14) (size 15 to 20)
#    0.000    3.125    0.000    1.875    0.000    5.750 
#    0.000    3.750    0.000    0.375    0.000    6.125 
#    0.000    0.500    0.000    5.500    0.000    4.250 
#
# Total GULP energy -792945.930742 kJ/mol
# GULP energy per Si atom -12389.780168 kJ/mol
# Density = 1.667256 g / cm^3
# Si number density = 16.710597 Si / 1000 Ang^3
#
#
#
# Elastic Constant Matrix: (Units=GPa)
#
#
# Indices 1 2 3 4 5 6 
#
# 1 50.2002 22.3597 28.5882 0.0000 0.0000 0.0000
# 2 22.3597 70.6570 55.4179 0.0000 0.0000 0.0000
# 3 28.5882 55.4179 118.3857 0.0000 0.0000 0.0000
# 4 0.0000 0.0000 0.0000 27.3285 0.0000 0.0000
# 5 0.0000 0.0000 0.0000 0.0000 12.1701 0.0000
# 6 0.0000 0.0000 0.0000 0.0000 0.0000 14.0971
#
#
#
# Elastic Compliance Matrix: (Units=1/GPa)
#
#
# Indices 1 2 3 4 5 6 
#
# 1 0.024100 -0.004838 -0.003555 0.000000 0.000000 0.000000
# 2 -0.004838 0.023335 -0.009755 0.000000 0.000000 0.000000
# 3 -0.003555 -0.009755 0.013872 0.000000 0.000000 0.000000
# 4 0.000000 0.000000 0.000000 0.036592 0.000000 0.000000
# 5 0.000000 0.000000 0.000000 0.000000 0.082169 0.000000
# 6 0.000000 0.000000 0.000000 0.000000 0.000000 0.070936
#
#
# Mechanical properties :
#
#
# Convention : Reuss Voigt Hill
#
# Bulk Modulus (GPa) = 39.98363 50.21938 45.10151
# Shear Modulus (GPa) = 16.91263 19.57761 18.24512
#
# Velocity S-wave (km/s) = 3.18479 3.42653 3.30787
# Velocity P-wave (km/s) = 6.12396 6.76554 6.45273
#
# Compressibility (1/GPa) = 0.02501023
#
# Stress axis : x y z
#
# Youngs Moduli (GPa) = 41.49437 42.85383 72.08834
#
# Poissons Ratio (x) = 0.20734 0.25626
# Poissons Ratio (y) = 0.20076 0.70323
# Poissons Ratio (z) = 0.14750 0.41804
#
# Static dielectric constant tensor:
#      x y z
#    x 2.970130 0.000000 0.000000 
#    y 0.000000 3.295980 0.000000 
#    z 0.000000 0.000000 3.220940 
# 
# 
# High freq. dielectric constant tensor:
#      x y z
#    x 1.612650 0.000000 0.000000 
#    y 0.000000 1.644750 0.000000 
#    z 0.000000 0.000000 1.624610 
# 
# From -- ./inp_files/33834.got.cif
#   From: 2010.03.12/outbox.cif.g09.slc.cpg/sg47_17_cif.got.tgz:33834.got - 2010.04.14 03:12:58.
