data_PCOD8195529
_publ_section_title
;
Structure prediction by ZEFSAII (Michael W. Deem and Ramdas Pophale) SiO2 
 PCOD8195529
Probable space group: P M M M
;
_chemical_formula_sum "Si O2"
_cell_formula_units_Z 40
_cell_length_a 9.318454
_cell_length_b 18.004532
_cell_length_c 13.031767
_cell_angle_alpha 90.000000
_cell_angle_beta 90.000000
_cell_angle_gamma 90.000000
_cell_volume 2186.396932
_symmetry_space_group_name_H-M "P M M M"
_symmetry_group_IT_number 47
_symmetry_cell_setting 'orthorhombic'
loop_
_space_group_symop_operation_xyz
x,y,z
-x,-y,z
x,-y,-z
-x,y,-z
-x,-y,-z
x,y,-z
-x,y,z
x,-y,z
loop_
_atom_site_type_symbol
_atom_site_label
_atom_site_fract_x
_atom_site_fract_y
_atom_site_fract_z
Si Si1 0.338533 0.846655 0.886258
Si Si2 0.167613 0.154759 0.309622
Si Si3 0.828880 0.415929 0.500000
Si Si4 0.165640 0.329346 0.696137
Si Si5 0.335323 0.912156 0.500000
Si Si6 0.660759 0.329813 0.111929
O O1 0.500000 0.874935 0.861646
O O2 0.229165 0.875677 0.799104
O O3 0.336630 0.758492 0.886075
O O4 0.291355 0.875301 0.000000
O O5 0.192888 0.242435 0.320851
O O6 0.253682 0.116064 0.399948
O O7 0.000000 0.134178 0.316500
O O8 0.771524 0.500000 0.500000
O O9 0.768847 0.373362 0.400379
O O10 0.000000 0.412838 0.500000
O O11 0.239762 0.361420 0.798306
O O12 0.000000 0.347274 0.709669
O O13 0.500000 0.883277 0.500000
O O14 0.331244 0.000000 0.500000
O O15 0.500000 0.358944 0.130514
O O16 0.716161 0.357231 0.000000
#
# Coordination Sequence:
#
# PCOD8195529 Si02
#       6
#     8   8   4   8   4   8
#     4   8  14  26  45  70 100 130 158 189 227 276
#     4  10  19  31  50  75 101 125 153 196 244 286
#     4   9  17  30  47  65  90 125 160 196 238 279
#     4   9  17  29  47  72  97 121 155 195 233 277
#     4  11  24  39  53  69  92 125 164 200 234 281
#     4   8  14  25  42  66  95 124 153 187 230 277
#
# _framework density 18.294937999999998
#
# number of rings (size 3 to 8) (size 9 to 14) (size 15 to 20)
#    0.000    3.000    0.000    2.700    0.000    4.000 
#    0.000    4.500    0.000    2.400    0.000    8.400 
#    0.000    0.000    0.000    0.000    0.000    0.000 
#
# Total GULP energy -495777.556986 kJ/mol
# GULP energy per Si atom -12394.438925 kJ/mol
# Density = 1.825330 g / cm^3
# Si number density = 18.294938 Si / 1000 Ang^3
#
#
#
# Elastic Constant Matrix: (Units=GPa)
#
#
# Indices 1 2 3 4 5 6 
#
# 1 104.8811 32.6932 92.8779 0.0000 0.0000 0.0000
# 2 32.6932 33.0903 42.5412 0.0000 0.0000 0.0000
# 3 92.8779 42.5412 204.0452 0.0000 0.0000 0.0000
# 4 0.0000 0.0000 0.0000 -3.8403 0.0000 0.0000
# 5 0.0000 0.0000 0.0000 0.0000 25.1735 0.0000
# 6 0.0000 0.0000 0.0000 0.0000 0.0000 11.5838
#
#
#
# Elastic Compliance Matrix: (Units=1/GPa)
#
#
# Indices 1 2 3 4 5 6 
#
# 1 0.018093 -0.009957 -0.006160 0.000000 0.000000 0.000000
# 2 -0.009957 0.046766 -0.005218 0.000000 0.000000 0.000000
# 3 -0.006160 -0.005218 0.008793 0.000000 0.000000 0.000000
# 4 0.000000 0.000000 0.000000 -0.260394 0.000000 0.000000
# 5 0.000000 0.000000 0.000000 0.000000 0.039724 0.000000
# 6 0.000000 0.000000 0.000000 0.000000 0.000000 0.086328
#
#
# Mechanical properties :
#
#
# Convention : Reuss Voigt Hill
#
# Bulk Modulus (GPa) = 32.27639 75.36016 53.81827
# Shear Modulus (GPa) = -649.93584 18.17701 -315.87942
#
# Velocity S-wave (km/s) = -18.86864 3.15549 -13.15425
# Velocity P-wave (km/s) = 21.37803 7.38630 14.18561
#
# Compressibility (1/GPa) = 0.03098240
#
# Stress axis : x y z
#
# Youngs Moduli (GPa) = 55.26936 21.38300 113.73198
#
# Poissons Ratio (x) = 0.21291 0.70057
# Poissons Ratio (y) = 0.55032 0.59345
# Poissons Ratio (z) = 0.34045 0.11158
#
# Static dielectric constant tensor:
#      x y z
#    x 3.400280 0.000000 0.000000 
#    y 0.000000 2.938820 0.000000 
#    z 0.000000 0.000000 3.887780 
# 
# 
# High freq. dielectric constant tensor:
#      x y z
#    x 1.698170 0.000000 0.000000 
#    y 0.000000 1.657690 0.000000 
#    z 0.000000 0.000000 1.731630 
# 
# From -- ./inp_files/15142.got.cif
#   From: 2010.03.12/outbox.cif.g09.slc.cpg/sg47_8_cif.got.tgz:15142.got - 2010.04.14 03:12:58.
