data_PCOD8195888
_publ_section_title
;
Structure prediction by ZEFSAII (Michael W. Deem and Ramdas Pophale) SiO2 
 PCOD8195888
Probable space group: P M M M
;
_chemical_formula_sum "Si O2"
_cell_formula_units_Z 40
_cell_length_a 9.388662
_cell_length_b 27.299659
_cell_length_c 8.138091
_cell_angle_alpha 90.000000
_cell_angle_beta 90.000000
_cell_angle_gamma 90.000000
_cell_volume 2085.851896
_symmetry_space_group_name_H-M "P M M M"
_symmetry_group_IT_number 47
_symmetry_cell_setting 'orthorhombic'
loop_
_space_group_symop_operation_xyz
x,y,z
-x,-y,z
x,-y,-z
-x,y,-z
-x,-y,-z
x,y,-z
-x,y,z
x,-y,z
loop_
_atom_site_type_symbol
_atom_site_label
_atom_site_fract_x
_atom_site_fract_y
_atom_site_fract_z
Si Si1 0.833897 0.616403 0.685137
Si Si2 0.340317 0.089727 0.191865
Si Si3 0.843491 0.000000 0.690799
Si Si4 0.830912 0.554884 0.000000
Si Si5 0.665765 0.295603 0.188026
Si Si6 0.668972 0.807239 0.684855
O O1 0.807490 0.594651 0.500000
O O2 0.751986 0.667686 0.696329
O O3 0.000000 0.626743 0.712290
O O4 0.777147 0.580703 0.830873
O O5 0.500000 0.084586 0.267140
O O6 0.240569 0.048459 0.263449
O O7 0.273035 0.142848 0.233663
O O8 0.348365 0.082680 0.000000
O O9 0.866128 0.000000 0.500000
O O10 0.000000 0.000000 0.776376
O O11 0.767845 0.500000 0.000000
O O12 0.000000 0.553349 0.000000
O O13 0.500000 0.299477 0.235401
O O14 0.723264 0.240485 0.217206
O O15 0.692939 0.310111 0.000000
O O16 0.726354 0.803921 0.500000
O O17 0.500000 0.808426 0.692588
#
# Coordination Sequence:
#
# PCOD8195888 Si02
#       6
#     8   8   4   4   8   8
#     4  10  20  34  54  80 109 142 181 225 273 324
#     4  10  20  35  56  80 103 130 169 214 258 308
#     4  11  24  39  54  74 102 135 170 211 260 314
#     4   9  18  34  55  79 109 143 181 228 275 318
#     4  10  19  32  53  80 110 145 181 218 265 320
#     4   9  17  30  50  77 107 137 171 214 260 308
#
# _framework density 19.176817
#
# number of rings (size 3 to 8) (size 9 to 14) (size 15 to 20)
#    0.000    2.200    1.000    2.400    0.000    7.200 
#    0.000    3.000    0.000    7.200    0.000    1.400 
#    0.000    0.000    0.000    0.000    0.000    0.000 
#
# Total GULP energy -495875.052245 kJ/mol
# GULP energy per Si atom -12396.876306 kJ/mol
# Density = 1.913317 g / cm^3
# Si number density = 19.176817 Si / 1000 Ang^3
#
#
#
# Elastic Constant Matrix: (Units=GPa)
#
#
# Indices 1 2 3 4 5 6 
#
# 1 50.9934 45.9172 30.7782 0.0000 0.0000 0.0000
# 2 45.9172 151.3948 53.9640 0.0000 0.0000 0.0000
# 3 30.7782 53.9640 108.8701 0.0000 0.0000 0.0000
# 4 0.0000 0.0000 0.0000 31.5339 0.0000 0.0000
# 5 0.0000 0.0000 0.0000 0.0000 18.8809 0.0000
# 6 0.0000 0.0000 0.0000 0.0000 0.0000 43.9977
#
#
#
# Elastic Compliance Matrix: (Units=1/GPa)
#
#
# Indices 1 2 3 4 5 6 
#
# 1 0.028777 -0.007079 -0.004627 0.000000 0.000000 0.000000
# 2 -0.007079 0.009764 -0.002839 0.000000 0.000000 0.000000
# 3 -0.004627 -0.002839 0.011900 0.000000 0.000000 0.000000
# 4 0.000000 0.000000 0.000000 0.031712 0.000000 0.000000
# 5 0.000000 0.000000 0.000000 0.000000 0.052963 0.000000
# 6 0.000000 0.000000 0.000000 0.000000 0.000000 0.022728
#
#
# Mechanical properties :
#
#
# Convention : Reuss Voigt Hill
#
# Bulk Modulus (GPa) = 46.83120 63.61968 55.22544
# Shear Modulus (GPa) = 25.76644 30.92242 28.34443
#
# Velocity S-wave (km/s) = 3.66953 4.01994 3.84872
# Velocity P-wave (km/s) = 6.51365 7.40229 6.97214
#
# Compressibility (1/GPa) = 0.02135329
#
# Stress axis : x y z
#
# Youngs Moduli (GPa) = 34.74993 102.41724 84.03191
#
# Poissons Ratio (x) = 0.72499 0.38879
# Poissons Ratio (y) = 0.24599 0.23853
# Poissons Ratio (z) = 0.16078 0.29072
#
# Static dielectric constant tensor:
#      x y z
#    x 1.970740 0.000000 0.000000 
#    y 0.000000 3.688780 0.000000 
#    z 0.000000 0.000000 3.676670 
# 
# 
# High freq. dielectric constant tensor:
#      x y z
#    x 1.701830 0.000000 0.000000 
#    y 0.000000 1.751600 0.000000 
#    z 0.000000 0.000000 1.759710 
# 
# From -- ./inp_files/1853.got.cif
#   From: 2010.03.12/outbox.cif.g09.slc.cpg/sg47_1_cif.got.tgz:1853.got - 2010.04.14 03:12:58.
