data_PCOD8195308
_publ_section_title
;
Structure prediction by ZEFSAII (Michael W. Deem and Ramdas Pophale) SiO2 
 PCOD8195308
Probable space group: P M M M
;
_chemical_formula_sum "Si O2"
_cell_formula_units_Z 52
_cell_length_a 9.375431
_cell_length_b 13.369964
_cell_length_c 23.782681
_cell_angle_alpha 90.000000
_cell_angle_beta 90.000000
_cell_angle_gamma 90.000000
_cell_volume 2981.139442
_symmetry_space_group_name_H-M "P M M M"
_symmetry_group_IT_number 47
_symmetry_cell_setting 'orthorhombic'
loop_
_space_group_symop_operation_xyz
x,y,z
-x,-y,z
x,-y,-z
-x,y,-z
-x,-y,-z
x,y,-z
-x,y,z
x,-y,z
loop_
_atom_site_type_symbol
_atom_site_label
_atom_site_fract_x
_atom_site_fract_y
_atom_site_fract_z
Si Si1 0.165254 0.614949 0.064474
Si Si2 0.833476 0.111008 0.347551
Si Si3 0.157883 0.613230 0.742697
Si Si4 0.662307 0.111360 0.234810
Si Si5 0.835683 0.320055 0.379426
Si Si6 0.666617 0.704492 0.837645
Si Si7 0.335768 0.500000 0.433634
O O1 0.201459 0.500000 0.078926
O O2 0.259385 0.687919 0.102512
O O3 0.000000 0.636073 0.076400
O O4 0.203127 0.638180 0.000000
O O5 0.757107 0.132001 0.288851
O O6 0.798497 0.201860 0.391961
O O7 0.000000 0.114049 0.333988
O O8 0.790310 0.000000 0.371524
O O9 0.164826 0.500000 0.722012
O O10 0.192172 0.676119 0.687234
O O11 0.273076 0.628597 0.791197
O O12 0.000000 0.639584 0.766285
O O13 0.500000 0.130226 0.253836
O O14 0.703263 0.183960 0.183438
O O15 0.685454 0.000000 0.211366
O O16 0.736560 0.397793 0.412115
O O17 0.000000 0.345395 0.394710
O O18 0.500000 0.684511 0.844690
O O19 0.500000 0.500000 0.413802
O O20 0.322433 0.500000 0.500000
#
# Coordination Sequence:
#
# PCOD8195308 Si02
#       7
#     8   8   8   8   8   8   4
#     4   9  19  36  54  69  89 124 166 204 249 306
#     4   9  17  30  51  79 108 137 172 214 258 306
#     4  10  19  31  46  69 103 137 165 196 243 303
#     4   9  18  31  45  66 101 139 170 200 242 301
#     4  10  19  34  55  79 107 140 176 213 257 309
#     4  11  21  30  46  73 100 128 165 206 251 298
#     4  11  25  41  57  79 107 141 182 225 264 305
#
# _framework density 17.442995
#
# number of rings (size 3 to 8) (size 9 to 14) (size 15 to 20)
#    0.000    2.231    2.308    1.615    0.000    5.231 
#    0.000    0.769    0.000    0.923    0.000    6.462 
#    0.000    0.000    0.000    0.000    0.000    0.000 
#
# Total GULP energy -644498.655928 kJ/mol
# GULP energy per Si atom -12394.204922 kJ/mol
# Density = 1.740329 g / cm^3
# Si number density = 17.442995 Si / 1000 Ang^3
#
#
#
# Elastic Constant Matrix: (Units=GPa)
#
#
# Indices 1 2 3 4 5 6 
#
# 1 81.1467 59.6540 40.4750 0.0000 0.0000 0.0000
# 2 59.6540 135.7079 45.9211 0.0000 0.0000 0.0000
# 3 40.4750 45.9211 55.3332 0.0000 0.0000 0.0000
# 4 0.0000 0.0000 0.0000 13.9623 0.0000 0.0000
# 5 0.0000 0.0000 0.0000 0.0000 24.7221 0.0000
# 6 0.0000 0.0000 0.0000 0.0000 0.0000 23.9718
#
#
#
# Elastic Compliance Matrix: (Units=1/GPa)
#
#
# Indices 1 2 3 4 5 6 
#
# 1 0.022432 -0.005990 -0.011437 0.000000 0.000000 0.000000
# 2 -0.005990 0.011846 -0.005449 0.000000 0.000000 0.000000
# 3 -0.011437 -0.005449 0.030960 0.000000 0.000000 0.000000
# 4 0.000000 0.000000 0.000000 0.071621 0.000000 0.000000
# 5 0.000000 0.000000 0.000000 0.000000 0.040450 0.000000
# 6 0.000000 0.000000 0.000000 0.000000 0.000000 0.041716
#
#
# Mechanical properties :
#
#
# Convention : Reuss Voigt Hill
#
# Bulk Modulus (GPa) = 51.32085 62.69867 57.00976
# Shear Modulus (GPa) = 18.43167 20.94043 19.68605
#
# Velocity S-wave (km/s) = 3.25419 3.46859 3.36310
# Velocity P-wave (km/s) = 6.60345 7.21557 6.91629
#
# Compressibility (1/GPa) = 0.01948526
#
# Stress axis : x y z
#
# Youngs Moduli (GPa) = 44.57981 84.41756 32.29948
#
# Poissons Ratio (x) = 0.50570 0.36940
# Poissons Ratio (y) = 0.26705 0.17600
# Poissons Ratio (z) = 0.50985 0.46000
#
# Static dielectric constant tensor:
#      x y z
#    x 3.287710 0.000000 0.000000 
#    y 0.000000 3.664720 0.000000 
#    z 0.000000 0.000000 2.919890 
# 
# 
# High freq. dielectric constant tensor:
#      x y z
#    x 1.675190 0.000000 0.000000 
#    y 0.000000 1.686100 0.000000 
#    z 0.000000 0.000000 1.638490 
# 
# From -- ./inp_files/31983.got.cif
#   From: 2010.03.12/outbox.cif.g09.slc.cpg/sg47_16_cif.got.tgz:31983.got - 2010.04.14 03:12:58.
