data_PCOD8195178
_publ_section_title
;
Structure prediction by ZEFSAII (Michael W. Deem and Ramdas Pophale) SiO2 
 PCOD8195178
Probable space group: P M M M
;
_chemical_formula_sum "Si O2"
_cell_formula_units_Z 64
_cell_length_a 28.885302
_cell_length_b 14.043735
_cell_length_c 9.255769
_cell_angle_alpha 90.000000
_cell_angle_beta 90.000000
_cell_angle_gamma 90.000000
_cell_volume 3754.672360
_symmetry_space_group_name_H-M "P M M M"
_symmetry_group_IT_number 47
_symmetry_cell_setting 'orthorhombic'
loop_
_space_group_symop_operation_xyz
x,y,z
-x,-y,z
x,-y,-z
-x,y,-z
-x,-y,-z
x,y,-z
-x,y,z
x,-y,z
loop_
_atom_site_type_symbol
_atom_site_label
_atom_site_fract_x
_atom_site_fract_y
_atom_site_fract_z
Si Si1 0.859792 0.786057 0.328462
Si Si2 0.195801 0.606102 0.330198
Si Si3 0.617407 0.730774 0.329504
Si Si4 0.780656 0.888836 0.832973
Si Si5 0.051111 0.893443 0.328784
Si Si6 0.551630 0.105577 0.328224
Si Si7 0.277626 0.257122 0.670734
Si Si8 0.449217 0.611798 0.840356
O O1 0.852617 0.798323 0.500000
O O2 0.845882 0.677779 0.281540
O O3 0.827643 0.861711 0.248515
O O4 0.911975 0.813100 0.278969
O O5 0.193716 0.593352 0.500000
O O6 0.190688 0.500000 0.259095
O O7 0.245044 0.653131 0.286311
O O8 0.615302 0.729278 0.500000
O O9 0.590889 0.823734 0.266469
O O10 0.670256 0.723571 0.277367
O O11 0.590470 0.639848 0.271141
O O12 0.738052 0.836102 0.756644
O O13 0.771553 0.000000 0.816535
O O14 0.784299 0.858116 0.000000
O O15 0.049982 0.896405 0.500000
O O16 0.000000 0.864900 0.269889
O O17 0.064296 0.000000 0.272364
O O18 0.552943 0.105993 0.500000
O O19 0.500000 0.136198 0.276321
O O20 0.563150 0.000000 0.269981
O O21 0.274239 0.236579 0.500000
O O22 0.500000 0.647580 0.787663
O O23 0.449358 0.500000 0.848770
O O24 0.438777 0.653751 0.000000
#
# Coordination Sequence:
#
# PCOD8195178 Si02
#       8
#     8   8   8   8   8   8   8   8
#     4   9  16  27  46  68  87 115 156 193 225 268
#     4   8  14  26  43  61  83 112 146 185 227 267
#     4  10  19  30  48  73  93 111 144 190 232 266
#     4  10  20  32  46  65  91 122 153 188 228 265
#     4   8  13  21  36  62  93 119 145 183 229 274
#     4   8  14  25  41  62  88 114 137 166 211 264
#     4   9  19  32  46  67  91 117 149 183 224 275
#     4   9  19  35  51  67  91 124 156 182 217 271
#
# _framework density 17.045428999999999
#
# number of rings (size 3 to 8) (size 9 to 14) (size 15 to 20)
#    0.000    3.125    0.000    3.000    0.000    4.000 
#    0.000    3.125    0.000    7.125    0.000    6.125 
#    0.000    0.000    0.000    4.500    0.000    5.500 
#
# Total GULP energy -793008.582361 kJ/mol
# GULP energy per Si atom -12390.759099 kJ/mol
# Density = 1.700663 g / cm^3
# Si number density = 17.045429 Si / 1000 Ang^3
#
#
#
# Elastic Constant Matrix: (Units=GPa)
#
#
# Indices 1 2 3 4 5 6 
#
# 1 156.4162 71.7153 24.5000 0.0000 0.0000 0.0000
# 2 71.7153 107.7838 22.6962 0.0000 0.0000 0.0000
# 3 24.5000 22.6962 25.5834 0.0000 0.0000 0.0000
# 4 0.0000 0.0000 0.0000 16.5561 0.0000 0.0000
# 5 0.0000 0.0000 0.0000 0.0000 7.2666 0.0000
# 6 0.0000 0.0000 0.0000 0.0000 0.0000 17.3870
#
#
#
# Elastic Compliance Matrix: (Units=1/GPa)
#
#
# Indices 1 2 3 4 5 6 
#
# 1 0.009574 -0.005459 -0.004325 0.000000 0.000000 0.000000
# 2 -0.005459 0.014522 -0.007655 0.000000 0.000000 0.000000
# 3 -0.004325 -0.007655 0.050021 0.000000 0.000000 0.000000
# 4 0.000000 0.000000 0.000000 0.060401 0.000000 0.000000
# 5 0.000000 0.000000 0.000000 0.000000 0.137615 0.000000
# 6 0.000000 0.000000 0.000000 0.000000 0.000000 0.057514
#
#
# Mechanical properties :
#
#
# Convention : Reuss Voigt Hill
#
# Bulk Modulus (GPa) = 25.48564 58.62293 42.05428
# Shear Modulus (GPa) = 13.24134 19.63341 16.43737
#
# Velocity S-wave (km/s) = 2.79018 3.39754 3.10873
# Velocity P-wave (km/s) = 5.03629 7.06101 6.13279
#
# Compressibility (1/GPa) = 0.03923779
#
# Stress axis : x y z
#
# Youngs Moduli (GPa) = 104.45337 68.86032 19.99156
#
# Poissons Ratio (x) = 0.37592 0.08647
# Poissons Ratio (y) = 0.57023 0.15304
# Poissons Ratio (z) = 0.45177 0.52714
#
# Static dielectric constant tensor:
#      x y z
#    x 3.486680 0.000000 0.000000 
#    y 0.000000 3.338840 0.000000 
#    z 0.000000 0.000000 2.849250 
# 
# 
# High freq. dielectric constant tensor:
#      x y z
#    x 1.657060 0.000000 0.000000 
#    y 0.000000 1.653620 0.000000 
#    z 0.000000 0.000000 1.616840 
# 
# From -- ./inp_files/14306.got.cif
#   From: 2010.03.12/outbox.cif.g09.slc.cpg/sg47_8_cif.got.tgz:14306.got - 2010.04.14 03:12:58.
