data_PCOD8195845
_publ_section_title
;
Structure prediction by ZEFSAII (Michael W. Deem and Ramdas Pophale) SiO2 
 PCOD8195845
Probable space group: P M M M
;
_chemical_formula_sum "Si O2"
_cell_formula_units_Z 56
_cell_length_a 14.263723
_cell_length_b 22.758746
_cell_length_c 8.977877
_cell_angle_alpha 90.000000
_cell_angle_beta 90.000000
_cell_angle_gamma 90.000000
_cell_volume 2914.438372
_symmetry_space_group_name_H-M "P M M M"
_symmetry_group_IT_number 47
_symmetry_cell_setting 'orthorhombic'
loop_
_space_group_symop_operation_xyz
x,y,z
-x,-y,z
x,-y,-z
-x,y,-z
-x,-y,-z
x,y,-z
-x,y,z
x,-y,z
loop_
_atom_site_type_symbol
_atom_site_label
_atom_site_fract_x
_atom_site_fract_y
_atom_site_fract_z
Si Si1 0.810023 0.432579 0.325488
Si Si2 0.722238 0.667793 0.171956
Si Si3 0.711357 0.106527 0.176381
Si Si4 0.000000 0.569545 0.166461
Si Si5 0.610848 0.000000 0.329952
Si Si6 0.103711 0.253898 0.833432
Si Si7 0.105418 0.134508 0.326393
Si Si8 0.604941 0.223191 0.177070
O O1 0.820185 0.423880 0.500000
O O2 0.787530 0.500000 0.284116
O O3 0.723242 0.393069 0.264178
O O4 0.906603 0.410308 0.251881
O O5 0.824254 0.694966 0.199114
O O6 0.645701 0.714304 0.233865
O O7 0.702731 0.653067 0.000000
O O8 0.817717 0.097739 0.234312
O O9 0.671041 0.169727 0.230079
O O10 0.646383 0.057483 0.246929
O O11 0.709205 0.099657 0.000000
O O12 0.000000 0.500000 0.157337
O O13 0.000000 0.597002 0.000000
O O14 0.500000 0.000000 0.321533
O O15 0.646573 0.000000 0.500000
O O16 0.115972 0.202674 0.714061
O O17 0.000000 0.281830 0.821732
O O18 0.121416 0.227466 0.000000
O O19 0.125641 0.126283 0.500000
O O20 0.000000 0.112466 0.285926
O O21 0.500000 0.215126 0.241380
O O22 0.603661 0.223673 0.000000
#
# Coordination Sequence:
#
# PCOD8195845 Si02
#       8
#     8   8   8   4   4   8   8   8
#     4  10  21  35  49  70 104 143 181 224 275 330
#     4  10  19  32  52  79 106 139 184 228 277 334
#     4  11  21  38  63  89 117 153 196 236 278 333
#     4   9  17  31  51  73  99 137 183 224 265 320
#     4  11  25  43  62  89 124 157 191 236 288 339
#     4   9  17  30  48  74 108 143 182 228 274 326
#     4  10  20  34  54  82 118 157 192 230 280 336
#     4   9  18  34  57  85 114 141 176 230 287 331
#
# _framework density 19.214679
#
# number of rings (size 3 to 8) (size 9 to 14) (size 15 to 20)
#    0.000    2.143    1.429    2.143    1.000    4.286 
#    0.000    0.357    0.000    4.714    0.000    3.000 
#    0.000    0.000    0.000    0.000    0.000    0.000 
#
# Total GULP energy -694300.996560 kJ/mol
# GULP energy per Si atom -12398.232081 kJ/mol
# Density = 1.917095 g / cm^3
# Si number density = 19.214679 Si / 1000 Ang^3
#
#
#
# Elastic Constant Matrix: (Units=GPa)
#
#
# Indices 1 2 3 4 5 6 
#
# 1 108.0105 43.9005 43.2017 0.0000 0.0000 0.0000
# 2 43.9005 91.4855 44.5090 0.0000 0.0000 0.0000
# 3 43.2017 44.5090 86.8486 0.0000 0.0000 0.0000
# 4 0.0000 0.0000 0.0000 25.2007 0.0000 0.0000
# 5 0.0000 0.0000 0.0000 0.0000 22.8798 0.0000
# 6 0.0000 0.0000 0.0000 0.0000 0.0000 28.5656
#
#
#
# Elastic Compliance Matrix: (Units=1/GPa)
#
#
# Indices 1 2 3 4 5 6 
#
# 1 0.012559 -0.003979 -0.004208 0.000000 0.000000 0.000000
# 2 -0.003979 0.015822 -0.006129 0.000000 0.000000 0.000000
# 3 -0.004208 -0.006129 0.016749 0.000000 0.000000 0.000000
# 4 0.000000 0.000000 0.000000 0.039681 0.000000 0.000000
# 5 0.000000 0.000000 0.000000 0.000000 0.043707 0.000000
# 6 0.000000 0.000000 0.000000 0.000000 0.000000 0.035007
#
#
# Mechanical properties :
#
#
# Convention : Reuss Voigt Hill
#
# Bulk Modulus (GPa) = 60.61798 61.06300 60.84049
# Shear Modulus (GPa) = 25.29641 25.64478 25.47059
#
# Velocity S-wave (km/s) = 3.63232 3.65724 3.64480
# Velocity P-wave (km/s) = 7.01483 7.04856 7.03172
#
# Compressibility (1/GPa) = 0.01649676
#
# Stress axis : x y z
#
# Youngs Moduli (GPa) = 79.62564 63.20236 59.70649
#
# Poissons Ratio (x) = 0.25150 0.25124
# Poissons Ratio (y) = 0.31686 0.36596
# Poissons Ratio (z) = 0.33505 0.38738
#
# Static dielectric constant tensor:
#      x y z
#    x 3.672690 0.000000 0.000000 
#    y 0.000000 3.439550 0.000000 
#    z 0.000000 0.000000 3.419440 
# 
# 
# High freq. dielectric constant tensor:
#      x y z
#    x 1.739530 0.000000 0.000000 
#    y 0.000000 1.737860 0.000000 
#    z 0.000000 0.000000 1.734640 
# 
# From -- ./inp_files/7464.got.cif
#   From: 2010.03.12/outbox.cif.g09.slc.cpg/sg47_4_cif.got.tgz:7464.got - 2010.04.14 03:12:58.
