data_PCOD8195602
_publ_section_title
;
Structure prediction by ZEFSAII (Michael W. Deem and Ramdas Pophale) SiO2 
 PCOD8195602
Probable space group: P M M M
;
_chemical_formula_sum "Si O2"
_cell_formula_units_Z 28
_cell_length_a 9.081412
_cell_length_b 19.614560
_cell_length_c 7.597657
_cell_angle_alpha 90.000000
_cell_angle_beta 90.000000
_cell_angle_gamma 90.000000
_cell_volume 1353.354691
_symmetry_space_group_name_H-M "P M M M"
_symmetry_group_IT_number 47
_symmetry_cell_setting 'orthorhombic'
loop_
_space_group_symop_operation_xyz
x,y,z
-x,-y,z
x,-y,-z
-x,y,-z
-x,-y,-z
x,y,-z
-x,y,z
x,-y,z
loop_
_atom_site_type_symbol
_atom_site_label
_atom_site_fract_x
_atom_site_fract_y
_atom_site_fract_z
Si Si1 0.334871 0.425046 0.709003
Si Si2 0.170222 0.919727 0.500000
Si Si3 0.330877 0.839895 0.198854
Si Si4 0.167471 0.706098 0.709041
O O1 0.334292 0.424154 0.500000
O O2 0.500000 0.410420 0.777925
O O3 0.282448 0.500000 0.775471
O O4 0.226025 0.366692 0.780141
O O5 0.243224 0.890582 0.324662
O O6 0.000000 0.897848 0.500000
O O7 0.191669 0.000000 0.500000
O O8 0.500000 0.836929 0.260451
O O9 0.265286 0.764363 0.204498
O O10 0.317544 0.867921 0.000000
O O11 0.181055 0.712113 0.500000
O O12 0.000000 0.714328 0.771899
#
# Coordination Sequence:
#
# PCOD8195602 Si02
#       4
#     8   4   8   8
#     4   8  14  25  43  70 106 150 199 249 301 357
#     4  11  25  45  69  97 128 161 196 239 297 359
#     4  11  24  41  64  93 124 162 206 250 297 352
#     4  10  19  31  52  82 116 156 200 249 306 361
#
# _framework density 20.689326000000001
#
# number of rings (size 3 to 8) (size 9 to 14) (size 15 to 20)
#    0.000    2.143    1.429    3.000    0.000    5.714 
#    0.000    5.714    0.000    0.857    0.000    6.000 
#    0.000    0.000    0.000    0.000    0.000    0.000 
#
# Total GULP energy -347189.707827 kJ/mol
# GULP energy per Si atom -12399.632422 kJ/mol
# Density = 2.064224 g / cm^3
# Si number density = 20.689326 Si / 1000 Ang^3
#
#
#
# Elastic Constant Matrix: (Units=GPa)
#
#
# Indices 1 2 3 4 5 6 
#
# 1 171.6420 88.1144 51.8504 0.0000 0.0000 0.0000
# 2 88.1144 125.0168 42.2794 0.0000 0.0000 0.0000
# 3 51.8504 42.2794 77.3045 0.0000 0.0000 0.0000
# 4 0.0000 0.0000 0.0000 -3.4801 0.0000 0.0000
# 5 0.0000 0.0000 0.0000 0.0000 13.8999 0.0000
# 6 0.0000 0.0000 0.0000 0.0000 0.0000 41.5145
#
#
#
# Elastic Compliance Matrix: (Units=1/GPa)
#
#
# Indices 1 2 3 4 5 6 
#
# 1 0.009821 -0.005760 -0.003437 0.000000 0.000000 0.000000
# 2 -0.005760 0.013192 -0.003352 0.000000 0.000000 0.000000
# 3 -0.003437 -0.003352 0.017074 0.000000 0.000000 0.000000
# 4 0.000000 0.000000 0.000000 -0.287350 0.000000 0.000000
# 5 0.000000 0.000000 0.000000 0.000000 0.071943 0.000000
# 6 0.000000 0.000000 0.000000 0.000000 0.000000 0.024088
#
#
# Mechanical properties :
#
#
# Convention : Reuss Voigt Hill
#
# Bulk Modulus (GPa) = 66.71023 82.05019 74.38021
# Shear Modulus (GPa) = -41.27562 23.16814 -9.05374
#
# Velocity S-wave (km/s) = -4.47141 3.34999 -2.09417
# Velocity P-wave (km/s) = 2.37819 7.39645 5.49378
#
# Compressibility (1/GPa) = 0.01499021
#
# Stress axis : x y z
#
# Youngs Moduli (GPa) = 101.81969 75.80312 58.56694
#
# Poissons Ratio (x) = 0.43661 0.20131
# Poissons Ratio (y) = 0.58646 0.19630
# Poissons Ratio (z) = 0.34998 0.25407
#
# Static dielectric constant tensor:
#      x y z
#    x 3.909920 0.000000 0.000000 
#    y 0.000000 3.901770 0.000000 
#    z 0.000000 0.000000 3.516360 
# 
# 
# High freq. dielectric constant tensor:
#      x y z
#    x 1.814360 0.000000 0.000000 
#    y 0.000000 1.812310 0.000000 
#    z 0.000000 0.000000 1.793230 
# 
# From -- ./inp_files/856.got.cif
#   From: 2010.03.12/outbox.cif.g09.slc.cpg/sg47_1_cif.got.tgz:856.got - 2010.04.14 03:12:58.
