data_PCOD8195821
_publ_section_title
;
Structure prediction by ZEFSAII (Michael W. Deem and Ramdas Pophale) SiO2 
 PCOD8195821
Probable space group: P M M M
;
_chemical_formula_sum "Si O2"
_cell_formula_units_Z 52
_cell_length_a 11.699273
_cell_length_b 28.185243
_cell_length_c 8.892098
_cell_angle_alpha 90.000000
_cell_angle_beta 90.000000
_cell_angle_gamma 90.000000
_cell_volume 2932.141327
_symmetry_space_group_name_H-M "P M M M"
_symmetry_group_IT_number 47
_symmetry_cell_setting 'orthorhombic'
loop_
_space_group_symop_operation_xyz
x,y,z
-x,-y,z
x,-y,-z
-x,y,-z
-x,-y,-z
x,y,-z
-x,y,z
x,-y,z
loop_
_atom_site_type_symbol
_atom_site_label
_atom_site_fract_x
_atom_site_fract_y
_atom_site_fract_z
Si Si1 0.868677 0.595724 0.822606
Si Si2 0.864360 0.500000 0.331107
Si Si3 0.742610 0.317414 0.323069
Si Si4 0.127571 0.052657 0.178422
Si Si5 0.867080 0.232861 0.171941
Si Si6 0.274734 0.139447 0.824443
Si Si7 0.500000 0.719597 0.322150
Si Si8 0.500000 0.826415 0.677858
O O1 0.820629 0.546835 0.753781
O O2 0.789090 0.637364 0.763961
O O3 0.000000 0.605295 0.773329
O O4 0.859017 0.592138 0.000000
O O5 0.815185 0.500000 0.500000
O O6 0.000000 0.500000 0.330717
O O7 0.749692 0.326969 0.500000
O O8 0.818098 0.271865 0.284378
O O9 0.612554 0.308469 0.268143
O O10 0.214391 0.092142 0.240668
O O11 0.000000 0.061755 0.242681
O O12 0.169840 0.000000 0.226347
O O13 0.122398 0.056954 0.000000
O O14 0.808910 0.183074 0.207567
O O15 0.000000 0.226659 0.204420
O O16 0.844825 0.248996 0.000000
O O17 0.390466 0.145291 0.733560
O O18 0.303768 0.134942 0.000000
O O19 0.500000 0.724185 0.500000
O O20 0.500000 0.772885 0.254058
O O21 0.500000 0.824774 0.500000
#
# Coordination Sequence:
#
# PCOD8195821 Si02
#       8
#     8   4   8   8   8   8   4   4
#     4  10  20  34  52  78 112 143 170 209 262 310
#     4   9  17  31  53  80 107 140 181 215 249 303
#     4  11  21  35  53  73  99 134 176 216 254 303
#     4   8  14  27  50  79 107 133 164 208 262 314
#     4  10  20  32  47  72 105 133 158 200 259 313
#     4  10  19  32  52  77 101 130 171 214 254 305
#     4   9  20  37  53  69  95 133 176 218 258 297
#     4  11  21  37  54  70  98 137 176 216 259 305
#
# _framework density 17.734479
#
# number of rings (size 3 to 8) (size 9 to 14) (size 15 to 20)
#    0.000    2.231    1.538    2.769    0.000    5.846 
#    0.000    1.923    0.000    4.615    0.000    4.308 
#    0.000    0.000    0.000    0.000    0.000    0.000 
#
# Total GULP energy -644829.256797 kJ/mol
# GULP energy per Si atom -12400.562631 kJ/mol
# Density = 1.769411 g / cm^3
# Si number density = 17.734479 Si / 1000 Ang^3
#
#
#
# Elastic Constant Matrix: (Units=GPa)
#
#
# Indices 1 2 3 4 5 6 
#
# 1 125.5981 73.2401 35.2523 0.0000 0.0000 0.0000
# 2 73.2401 149.7818 42.1316 0.0000 0.0000 0.0000
# 3 35.2523 42.1316 53.3716 0.0000 0.0000 0.0000
# 4 0.0000 0.0000 0.0000 16.3319 0.0000 0.0000
# 5 0.0000 0.0000 0.0000 0.0000 20.5170 0.0000
# 6 0.0000 0.0000 0.0000 0.0000 0.0000 81.3235
#
#
#
# Elastic Compliance Matrix: (Units=1/GPa)
#
#
# Indices 1 2 3 4 5 6 
#
# 1 0.011818 -0.004606 -0.004170 0.000000 0.000000 0.000000
# 2 -0.004606 0.010377 -0.005149 0.000000 0.000000 0.000000
# 3 -0.004170 -0.005149 0.025556 0.000000 0.000000 0.000000
# 4 0.000000 0.000000 0.000000 0.061230 0.000000 0.000000
# 5 0.000000 0.000000 0.000000 0.000000 0.048740 0.000000
# 6 0.000000 0.000000 0.000000 0.000000 0.000000 0.012297
#
#
# Mechanical properties :
#
#
# Convention : Reuss Voigt Hill
#
# Bulk Modulus (GPa) = 50.25048 69.99993 60.12520
# Shear Modulus (GPa) = 24.44963 35.50961 29.97962
#
# Velocity S-wave (km/s) = 3.71704 4.47955 4.11599
# Velocity P-wave (km/s) = 6.84239 8.14322 7.52098
#
# Compressibility (1/GPa) = 0.01990031
#
# Stress axis : x y z
#
# Youngs Moduli (GPa) = 84.61558 96.36699 39.12983
#
# Poissons Ratio (x) = 0.44385 0.16318
# Poissons Ratio (y) = 0.38972 0.20150
# Poissons Ratio (z) = 0.35286 0.49624
#
# Static dielectric constant tensor:
#      x y z
#    x 3.409730 0.000000 0.000000 
#    y 0.000000 3.506820 0.000000 
#    z 0.000000 0.000000 3.118980 
# 
# 
# High freq. dielectric constant tensor:
#      x y z
#    x 1.675910 0.000000 0.000000 
#    y 0.000000 1.693490 0.000000 
#    z 0.000000 0.000000 1.668180 
# 
# From -- ./inp_files/4664.got.cif
#   From: 2010.03.12/outbox.cif.g09.slc.cpg/sg47_3_cif.got.tgz:4664.got - 2010.04.14 03:12:58.
