data_PCOD8195875
_publ_section_title
;
Structure prediction by ZEFSAII (Michael W. Deem and Ramdas Pophale) SiO2 
 PCOD8195875
Probable space group: P M M M
;
_chemical_formula_sum "Si O2"
_cell_formula_units_Z 52
_cell_length_a 14.284495
_cell_length_b 23.289378
_cell_length_c 9.027759
_cell_angle_alpha 90.000000
_cell_angle_beta 90.000000
_cell_angle_gamma 90.000000
_cell_volume 3003.327813
_symmetry_space_group_name_H-M "P M M M"
_symmetry_group_IT_number 47
_symmetry_cell_setting 'orthorhombic'
loop_
_space_group_symop_operation_xyz
x,y,z
-x,-y,z
x,-y,-z
-x,y,-z
-x,-y,-z
x,y,-z
-x,y,z
x,-y,z
loop_
_atom_site_type_symbol
_atom_site_label
_atom_site_fract_x
_atom_site_fract_y
_atom_site_fract_z
Si Si1 0.796245 0.728776 0.171374
Si Si2 0.603241 0.776527 0.168206
Si Si3 0.891911 0.386751 0.173309
Si Si4 0.219205 0.064807 0.170089
Si Si5 0.393936 0.894033 0.672676
Si Si6 0.891635 0.164242 0.325760
Si Si7 0.888674 0.500000 0.667177
O O1 0.683592 0.728987 0.193724
O O2 0.834166 0.668142 0.231077
O O3 0.841658 0.779924 0.262526
O O4 0.824473 0.736757 0.000000
O O5 0.500000 0.749402 0.197517
O O6 0.622076 0.828441 0.279687
O O7 0.609383 0.800318 0.000000
O O8 0.850316 0.442884 0.253436
O O9 0.000000 0.376319 0.214919
O O10 0.878687 0.396660 0.000000
O O11 0.323766 0.065798 0.236855
O O12 0.150407 0.106473 0.257692
O O13 0.180683 0.000000 0.184296
O O14 0.223174 0.084753 0.000000
O O15 0.370892 0.899112 0.500000
O O16 0.500000 0.913777 0.707148
O O17 0.875195 0.162349 0.500000
O O18 0.000000 0.167154 0.282997
O O19 0.852090 0.500000 0.500000
O O20 0.000000 0.500000 0.677656
#
# Coordination Sequence:
#
# PCOD8195875 Si02
#       7
#     8   8   8   8   8   8   4
#     4  10  19  32  53  79 105 136 171 207 250 301
#     4   9  17  30  50  76 105 135 166 202 247 300
#     4   9  17  29  46  70 101 137 174 209 246 293
#     4  11  24  40  57  76  98 129 170 212 255 307
#     4  10  20  34  54  79 105 132 162 201 253 310
#     4  11  24  39  55  76 102 132 166 209 260 308
#     4   9  17  29  45  67  98 135 172 210 253 297
#
# _framework density 17.314126000000002
#
# number of rings (size 3 to 8) (size 9 to 14) (size 15 to 20)
#    0.000    2.077    1.538    2.077    0.000    6.154 
#    0.000    4.615    0.000    0.000    0.000    0.538 
#    0.000    4.308    0.000    0.000    0.000    0.000 
#
# Total GULP energy -644810.488065 kJ/mol
# GULP energy per Si atom -12400.201694 kJ/mol
# Density = 1.727472 g / cm^3
# Si number density = 17.314126 Si / 1000 Ang^3
#
#
#
# Elastic Constant Matrix: (Units=GPa)
#
#
# Indices 1 2 3 4 5 6 
#
# 1 101.1391 59.3769 43.9535 0.0000 0.0000 0.0000
# 2 59.3769 121.5031 44.0180 0.0000 0.0000 0.0000
# 3 43.9535 44.0180 71.6260 0.0000 0.0000 0.0000
# 4 0.0000 0.0000 0.0000 3.1502 0.0000 0.0000
# 5 0.0000 0.0000 0.0000 0.0000 23.3908 0.0000
# 6 0.0000 0.0000 0.0000 0.0000 0.0000 22.5028
#
#
#
# Elastic Compliance Matrix: (Units=1/GPa)
#
#
# Indices 1 2 3 4 5 6 
#
# 1 0.015854 -0.005433 -0.006390 0.000000 0.000000 0.000000
# 2 -0.005433 0.012449 -0.004317 0.000000 0.000000 0.000000
# 3 -0.006390 -0.004317 0.020536 0.000000 0.000000 0.000000
# 4 0.000000 0.000000 0.000000 0.317440 0.000000 0.000000
# 5 0.000000 0.000000 0.000000 0.000000 0.042752 0.000000
# 6 0.000000 0.000000 0.000000 0.000000 0.000000 0.044439
#
#
# Mechanical properties :
#
#
# Convention : Reuss Voigt Hill
#
# Bulk Modulus (GPa) = 60.38881 65.44057 62.91469
# Shear Modulus (GPa) = 10.17775 19.60341 14.89058
#
# Velocity S-wave (km/s) = 2.42715 3.36850 2.93580
# Velocity P-wave (km/s) = 6.54284 7.28060 6.92156
#
# Compressibility (1/GPa) = 0.01655936
#
# Stress axis : x y z
#
# Youngs Moduli (GPa) = 63.07655 80.32807 48.69570
#
# Poissons Ratio (x) = 0.43638 0.31117
# Poissons Ratio (y) = 0.34266 0.21021
# Poissons Ratio (z) = 0.40307 0.34677
#
# Static dielectric constant tensor:
#      x y z
#    x 3.365990 0.000000 0.000000 
#    y 0.000000 3.150650 0.000000 
#    z 0.000000 0.000000 3.302560 
# 
# 
# High freq. dielectric constant tensor:
#      x y z
#    x 1.661180 0.000000 0.000000 
#    y 0.000000 1.651540 0.000000 
#    z 0.000000 0.000000 1.675860 
# 
# From -- ./inp_files/6963.got.cif
#   From: 2010.03.12/outbox.cif.g09.slc.cpg/sg47_4_cif.got.tgz:6963.got - 2010.04.14 03:12:58.
