data_PCOD8195106
_publ_section_title
;
Structure prediction by ZEFSAII (Michael W. Deem and Ramdas Pophale) SiO2 
 PCOD8195106
Probable space group: P M M M
;
_chemical_formula_sum "Si O2"
_cell_formula_units_Z 44
_cell_length_a 31.993292
_cell_length_b 7.816035
_cell_length_c 9.600286
_cell_angle_alpha 90.000000
_cell_angle_beta 90.000000
_cell_angle_gamma 90.000000
_cell_volume 2400.654142
_symmetry_space_group_name_H-M "P M M M"
_symmetry_group_IT_number 47
_symmetry_cell_setting 'orthorhombic'
loop_
_space_group_symop_operation_xyz
x,y,z
-x,-y,z
x,-y,-z
-x,y,-z
-x,-y,-z
x,y,-z
-x,y,z
x,-y,z
loop_
_atom_site_type_symbol
_atom_site_label
_atom_site_fract_x
_atom_site_fract_y
_atom_site_fract_z
Si Si1 0.688945 0.500000 0.665976
Si Si2 0.160692 0.797607 0.654206
Si Si3 0.088187 0.801171 0.845014
Si Si4 0.603852 0.500000 0.166563
Si Si5 0.252926 0.809898 0.334592
Si Si6 0.546650 0.809991 0.165101
Si Si7 0.000000 0.299428 0.158026
O O1 0.680754 0.500000 0.500000
O O2 0.646726 0.500000 0.751615
O O3 0.713871 0.669098 0.714938
O O4 0.155948 0.716571 0.500000
O O5 0.124820 0.716150 0.752366
O O6 0.206583 0.756365 0.718166
O O7 0.155202 0.000000 0.643112
O O8 0.042810 0.770149 0.772300
O O9 0.097268 0.000000 0.857042
O O10 0.089039 0.717339 0.000000
O O11 0.578706 0.667222 0.218902
O O12 0.611151 0.500000 0.000000
O O13 0.250825 0.816475 0.500000
O O14 0.265445 0.000000 0.278045
O O15 0.500000 0.771623 0.223103
O O16 0.561197 0.000000 0.214148
O O17 0.544977 0.802567 0.000000
O O18 0.000000 0.500000 0.168672
O O19 0.000000 0.230527 0.000000
#
# Coordination Sequence:
#
# PCOD8195106 Si02
#       7
#     4   8   8   4   8   8   4
#     4  10  20  33  49  69  92 125 165 192 223 281
#     4   8  14  27  47  67  85 106 135 175 222 263
#     4   9  16  27  45  66  84 106 140 176 207 248
#     4  10  19  30  46  70 100 126 153 197 244 275
#     4   8  15  30  50  68  88 117 154 193 228 270
#     4   8  14  26  46  71  96 125 163 200 233 275
#     4   9  17  29  42  57  84 118 144 163 196 252
#
# _framework density 18.328337000000001
#
# number of rings (size 3 to 8) (size 9 to 14) (size 15 to 20)
#    0.000    3.364    0.000    2.182    0.000    2.909 
#    1.636    1.364    0.000    4.909    0.000    1.273 
#    0.000    0.000    0.000    0.000    0.000    0.000 
#
# Total GULP energy -545174.060714 kJ/mol
# GULP energy per Si atom -12390.319562 kJ/mol
# Density = 1.828662 g / cm^3
# Si number density = 18.328337 Si / 1000 Ang^3
#
#
#
# Elastic Constant Matrix: (Units=GPa)
#
#
# Indices 1 2 3 4 5 6 
#
# 1 178.8984 78.8280 47.6013 0.0000 0.0000 0.0000
# 2 78.8280 98.0746 23.7395 0.0000 0.0000 0.0000
# 3 47.6013 23.7395 38.4668 0.0000 0.0000 0.0000
# 4 0.0000 0.0000 0.0000 8.6162 0.0000 0.0000
# 5 0.0000 0.0000 0.0000 0.0000 18.9175 0.0000
# 6 0.0000 0.0000 0.0000 0.0000 0.0000 4.8262
#
#
#
# Elastic Compliance Matrix: (Units=1/GPa)
#
#
# Indices 1 2 3 4 5 6 
#
# 1 0.011028 -0.006537 -0.009612 0.000000 0.000000 0.000000
# 2 -0.006537 0.015862 -0.001700 0.000000 0.000000 0.000000
# 3 -0.009612 -0.001700 0.038940 0.000000 0.000000 0.000000
# 4 0.000000 0.000000 0.000000 0.116061 0.000000 0.000000
# 5 0.000000 0.000000 0.000000 0.000000 0.052861 0.000000
# 6 0.000000 0.000000 0.000000 0.000000 0.000000 0.207203
#
#
# Mechanical properties :
#
#
# Convention : Reuss Voigt Hill
#
# Bulk Modulus (GPa) = 33.18739 68.41971 50.80355
# Shear Modulus (GPa) = 10.25227 17.49004 13.87115
#
# Velocity S-wave (km/s) = 2.36766 3.09246 2.75401
# Velocity P-wave (km/s) = 5.06171 7.08253 6.15561
#
# Compressibility (1/GPa) = 0.03013193
#
# Stress axis : x y z
#
# Youngs Moduli (GPa) = 90.68035 63.04439 25.68035
#
# Poissons Ratio (x) = 0.41212 0.24685
# Poissons Ratio (y) = 0.59277 0.04365
# Poissons Ratio (z) = 0.87164 0.10716
#
# Static dielectric constant tensor:
#      x y z
#    x 3.582380 0.000000 0.000000 
#    y 0.000000 3.526960 0.000000 
#    z 0.000000 0.000000 3.109750 
# 
# 
# High freq. dielectric constant tensor:
#      x y z
#    x 1.717300 0.000000 0.000000 
#    y 0.000000 1.707580 0.000000 
#    z 0.000000 0.000000 1.647530 
# 
# From -- ./inp_files/13728.got.cif
#   From: 2010.03.12/outbox.cif.g09.slc.cpg/sg47_7_cif.got.tgz:13728.got - 2010.04.14 03:12:58.
