data_PCOD8195892
_publ_section_title
;
Structure prediction by ZEFSAII (Michael W. Deem and Ramdas Pophale) SiO2 
 PCOD8195892
Probable space group: P M M M
;
_chemical_formula_sum "Si O2"
_cell_formula_units_Z 56
_cell_length_a 15.136402
_cell_length_b 9.028729
_cell_length_c 20.299608
_cell_angle_alpha 90.000000
_cell_angle_beta 90.000000
_cell_angle_gamma 90.000000
_cell_volume 2774.194604
_symmetry_space_group_name_H-M "P M M M"
_symmetry_group_IT_number 47
_symmetry_cell_setting 'orthorhombic'
loop_
_space_group_symop_operation_xyz
x,y,z
-x,-y,z
x,-y,-z
-x,y,-z
-x,-y,-z
x,y,-z
-x,y,z
x,-y,z
loop_
_atom_site_type_symbol
_atom_site_label
_atom_site_fract_x
_atom_site_fract_y
_atom_site_fract_z
Si Si1 0.598641 0.171983 0.120644
Si Si2 0.832242 0.333549 0.708627
Si Si3 0.899578 0.830525 0.827198
Si Si4 0.632226 0.668007 0.746100
Si Si5 0.767317 0.670148 0.074392
Si Si6 0.237062 0.671188 0.572001
Si Si7 0.596904 0.169718 0.385277
O O1 0.500000 0.194195 0.090590
O O2 0.598689 0.235676 0.193727
O O3 0.671069 0.255032 0.076679
O O4 0.623944 0.000000 0.123044
O O5 0.870862 0.500000 0.708660
O O6 0.895180 0.229980 0.752154
O O7 0.737667 0.328066 0.743430
O O8 0.825152 0.274140 0.632507
O O9 0.837451 0.742631 0.876873
O O10 0.000000 0.814384 0.851917
O O11 0.868625 0.000000 0.826776
O O12 0.598111 0.500000 0.753186
O O13 0.590899 0.739746 0.681860
O O14 0.756444 0.500000 0.095782
O O15 0.803385 0.684866 0.000000
O O16 0.190488 0.689487 0.500000
O O17 0.260849 0.500000 0.586502
O O18 0.328475 0.760984 0.568038
O O19 0.500000 0.179749 0.419390
O O20 0.622279 0.000000 0.370499
#
# Coordination Sequence:
#
# PCOD8195892 Si02
#       7
#     8   8   8   8   8   8   8
#     4  11  23  37  57  86 120 160 204 249 298 351
#     4   9  18  34  58  86 115 149 191 241 294 350
#     4  11  24  41  65  96 125 155 193 240 299 366
#     4  10  19  32  53  80 110 148 196 247 297 348
#     4  11  25  44  65  90 122 161 203 247 297 353
#     4   9  19  35  54  77 107 147 194 242 296 357
#     4  10  20  31  44  68 105 147 193 245 298 352
#
# _framework density 20.186039000000001
#
# number of rings (size 3 to 8) (size 9 to 14) (size 15 to 20)
#    0.000    1.857    1.429    3.429    0.000    9.714 
#    0.000    4.286    0.000    0.429    0.000    3.000 
#    0.000    0.000    0.000    0.000    0.000    0.000 
#
# Total GULP energy -694265.905539 kJ/mol
# GULP energy per Si atom -12397.605456 kJ/mol
# Density = 2.014009 g / cm^3
# Si number density = 20.186039 Si / 1000 Ang^3
#
#
#
# Elastic Constant Matrix: (Units=GPa)
#
#
# Indices 1 2 3 4 5 6 
#
# 1 70.9867 45.5213 36.9269 0.0000 0.0000 0.0000
# 2 45.5213 136.1979 52.7131 0.0000 0.0000 0.0000
# 3 36.9269 52.7131 115.0705 0.0000 0.0000 0.0000
# 4 0.0000 0.0000 0.0000 10.8341 0.0000 0.0000
# 5 0.0000 0.0000 0.0000 0.0000 1.4910 0.0000
# 6 0.0000 0.0000 0.0000 0.0000 0.0000 7.1246
#
#
#
# Elastic Compliance Matrix: (Units=1/GPa)
#
#
# Indices 1 2 3 4 5 6 
#
# 1 0.019292 -0.004925 -0.003935 0.000000 0.000000 0.000000
# 2 -0.004925 0.010182 -0.003084 0.000000 0.000000 0.000000
# 3 -0.003935 -0.003084 0.011366 0.000000 0.000000 0.000000
# 4 0.000000 0.000000 0.000000 0.092301 0.000000 0.000000
# 5 0.000000 0.000000 0.000000 0.000000 0.670711 0.000000
# 6 0.000000 0.000000 0.000000 0.000000 0.000000 0.140358
#
#
# Mechanical properties :
#
#
# Convention : Reuss Voigt Hill
#
# Bulk Modulus (GPa) = 58.98860 65.84196 62.41528
# Shear Modulus (GPa) = 5.13479 16.36285 10.74882
#
# Velocity S-wave (km/s) = 1.59664 2.85020 2.31007
# Velocity P-wave (km/s) = 5.71707 6.59696 6.17271
#
# Compressibility (1/GPa) = 0.01695243
#
# Stress axis : x y z
#
# Youngs Moduli (GPa) = 51.83391 98.21348 87.98397
#
# Poissons Ratio (x) = 0.48372 0.34621
# Poissons Ratio (y) = 0.25529 0.27132
# Poissons Ratio (z) = 0.20396 0.30287
#
# Static dielectric constant tensor:
#      x y z
#    x 3.501950 0.000000 0.000000 
#    y 0.000000 3.770060 0.000000 
#    z 0.000000 0.000000 3.666870 
# 
# 
# High freq. dielectric constant tensor:
#      x y z
#    x 1.765500 0.000000 0.000000 
#    y 0.000000 1.796070 0.000000 
#    z 0.000000 0.000000 1.788070 
# 
# From -- ./inp_files/11185.got.cif
#   From: 2010.03.12/outbox.cif.g09.slc.cpg/sg47_6_cif.got.tgz:11185.got - 2010.04.14 03:12:58.
