data_PCOD8195774
_publ_section_title
;
Structure prediction by ZEFSAII (Michael W. Deem and Ramdas Pophale) SiO2 
 PCOD8195774
Probable space group: P M M M
;
_chemical_formula_sum "Si O2"
_cell_formula_units_Z 48
_cell_length_a 28.894296
_cell_length_b 9.206663
_cell_length_c 9.948451
_cell_angle_alpha 90.000000
_cell_angle_beta 90.000000
_cell_angle_gamma 90.000000
_cell_volume 2646.487392
_symmetry_space_group_name_H-M "P M M M"
_symmetry_group_IT_number 47
_symmetry_cell_setting 'orthorhombic'
loop_
_space_group_symop_operation_xyz
x,y,z
-x,-y,z
x,-y,-z
-x,y,-z
-x,-y,-z
x,y,-z
-x,y,z
x,-y,z
loop_
_atom_site_type_symbol
_atom_site_label
_atom_site_fract_x
_atom_site_fract_y
_atom_site_fract_z
Si Si1 0.550943 0.827681 0.000000
Si Si2 0.700445 0.670542 0.843929
Si Si3 0.784817 0.668745 0.346722
Si Si4 0.053924 0.333444 0.846416
Si Si5 0.447532 0.172451 0.500000
Si Si6 0.610487 0.172315 0.246688
Si Si7 0.121674 0.169856 0.345968
O O1 0.578691 0.771533 0.126950
O O2 0.500000 0.757742 0.000000
O O3 0.546907 0.000000 0.000000
O O4 0.690783 0.500000 0.835934
O O5 0.746103 0.713596 0.761199
O O6 0.659859 0.752695 0.766063
O O7 0.704997 0.720769 0.000000
O O8 0.768878 0.705730 0.500000
O O9 0.797017 0.500000 0.334038
O O10 0.830038 0.757431 0.305630
O O11 0.065804 0.500000 0.812028
O O12 0.081246 0.228848 0.747614
O O13 0.000000 0.302982 0.824507
O O14 0.067921 0.299109 0.000000
O O15 0.500000 0.237100 0.500000
O O16 0.417654 0.227641 0.624947
O O17 0.451699 0.000000 0.500000
O O18 0.618213 0.000000 0.246867
O O19 0.108928 0.206265 0.500000
O O20 0.126876 0.000000 0.321768
#
# Coordination Sequence:
#
# PCOD8195774 Si02
#       7
#     4   8   8   8   4   8   8
#     4   9  16  28  49  73  97 129 167 203 242 295
#     4  10  21  36  53  75 104 135 168 211 262 312
#     4   9  19  36  56  75  98 136 181 219 260 314
#     4   9  19  36  57  81 110 147 191 233 270 314
#     4   9  18  32  51  77 105 131 165 209 252 297
#     4  10  19  32  51  76 102 130 166 208 253 302
#     4  10  21  36  54  81 115 146 178 222 276 327
#
# _framework density 18.137248
#
# number of rings (size 3 to 8) (size 9 to 14) (size 15 to 20)
#    0.000    2.500    0.833    1.500    1.167    5.333 
#    0.000    4.167    0.000    3.000    0.000    0.000 
#    0.000    0.000    0.000    0.000    0.000    0.000 
#
# Total GULP energy -595158.429436 kJ/mol
# GULP energy per Si atom -12399.133947 kJ/mol
# Density = 1.809597 g / cm^3
# Si number density = 18.137248 Si / 1000 Ang^3
#
#
#
# Elastic Constant Matrix: (Units=GPa)
#
#
# Indices 1 2 3 4 5 6 
#
# 1 131.9658 54.4968 81.3920 0.0000 0.0000 0.0000
# 2 54.4968 49.5797 40.3104 0.0000 0.0000 0.0000
# 3 81.3920 40.3104 135.8091 0.0000 0.0000 0.0000
# 4 0.0000 0.0000 0.0000 30.9587 0.0000 0.0000
# 5 0.0000 0.0000 0.0000 0.0000 35.7565 0.0000
# 6 0.0000 0.0000 0.0000 0.0000 0.0000 33.8063
#
#
#
# Elastic Compliance Matrix: (Units=1/GPa)
#
#
# Indices 1 2 3 4 5 6 
#
# 1 0.017031 -0.013736 -0.006130 0.000000 0.000000 0.000000
# 2 -0.013736 0.037664 -0.002947 0.000000 0.000000 0.000000
# 3 -0.006130 -0.002947 0.011912 0.000000 0.000000 0.000000
# 4 0.000000 0.000000 0.000000 0.032301 0.000000 0.000000
# 5 0.000000 0.000000 0.000000 0.000000 0.027967 0.000000
# 6 0.000000 0.000000 0.000000 0.000000 0.000000 0.029580
#
#
# Mechanical properties :
#
#
# Convention : Reuss Voigt Hill
#
# Bulk Modulus (GPa) = 47.66283 74.41699 61.03991
# Shear Modulus (GPa) = 23.91497 29.51467 26.71482
#
# Velocity S-wave (km/s) = 3.63513 4.03835 3.84204
# Velocity P-wave (km/s) = 6.62985 7.92864 7.30816
#
# Compressibility (1/GPa) = 0.02098071
#
# Stress axis : x y z
#
# Youngs Moduli (GPa) = 58.71725 26.55049 83.95195
#
# Poissons Ratio (x) = 0.36470 0.51459
# Poissons Ratio (y) = 0.80655 0.24741
# Poissons Ratio (z) = 0.35991 0.07825
#
# Static dielectric constant tensor:
#      x y z
#    x 3.367700 0.000000 0.000000 
#    y 0.000000 3.105650 0.000000 
#    z 0.000000 0.000000 3.517960 
# 
# 
# High freq. dielectric constant tensor:
#      x y z
#    x 1.709720 0.000000 0.000000 
#    y 0.000000 1.678920 0.000000 
#    z 0.000000 0.000000 1.713950 
# 
# From -- ./inp_files/13867.got.cif
#   From: 2010.03.12/outbox.cif.g09.slc.cpg/sg47_7_cif.got.tgz:13867.got - 2010.04.14 03:12:58.
