data_PCOD8195080
_publ_section_title
;
Structure prediction by ZEFSAII (Michael W. Deem and Ramdas Pophale) SiO2 
 PCOD8195080
Probable space group: P M M M
;
_chemical_formula_sum "Si O2"
_cell_formula_units_Z 48
_cell_length_a 23.459350
_cell_length_b 9.325669
_cell_length_c 13.722950
_cell_angle_alpha 90.000000
_cell_angle_beta 90.000000
_cell_angle_gamma 90.000000
_cell_volume 3002.226489
_symmetry_space_group_name_H-M "P M M M"
_symmetry_group_IT_number 47
_symmetry_cell_setting 'orthorhombic'
loop_
_space_group_symop_operation_xyz
x,y,z
-x,-y,z
x,-y,-z
-x,y,-z
-x,-y,-z
x,y,-z
-x,y,z
x,-y,z
loop_
_atom_site_type_symbol
_atom_site_label
_atom_site_fract_x
_atom_site_fract_y
_atom_site_fract_z
Si Si1 0.217088 0.166148 0.112180
Si Si2 0.728412 0.667110 0.388919
Si Si3 0.841797 0.668063 0.274528
Si Si4 0.933904 0.835932 0.388348
Si Si5 0.669571 0.167174 0.227608
Si Si6 0.436849 0.170187 0.891074
O O1 0.171126 0.260070 0.170454
O O2 0.280548 0.198280 0.150308
O O3 0.201507 0.000000 0.126490
O O4 0.214285 0.212275 0.000000
O O5 0.725206 0.719111 0.500000
O O6 0.715370 0.500000 0.378578
O O7 0.791088 0.704291 0.349367
O O8 0.680615 0.751440 0.328563
O O9 0.849864 0.500000 0.258598
O O10 0.899587 0.732028 0.317461
O O11 0.922407 0.791568 0.500000
O O12 0.000000 0.817064 0.362720
O O13 0.914834 0.000000 0.371348
O O14 0.611092 0.230157 0.182106
O O15 0.664617 0.000000 0.251805
O O16 0.500000 0.215637 0.854169
O O17 0.431553 0.000000 0.895400
O O18 0.426566 0.231308 0.000000
#
# Coordination Sequence:
#
# PCOD8195080 Si02
#       6
#     8   8   8   8   8   8
#     4   9  17  29  45  65  90 119 148 179 217 261
#     4   9  18  31  44  60  86 118 147 176 215 261
#     4  10  19  30  46  68  92 117 146 181 220 260
#     4   9  18  32  49  69  93 120 148 178 214 258
#     4   9  16  26  43  67  89 110 143 183 217 254
#     4   8  13  22  39  64  91 115 138 170 216 264
#
# _framework density 15.988132999999999
#
# number of rings (size 3 to 8) (size 9 to 14) (size 15 to 20)
#    0.000    3.000    0.000    2.500    0.000    4.667 
#    0.000    0.833    0.000    3.000    0.000    8.167 
#    0.000    0.000    0.000    0.000    0.000    0.000 
#
# Total GULP energy -595166.680474 kJ/mol
# GULP energy per Si atom -12399.305843 kJ/mol
# Density = 1.595174 g / cm^3
# Si number density = 15.988133 Si / 1000 Ang^3
#
#
#
# Elastic Constant Matrix: (Units=GPa)
#
#
# Indices 1 2 3 4 5 6 
#
# 1 89.6573 41.1342 59.2335 0.0000 0.0000 0.0000
# 2 41.1342 53.4458 51.0666 0.0000 0.0000 0.0000
# 3 59.2335 51.0666 130.3870 0.0000 0.0000 0.0000
# 4 0.0000 0.0000 0.0000 21.3310 0.0000 0.0000
# 5 0.0000 0.0000 0.0000 0.0000 29.8787 0.0000
# 6 0.0000 0.0000 0.0000 0.0000 0.0000 16.2461
#
#
#
# Elastic Compliance Matrix: (Units=1/GPa)
#
#
# Indices 1 2 3 4 5 6 
#
# 1 0.018822 -0.010093 -0.004597 0.000000 0.000000 0.000000
# 2 -0.010093 0.035312 -0.009245 0.000000 0.000000 0.000000
# 3 -0.004597 -0.009245 0.013379 0.000000 0.000000 0.000000
# 4 0.000000 0.000000 0.000000 0.046880 0.000000 0.000000
# 5 0.000000 0.000000 0.000000 0.000000 0.033469 0.000000
# 6 0.000000 0.000000 0.000000 0.000000 0.000000 0.061553
#
#
# Mechanical properties :
#
#
# Convention : Reuss Voigt Hill
#
# Bulk Modulus (GPa) = 50.91258 64.03988 57.47623
# Shear Modulus (GPa) = 18.95142 21.62821 20.28981
#
# Velocity S-wave (km/s) = 3.44662 3.68199 3.56624
# Velocity P-wave (km/s) = 6.91028 7.63005 7.27907
#
# Compressibility (1/GPa) = 0.01964151
#
# Stress axis : x y z
#
# Youngs Moduli (GPa) = 53.13038 28.31905 74.74490
#
# Poissons Ratio (x) = 0.28583 0.34364
# Poissons Ratio (y) = 0.53625 0.69101
# Poissons Ratio (z) = 0.24427 0.26181
#
# Static dielectric constant tensor:
#      x y z
#    x 3.017900 0.000000 0.000000 
#    y 0.000000 2.858430 0.000000 
#    z 0.000000 0.000000 3.040880 
# 
# 
# High freq. dielectric constant tensor:
#      x y z
#    x 1.604850 0.000000 0.000000 
#    y 0.000000 1.598030 0.000000 
#    z 0.000000 0.000000 1.607500 
# 
# From -- ./inp_files/4293.got.cif
#   From: 2010.03.12/outbox.cif.g09.slc.cpg/sg47_3_cif.got.tgz:4293.got - 2010.04.14 03:12:58.
