data_PCOD8195026
_publ_section_title
;
Structure prediction by ZEFSAII (Michael W. Deem and Ramdas Pophale) SiO2 
 PCOD8195026
Probable space group: P M M M
;
_chemical_formula_sum "Si O2"
_cell_formula_units_Z 52
_cell_length_a 26.410958
_cell_length_b 13.741185
_cell_length_c 9.003782
_cell_angle_alpha 90.000000
_cell_angle_beta 90.000000
_cell_angle_gamma 90.000000
_cell_volume 3267.633294
_symmetry_space_group_name_H-M "P M M M"
_symmetry_group_IT_number 47
_symmetry_cell_setting 'orthorhombic'
loop_
_space_group_symop_operation_xyz
x,y,z
-x,-y,z
x,-y,-z
-x,y,-z
-x,-y,-z
x,y,-z
-x,y,z
x,-y,z
loop_
_atom_site_type_symbol
_atom_site_label
_atom_site_fract_x
_atom_site_fract_y
_atom_site_fract_z
Si Si1 0.693951 0.718796 0.325302
Si Si2 0.055872 0.108971 0.176383
Si Si3 0.398371 0.612731 0.175149
Si Si4 0.848246 0.222371 0.826017
Si Si5 0.746766 0.112112 0.173280
Si Si6 0.500000 0.384623 0.332828
Si Si7 0.204170 0.609656 0.325851
O O1 0.683300 0.720900 0.500000
O O2 0.645594 0.678330 0.241344
O O3 0.705894 0.827438 0.268018
O O4 0.740527 0.648945 0.282925
O O5 0.099518 0.179050 0.240568
O O6 0.000000 0.147535 0.223394
O O7 0.063930 0.000000 0.239132
O O8 0.060507 0.105353 0.000000
O O9 0.388604 0.500000 0.216876
O O10 0.450464 0.651813 0.245932
O O11 0.401425 0.627344 0.000000
O O12 0.803357 0.147292 0.787359
O O13 0.839129 0.326447 0.750933
O O14 0.852430 0.240198 0.000000
O O15 0.741810 0.000000 0.219618
O O16 0.735330 0.127875 0.000000
O O17 0.500000 0.500000 0.336468
O O18 0.500000 0.342043 0.500000
O O19 0.195455 0.615264 0.500000
O O20 0.199561 0.500000 0.266026
#
# Coordination Sequence:
#
# PCOD8195026 Si02
#       7
#     8   8   8   8   8   4   8
#     4  10  19  30  45  65  88 115 148 183 219 260
#     4   8  13  22  39  64  90 112 135 168 213 262
#     4  10  19  30  45  66  93 122 151 184 221 261
#     4   9  16  26  43  66  87 109 141 178 214 255
#     4   9  17  29  44  63  89 117 143 175 217 263
#     4   9  17  29  45  65  90 121 154 185 219 259
#     4   9  18  31  44  59  83 115 147 178 215 259
#
# _framework density 15.913659000000001
#
# number of rings (size 3 to 8) (size 9 to 14) (size 15 to 20)
#    0.000    2.846    0.000    2.538    0.000    5.538 
#    0.000    0.000    0.000    2.308    0.000    4.846 
#    0.000    4.308    0.000    0.000    0.000    0.000 
#
# Total GULP energy -644740.147899 kJ/mol
# GULP energy per Si atom -12398.848998 kJ/mol
# Density = 1.587744 g / cm^3
# Si number density = 15.913659 Si / 1000 Ang^3
#
#
#
# Elastic Constant Matrix: (Units=GPa)
#
#
# Indices 1 2 3 4 5 6 
#
# 1 130.6704 66.2520 44.4970 0.0000 0.0000 0.0000
# 2 66.2520 114.8140 37.8004 0.0000 0.0000 0.0000
# 3 44.4970 37.8004 50.6897 0.0000 0.0000 0.0000
# 4 0.0000 0.0000 0.0000 21.3170 0.0000 0.0000
# 5 0.0000 0.0000 0.0000 0.0000 18.4266 0.0000
# 6 0.0000 0.0000 0.0000 0.0000 0.0000 26.7563
#
#
#
# Elastic Compliance Matrix: (Units=1/GPa)
#
#
# Indices 1 2 3 4 5 6 
#
# 1 0.012661 -0.004833 -0.007510 0.000000 0.000000 0.000000
# 2 -0.004833 0.013389 -0.005742 0.000000 0.000000 0.000000
# 3 -0.007510 -0.005742 0.030602 0.000000 0.000000 0.000000
# 4 0.000000 0.000000 0.000000 0.046911 0.000000 0.000000
# 5 0.000000 0.000000 0.000000 0.000000 0.054269 0.000000
# 6 0.000000 0.000000 0.000000 0.000000 0.000000 0.037374
#
#
# Mechanical properties :
#
#
# Convention : Reuss Voigt Hill
#
# Bulk Modulus (GPa) = 48.82279 65.91921 57.37100
# Shear Modulus (GPa) = 20.99054 23.14164 22.06609
#
# Velocity S-wave (km/s) = 3.63578 3.81753 3.72777
# Velocity P-wave (km/s) = 6.95497 7.80669 7.39310
#
# Compressibility (1/GPa) = 0.02048224
#
# Stress axis : x y z
#
# Youngs Moduli (GPa) = 78.98503 74.68774 32.67787
#
# Poissons Ratio (x) = 0.36099 0.24540
# Poissons Ratio (y) = 0.38176 0.18763
# Poissons Ratio (z) = 0.59315 0.42884
#
# Static dielectric constant tensor:
#      x y z
#    x 3.115620 0.000000 0.000000 
#    y 0.000000 2.992720 0.000000 
#    z 0.000000 0.000000 2.921860 
# 
# 
# High freq. dielectric constant tensor:
#      x y z
#    x 1.607460 0.000000 0.000000 
#    y 0.000000 1.591900 0.000000 
#    z 0.000000 0.000000 1.602200 
# 
# From -- ./inp_files/7996.got.cif
#   From: 2010.03.12/outbox.cif.g09.slc.cpg/sg47_4_cif.got.tgz:7996.got - 2010.04.14 03:12:58.
