data_PCOD8195090
_publ_section_title
;
Structure prediction by ZEFSAII (Michael W. Deem and Ramdas Pophale) SiO2 
 PCOD8195090
Probable space group: P M M M
;
_chemical_formula_sum "Si O2"
_cell_formula_units_Z 64
_cell_length_a 25.303661
_cell_length_b 9.201728
_cell_length_c 15.308942
_cell_angle_alpha 90.000000
_cell_angle_beta 90.000000
_cell_angle_gamma 90.000000
_cell_volume 3564.494343
_symmetry_space_group_name_H-M "P M M M"
_symmetry_group_IT_number 47
_symmetry_cell_setting 'orthorhombic'
loop_
_space_group_symop_operation_xyz
x,y,z
-x,-y,z
x,-y,-z
-x,y,-z
-x,-y,-z
x,y,-z
-x,y,z
x,-y,z
loop_
_atom_site_type_symbol
_atom_site_label
_atom_site_fract_x
_atom_site_fract_y
_atom_site_fract_z
Si Si1 0.741612 0.333175 0.827105
Si Si2 0.389559 0.833510 0.404511
Si Si3 0.847168 0.828748 0.783286
Si Si4 0.817632 0.166204 0.405420
Si Si5 0.441771 0.172525 0.770958
Si Si6 0.058623 0.827433 0.097854
Si Si7 0.714178 0.665336 0.369525
Si Si8 0.352309 0.166633 0.098865
O O1 0.751281 0.500000 0.854467
O O2 0.797441 0.251232 0.826253
O O3 0.713255 0.320334 0.734331
O O4 0.701835 0.257274 0.894543
O O5 0.417409 0.818056 0.500000
O O6 0.427723 0.776498 0.327661
O O7 0.336218 0.743310 0.408408
O O8 0.374224 0.000000 0.385353
O O9 0.853120 0.791801 0.679331
O O10 0.899342 0.767796 0.831686
O O11 0.839966 0.000000 0.799088
O O12 0.847384 0.187016 0.500000
O O13 0.766111 0.263874 0.409323
O O14 0.799369 0.000000 0.394294
O O15 0.500000 0.235798 0.793480
O O16 0.398337 0.232716 0.839190
O O17 0.443524 0.000000 0.777422
O O18 0.000000 0.768620 0.122020
O O19 0.057985 0.000000 0.100641
O O20 0.074185 0.775306 0.000000
O O21 0.713331 0.500000 0.400559
O O22 0.340021 0.000000 0.125067
O O23 0.373115 0.177456 0.000000
#
# Coordination Sequence:
#
# PCOD8195090 Si02
#       8
#     8   8   8   8   8   8   8   8
#     4  10  20  33  49  71 101 132 159 193 241 290
#     4  10  19  30  48  72  96 124 155 188 233 287
#     4   9  17  29  48  72  98 129 164 201 237 281
#     4   9  17  28  42  63  94 130 163 194 232 278
#     4   9  18  33  52  73  97 122 152 197 242 280
#     4   8  14  26  46  72  98 123 157 202 245 282
#     4  10  19  30  46  68  94 125 160 196 234 279
#     4  10  20  34  54  76  96 123 158 194 237 290
#
# _framework density 17.954861000000001
#
# number of rings (size 3 to 8) (size 9 to 14) (size 15 to 20)
#    0.000    2.625    1.250    1.500    0.000    4.250 
#    0.000    3.750    0.000    2.250    0.000    5.250 
#    0.000    0.000    0.000    6.250    0.000    6.500 
#
# Total GULP energy -793219.057882 kJ/mol
# GULP energy per Si atom -12394.047779 kJ/mol
# Density = 1.791400 g / cm^3
# Si number density = 17.954861 Si / 1000 Ang^3
#
#
#
# Elastic Constant Matrix: (Units=GPa)
#
#
# Indices 1 2 3 4 5 6 
#
# 1 121.1334 30.7246 73.0995 0.0000 0.0000 0.0000
# 2 30.7246 49.2851 26.7122 0.0000 0.0000 0.0000
# 3 73.0995 26.7122 120.3626 0.0000 0.0000 0.0000
# 4 0.0000 0.0000 0.0000 12.3638 0.0000 0.0000
# 5 0.0000 0.0000 0.0000 0.0000 17.9271 0.0000
# 6 0.0000 0.0000 0.0000 0.0000 0.0000 -3.6946
#
#
#
# Elastic Compliance Matrix: (Units=1/GPa)
#
#
# Indices 1 2 3 4 5 6 
#
# 1 0.013911 -0.004653 -0.007416 0.000000 0.000000 0.000000
# 2 -0.004653 0.024621 -0.002638 0.000000 0.000000 0.000000
# 3 -0.007416 -0.002638 0.013398 0.000000 0.000000 0.000000
# 4 0.000000 0.000000 0.000000 0.080881 0.000000 0.000000
# 5 0.000000 0.000000 0.000000 0.000000 0.055781 0.000000
# 6 0.000000 0.000000 0.000000 0.000000 0.000000 -0.270663
#
#
# Mechanical properties :
#
#
# Convention : Reuss Voigt Hill
#
# Bulk Modulus (GPa) = 44.41445 61.31709 52.86577
# Shear Modulus (GPa) = -110.73465 16.00222 -47.36621
#
# Velocity S-wave (km/s) = -7.86179 2.98862 -5.14179
# Velocity P-wave (km/s) = 7.59078 6.79220 2.39646
#
# Compressibility (1/GPa) = 0.02251519
#
# Stress axis : x y z
#
# Youngs Moduli (GPa) = 71.88768 40.61637 74.64057
#
# Poissons Ratio (x) = 0.18898 0.55351
# Poissons Ratio (y) = 0.33447 0.19693
# Poissons Ratio (z) = 0.53310 0.10716
#
# Static dielectric constant tensor:
#      x y z
#    x 3.283760 0.000000 0.000000 
#    y 0.000000 3.068940 0.000000 
#    z 0.000000 0.000000 3.574390 
# 
# 
# High freq. dielectric constant tensor:
#      x y z
#    x 1.668900 0.000000 0.000000 
#    y 0.000000 1.663970 0.000000 
#    z 0.000000 0.000000 1.708270 
# 
# From -- ./inp_files/28931.got.cif
#   From: 2010.03.12/outbox.cif.g09.slc.cpg/sg47_15_cif.got.tgz:28931.got - 2010.04.14 03:12:58.
