data_PCOD8195920
_publ_section_title
;
Structure prediction by ZEFSAII (Michael W. Deem and Ramdas Pophale) SiO2 
 PCOD8195920
Probable space group: P M M M
;
_chemical_formula_sum "Si O2"
_cell_formula_units_Z 52
_cell_length_a 21.644661
_cell_length_b 14.548007
_cell_length_c 9.315095
_cell_angle_alpha 90.000000
_cell_angle_beta 90.000000
_cell_angle_gamma 90.000000
_cell_volume 2933.199336
_symmetry_space_group_name_H-M "P M M M"
_symmetry_group_IT_number 47
_symmetry_cell_setting 'orthorhombic'
loop_
_space_group_symop_operation_xyz
x,y,z
-x,-y,z
x,-y,-z
-x,y,-z
-x,-y,-z
x,y,-z
-x,y,z
x,-y,z
loop_
_atom_site_type_symbol
_atom_site_label
_atom_site_fract_x
_atom_site_fract_y
_atom_site_fract_z
Si Si1 0.071460 0.604370 0.667964
Si Si2 0.114601 0.223660 0.168528
Si Si3 0.572681 0.000000 0.161473
Si Si4 0.765565 0.106546 0.165265
Si Si5 0.356695 0.852971 0.334631
Si Si6 0.430090 0.670767 0.337604
Si Si7 0.573405 0.500000 0.840776
Si Si8 0.000000 0.103584 0.829379
O O1 0.081613 0.620888 0.500000
O O2 0.091367 0.500000 0.708870
O O3 0.113139 0.677361 0.753957
O O4 0.000000 0.619327 0.709623
O O5 0.177403 0.171109 0.206607
O O6 0.059804 0.158458 0.226038
O O7 0.107874 0.241681 0.000000
O O8 0.594710 0.088579 0.245766
O O9 0.500000 0.000000 0.155770
O O10 0.600448 0.000000 0.000000
O O11 0.710799 0.136687 0.269065
O O12 0.783282 0.000000 0.191390
O O13 0.745917 0.121428 0.000000
O O14 0.355413 0.885263 0.500000
O O15 0.380442 0.750206 0.319551
O O16 0.431785 0.634631 0.500000
O O17 0.500000 0.701182 0.292298
O O18 0.403026 0.590411 0.239077
O O19 0.500000 0.500000 0.840912
O O20 0.601284 0.500000 0.000000
O O21 0.000000 0.000000 0.765306
O O22 0.000000 0.097400 0.000000
#
# Coordination Sequence:
#
# PCOD8195920 Si02
#       8
#     8   8   4   8   8   8   4   4
#     4   9  18  33  53  78 110 145 176 215 275 334
#     4  10  19  32  54  82 107 138 181 225 266 317
#     4  11  23  37  55  81 113 146 179 224 279 325
#     4  10  21  37  55  76 107 146 182 218 270 329
#     4  11  22  36  56  80 107 142 186 228 265 317
#     4   9  18  33  53  77 105 136 169 212 266 316
#     4   9  17  29  49  79 109 135 167 208 257 318
#     4   9  16  28  48  77 110 138 173 219 264 311
#
# _framework density 17.728083000000002
#
# number of rings (size 3 to 8) (size 9 to 14) (size 15 to 20)
#    0.000    2.231    1.538    2.308    0.000    6.154 
#    0.000    2.308    1.692    1.846    0.000    0.000 
#    0.000    0.000    0.000    0.000    0.000    0.000 
#
# Total GULP energy -644765.440390 kJ/mol
# GULP energy per Si atom -12399.335392 kJ/mol
# Density = 1.768773 g / cm^3
# Si number density = 17.728083 Si / 1000 Ang^3
#
#
#
# Elastic Constant Matrix: (Units=GPa)
#
#
# Indices 1 2 3 4 5 6 
#
# 1 83.9470 53.9137 48.1995 0.0000 0.0000 0.0000
# 2 53.9137 136.1266 69.8226 0.0000 0.0000 0.0000
# 3 48.1995 69.8226 101.8883 0.0000 0.0000 0.0000
# 4 0.0000 0.0000 0.0000 34.3713 0.0000 0.0000
# 5 0.0000 0.0000 0.0000 0.0000 16.2211 0.0000
# 6 0.0000 0.0000 0.0000 0.0000 0.0000 30.4215
#
#
#
# Elastic Compliance Matrix: (Units=1/GPa)
#
#
# Indices 1 2 3 4 5 6 
#
# 1 0.017792 -0.004209 -0.005532 0.000000 0.000000 0.000000
# 2 -0.004209 0.012323 -0.006454 0.000000 0.000000 0.000000
# 3 -0.005532 -0.006454 0.016855 0.000000 0.000000 0.000000
# 4 0.000000 0.000000 0.000000 0.029094 0.000000 0.000000
# 5 0.000000 0.000000 0.000000 0.000000 0.061648 0.000000
# 6 0.000000 0.000000 0.000000 0.000000 0.000000 0.032872
#
#
# Mechanical properties :
#
#
# Convention : Reuss Voigt Hill
#
# Bulk Modulus (GPa) = 68.58971 73.98149 71.28560
# Shear Modulus (GPa) = 24.05763 26.20451 25.13107
#
# Velocity S-wave (km/s) = 3.68779 3.84882 3.76917
# Velocity P-wave (km/s) = 7.54367 7.84685 7.69675
#
# Compressibility (1/GPa) = 0.01457945
#
# Stress axis : x y z
#
# Youngs Moduli (GPa) = 56.20540 81.14584 59.33067
#
# Poissons Ratio (x) = 0.34153 0.32824
# Poissons Ratio (y) = 0.23656 0.38292
# Poissons Ratio (z) = 0.31095 0.52372
#
# Static dielectric constant tensor:
#      x y z
#    x 3.104220 0.000000 0.000000 
#    y 0.000000 3.298060 0.000000 
#    z 0.000000 0.000000 3.329630 
# 
# 
# High freq. dielectric constant tensor:
#      x y z
#    x 1.666710 0.000000 0.000000 
#    y 0.000000 1.694500 0.000000 
#    z 0.000000 0.000000 1.681730 
# 
# From -- ./inp_files/11160.got.cif
#   From: 2010.03.12/outbox.cif.g09.slc.cpg/sg47_6_cif.got.tgz:11160.got - 2010.04.14 03:12:58.
