data_PCOD8195276
_publ_section_title
;
Structure prediction by ZEFSAII (Michael W. Deem and Ramdas Pophale) SiO2 
 PCOD8195276
Probable space group: P M M M
;
_chemical_formula_sum "Si O2"
_cell_formula_units_Z 44
_cell_length_a 12.524925
_cell_length_b 24.714615
_cell_length_c 8.978386
_cell_angle_alpha 90.000000
_cell_angle_beta 90.000000
_cell_angle_gamma 90.000000
_cell_volume 2779.247708
_symmetry_space_group_name_H-M "P M M M"
_symmetry_group_IT_number 47
_symmetry_cell_setting 'orthorhombic'
loop_
_space_group_symop_operation_xyz
x,y,z
-x,-y,z
x,-y,-z
-x,y,-z
-x,-y,-z
x,y,-z
-x,y,z
x,-y,z
loop_
_atom_site_type_symbol
_atom_site_label
_atom_site_fract_x
_atom_site_fract_y
_atom_site_fract_z
Si Si1 0.000000 0.064062 0.329462
Si Si2 0.376791 0.937526 0.329503
Si Si3 0.126990 0.663340 0.166192
Si Si4 0.194145 0.122821 0.175805
Si Si5 0.126955 0.559418 0.332522
Si Si6 0.874293 0.771155 0.327732
O O1 0.104818 0.085691 0.250023
O O2 0.000000 0.084541 0.500000
O O3 0.000000 0.000000 0.320199
O O4 0.342269 0.926426 0.500000
O O5 0.500000 0.922430 0.306090
O O6 0.309362 0.900616 0.218153
O O7 0.356506 0.000000 0.289891
O O8 0.174751 0.607105 0.230153
O O9 0.164476 0.712924 0.268986
O O10 0.000000 0.660475 0.164693
O O11 0.171880 0.671631 0.000000
O O12 0.187776 0.183856 0.234475
O O13 0.178114 0.122376 0.000000
O O14 0.169669 0.567771 0.500000
O O15 0.162792 0.500000 0.272611
O O16 0.000000 0.562829 0.332944
O O17 0.843373 0.775754 0.500000
O O18 0.000000 0.779617 0.302356
#
# Coordination Sequence:
#
# PCOD8195276 Si02
#       6
#     4   8   8   8   8   8
#     4  11  23  37  51  67  91 123 154 181 216 269
#     4   9  19  37  58  75  92 118 151 183 217 266
#     4   9  16  24  35  52  75 101 134 178 224 263
#     4  12  23  33  49  72  97 119 145 186 231 271
#     4   8  13  21  32  46  66  95 134 176 215 257
#     4  10  19  31  46  60  81 115 152 183 217 267
#
# _framework density 15.831623
#
# number of rings (size 3 to 8) (size 9 to 14) (size 15 to 20)
#    0.000    2.273    0.909    4.636    0.000    6.909 
#    0.000    2.727    0.000    0.000    0.000    0.000 
#    0.000    0.000    0.000    0.000    0.000    0.909 
#
# Total GULP energy -545568.857829 kJ/mol
# GULP energy per Si atom -12399.292223 kJ/mol
# Density = 1.579559 g / cm^3
# Si number density = 15.831623 Si / 1000 Ang^3
#
#
#
# Elastic Constant Matrix: (Units=GPa)
#
#
# Indices 1 2 3 4 5 6 
#
# 1 40.5481 32.0020 30.4533 0.0000 0.0000 0.0000
# 2 32.0020 121.4135 67.3502 0.0000 0.0000 0.0000
# 3 30.4533 67.3502 127.8209 0.0000 0.0000 0.0000
# 4 0.0000 0.0000 0.0000 21.0044 0.0000 0.0000
# 5 0.0000 0.0000 0.0000 0.0000 13.4870 0.0000
# 6 0.0000 0.0000 0.0000 0.0000 0.0000 7.9843
#
#
#
# Elastic Compliance Matrix: (Units=1/GPa)
#
#
# Indices 1 2 3 4 5 6 
#
# 1 0.032971 -0.006122 -0.004629 0.000000 0.000000 0.000000
# 2 -0.006122 0.012775 -0.005273 0.000000 0.000000 0.000000
# 3 -0.004629 -0.005273 0.011705 0.000000 0.000000 0.000000
# 4 0.000000 0.000000 0.000000 0.047609 0.000000 0.000000
# 5 0.000000 0.000000 0.000000 0.000000 0.074145 0.000000
# 6 0.000000 0.000000 0.000000 0.000000 0.000000 0.125246
#
#
# Mechanical properties :
#
#
# Convention : Reuss Voigt Hill
#
# Bulk Modulus (GPa) = 39.36744 61.04370 50.20557
# Shear Modulus (GPa) = 14.49415 19.16027 16.82721
#
# Velocity S-wave (km/s) = 3.02904 3.48264 3.26373
# Velocity P-wave (km/s) = 6.09539 7.40362 6.78112
#
# Compressibility (1/GPa) = 0.02540170
#
# Stress axis : x y z
#
# Youngs Moduli (GPa) = 30.32969 78.27902 85.43696
#
# Poissons Ratio (x) = 0.47926 0.39552
# Poissons Ratio (y) = 0.18569 0.45047
# Poissons Ratio (z) = 0.14041 0.41273
#
# Static dielectric constant tensor:
#      x y z
#    x 2.512630 0.000000 0.000000 
#    y 0.000000 3.242840 0.000000 
#    z 0.000000 0.000000 3.157670 
# 
# 
# High freq. dielectric constant tensor:
#      x y z
#    x 1.537350 0.000000 0.000000 
#    y 0.000000 1.621340 0.000000 
#    z 0.000000 0.000000 1.619500 
# 
# From -- ./inp_files/4292.got.cif
#   From: 2010.03.12/outbox.cif.g09.slc.cpg/sg47_3_cif.got.tgz:4292.got - 2010.04.14 03:12:58.
