data_PCOD8195879
_publ_section_title
;
Structure prediction by ZEFSAII (Michael W. Deem and Ramdas Pophale) SiO2 
 PCOD8195879
Probable space group: P M M M
;
_chemical_formula_sum "Si O2"
_cell_formula_units_Z 56
_cell_length_a 15.820732
_cell_length_b 9.516444
_cell_length_c 19.461091
_cell_angle_alpha 90.000000
_cell_angle_beta 90.000000
_cell_angle_gamma 90.000000
_cell_volume 2930.005621
_symmetry_space_group_name_H-M "P M M M"
_symmetry_group_IT_number 47
_symmetry_cell_setting 'orthorhombic'
loop_
_space_group_symop_operation_xyz
x,y,z
-x,-y,z
x,-y,-z
-x,y,-z
-x,-y,-z
x,y,-z
-x,y,z
x,-y,z
loop_
_atom_site_type_symbol
_atom_site_label
_atom_site_fract_x
_atom_site_fract_y
_atom_site_fract_z
Si Si1 0.654877 0.841741 0.701531
Si Si2 0.740613 0.335302 0.079516
Si Si3 0.405260 0.163824 0.154370
Si Si4 0.844581 0.839574 0.716630
Si Si5 0.598004 0.336509 0.576865
Si Si6 0.904379 0.833343 0.426459
Si Si7 0.905599 0.337582 0.161636
O O1 0.593735 0.798051 0.764167
O O2 0.746809 0.828692 0.736139
O O3 0.649073 0.745198 0.634837
O O4 0.636591 0.000000 0.676345
O O5 0.725689 0.500000 0.091375
O O6 0.662524 0.255231 0.113690
O O7 0.831918 0.287958 0.109565
O O8 0.742292 0.295172 0.000000
O O9 0.500000 0.195534 0.126529
O O10 0.382011 0.000000 0.144700
O O11 0.852916 0.777489 0.639163
O O12 0.900197 0.748622 0.768079
O O13 0.877509 0.000000 0.720605
O O14 0.626991 0.290807 0.500000
O O15 0.500000 0.301058 0.586327
O O16 0.615335 0.500000 0.587563
O O17 0.867683 0.776638 0.500000
O O18 0.000000 0.780931 0.418433
O O19 0.900339 0.000000 0.427748
O O20 0.892581 0.500000 0.180069
O O21 0.000000 0.312904 0.129907
#
# Coordination Sequence:
#
# PCOD8195879 Si02
#       7
#     8   8   8   8   8   8   8
#     4  10  20  33  52  79 109 141 183 235 283 329
#     4  10  22  40  61  86 115 146 184 229 273 326
#     4  10  21  38  59  84 116 151 186 227 281 339
#     4  10  19  32  53  79 106 140 184 231 274 322
#     4   9  19  35  52  72 102 142 188 235 283 336
#     4   8  14  25  42  67  99 133 171 216 263 309
#     4  10  21  37  58  84 114 148 183 223 276 333
#
# _framework density 19.112591999999999
#
# number of rings (size 3 to 8) (size 9 to 14) (size 15 to 20)
#    0.000    2.429    1.429    1.714    0.000    4.857 
#    0.000    5.000    0.000    0.429    0.000    4.000 
#    0.000    0.000    0.000    0.000    0.000    0.000 
#
# Total GULP energy -694092.294325 kJ/mol
# GULP energy per Si atom -12394.505256 kJ/mol
# Density = 1.906909 g / cm^3
# Si number density = 19.112592 Si / 1000 Ang^3
#
#
#
# Elastic Constant Matrix: (Units=GPa)
#
#
# Indices 1 2 3 4 5 6 
#
# 1 107.9525 39.2241 59.0834 0.0000 0.0000 0.0000
# 2 39.2241 50.4565 48.9995 0.0000 0.0000 0.0000
# 3 59.0834 48.9995 124.8485 0.0000 0.0000 0.0000
# 4 0.0000 0.0000 0.0000 31.4154 0.0000 0.0000
# 5 0.0000 0.0000 0.0000 0.0000 26.2910 0.0000
# 6 0.0000 0.0000 0.0000 0.0000 0.0000 24.0283
#
#
#
# Elastic Compliance Matrix: (Units=1/GPa)
#
#
# Indices 1 2 3 4 5 6 
#
# 1 0.013936 -0.007157 -0.003786 0.000000 0.000000 0.000000
# 2 -0.007157 0.035700 -0.010625 0.000000 0.000000 0.000000
# 3 -0.003786 -0.010625 0.013971 0.000000 0.000000 0.000000
# 4 0.000000 0.000000 0.000000 0.031832 0.000000 0.000000
# 5 0.000000 0.000000 0.000000 0.000000 0.038036 0.000000
# 6 0.000000 0.000000 0.000000 0.000000 0.000000 0.041618
#
#
# Mechanical properties :
#
#
# Convention : Reuss Voigt Hill
#
# Bulk Modulus (GPa) = 48.84567 64.20796 56.52682
# Shear Modulus (GPa) = 22.21714 25.41030 23.81372
#
# Velocity S-wave (km/s) = 3.41315 3.65019 3.53366
# Velocity P-wave (km/s) = 6.41444 7.17166 6.80359
#
# Compressibility (1/GPa) = 0.02047264
#
# Stress axis : x y z
#
# Youngs Moduli (GPa) = 71.75692 28.01106 71.57506
#
# Poissons Ratio (x) = 0.20046 0.27100
# Poissons Ratio (y) = 0.51354 0.76045
# Poissons Ratio (z) = 0.27169 0.29760
#
# Static dielectric constant tensor:
#      x y z
#    x 3.546910 0.000000 0.000000 
#    y 0.000000 3.233940 0.000000 
#    z 0.000000 0.000000 3.784870 
# 
# 
# High freq. dielectric constant tensor:
#      x y z
#    x 1.746710 0.000000 0.000000 
#    y 0.000000 1.715070 0.000000 
#    z 0.000000 0.000000 1.745660 
# 
# From -- ./inp_files/7291.got.cif
#   From: 2010.03.12/outbox.cif.g09.slc.cpg/sg47_4_cif.got.tgz:7291.got - 2010.04.14 03:12:58.
