data_PCOD8195684
_publ_section_title
;
Structure prediction by ZEFSAII (Michael W. Deem and Ramdas Pophale) SiO2 
 PCOD8195684
Probable space group: P M M M
;
_chemical_formula_sum "Si O2"
_cell_formula_units_Z 52
_cell_length_a 16.270396
_cell_length_b 20.807698
_cell_length_c 9.081851
_cell_angle_alpha 90.000000
_cell_angle_beta 90.000000
_cell_angle_gamma 90.000000
_cell_volume 3074.655991
_symmetry_space_group_name_H-M "P M M M"
_symmetry_group_IT_number 47
_symmetry_cell_setting 'orthorhombic'
loop_
_space_group_symop_operation_xyz
x,y,z
-x,-y,z
x,-y,-z
-x,y,-z
-x,-y,-z
x,y,-z
-x,y,z
x,-y,z
loop_
_atom_site_type_symbol
_atom_site_label
_atom_site_fract_x
_atom_site_fract_y
_atom_site_fract_z
Si Si1 0.651683 0.926649 0.169040
Si Si2 0.500000 0.718587 0.323969
Si Si3 0.188890 0.374014 0.673170
Si Si4 0.666061 0.690196 0.825793
Si Si5 0.908642 0.753029 0.327841
Si Si6 0.500000 0.133996 0.326571
Si Si7 0.093044 0.500000 0.674755
Si Si8 0.768567 0.814362 0.831114
O O1 0.578726 0.903943 0.271502
O O2 0.731878 0.884288 0.202993
O O3 0.674592 0.000000 0.204294
O O4 0.623773 0.917566 0.000000
O O5 0.500000 0.712146 0.500000
O O6 0.420679 0.683308 0.256633
O O7 0.500000 0.792681 0.270275
O O8 0.209593 0.376597 0.500000
O O9 0.273429 0.364968 0.763340
O O10 0.127196 0.316474 0.711974
O O11 0.143436 0.438012 0.729201
O O12 0.702731 0.760056 0.784434
O O13 0.654041 0.681245 0.000000
O O14 0.910673 0.764268 0.500000
O O15 0.852362 0.808689 0.259742
O O16 0.000000 0.757819 0.260923
O O17 0.500000 0.132608 0.500000
O O18 0.086658 0.500000 0.500000
O O19 0.000000 0.500000 0.740038
O O20 0.791934 0.805104 0.000000
#
# Coordination Sequence:
#
# PCOD8195684 Si02
#       8
#     8   4   8   8   8   4   4   8
#     4  10  20  34  50  67  93 130 166 198 238 290
#     4  11  21  32  50  74  99 128 163 204 246 287
#     4   9  17  30  49  74 104 133 164 200 237 283
#     4  10  19  32  50  71  97 130 165 203 246 289
#     4   9  17  29  47  71  97 124 156 197 243 287
#     4  11  22  32  47  72 101 127 157 198 243 290
#     4   9  16  28  51  80 107 138 171 199 234 285
#     4   9  18  31  47  68  92 121 159 200 241 287
#
# _framework density 16.912462000000001
#
# number of rings (size 3 to 8) (size 9 to 14) (size 15 to 20)
#    0.000    2.385    1.538    1.615    0.000    5.231 
#    0.000    0.385    0.000    2.769    0.000    6.462 
#    0.000    0.000    0.000    0.000    0.000    0.000 
#
# Total GULP energy -644865.604154 kJ/mol
# GULP energy per Si atom -12401.261618 kJ/mol
# Density = 1.687397 g / cm^3
# Si number density = 16.912462 Si / 1000 Ang^3
#
#
#
# Elastic Constant Matrix: (Units=GPa)
#
#
# Indices 1 2 3 4 5 6 
#
# 1 152.1481 61.8996 51.6222 0.0000 0.0000 0.0000
# 2 61.8996 96.3519 31.0893 0.0000 0.0000 0.0000
# 3 51.6222 31.0893 48.8837 0.0000 0.0000 0.0000
# 4 0.0000 0.0000 0.0000 20.2406 0.0000 0.0000
# 5 0.0000 0.0000 0.0000 0.0000 23.1939 0.0000
# 6 0.0000 0.0000 0.0000 0.0000 0.0000 24.2785
#
#
#
# Elastic Compliance Matrix: (Units=1/GPa)
#
#
# Indices 1 2 3 4 5 6 
#
# 1 0.011547 -0.004383 -0.009407 0.000000 0.000000 0.000000
# 2 -0.004383 0.014722 -0.004734 0.000000 0.000000 0.000000
# 3 -0.009407 -0.004734 0.033401 0.000000 0.000000 0.000000
# 4 0.000000 0.000000 0.000000 0.049406 0.000000 0.000000
# 5 0.000000 0.000000 0.000000 0.000000 0.043115 0.000000
# 6 0.000000 0.000000 0.000000 0.000000 0.000000 0.041189
#
#
# Mechanical properties :
#
#
# Convention : Reuss Voigt Hill
#
# Bulk Modulus (GPa) = 44.20378 65.17844 54.69111
# Shear Modulus (GPa) = 21.01117 23.72745 22.36931
#
# Velocity S-wave (km/s) = 3.52852 3.74967 3.64077
# Velocity P-wave (km/s) = 6.54172 7.57424 7.07684
#
# Compressibility (1/GPa) = 0.02262250
#
# Stress axis : x y z
#
# Youngs Moduli (GPa) = 86.59987 67.92503 29.93908
#
# Poissons Ratio (x) = 0.29773 0.28162
# Poissons Ratio (y) = 0.37959 0.14174
# Poissons Ratio (z) = 0.81461 0.32157
#
# Static dielectric constant tensor:
#      x y z
#    x 3.011620 0.000000 0.000000 
#    y 0.000000 3.118060 0.000000 
#    z 0.000000 0.000000 3.068570 
# 
# 
# High freq. dielectric constant tensor:
#      x y z
#    x 1.653050 0.000000 0.000000 
#    y 0.000000 1.632510 0.000000 
#    z 0.000000 0.000000 1.644980 
# 
# From -- ./inp_files/7167.got.cif
#   From: 2010.03.12/outbox.cif.g09.slc.cpg/sg47_4_cif.got.tgz:7167.got - 2010.04.14 03:12:58.
