data_PCOD8195198
_publ_section_title
;
Structure prediction by ZEFSAII (Michael W. Deem and Ramdas Pophale) SiO2 
 PCOD8195198
Probable space group: P M M M
;
_chemical_formula_sum "Si O2"
_cell_formula_units_Z 64
_cell_length_a 25.090132
_cell_length_b 9.183110
_cell_length_c 14.817416
_cell_angle_alpha 90.000000
_cell_angle_beta 90.000000
_cell_angle_gamma 90.000000
_cell_volume 3414.013284
_symmetry_space_group_name_H-M "P M M M"
_symmetry_group_IT_number 47
_symmetry_cell_setting 'orthorhombic'
loop_
_space_group_symop_operation_xyz
x,y,z
-x,-y,z
x,-y,-z
-x,y,-z
-x,-y,-z
x,y,-z
-x,y,z
x,-y,z
loop_
_atom_site_type_symbol
_atom_site_label
_atom_site_fract_x
_atom_site_fract_y
_atom_site_fract_z
Si Si1 0.749966 0.171355 0.236750
Si Si2 0.206270 0.337904 0.399219
Si Si3 0.843319 0.827054 0.102677
Si Si4 0.940943 0.168050 0.777826
Si Si5 0.558452 0.326920 0.900560
Si Si6 0.638574 0.326617 0.246796
Si Si7 0.559345 0.326995 0.398895
Si Si8 0.919530 0.336325 0.599642
O O1 0.773349 0.212630 0.333738
O O2 0.790421 0.222314 0.157226
O O3 0.694730 0.253866 0.228264
O O4 0.740589 0.000000 0.232552
O O5 0.227558 0.304399 0.500000
O O6 0.226272 0.500000 0.369695
O O7 0.143458 0.334192 0.397297
O O8 0.895978 0.765394 0.154851
O O9 0.846540 0.000000 0.098755
O O10 0.841503 0.764387 0.000000
O O11 0.942415 0.238255 0.679018
O O12 0.000000 0.188839 0.821259
O O13 0.927354 0.000000 0.762453
O O14 0.500000 0.271409 0.870458
O O15 0.558606 0.500000 0.899019
O O16 0.602629 0.266369 0.834112
O O17 0.572080 0.268337 0.000000
O O18 0.645789 0.500000 0.247773
O O19 0.607855 0.270329 0.336554
O O20 0.571006 0.271195 0.500000
O O21 0.500000 0.272667 0.367934
O O22 0.558777 0.500000 0.395101
O O23 0.938392 0.280905 0.500000
O O24 0.940554 0.500000 0.614767
#
# Coordination Sequence:
#
# PCOD8195198 Si02
#       8
#     8   8   8   8   8   8   8   8
#     4  11  22  35  52  75 104 139 175 212 258 312
#     4   9  18  34  56  78 100 131 171 211 250 297
#     4   9  19  37  57  75  99 134 176 220 266 315
#     4  10  20  34  55  83 109 134 172 222 267 308
#     4   8  14  26  46  72  99 126 161 210 264 310
#     4  10  19  30  48  74 102 131 166 210 256 304
#     4   8  14  26  46  72  99 128 166 209 249 290
#     4   9  18  33  54  79 108 142 173 202 247 308
#
# _framework density 18.746267
#
# number of rings (size 3 to 8) (size 9 to 14) (size 15 to 20)
#    0.000    2.750    1.250    2.250    0.000    3.750 
#    0.000    5.000    0.000    4.500    0.000    2.625 
#    0.000    0.000    0.000    0.000    0.000    0.000 
#
# Total GULP energy -793039.591054 kJ/mol
# GULP energy per Si atom -12391.243610 kJ/mol
# Density = 1.870360 g / cm^3
# Si number density = 18.746267 Si / 1000 Ang^3
#
#
#
# Elastic Constant Matrix: (Units=GPa)
#
#
# Indices 1 2 3 4 5 6 
#
# 1 143.0019 31.1414 83.8551 0.0000 0.0000 0.0000
# 2 31.1414 34.4793 31.4632 0.0000 0.0000 0.0000
# 3 83.8551 31.4632 140.3741 0.0000 0.0000 0.0000
# 4 0.0000 0.0000 0.0000 16.3433 0.0000 0.0000
# 5 0.0000 0.0000 0.0000 0.0000 7.5364 0.0000
# 6 0.0000 0.0000 0.0000 0.0000 0.0000 17.6155
#
#
#
# Elastic Compliance Matrix: (Units=1/GPa)
#
#
# Indices 1 2 3 4 5 6 
#
# 1 0.011448 -0.005153 -0.005684 0.000000 0.000000 0.000000
# 2 -0.005153 0.038780 -0.005614 0.000000 0.000000 0.000000
# 3 -0.005684 -0.005614 0.011777 0.000000 0.000000 0.000000
# 4 0.000000 0.000000 0.000000 0.061187 0.000000 0.000000
# 5 0.000000 0.000000 0.000000 0.000000 0.132690 0.000000
# 6 0.000000 0.000000 0.000000 0.000000 0.000000 0.056768
#
#
# Mechanical properties :
#
#
# Convention : Reuss Voigt Hill
#
# Bulk Modulus (GPa) = 34.35944 67.86386 51.11165
# Shear Modulus (GPa) = 14.07449 19.72542 16.89996
#
# Velocity S-wave (km/s) = 2.74303 3.24733 3.00577
# Velocity P-wave (km/s) = 5.32923 7.09507 6.27458
#
# Compressibility (1/GPa) = 0.02910408
#
# Stress axis : x y z
#
# Youngs Moduli (GPa) = 87.35182 25.78654 84.90940
#
# Poissons Ratio (x) = 0.13289 0.48259
# Poissons Ratio (y) = 0.45015 0.47665
# Poissons Ratio (z) = 0.49647 0.14476
#
# Static dielectric constant tensor:
#      x y z
#    x 3.909720 0.000000 0.000000 
#    y 0.000000 3.075880 0.000000 
#    z 0.000000 0.000000 4.199340 
# 
# 
# High freq. dielectric constant tensor:
#      x y z
#    x 1.737580 0.000000 0.000000 
#    y 0.000000 1.674390 0.000000 
#    z 0.000000 0.000000 1.733800 
# 
# From -- ./inp_files/25565.got.cif
#   From: 2010.03.12/outbox.cif.g09.slc.cpg/sg47_13_cif.got.tgz:25565.got - 2010.04.14 03:12:58.
