data_PCOD8195753
_publ_section_title
;
Structure prediction by ZEFSAII (Michael W. Deem and Ramdas Pophale) SiO2 
 PCOD8195753
Probable space group: P M M M
;
_chemical_formula_sum "Si O2"
_cell_formula_units_Z 52
_cell_length_a 20.963735
_cell_length_b 15.756942
_cell_length_c 9.007014
_cell_angle_alpha 90.000000
_cell_angle_beta 90.000000
_cell_angle_gamma 90.000000
_cell_volume 2975.236104
_symmetry_space_group_name_H-M "P M M M"
_symmetry_group_IT_number 47
_symmetry_cell_setting 'orthorhombic'
loop_
_space_group_symop_operation_xyz
x,y,z
-x,-y,z
x,-y,-z
-x,y,-z
-x,-y,-z
x,y,-z
-x,y,z
x,-y,z
loop_
_atom_site_type_symbol
_atom_site_label
_atom_site_fract_x
_atom_site_fract_y
_atom_site_fract_z
Si Si1 0.818502 0.759103 0.336845
Si Si2 0.781840 0.908941 0.167126
Si Si3 0.704690 0.500000 0.179031
Si Si4 0.848875 0.500000 0.827302
Si Si5 0.311928 0.323749 0.677408
Si Si6 0.424598 0.000000 0.329978
Si Si7 0.640254 0.841356 0.828418
Si Si8 0.927766 0.364380 0.665012
O O1 0.795877 0.786138 0.500000
O O2 0.828674 0.842879 0.242155
O O3 0.761990 0.697131 0.277432
O O4 0.889387 0.722534 0.338705
O O5 0.710376 0.877665 0.179298
O O6 0.787409 0.000000 0.247262
O O7 0.804458 0.917313 0.000000
O O8 0.777789 0.500000 0.239860
O O9 0.671736 0.414692 0.245831
O O10 0.698730 0.500000 0.000000
O O11 0.889970 0.420060 0.780911
O O12 0.840467 0.500000 0.000000
O O13 0.321877 0.330869 0.500000
O O14 0.359032 0.250090 0.742960
O O15 0.403473 0.912653 0.249157
O O16 0.500000 0.000000 0.327375
O O17 0.398954 0.000000 0.500000
O O18 0.618374 0.828198 0.000000
O O19 0.927594 0.405808 0.500000
O O20 0.000000 0.349379 0.719799
#
# Coordination Sequence:
#
# PCOD8195753 Si02
#       8
#     8   8   4   4   8   4   8   8
#     4   9  18  30  45  68  91 118 159 204 252 305
#     4   9  17  30  48  71  97 125 156 196 247 301
#     4  11  21  32  48  73 103 139 174 213 266 319
#     4  11  22  32  45  66  94 123 159 205 250 305
#     4  10  19  32  51  74 102 136 173 219 266 312
#     4  11  23  37  55  83 119 155 188 219 250 291
#     4  10  19  34  53  77 109 143 178 215 258 310
#     4  10  20  34  49  63  86 122 162 204 252 309
#
# _framework density 17.477603999999999
#
# number of rings (size 3 to 8) (size 9 to 14) (size 15 to 20)
#    0.000    2.077    2.308    1.846    0.000    4.615 
#    0.000    0.000    0.000    0.462    0.000    3.769 
#    0.000    4.308    0.000    0.000    0.000    0.000 
#
# Total GULP energy -644328.180235 kJ/mol
# GULP energy per Si atom -12390.926543 kJ/mol
# Density = 1.743782 g / cm^3
# Si number density = 17.477604 Si / 1000 Ang^3
#
#
#
# Elastic Constant Matrix: (Units=GPa)
#
#
# Indices 1 2 3 4 5 6 
#
# 1 41.7227 25.8428 24.1023 0.0000 0.0000 0.0000
# 2 25.8428 146.5818 60.7893 0.0000 0.0000 0.0000
# 3 24.1023 60.7893 87.4928 0.0000 0.0000 0.0000
# 4 0.0000 0.0000 0.0000 34.6909 0.0000 0.0000
# 5 0.0000 0.0000 0.0000 0.0000 18.2925 0.0000
# 6 0.0000 0.0000 0.0000 0.0000 0.0000 27.9457
#
#
#
# Elastic Compliance Matrix: (Units=1/GPa)
#
#
# Indices 1 2 3 4 5 6 
#
# 1 0.029163 -0.002542 -0.006267 0.000000 0.000000 0.000000
# 2 -0.002542 0.009805 -0.006112 0.000000 0.000000 0.000000
# 3 -0.006267 -0.006112 0.017403 0.000000 0.000000 0.000000
# 4 0.000000 0.000000 0.000000 0.028826 0.000000 0.000000
# 5 0.000000 0.000000 0.000000 0.000000 0.054667 0.000000
# 6 0.000000 0.000000 0.000000 0.000000 0.000000 0.035784
#
#
# Mechanical properties :
#
#
# Convention : Reuss Voigt Hill
#
# Bulk Modulus (GPa) = 37.69731 55.25179 46.47455
# Shear Modulus (GPa) = 23.32810 27.19002 25.25906
#
# Velocity S-wave (km/s) = 3.65738 3.94852 3.80573
# Velocity P-wave (km/s) = 6.28100 7.24357 6.77939
#
# Compressibility (1/GPa) = 0.02652709
#
# Stress axis : x y z
#
# Youngs Moduli (GPa) = 34.29007 101.98720 57.46235
#
# Poissons Ratio (x) = 0.25929 0.36013
# Poissons Ratio (y) = 0.08718 0.35122
# Poissons Ratio (z) = 0.21491 0.62336
#
# Static dielectric constant tensor:
#      x y z
#    x 2.913300 0.000000 0.000000 
#    y 0.000000 6.431530 0.000000 
#    z 0.000000 0.000000 3.438100 
# 
# 
# High freq. dielectric constant tensor:
#      x y z
#    x 1.630910 0.000000 0.000000 
#    y 0.000000 1.681540 0.000000 
#    z 0.000000 0.000000 1.682390 
# 
# From -- ./inp_files/11114.got.cif
#   From: 2010.03.12/outbox.cif.g09.slc.cpg/sg47_6_cif.got.tgz:11114.got - 2010.04.14 03:12:58.
