data_PCOD8195193
_publ_section_title
;
Structure prediction by ZEFSAII (Michael W. Deem and Ramdas Pophale) SiO2 
 PCOD8195193
Probable space group: P M M M
;
_chemical_formula_sum "Si O2"
_cell_formula_units_Z 56
_cell_length_a 9.005877
_cell_length_b 18.837441
_cell_length_c 18.578865
_cell_angle_alpha 90.000000
_cell_angle_beta 90.000000
_cell_angle_gamma 90.000000
_cell_volume 3151.861282
_symmetry_space_group_name_H-M "P M M M"
_symmetry_group_IT_number 47
_symmetry_cell_setting 'orthorhombic'
loop_
_space_group_symop_operation_xyz
x,y,z
-x,-y,z
x,-y,-z
-x,y,-z
-x,-y,-z
x,y,-z
-x,y,z
x,-y,z
loop_
_atom_site_type_symbol
_atom_site_label
_atom_site_fract_x
_atom_site_fract_y
_atom_site_fract_z
Si Si1 0.827558 0.580140 0.859457
Si Si2 0.670927 0.420333 0.707632
Si Si3 0.674226 0.080681 0.716561
Si Si4 0.828202 0.708274 0.655378
Si Si5 0.670562 0.288650 0.918030
Si Si6 0.670884 0.830036 0.419272
Si Si7 0.172761 0.202042 0.797082
O O1 0.805258 0.500000 0.888609
O O2 0.762591 0.588206 0.780333
O O3 0.744961 0.633795 0.912521
O O4 0.000000 0.600986 0.855682
O O5 0.500000 0.401771 0.723258
O O6 0.687368 0.500000 0.676673
O O7 0.739039 0.365756 0.649874
O O8 0.500000 0.087096 0.731031
O O9 0.715421 0.108106 0.636469
O O10 0.758051 0.126059 0.777020
O O11 0.729559 0.000000 0.722484
O O12 0.769340 0.760323 0.593598
O O13 0.797099 0.742401 0.733321
O O14 0.000000 0.693335 0.641702
O O15 0.500000 0.294685 0.893860
O O16 0.751620 0.230792 0.869030
O O17 0.684734 0.262612 0.000000
O O18 0.700617 0.858328 0.500000
O O19 0.500000 0.808180 0.408367
O O20 0.000000 0.191359 0.811825
#
# Coordination Sequence:
#
# PCOD8195193 Si02
#       7
#     8   8   8   8   8   8   8
#     4  10  20  33  49  71 101 136 173 214 262 313
#     4  10  19  30  48  73  99 130 170 218 267 310
#     4   9  18  33  55  82 110 140 171 206 249 298
#     4  10  19  31  50  74 100 134 174 215 259 306
#     4  11  23  36  52  74 101 136 176 219 266 313
#     4   9  18  32  51  77 109 143 175 207 246 297
#     4  10  20  34  53  76 102 134 172 214 257 306
#
# _framework density 17.767278999999998
#
# number of rings (size 3 to 8) (size 9 to 14) (size 15 to 20)
#    0.000    2.143    1.429    2.143    0.000    5.143 
#    0.000    2.857    0.000    0.857    0.000   10.000 
#    0.000    0.000    0.000    0.000    0.000    0.000 
#
# Total GULP energy -694521.475995 kJ/mol
# GULP energy per Si atom -12402.169214 kJ/mol
# Density = 1.772684 g / cm^3
# Si number density = 17.767279 Si / 1000 Ang^3
#
#
#
# Elastic Constant Matrix: (Units=GPa)
#
#
# Indices 1 2 3 4 5 6 
#
# 1 101.7405 62.4763 41.0169 0.0000 0.0000 0.0000
# 2 62.4763 131.7575 50.1508 0.0000 0.0000 0.0000
# 3 41.0169 50.1508 71.6234 0.0000 0.0000 0.0000
# 4 0.0000 0.0000 0.0000 20.8992 0.0000 0.0000
# 5 0.0000 0.0000 0.0000 0.0000 19.4410 0.0000
# 6 0.0000 0.0000 0.0000 0.0000 0.0000 27.8691
#
#
#
# Elastic Compliance Matrix: (Units=1/GPa)
#
#
# Indices 1 2 3 4 5 6 
#
# 1 0.015047 -0.005256 -0.004937 0.000000 0.000000 0.000000
# 2 -0.005256 0.012183 -0.005521 0.000000 0.000000 0.000000
# 3 -0.004937 -0.005521 0.020655 0.000000 0.000000 0.000000
# 4 0.000000 0.000000 0.000000 0.047849 0.000000 0.000000
# 5 0.000000 0.000000 0.000000 0.000000 0.051438 0.000000
# 6 0.000000 0.000000 0.000000 0.000000 0.000000 0.035882
#
#
# Mechanical properties :
#
#
# Convention : Reuss Voigt Hill
#
# Bulk Modulus (GPa) = 60.76098 68.04550 64.40324
# Shear Modulus (GPa) = 22.73079 23.74034 23.23557
#
# Velocity S-wave (km/s) = 3.58070 3.65935 3.62024
# Velocity P-wave (km/s) = 7.16713 7.49905 7.33497
#
# Compressibility (1/GPa) = 0.01645793
#
# Stress axis : x y z
#
# Youngs Moduli (GPa) = 66.46038 82.08001 48.41470
#
# Poissons Ratio (x) = 0.43138 0.23901
# Poissons Ratio (y) = 0.34929 0.26730
# Poissons Ratio (z) = 0.32810 0.45316
#
# Static dielectric constant tensor:
#      x y z
#    x 3.405440 0.000000 0.000000 
#    y 0.000000 3.354220 0.000000 
#    z 0.000000 0.000000 3.012930 
# 
# 
# High freq. dielectric constant tensor:
#      x y z
#    x 1.700280 0.000000 0.000000 
#    y 0.000000 1.682520 0.000000 
#    z 0.000000 0.000000 1.657810 
# 
# From -- ./inp_files/28734.got.cif
#   From: 2010.03.12/outbox.cif.g09.slc.cpg/sg47_15_cif.got.tgz:28734.got - 2010.04.14 03:12:58.
