data_PCOD8195181
_publ_section_title
;
Structure prediction by ZEFSAII (Michael W. Deem and Ramdas Pophale) SiO2 
 PCOD8195181
Probable space group: P M M M
;
_chemical_formula_sum "Si O2"
_cell_formula_units_Z 40
_cell_length_a 18.810696
_cell_length_b 13.786502
_cell_length_c 9.044826
_cell_angle_alpha 90.000000
_cell_angle_beta 90.000000
_cell_angle_gamma 90.000000
_cell_volume 2345.628175
_symmetry_space_group_name_H-M "P M M M"
_symmetry_group_IT_number 47
_symmetry_cell_setting 'orthorhombic'
loop_
_space_group_symop_operation_xyz
x,y,z
-x,-y,z
x,-y,-z
-x,y,-z
-x,-y,-z
x,y,-z
-x,y,z
x,-y,z
loop_
_atom_site_type_symbol
_atom_site_label
_atom_site_fract_x
_atom_site_fract_y
_atom_site_fract_z
Si Si1 0.788739 0.393631 0.674330
Si Si2 0.164240 0.888430 0.170305
Si Si3 0.707316 0.792676 0.324850
Si Si4 0.919679 0.730854 0.327448
Si Si5 0.581613 0.110979 0.828713
O O1 0.785966 0.404124 0.500000
O O2 0.775483 0.500000 0.746822
O O3 0.728755 0.316658 0.725698
O O4 0.866758 0.355347 0.722160
O O5 0.237572 0.868483 0.255580
O O6 0.099190 0.827749 0.237931
O O7 0.143621 0.000000 0.189060
O O8 0.175266 0.859986 0.000000
O O9 0.710288 0.803320 0.500000
O O10 0.628623 0.816011 0.267851
O O11 0.909368 0.754414 0.500000
O O12 0.000000 0.698608 0.291143
O O13 0.500000 0.138319 0.798731
O O14 0.596149 0.000000 0.781035
O O15 0.600795 0.124491 0.000000
#
# Coordination Sequence:
#
# PCOD8195181 Si02
#       5
#     8   8   8   8   8
#     4   8  15  29  48  69  92 118 150 189 233 279
#     4  10  20  32  46  64  89 125 162 189 221 273
#     4  10  19  30  48  73  96 119 152 194 234 269
#     4   9  18  31  47  69  93 116 148 193 240 278
#     4   9  18  32  49  70  98 131 160 183 216 267
#
# _framework density 17.053000000000001
#
# number of rings (size 3 to 8) (size 9 to 14) (size 15 to 20)
#    0.000    2.800    0.000    3.600    0.000    6.000 
#    0.000    5.000    0.000   15.600    0.000    9.800 
#    0.000    0.000    0.000    0.000    0.000    0.000 
#
# Total GULP energy -495901.064694 kJ/mol
# GULP energy per Si atom -12397.526617 kJ/mol
# Density = 1.701419 g / cm^3
# Si number density = 17.053000 Si / 1000 Ang^3
#
#
#
# Elastic Constant Matrix: (Units=GPa)
#
#
# Indices 1 2 3 4 5 6 
#
# 1 111.4479 59.6992 39.2473 0.0000 0.0000 0.0000
# 2 59.6992 120.3258 40.9970 0.0000 0.0000 0.0000
# 3 39.2473 40.9970 62.1064 0.0000 0.0000 0.0000
# 4 0.0000 0.0000 0.0000 5.9869 0.0000 0.0000
# 5 0.0000 0.0000 0.0000 0.0000 27.3920 0.0000
# 6 0.0000 0.0000 0.0000 0.0000 0.0000 19.1579
#
#
#
# Elastic Compliance Matrix: (Units=1/GPa)
#
#
# Indices 1 2 3 4 5 6 
#
# 1 0.013440 -0.004870 -0.005279 0.000000 0.000000 0.000000
# 2 -0.004870 0.012487 -0.005165 0.000000 0.000000 0.000000
# 3 -0.005279 -0.005165 0.022847 0.000000 0.000000 0.000000
# 4 0.000000 0.000000 0.000000 0.167033 0.000000 0.000000
# 5 0.000000 0.000000 0.000000 0.000000 0.036507 0.000000
# 6 0.000000 0.000000 0.000000 0.000000 0.000000 0.052198
#
#
# Mechanical properties :
#
#
# Convention : Reuss Voigt Hill
#
# Bulk Modulus (GPa) = 55.10768 63.75192 59.42980
# Shear Modulus (GPa) = 14.65467 20.76979 17.71223
#
# Velocity S-wave (km/s) = 2.93466 3.49371 3.22632
# Velocity P-wave (km/s) = 6.62334 7.33078 6.98602
#
# Compressibility (1/GPa) = 0.01814629
#
# Stress axis : x y z
#
# Youngs Moduli (GPa) = 74.40253 80.08463 43.76948
#
# Poissons Ratio (x) = 0.39000 0.23105
# Poissons Ratio (y) = 0.36233 0.22608
# Poissons Ratio (z) = 0.39276 0.41366
#
# Static dielectric constant tensor:
#      x y z
#    x 3.163690 0.000000 0.000000 
#    y 0.000000 3.361580 0.000000 
#    z 0.000000 0.000000 3.073540 
# 
# 
# High freq. dielectric constant tensor:
#      x y z
#    x 1.652720 0.000000 0.000000 
#    y 0.000000 1.648080 0.000000 
#    z 0.000000 0.000000 1.644870 
# 
# From -- ./inp_files/3750.got.cif
#   From: 2010.03.12/outbox.cif.g09.slc.cpg/sg47_2_cif.got.tgz:3750.got - 2010.04.14 03:12:58.
