data_PCOD8195406
_publ_section_title
;
Structure prediction by ZEFSAII (Michael W. Deem and Ramdas Pophale) SiO2 
 PCOD8195406
Probable space group: P M M M
;
_chemical_formula_sum "Si O2"
_cell_formula_units_Z 52
_cell_length_a 9.076643
_cell_length_b 26.495595
_cell_length_c 12.202064
_cell_angle_alpha 90.000000
_cell_angle_beta 90.000000
_cell_angle_gamma 90.000000
_cell_volume 2934.487268
_symmetry_space_group_name_H-M "P M M M"
_symmetry_group_IT_number 47
_symmetry_cell_setting 'orthorhombic'
loop_
_space_group_symop_operation_xyz
x,y,z
-x,-y,z
x,-y,-z
-x,y,-z
-x,-y,-z
x,y,-z
-x,y,z
x,-y,z
loop_
_atom_site_type_symbol
_atom_site_label
_atom_site_fract_x
_atom_site_fract_y
_atom_site_fract_z
Si Si1 0.174800 0.726479 0.119616
Si Si2 0.671774 0.558441 0.123403
Si Si3 0.329463 0.213174 0.500000
Si Si4 0.173523 0.679227 0.500000
Si Si5 0.170415 0.059446 0.500000
Si Si6 0.827705 0.839781 0.874852
Si Si7 0.174366 0.361688 0.269893
Si Si8 0.673240 0.872816 0.331853
O O1 0.230038 0.782781 0.143884
O O2 0.238217 0.687405 0.207532
O O3 0.000000 0.727094 0.121789
O O4 0.230895 0.708998 0.000000
O O5 0.500000 0.569567 0.136035
O O6 0.706647 0.500000 0.143609
O O7 0.757173 0.588484 0.217377
O O8 0.723411 0.573664 0.000000
O O9 0.500000 0.227653 0.500000
O O10 0.240424 0.265009 0.500000
O O11 0.288758 0.180005 0.392795
O O12 0.222760 0.645767 0.604238
O O13 0.000000 0.688300 0.500000
O O14 0.247895 0.081070 0.392025
O O15 0.000000 0.075508 0.500000
O O16 0.190751 0.000000 0.500000
O O17 0.733112 0.873561 0.792238
O O18 0.000000 0.844842 0.847125
O O19 0.797617 0.856868 0.000000
O O20 0.000000 0.366061 0.257565
O O21 0.500000 0.882906 0.333103
#
# Coordination Sequence:
#
# PCOD8195406 Si02
#       8
#     8   8   4   4   4   8   8   8
#     4   8  14  25  43  68  96 126 162 204 243 278
#     4   9  19  36  55  73  92 114 146 193 246 296
#     4   9  19  33  48  71 102 136 174 209 240 285
#     4  10  21  33  47  71 102 135 166 198 236 277
#     4  10  21  37  58  81 101 126 167 216 260 303
#     4   9  17  30  49  73 103 141 180 210 240 289
#     4  10  19  31  48  71  98 126 159 197 238 286
#     4  10  20  33  51  77 108 138 168 208 258 302
#
# _framework density 17.720302
#
# number of rings (size 3 to 8) (size 9 to 14) (size 15 to 20)
#    0.000    2.692    0.000    3.923    0.000    5.846 
#    0.000    1.923    0.000    3.692    0.000    3.231 
#    0.000    0.000    0.000    0.000    0.000    0.000 
#
# Total GULP energy -644652.248265 kJ/mol
# GULP energy per Si atom -12397.158620 kJ/mol
# Density = 1.767997 g / cm^3
# Si number density = 17.720302 Si / 1000 Ang^3
#
#
#
# Elastic Constant Matrix: (Units=GPa)
#
#
# Indices 1 2 3 4 5 6 
#
# 1 66.0213 45.8294 56.2345 0.0000 0.0000 0.0000
# 2 45.8294 83.1752 63.1330 0.0000 0.0000 0.0000
# 3 56.2345 63.1330 151.9673 0.0000 0.0000 0.0000
# 4 0.0000 0.0000 0.0000 18.1421 0.0000 0.0000
# 5 0.0000 0.0000 0.0000 0.0000 23.5283 0.0000
# 6 0.0000 0.0000 0.0000 0.0000 0.0000 24.7396
#
#
#
# Elastic Compliance Matrix: (Units=1/GPa)
#
#
# Indices 1 2 3 4 5 6 
#
# 1 0.027512 -0.010854 -0.005671 0.000000 0.000000 0.000000
# 2 -0.010854 0.021842 -0.005058 0.000000 0.000000 0.000000
# 3 -0.005671 -0.005058 0.010780 0.000000 0.000000 0.000000
# 4 0.000000 0.000000 0.000000 0.055120 0.000000 0.000000
# 5 0.000000 0.000000 0.000000 0.000000 0.042502 0.000000
# 6 0.000000 0.000000 0.000000 0.000000 0.000000 0.040421
#
#
# Mechanical properties :
#
#
# Convention : Reuss Voigt Hill
#
# Bulk Modulus (GPa) = 58.93445 70.17307 64.55376
# Shear Modulus (GPa) = 20.24290 22.34646 21.29468
#
# Velocity S-wave (km/s) = 3.38354 3.55500 3.47033
# Velocity P-wave (km/s) = 6.97100 7.51911 7.25024
#
# Compressibility (1/GPa) = 0.01696800
#
# Stress axis : x y z
#
# Youngs Moduli (GPa) = 36.34802 45.78256 92.76342
#
# Poissons Ratio (x) = 0.49693 0.52609
# Poissons Ratio (y) = 0.39453 0.46916
# Poissons Ratio (z) = 0.20614 0.23155
#
# Static dielectric constant tensor:
#      x y z
#    x 3.056230 0.000000 0.000000 
#    y 0.000000 3.087470 0.000000 
#    z 0.000000 0.000000 3.488840 
# 
# 
# High freq. dielectric constant tensor:
#      x y z
#    x 1.668820 0.000000 0.000000 
#    y 0.000000 1.665100 0.000000 
#    z 0.000000 0.000000 1.693290 
# 
# From -- ./inp_files/15575.got.cif
#   From: 2010.03.12/outbox.cif.g09.slc.cpg/sg47_8_cif.got.tgz:15575.got - 2010.04.14 03:12:58.
