data_PCOD8195595
_publ_section_title
;
Structure prediction by ZEFSAII (Michael W. Deem and Ramdas Pophale) SiO2 
 PCOD8195595
Probable space group: P M M M
;
_chemical_formula_sum "Si O2"
_cell_formula_units_Z 48
_cell_length_a 35.843918
_cell_length_b 7.677547
_cell_length_c 9.499982
_cell_angle_alpha 90.000000
_cell_angle_beta 90.000000
_cell_angle_gamma 90.000000
_cell_volume 2614.332015
_symmetry_space_group_name_H-M "P M M M"
_symmetry_group_IT_number 47
_symmetry_cell_setting 'orthorhombic'
loop_
_space_group_symop_operation_xyz
x,y,z
-x,-y,z
x,-y,-z
-x,y,-z
-x,-y,-z
x,y,-z
-x,y,z
x,-y,z
loop_
_atom_site_type_symbol
_atom_site_label
_atom_site_fract_x
_atom_site_fract_y
_atom_site_fract_z
Si Si1 0.420580 0.300938 0.839289
Si Si2 0.353465 0.806634 0.340246
Si Si3 0.041489 0.000000 0.666754
Si Si4 0.167905 0.800602 0.837861
Si Si5 0.224871 0.500000 0.837060
Si Si6 0.904225 0.301424 0.335392
Si Si7 0.500000 0.795259 0.159559
Si Si8 0.699790 0.500000 0.666111
O O1 0.408304 0.500000 0.832341
O O2 0.390953 0.192451 0.750934
O O3 0.461904 0.277299 0.770805
O O4 0.420503 0.230672 0.000000
O O5 0.364469 0.757773 0.500000
O O6 0.322930 0.670542 0.284120
O O7 0.335938 0.000000 0.331101
O O8 0.062928 0.173844 0.717832
O O9 0.038497 0.000000 0.500000
O O10 0.000000 0.000000 0.733439
O O11 0.201907 0.673902 0.798737
O O12 0.133171 0.747999 0.743941
O O13 0.179964 0.000000 0.807753
O O14 0.156288 0.774436 0.000000
O O15 0.261174 0.500000 0.742972
O O16 0.236500 0.500000 0.000000
O O17 0.896453 0.273815 0.500000
O O18 0.916147 0.500000 0.302553
O O19 0.500000 0.000000 0.171357
O O20 0.500000 0.726468 0.000000
O O21 0.707159 0.500000 0.500000
#
# Coordination Sequence:
#
# PCOD8195595 Si02
#       8
#     8   8   4   8   4   8   4   4
#     4  10  19  32  53  80 108 141 181 222 266 315
#     4  10  21  38  59  80 106 142 181 218 263 318
#     4   9  18  32  49  75 113 149 183 229 277 315
#     4  10  20  35  56  81 109 143 177 214 267 324
#     4  10  22  38  56  82 112 138 172 217 267 324
#     4  10  19  31  52  80 107 140 184 227 268 317
#     4   9  17  29  46  73 110 143 174 219 269 312
#     4  10  22  40  58  79 109 141 174 216 266 319
#
# _framework density 18.360330999999999
#
# number of rings (size 3 to 8) (size 9 to 14) (size 15 to 20)
#    0.000    2.167    2.500    0.750    0.000    4.333 
#    0.000    2.083    0.000    3.500    0.000    1.167 
#    0.000    0.000    0.000    0.000    0.000    0.000 
#
# Total GULP energy -595176.931485 kJ/mol
# GULP energy per Si atom -12399.519406 kJ/mol
# Density = 1.831854 g / cm^3
# Si number density = 18.360331 Si / 1000 Ang^3
#
#
#
# Elastic Constant Matrix: (Units=GPa)
#
#
# Indices 1 2 3 4 5 6 
#
# 1 155.0088 74.5709 53.4977 0.0000 0.0000 0.0000
# 2 74.5709 147.7463 35.6973 0.0000 0.0000 0.0000
# 3 53.4977 35.6973 45.7353 0.0000 0.0000 0.0000
# 4 0.0000 0.0000 0.0000 20.9677 0.0000 0.0000
# 5 0.0000 0.0000 0.0000 0.0000 28.9999 0.0000
# 6 0.0000 0.0000 0.0000 0.0000 0.0000 22.1504
#
#
#
# Elastic Compliance Matrix: (Units=1/GPa)
#
#
# Indices 1 2 3 4 5 6 
#
# 1 0.011983 -0.003280 -0.011457 0.000000 0.000000 0.000000
# 2 -0.003280 0.009239 -0.003375 0.000000 0.000000 0.000000
# 3 -0.011457 -0.003375 0.037900 0.000000 0.000000 0.000000
# 4 0.000000 0.000000 0.000000 0.047693 0.000000 0.000000
# 5 0.000000 0.000000 0.000000 0.000000 0.034483 0.000000
# 6 0.000000 0.000000 0.000000 0.000000 0.000000 0.045146
#
#
# Mechanical properties :
#
#
# Convention : Reuss Voigt Hill
#
# Bulk Modulus (GPa) = 43.66894 75.11358 59.39126
# Shear Modulus (GPa) = 21.71072 26.73855 24.22463
#
# Velocity S-wave (km/s) = 3.44245 3.82032 3.63630
# Velocity P-wave (km/s) = 6.29577 7.77556 7.07446
#
# Compressibility (1/GPa) = 0.02289957
#
# Stress axis : x y z
#
# Youngs Moduli (GPa) = 83.44914 108.23395 26.38497
#
# Poissons Ratio (x) = 0.35502 0.30229
# Poissons Ratio (y) = 0.27372 0.08904
# Poissons Ratio (z) = 0.95608 0.36524
#
# Static dielectric constant tensor:
#      x y z
#    x 3.344380 0.000000 0.000000 
#    y 0.000000 3.779410 0.000000 
#    z 0.000000 0.000000 3.189150 
# 
# 
# High freq. dielectric constant tensor:
#      x y z
#    x 1.704810 0.000000 0.000000 
#    y 0.000000 1.732900 0.000000 
#    z 0.000000 0.000000 1.684100 
# 
# From -- ./inp_files/14014.got.cif
#   From: 2010.03.12/outbox.cif.g09.slc.cpg/sg47_8_cif.got.tgz:14014.got - 2010.04.14 03:12:58.
