data_PCOD8195515
_publ_section_title
;
Structure prediction by ZEFSAII (Michael W. Deem and Ramdas Pophale) SiO2 
 PCOD8195515
Probable space group: P M M M
;
_chemical_formula_sum "Si O2"
_cell_formula_units_Z 52
_cell_length_a 8.160455
_cell_length_b 27.510716
_cell_length_c 12.741158
_cell_angle_alpha 90.000000
_cell_angle_beta 90.000000
_cell_angle_gamma 90.000000
_cell_volume 2860.389461
_symmetry_space_group_name_H-M "P M M M"
_symmetry_group_IT_number 47
_symmetry_cell_setting 'orthorhombic'
loop_
_space_group_symop_operation_xyz
x,y,z
-x,-y,z
x,-y,-z
-x,y,-z
-x,-y,-z
x,y,-z
-x,y,z
x,-y,z
loop_
_atom_site_type_symbol
_atom_site_label
_atom_site_fract_x
_atom_site_fract_y
_atom_site_fract_z
Si Si1 0.191091 0.383778 0.619428
Si Si2 0.814664 0.115513 0.123055
Si Si3 0.191702 0.726331 0.379935
Si Si4 0.311880 0.785476 0.191043
Si Si5 0.311697 0.446778 0.196476
Si Si6 0.692033 0.282245 0.000000
Si Si7 0.813719 0.389240 0.000000
Si Si8 0.500000 0.945495 0.875425
O O1 0.230174 0.398212 0.500000
O O2 0.250900 0.328779 0.641450
O O3 0.283325 0.421680 0.692059
O O4 0.000000 0.387254 0.643373
O O5 0.798065 0.166464 0.183251
O O6 0.669441 0.079872 0.163859
O O7 0.000000 0.094857 0.145004
O O8 0.790019 0.125134 0.000000
O O9 0.229191 0.740830 0.500000
O O10 0.292013 0.762324 0.305666
O O11 0.000000 0.731192 0.355754
O O12 0.500000 0.800375 0.171743
O O13 0.254645 0.747330 0.103051
O O14 0.500000 0.456339 0.182008
O O15 0.223471 0.500000 0.191663
O O16 0.259376 0.411365 0.104604
O O17 0.500000 0.294235 0.000000
O O18 0.791661 0.331756 0.000000
O O19 0.000000 0.403420 0.000000
O O20 0.500000 0.000000 0.829301
O O21 0.500000 0.946683 0.000000
#
# Coordination Sequence:
#
# PCOD8195515 Si02
#       8
#     8   8   8   8   8   4   4   4
#     4   9  19  37  59  81 105 132 166 211 259 312
#     4  10  19  31  50  74 107 147 187 232 278 323
#     4   9  19  35  52  73 104 139 175 216 263 316
#     4  11  20  32  51  76 109 143 181 222 264 319
#     4  11  24  40  57  76 101 132 166 209 262 318
#     4  10  22  35  53  78 108 142 171 212 263 316
#     4  12  25  39  56  77 102 130 171 217 258 315
#     4   9  18  32  50  72 107 149 191 237 276 322
#
# _framework density 18.179342999999999
#
# number of rings (size 3 to 8) (size 9 to 14) (size 15 to 20)
#    0.000    1.923    1.538    3.692    0.000    7.692 
#    0.000    4.615    0.000    0.000    0.000    0.000 
#    0.000    1.231    0.000    3.231    0.000    0.154 
#
# Total GULP energy -644775.399473 kJ/mol
# GULP energy per Si atom -12399.526913 kJ/mol
# Density = 1.813797 g / cm^3
# Si number density = 18.179343 Si / 1000 Ang^3
#
#
#
# Elastic Constant Matrix: (Units=GPa)
#
#
# Indices 1 2 3 4 5 6 
#
# 1 84.1554 44.1954 26.7310 0.0000 0.0000 0.0000
# 2 44.1954 112.2907 41.1178 0.0000 0.0000 0.0000
# 3 26.7310 41.1178 80.1265 0.0000 0.0000 0.0000
# 4 0.0000 0.0000 0.0000 109.0133 0.0000 0.0000
# 5 0.0000 0.0000 0.0000 0.0000 26.7680 0.0000
# 6 0.0000 0.0000 0.0000 0.0000 0.0000 17.2266
#
#
#
# Elastic Compliance Matrix: (Units=1/GPa)
#
#
# Indices 1 2 3 4 5 6 
#
# 1 0.015373 -0.005138 -0.002492 0.000000 0.000000 0.000000
# 2 -0.005138 0.012683 -0.004795 0.000000 0.000000 0.000000
# 3 -0.002492 -0.004795 0.015772 0.000000 0.000000 0.000000
# 4 0.000000 0.000000 0.000000 0.009173 0.000000 0.000000
# 5 0.000000 0.000000 0.000000 0.000000 0.037358 0.000000
# 6 0.000000 0.000000 0.000000 0.000000 0.000000 0.058050
#
#
# Mechanical properties :
#
#
# Convention : Reuss Voigt Hill
#
# Bulk Modulus (GPa) = 52.68924 55.62900 54.15912
# Shear Modulus (GPa) = 27.84217 41.57012 34.70615
#
# Velocity S-wave (km/s) = 3.91772 4.78710 4.37406
# Velocity P-wave (km/s) = 7.03638 7.82443 7.44084
#
# Compressibility (1/GPa) = 0.01897921
#
# Stress axis : x y z
#
# Youngs Moduli (GPa) = 65.05120 78.84422 63.40375
#
# Poissons Ratio (x) = 0.40509 0.15799
# Poissons Ratio (y) = 0.33422 0.30399
# Poissons Ratio (z) = 0.16210 0.37802
#
# Static dielectric constant tensor:
#      x y z
#    x 3.380490 0.000000 0.000000 
#    y 0.000000 3.336940 0.000000 
#    z 0.000000 0.000000 3.225520 
# 
# 
# High freq. dielectric constant tensor:
#      x y z
#    x 1.709660 0.000000 0.000000 
#    y 0.000000 1.694110 0.000000 
#    z 0.000000 0.000000 1.685030 
# 
# From -- ./inp_files/15527.got.cif
#   From: 2010.03.12/outbox.cif.g09.slc.cpg/sg47_8_cif.got.tgz:15527.got - 2010.04.14 03:12:58.
