data_PCOD8195275
_publ_section_title
;
Structure prediction by ZEFSAII (Michael W. Deem and Ramdas Pophale) SiO2 
 PCOD8195275
Probable space group: P M M M
;
_chemical_formula_sum "Si O2"
_cell_formula_units_Z 52
_cell_length_a 30.390913
_cell_length_b 12.528173
_cell_length_c 8.966245
_cell_angle_alpha 90.000000
_cell_angle_beta 90.000000
_cell_angle_gamma 90.000000
_cell_volume 3413.831574
_symmetry_space_group_name_H-M "P M M M"
_symmetry_group_IT_number 47
_symmetry_cell_setting 'orthorhombic'
loop_
_space_group_symop_operation_xyz
x,y,z
-x,-y,z
x,-y,-z
-x,y,-z
-x,-y,-z
x,y,-z
-x,y,z
x,-y,z
loop_
_atom_site_type_symbol
_atom_site_label
_atom_site_fract_x
_atom_site_fract_y
_atom_site_fract_z
Si Si1 0.186327 0.625671 0.172626
Si Si2 0.052091 0.500000 0.170759
Si Si3 0.900023 0.305861 0.675950
Si Si4 0.274082 0.626899 0.666811
Si Si5 0.453408 0.380197 0.177338
Si Si6 0.050787 0.123169 0.829221
Si Si7 0.359339 0.627880 0.831750
O O1 0.179648 0.500000 0.198974
O O2 0.149593 0.687793 0.265195
O O3 0.233589 0.665149 0.231537
O O4 0.182603 0.655951 0.000000
O O5 0.069738 0.395168 0.249997
O O6 0.000000 0.500000 0.180496
O O7 0.068677 0.500000 0.000000
O O8 0.900311 0.321989 0.500000
O O9 0.919104 0.190652 0.718113
O O10 0.267544 0.670971 0.500000
O O11 0.276293 0.500000 0.667815
O O12 0.319811 0.673592 0.731169
O O13 0.500000 0.322466 0.226473
O O14 0.455573 0.500000 0.240496
O O15 0.406912 0.327721 0.230854
O O16 0.450801 0.383867 0.000000
O O17 0.000000 0.143469 0.789203
O O18 0.063072 0.000000 0.805726
O O19 0.059710 0.157618 0.000000
O O20 0.360630 0.500000 0.828167
O O21 0.350835 0.667607 0.000000
#
# Coordination Sequence:
#
# PCOD8195275 Si02
#       7
#     8   4   8   8   8   8   8
#     4  10  19  31  46  60  79 108 140 168 200 247
#     4  11  23  37  51  67  91 123 153 175 200 245
#     4  12  23  33  49  72  97 118 140 175 217 255
#     4   9  16  24  34  48  68  91 118 154 195 236
#     4   7   9  13  22  36  52  70  97 138 183 224
#     4   9  19  37  58  75  92 118 150 178 204 241
#     4   8  12  18  28  41  56  77 109 144 182 231
#
# _framework density 15.232151999999999
#
# number of rings (size 3 to 8) (size 9 to 14) (size 15 to 20)
#    0.000    2.692    0.769    4.846    0.000    5.538 
#    0.000    0.769    0.000    0.462    0.000    3.231 
#    0.000    0.000    0.000    0.000    0.000    0.000 
#
# Total GULP energy -644342.627693 kJ/mol
# GULP energy per Si atom -12391.204379 kJ/mol
# Density = 1.519748 g / cm^3
# Si number density = 15.232152 Si / 1000 Ang^3
#
#
#
# Elastic Constant Matrix: (Units=GPa)
#
#
# Indices 1 2 3 4 5 6 
#
# 1 136.8014 29.2642 60.0382 0.0000 0.0000 0.0000
# 2 29.2642 32.3518 23.1032 0.0000 0.0000 0.0000
# 3 60.0382 23.1032 100.4898 0.0000 0.0000 0.0000
# 4 0.0000 0.0000 0.0000 10.8288 0.0000 0.0000
# 5 0.0000 0.0000 0.0000 0.0000 8.9279 0.0000
# 6 0.0000 0.0000 0.0000 0.0000 0.0000 5.3538
#
#
#
# Elastic Compliance Matrix: (Units=1/GPa)
#
#
# Indices 1 2 3 4 5 6 
#
# 1 0.010859 -0.006209 -0.005060 0.000000 0.000000 0.000000
# 2 -0.006209 0.040532 -0.005609 0.000000 0.000000 0.000000
# 3 -0.005060 -0.005609 0.014264 0.000000 0.000000 0.000000
# 4 0.000000 0.000000 0.000000 0.092346 0.000000 0.000000
# 5 0.000000 0.000000 0.000000 0.000000 0.112009 0.000000
# 6 0.000000 0.000000 0.000000 0.000000 0.000000 0.186782
#
#
# Mechanical properties :
#
#
# Convention : Reuss Voigt Hill
#
# Bulk Modulus (GPa) = 31.34923 54.93936 43.14429
# Shear Modulus (GPa) = 9.97643 15.50460 12.74051
#
# Velocity S-wave (km/s) = 2.56199 3.19389 2.89523
# Velocity P-wave (km/s) = 5.42009 7.05320 6.28987
#
# Compressibility (1/GPa) = 0.03189871
#
# Stress axis : x y z
#
# Youngs Moduli (GPa) = 92.09092 24.67182 70.10618
#
# Poissons Ratio (x) = 0.15318 0.35475
# Poissons Ratio (y) = 0.57178 0.39323
# Poissons Ratio (z) = 0.46600 0.13839
#
# Static dielectric constant tensor:
#      x y z
#    x 3.377600 0.000000 0.000000 
#    y 0.000000 2.345990 0.000000 
#    z 0.000000 0.000000 2.915390 
# 
# 
# High freq. dielectric constant tensor:
#      x y z
#    x 1.607080 0.000000 0.000000 
#    y 0.000000 1.499430 0.000000 
#    z 0.000000 0.000000 1.579870 
# 
# From -- ./inp_files/14141.got.cif
#   From: 2010.03.12/outbox.cif.g09.slc.cpg/sg47_8_cif.got.tgz:14141.got - 2010.04.14 03:12:58.
