data_PCOD8195987
_publ_section_title
;
Structure prediction by ZEFSAII (Michael W. Deem and Ramdas Pophale) SiO2 
 PCOD8195987
Probable space group: P M M M
;
_chemical_formula_sum "Si O2"
_cell_formula_units_Z 40
_cell_length_a 9.091235
_cell_length_b 21.580511
_cell_length_c 10.936442
_cell_angle_alpha 90.000000
_cell_angle_beta 90.000000
_cell_angle_gamma 90.000000
_cell_volume 2145.658800
_symmetry_space_group_name_H-M "P M M M"
_symmetry_group_IT_number 47
_symmetry_cell_setting 'orthorhombic'
loop_
_space_group_symop_operation_xyz
x,y,z
-x,-y,z
x,-y,-z
-x,y,-z
-x,-y,-z
x,y,-z
-x,y,z
x,-y,z
loop_
_atom_site_type_symbol
_atom_site_label
_atom_site_fract_x
_atom_site_fract_y
_atom_site_fract_z
Si Si1 0.830276 0.200990 0.500000
Si Si2 0.673935 0.867462 0.718221
Si Si3 0.168995 0.347321 0.500000
Si Si4 0.325908 0.000000 0.637409
Si Si5 0.824199 0.645428 0.234157
Si Si6 0.834830 0.224233 0.139918
Si Si7 0.824684 0.570417 0.000000
O O1 0.750949 0.173457 0.383406
O O2 0.811048 0.274047 0.500000
O O3 0.000000 0.181275 0.500000
O O4 0.500000 0.863035 0.704896
O O5 0.730176 0.836042 0.843464
O O6 0.727037 0.938903 0.709930
O O7 0.235530 0.374223 0.370907
O O8 0.000000 0.366261 0.500000
O O9 0.500000 0.000000 0.626990
O O10 0.259303 0.000000 0.500000
O O11 0.773572 0.716272 0.212912
O O12 0.000000 0.642951 0.232102
O O13 0.762123 0.602191 0.124604
O O14 0.000000 0.207632 0.184512
O O15 0.835634 0.243965 0.000000
O O16 0.769058 0.500000 0.000000
O O17 0.000000 0.574627 0.000000
#
# Coordination Sequence:
#
# PCOD8195987 Si02
#       7
#     4   8   4   4   8   8   4
#     4  11  19  30  50  76 104 134 168 207 260 321
#     4  11  21  34  52  74 102 133 168 215 262 309
#     4   9  16  25  43  70  98 127 162 205 258 312
#     4   9  18  34  51  68  97 137 170 197 255 330
#     4   9  15  26  44  68  97 132 170 208 255 309
#     4  10  19  33  53  74  98 133 174 214 262 319
#     4   9  16  26  42  66  99 140 181 210 242 303
#
# _framework density 18.642294
#
# number of rings (size 3 to 8) (size 9 to 14) (size 15 to 20)
#    0.000    2.200    4.000    0.900    0.000    0.400 
#    0.000    3.500    0.000    6.000    0.000    0.000 
#    0.000    1.600    0.000    1.800    0.000    2.600 
#
# Total GULP energy -495586.798922 kJ/mol
# GULP energy per Si atom -12389.669973 kJ/mol
# Density = 1.859986 g / cm^3
# Si number density = 18.642294 Si / 1000 Ang^3
#
#
#
# Elastic Constant Matrix: (Units=GPa)
#
#
# Indices 1 2 3 4 5 6 
#
# 1 38.5804 22.3726 15.4985 0.0000 0.0000 0.0000
# 2 22.3726 104.7591 60.9481 0.0000 0.0000 0.0000
# 3 15.4985 60.9481 140.6354 0.0000 0.0000 0.0000
# 4 0.0000 0.0000 0.0000 66.6320 0.0000 0.0000
# 5 0.0000 0.0000 0.0000 0.0000 2.5375 0.0000
# 6 0.0000 0.0000 0.0000 0.0000 0.0000 4.8181
#
#
#
# Elastic Compliance Matrix: (Units=1/GPa)
#
#
# Indices 1 2 3 4 5 6 
#
# 1 0.029635 -0.005922 -0.000699 0.000000 0.000000 0.000000
# 2 -0.005922 0.013947 -0.005392 0.000000 0.000000 0.000000
# 3 -0.000699 -0.005392 0.009524 0.000000 0.000000 0.000000
# 4 0.000000 0.000000 0.000000 0.015008 0.000000 0.000000
# 5 0.000000 0.000000 0.000000 0.000000 0.394083 0.000000
# 6 0.000000 0.000000 0.000000 0.000000 0.000000 0.207549
#
#
# Mechanical properties :
#
#
# Convention : Reuss Voigt Hill
#
# Bulk Modulus (GPa) = 34.38762 53.51258 43.95010
# Shear Modulus (GPa) = 7.10766 27.14125 17.12445
#
# Velocity S-wave (km/s) = 1.95472 3.81976 3.03410
# Velocity P-wave (km/s) = 4.85599 6.94416 5.99174
#
# Compressibility (1/GPa) = 0.02908023
#
# Stress axis : x y z
#
# Youngs Moduli (GPa) = 33.74382 71.69815 104.99403
#
# Poissons Ratio (x) = 0.42460 0.07343
# Poissons Ratio (y) = 0.19983 0.56611
# Poissons Ratio (z) = 0.02360 0.38658
#
# Static dielectric constant tensor:
#      x y z
#    x 2.959530 0.000000 0.000000 
#    y 0.000000 3.485870 0.000000 
#    z 0.000000 0.000000 2.384250 
# 
# 
# High freq. dielectric constant tensor:
#      x y z
#    x 1.664050 0.000000 0.000000 
#    y 0.000000 1.711230 0.000000 
#    z 0.000000 0.000000 1.738320 
# 
# From -- ./inp_files/15153.got.cif
#   From: 2010.03.12/outbox.cif.g09.slc.cpg/sg47_8_cif.got.tgz:15153.got - 2010.04.14 03:12:58.
