data_PCOD8195981
_publ_section_title
;
Structure prediction by ZEFSAII (Michael W. Deem and Ramdas Pophale) SiO2 
 PCOD8195981
Probable space group: P M M M
;
_chemical_formula_sum "Si O2"
_cell_formula_units_Z 64
_cell_length_a 20.300953
_cell_length_b 17.896423
_cell_length_c 8.913926
_cell_angle_alpha 90.000000
_cell_angle_beta 90.000000
_cell_angle_gamma 90.000000
_cell_volume 3238.558052
_symmetry_space_group_name_H-M "P M M M"
_symmetry_group_IT_number 47
_symmetry_cell_setting 'orthorhombic'
loop_
_space_group_symop_operation_xyz
x,y,z
-x,-y,z
x,-y,-z
-x,y,-z
-x,-y,-z
x,y,-z
-x,y,z
x,-y,z
loop_
_atom_site_type_symbol
_atom_site_label
_atom_site_fract_x
_atom_site_fract_y
_atom_site_fract_z
Si Si1 0.576323 0.136852 0.822551
Si Si2 0.702063 0.084151 0.327969
Si Si3 0.928463 0.732115 0.173788
Si Si4 0.789508 0.209721 0.178335
Si Si5 0.102427 0.582972 0.673920
Si Si6 0.368589 0.583375 0.171672
Si Si7 0.244719 0.639579 0.673744
Si Si8 0.574777 0.715646 0.663876
O O1 0.500000 0.118508 0.776188
O O2 0.629324 0.081607 0.748401
O O3 0.602275 0.217600 0.766235
O O4 0.582986 0.133297 0.000000
O O5 0.694006 0.109845 0.500000
O O6 0.756038 0.136534 0.247981
O O7 0.729923 0.000000 0.317479
O O8 0.866675 0.781742 0.233696
O O9 0.934789 0.649608 0.243662
O O10 0.000000 0.771690 0.203716
O O11 0.915934 0.719099 0.000000
O O12 0.751433 0.282965 0.234869
O O13 0.784344 0.203254 0.000000
O O14 0.084790 0.589551 0.500000
O O15 0.081708 0.500000 0.732532
O O16 0.179556 0.592722 0.703416
O O17 0.397599 0.500000 0.183225
O O18 0.301721 0.586923 0.265355
O O19 0.420715 0.638660 0.246443
O O20 0.355833 0.606110 0.000000
O O21 0.254126 0.658749 0.500000
O O22 0.610796 0.712093 0.500000
O O23 0.500000 0.733693 0.633244
#
# Coordination Sequence:
#
# PCOD8195981 Si02
#       8
#     8   8   8   8   8   8   8   8
#     4  10  21  38  61  87 115 147 182 219 259 310
#     4  11  24  40  59  85 117 149 179 215 261 315
#     4   9  19  35  54  78 107 141 183 228 275 326
#     4  10  20  36  59  83 109 142 180 224 270 320
#     4   9  18  31  47  71 104 141 180 222 268 316
#     4  11  23  35  48  69  98 132 172 222 277 326
#     4  10  19  33  53  74 100 135 176 220 265 317
#     4  10  21  37  56  75  97 130 173 218 263 315
#
# _framework density 19.761882
#
# number of rings (size 3 to 8) (size 9 to 14) (size 15 to 20)
#    0.000    2.000    0.000    3.375    0.000    6.250 
#    0.000    3.750    0.000    0.375    0.000    2.625 
#    0.000    0.000    0.000    0.000    0.000    0.000 
#
# Total GULP energy -793183.566205 kJ/mol
# GULP energy per Si atom -12393.493222 kJ/mol
# Density = 1.971690 g / cm^3
# Si number density = 19.761882 Si / 1000 Ang^3
#
#
#
# Elastic Constant Matrix: (Units=GPa)
#
#
# Indices 1 2 3 4 5 6 
#
# 1 79.6120 32.5025 33.2762 0.0000 0.0000 0.0000
# 2 32.5025 93.6716 42.2863 0.0000 0.0000 0.0000
# 3 33.2762 42.2863 90.9230 0.0000 0.0000 0.0000
# 4 0.0000 0.0000 0.0000 28.0402 0.0000 0.0000
# 5 0.0000 0.0000 0.0000 0.0000 21.2536 0.0000
# 6 0.0000 0.0000 0.0000 0.0000 0.0000 11.4549
#
#
#
# Elastic Compliance Matrix: (Units=1/GPa)
#
#
# Indices 1 2 3 4 5 6 
#
# 1 0.015744 -0.003622 -0.004077 0.000000 0.000000 0.000000
# 2 -0.003622 0.014346 -0.005346 0.000000 0.000000 0.000000
# 3 -0.004077 -0.005346 0.014977 0.000000 0.000000 0.000000
# 4 0.000000 0.000000 0.000000 0.035663 0.000000 0.000000
# 5 0.000000 0.000000 0.000000 0.000000 0.047051 0.000000
# 6 0.000000 0.000000 0.000000 0.000000 0.000000 0.087299
#
#
# Mechanical properties :
#
#
# Convention : Reuss Voigt Hill
#
# Bulk Modulus (GPa) = 52.70073 53.37074 53.03573
# Shear Modulus (GPa) = 20.20228 22.55917 21.38073
#
# Velocity S-wave (km/s) = 3.20079 3.38235 3.29282
# Velocity P-wave (km/s) = 6.35498 6.50532 6.43059
#
# Compressibility (1/GPa) = 0.01897507
#
# Stress axis : x y z
#
# Youngs Moduli (GPa) = 63.51618 69.70617 66.76891
#
# Poissons Ratio (x) = 0.25249 0.27224
# Poissons Ratio (y) = 0.23007 0.35697
# Poissons Ratio (z) = 0.25898 0.37267
#
# Static dielectric constant tensor:
#      x y z
#    x 3.722270 0.000000 0.000000 
#    y 0.000000 3.601660 0.000000 
#    z 0.000000 0.000000 3.736780 
# 
# 
# High freq. dielectric constant tensor:
#      x y z
#    x 1.771490 0.000000 0.000000 
#    y 0.000000 1.750660 0.000000 
#    z 0.000000 0.000000 1.779130 
# 
# From -- ./inp_files/12774.got.cif
#   From: 2010.03.12/outbox.cif.g09.slc.cpg/sg47_7_cif.got.tgz:12774.got - 2010.04.14 03:12:58.
