data_PCOD8195050
_publ_section_title
;
Structure prediction by ZEFSAII (Michael W. Deem and Ramdas Pophale) SiO2 
 PCOD8195050
Probable space group: P M M M
;
_chemical_formula_sum "Si O2"
_cell_formula_units_Z 60
_cell_length_a 18.853399
_cell_length_b 21.015323
_cell_length_c 9.128776
_cell_angle_alpha 90.000000
_cell_angle_beta 90.000000
_cell_angle_gamma 90.000000
_cell_volume 3616.914800
_symmetry_space_group_name_H-M "P M M M"
_symmetry_group_IT_number 47
_symmetry_cell_setting 'orthorhombic'
loop_
_space_group_symop_operation_xyz
x,y,z
-x,-y,z
x,-y,-z
-x,y,-z
-x,-y,-z
x,y,-z
-x,y,z
x,-y,z
loop_
_atom_site_type_symbol
_atom_site_label
_atom_site_fract_x
_atom_site_fract_y
_atom_site_fract_z
Si Si1 0.918681 0.253387 0.168480
Si Si2 0.839083 0.875145 0.169947
Si Si3 0.719021 0.572437 0.172749
Si Si4 0.919860 0.000000 0.174275
Si Si5 0.423497 0.632750 0.826310
Si Si6 0.797533 0.317376 0.328220
Si Si7 0.715679 0.810157 0.327674
Si Si8 0.580170 0.777356 0.171136
O O1 0.894473 0.181407 0.196688
O O2 0.875796 0.301825 0.270283
O O3 0.000000 0.259104 0.214297
O O4 0.906208 0.272478 0.000000
O O5 0.766861 0.863614 0.259570
O O6 0.877197 0.938349 0.230207
O O7 0.818475 0.881602 0.000000
O O8 0.737080 0.500000 0.213081
O O9 0.639670 0.588107 0.231476
O O10 0.774429 0.617364 0.253009
O O11 0.724068 0.584810 0.000000
O O12 0.000000 0.000000 0.238687
O O13 0.924417 0.000000 0.000000
O O14 0.500000 0.607701 0.766975
O O15 0.411933 0.704912 0.773235
O O16 0.425409 0.632308 0.000000
O O17 0.800400 0.328210 0.500000
O O18 0.744704 0.259925 0.285081
O O19 0.712739 0.820555 0.500000
O O20 0.636961 0.819019 0.261124
O O21 0.500000 0.801821 0.202491
O O22 0.598043 0.783009 0.000000
#
# Coordination Sequence:
#
# PCOD8195050 Si02
#       8
#     8   8   8   4   8   8   8   8
#     4   9  17  30  50  74  96 119 150 189 231 273
#     4   9  17  29  48  73 101 132 161 191 226 268
#     4  10  19  30  47  68  89 118 156 194 233 281
#     4   9  16  28  49  77 106 133 164 197 227 266
#     4   8  14  25  42  65  91 117 148 188 232 276
#     4  10  20  32  46  65  91 123 154 190 234 277
#     4  10  19  30  45  67  95 127 164 200 233 274
#     4   9  16  27  46  69  92 121 156 197 245 288
#
# _framework density 16.588725
#
# number of rings (size 3 to 8) (size 9 to 14) (size 15 to 20)
#    0.000    2.733    1.333    2.000    0.000    3.733 
#    0.000    1.667    0.000    2.400    0.000    4.200 
#    0.000    3.733    0.000    0.000    0.000    0.000 
#
# Total GULP energy -743891.469458 kJ/mol
# GULP energy per Si atom -12398.191158 kJ/mol
# Density = 1.655097 g / cm^3
# Si number density = 16.588725 Si / 1000 Ang^3
#
#
#
# Elastic Constant Matrix: (Units=GPa)
#
#
# Indices 1 2 3 4 5 6 
#
# 1 137.4216 65.7453 52.4164 0.0000 0.0000 0.0000
# 2 65.7453 94.4922 37.7787 0.0000 0.0000 0.0000
# 3 52.4164 37.7787 51.7021 0.0000 0.0000 0.0000
# 4 0.0000 0.0000 0.0000 14.0533 0.0000 0.0000
# 5 0.0000 0.0000 0.0000 0.0000 14.6302 0.0000
# 6 0.0000 0.0000 0.0000 0.0000 0.0000 26.4692
#
#
#
# Elastic Compliance Matrix: (Units=1/GPa)
#
#
# Indices 1 2 3 4 5 6 
#
# 1 0.013695 -0.005619 -0.009778 0.000000 0.000000 0.000000
# 2 -0.005619 0.017256 -0.006912 0.000000 0.000000 0.000000
# 3 -0.009778 -0.006912 0.034306 0.000000 0.000000 0.000000
# 4 0.000000 0.000000 0.000000 0.071158 0.000000 0.000000
# 5 0.000000 0.000000 0.000000 0.000000 0.068352 0.000000
# 6 0.000000 0.000000 0.000000 0.000000 0.000000 0.037780
#
#
# Mechanical properties :
#
#
# Convention : Reuss Voigt Hill
#
# Bulk Modulus (GPa) = 48.45557 66.16630 57.31094
# Shear Modulus (GPa) = 17.00425 19.54222 18.27324
#
# Velocity S-wave (km/s) = 3.20511 3.43599 3.32255
# Velocity P-wave (km/s) = 6.55518 7.46420 7.02441
#
# Compressibility (1/GPa) = 0.02063746
#
# Stress axis : x y z
#
# Youngs Moduli (GPa) = 73.02016 57.95035 29.14977
#
# Poissons Ratio (x) = 0.32563 0.28503
# Poissons Ratio (y) = 0.41031 0.20149
# Poissons Ratio (z) = 0.71400 0.40057
#
# Static dielectric constant tensor:
#      x y z
#    x 3.300480 0.000000 0.000000 
#    y 0.000000 2.914800 0.000000 
#    z 0.000000 0.000000 2.864980 
# 
# 
# High freq. dielectric constant tensor:
#      x y z
#    x 1.645050 0.000000 0.000000 
#    y 0.000000 1.607260 0.000000 
#    z 0.000000 0.000000 1.617230 
# 
# From -- ./inp_files/10057.got.cif
#   From: 2010.03.12/outbox.cif.g09.slc.cpg/sg47_6_cif.got.tgz:10057.got - 2010.04.14 03:12:58.
