data_PCOD8195082
_publ_section_title
;
Structure prediction by ZEFSAII (Michael W. Deem and Ramdas Pophale) SiO2 
 PCOD8195082
Probable space group: P M M M
;
_chemical_formula_sum "Si O2"
_cell_formula_units_Z 40
_cell_length_a 16.172989
_cell_length_b 16.855651
_cell_length_c 9.737772
_cell_angle_alpha 90.000000
_cell_angle_beta 90.000000
_cell_angle_gamma 90.000000
_cell_volume 2654.577588
_symmetry_space_group_name_H-M "P M M M"
_symmetry_group_IT_number 47
_symmetry_cell_setting 'orthorhombic'
loop_
_space_group_symop_operation_xyz
x,y,z
-x,-y,z
x,-y,-z
-x,y,-z
-x,-y,-z
x,y,-z
-x,y,z
x,-y,z
loop_
_atom_site_type_symbol
_atom_site_label
_atom_site_fract_x
_atom_site_fract_y
_atom_site_fract_z
Si Si1 0.330375 0.857601 0.161365
Si Si2 0.401943 0.000000 0.339826
Si Si3 0.598036 0.586925 0.000000
Si Si4 0.000000 0.905526 0.343676
Si Si5 0.852146 0.091837 0.154797
Si Si6 0.598130 0.409893 0.500000
Si Si7 0.597957 0.692329 0.754171
O O1 0.231718 0.859453 0.173644
O O2 0.358497 0.776116 0.229424
O O3 0.370710 0.924337 0.256018
O O4 0.357505 0.865985 0.000000
O O5 0.500000 0.000000 0.339744
O O6 0.370389 0.000000 0.500000
O O7 0.629854 0.635345 0.872064
O O8 0.638777 0.500000 0.000000
O O9 0.500000 0.578911 0.000000
O O10 0.918970 0.874759 0.263120
O O11 0.000000 0.873151 0.500000
O O12 0.000000 0.000000 0.341123
O O13 0.831637 0.000000 0.183809
O O14 0.886994 0.102104 0.000000
O O15 0.635200 0.500000 0.500000
O O16 0.500000 0.418126 0.500000
O O17 0.629452 0.356590 0.375494
O O18 0.500000 0.706936 0.754340
#
# Coordination Sequence:
#
# PCOD8195082 Si02
#       7
#     8   4   4   4   8   4   8
#     4  11  21  35  50  68  93 125 164 203 239 277
#     4  11  25  37  47  62  87 128 173 211 242 271
#     4   9  16  28  46  67  89 114 151 197 239 282
#     4   9  17  29  47  71  91 111 146 189 236 281
#     4   9  17  31  48  66  89 121 156 190 231 283
#     4   9  18  32  48  65  89 122 157 195 243 296
#     4  10  19  30  46  68  92 122 161 199 238 281
#
# _framework density 15.068312000000001
#
# number of rings (size 3 to 8) (size 9 to 14) (size 15 to 20)
#    0.000    2.200    2.000    1.800    1.400    6.000 
#    0.000    0.000    0.000    0.000    0.000    0.000 
#    0.000    0.000    0.000    5.400    0.000    0.100 
#
# Total GULP energy -495734.639454 kJ/mol
# GULP energy per Si atom -12393.365986 kJ/mol
# Density = 1.503402 g / cm^3
# Si number density = 15.068312 Si / 1000 Ang^3
#
#
#
# Elastic Constant Matrix: (Units=GPa)
#
#
# Indices 1 2 3 4 5 6 
#
# 1 58.4545 33.4317 41.7773 0.0000 0.0000 0.0000
# 2 33.4317 128.9685 69.6974 0.0000 0.0000 0.0000
# 3 41.7773 69.6974 145.6109 0.0000 0.0000 0.0000
# 4 0.0000 0.0000 0.0000 35.4987 0.0000 0.0000
# 5 0.0000 0.0000 0.0000 0.0000 20.8182 0.0000
# 6 0.0000 0.0000 0.0000 0.0000 0.0000 -31.2053
#
#
#
# Elastic Compliance Matrix: (Units=1/GPa)
#
#
# Indices 1 2 3 4 5 6 
#
# 1 0.022431 -0.003152 -0.004927 0.000000 0.000000 0.000000
# 2 -0.003152 0.010902 -0.004314 0.000000 0.000000 0.000000
# 3 -0.004927 -0.004314 0.010346 0.000000 0.000000 0.000000
# 4 0.000000 0.000000 0.000000 0.028170 0.000000 0.000000
# 5 0.000000 0.000000 0.000000 0.000000 0.048035 0.000000
# 6 0.000000 0.000000 0.000000 0.000000 0.000000 -0.032046
#
#
# Mechanical properties :
#
#
# Convention : Reuss Voigt Hill
#
# Bulk Modulus (GPa) = 52.92814 69.20519 61.06667
# Shear Modulus (GPa) = 42.04389 17.56417 29.80403
#
# Velocity S-wave (km/s) = 5.28798 3.41784 4.45221
# Velocity P-wave (km/s) = 8.51384 7.84875 8.18805
#
# Compressibility (1/GPa) = 0.01889354
#
# Stress axis : x y z
#
# Youngs Moduli (GPa) = 44.58023 91.72322 96.65359
#
# Poissons Ratio (x) = 0.28912 0.47622
# Poissons Ratio (y) = 0.14052 0.41697
# Poissons Ratio (z) = 0.21965 0.39570
#
# Static dielectric constant tensor:
#      x y z
#    x 2.665490 0.000000 0.000000 
#    y 0.000000 2.742250 0.000000 
#    z 0.000000 0.000000 3.245330 
# 
# 
# High freq. dielectric constant tensor:
#      x y z
#    x 1.539680 0.000000 0.000000 
#    y 0.000000 1.561220 0.000000 
#    z 0.000000 0.000000 1.598180 
# 
# From -- ./inp_files/10845.got.cif
#   From: 2010.03.12/outbox.cif.g09.slc.cpg/sg47_6_cif.got.tgz:10845.got - 2010.04.14 03:12:58.
