data_PCOD8195620
_publ_section_title
;
Structure prediction by ZEFSAII (Michael W. Deem and Ramdas Pophale) SiO2 
 PCOD8195620
Probable space group: P M M M
;
_chemical_formula_sum "Si O2"
_cell_formula_units_Z 36
_cell_length_a 23.333566
_cell_length_b 12.753262
_cell_length_c 7.558195
_cell_angle_alpha 90.000000
_cell_angle_beta 90.000000
_cell_angle_gamma 90.000000
_cell_volume 2249.160719
_symmetry_space_group_name_H-M "P M M M"
_symmetry_group_IT_number 47
_symmetry_cell_setting 'orthorhombic'
loop_
_space_group_symop_operation_xyz
x,y,z
-x,-y,z
x,-y,-z
-x,y,-z
-x,-y,-z
x,y,-z
-x,y,z
x,-y,z
loop_
_atom_site_type_symbol
_atom_site_label
_atom_site_fract_x
_atom_site_fract_y
_atom_site_fract_z
Si Si1 0.140432 0.807197 0.210178
Si Si2 0.436174 0.875259 0.196255
Si Si3 0.775104 0.874492 0.500000
Si Si4 0.063017 0.000000 0.791778
Si Si5 0.063719 0.616680 0.790423
Si Si6 0.355406 0.875139 0.500000
O O1 0.197995 0.825766 0.321418
O O2 0.096545 0.897261 0.269191
O O3 0.111491 0.698628 0.274175
O O4 0.154467 0.809945 0.000000
O O5 0.500000 0.838179 0.253448
O O6 0.388469 0.829660 0.328754
O O7 0.434488 0.000000 0.198184
O O8 0.421755 0.833341 0.000000
O O9 0.709634 0.836017 0.500000
O O10 0.780888 0.000000 0.500000
O O11 0.000000 0.000000 0.703741
O O12 0.056506 0.000000 0.000000
O O13 0.081191 0.500000 0.725505
O O14 0.000000 0.645072 0.717459
O O15 0.060990 0.620944 0.000000
O O16 0.357301 0.000000 0.500000
#
# Coordination Sequence:
#
# PCOD8195620 Si02
#       6
#     8   8   4   4   8   4
#     4  10  19  32  47  62  85 113 140 178 221 261
#     4   8  13  22  37  57  77  97 129 174 218 252
#     4  11  22  33  41  57  84 116 158 187 205 247
#     4   9  16  27  45  63  78 105 139 170 214 262
#     4   8  14  27  49  72  88 104 131 173 229 285
#     4   9  17  26  37  51  74 108 141 177 212 241
#
# _framework density 16.005970999999999
#
# number of rings (size 3 to 8) (size 9 to 14) (size 15 to 20)
#    0.000    3.000    1.111    2.333    0.000    4.889 
#    0.000    5.556    0.000    1.333    0.000    0.000 
#    0.000    0.000    0.000    0.000    0.000    8.889 
#
# Total GULP energy -446129.212845 kJ/mol
# GULP energy per Si atom -12392.478135 kJ/mol
# Density = 1.596954 g / cm^3
# Si number density = 16.005971 Si / 1000 Ang^3
#
#
#
# Elastic Constant Matrix: (Units=GPa)
#
#
# Indices 1 2 3 4 5 6 
#
# 1 147.6472 43.1364 67.3698 0.0000 0.0000 0.0000
# 2 43.1364 71.0439 22.8553 0.0000 0.0000 0.0000
# 3 67.3698 22.8553 82.7131 0.0000 0.0000 0.0000
# 4 0.0000 0.0000 0.0000 4.8283 0.0000 0.0000
# 5 0.0000 0.0000 0.0000 0.0000 8.3173 0.0000
# 6 0.0000 0.0000 0.0000 0.0000 0.0000 11.2792
#
#
#
# Elastic Compliance Matrix: (Units=1/GPa)
#
#
# Indices 1 2 3 4 5 6 
#
# 1 0.011978 -0.004538 -0.008502 0.000000 0.000000 0.000000
# 2 -0.004538 0.017168 -0.001048 0.000000 0.000000 0.000000
# 3 -0.008502 -0.001048 0.019305 0.000000 0.000000 0.000000
# 4 0.000000 0.000000 0.000000 0.207112 0.000000 0.000000
# 5 0.000000 0.000000 0.000000 0.000000 0.120232 0.000000
# 6 0.000000 0.000000 0.000000 0.000000 0.000000 0.088659
#
#
# Mechanical properties :
#
#
# Convention : Reuss Voigt Hill
#
# Bulk Modulus (GPa) = 49.32179 63.12525 56.22352
# Shear Modulus (GPa) = 10.01226 16.08780 13.05003
#
# Velocity S-wave (km/s) = 2.50378 3.17379 2.85848
# Velocity P-wave (km/s) = 6.26419 7.27700 6.78951
#
# Compressibility (1/GPa) = 0.02027502
#
# Stress axis : x y z
#
# Youngs Moduli (GPa) = 83.48548 58.24754 51.80074
#
# Poissons Ratio (x) = 0.26430 0.44043
# Poissons Ratio (y) = 0.37882 0.05429
# Poissons Ratio (z) = 0.70982 0.06104
#
# Static dielectric constant tensor:
#      x y z
#    x 3.107190 0.000000 0.000000 
#    y 0.000000 2.864910 0.000000 
#    z 0.000000 0.000000 3.063450 
# 
# 
# High freq. dielectric constant tensor:
#      x y z
#    x 1.601310 0.000000 0.000000 
#    y 0.000000 1.563800 0.000000 
#    z 0.000000 0.000000 1.618090 
# 
# From -- ./inp_files/10613.got.cif
#   From: 2010.03.12/outbox.cif.g09.slc.cpg/sg47_6_cif.got.tgz:10613.got - 2010.04.14 03:12:58.
