data_PCOD8195436
_publ_section_title
;
Structure prediction by ZEFSAII (Michael W. Deem and Ramdas Pophale) SiO2 
 PCOD8195436
Probable space group: P M M M
;
_chemical_formula_sum "Si O2"
_cell_formula_units_Z 64
_cell_length_a 9.319957
_cell_length_b 19.940595
_cell_length_c 19.840205
_cell_angle_alpha 90.000000
_cell_angle_beta 90.000000
_cell_angle_gamma 90.000000
_cell_volume 3687.212579
_symmetry_space_group_name_H-M "P M M M"
_symmetry_group_IT_number 47
_symmetry_cell_setting 'orthorhombic'
loop_
_space_group_symop_operation_xyz
x,y,z
-x,-y,z
x,-y,-z
-x,y,-z
-x,-y,-z
x,y,-z
-x,y,z
x,-y,z
loop_
_atom_site_type_symbol
_atom_site_label
_atom_site_fract_x
_atom_site_fract_y
_atom_site_fract_z
Si Si1 0.831996 0.798109 0.248871
Si Si2 0.333805 0.389386 0.574641
Si Si3 0.838812 0.574029 0.300476
Si Si4 0.336785 0.896159 0.571973
Si Si5 0.333762 0.424344 0.921392
Si Si6 0.168008 0.335644 0.819480
Si Si7 0.338616 0.245180 0.375603
Si Si8 0.669021 0.074355 0.718785
O O1 0.803804 0.744622 0.188193
O O2 0.775809 0.762892 0.316182
O O3 0.750043 0.869159 0.236653
O O4 0.000000 0.813400 0.256029
O O5 0.283278 0.411500 0.500000
O O6 0.500000 0.405965 0.584407
O O7 0.248934 0.429972 0.630613
O O8 0.302010 0.310752 0.582266
O O9 0.834979 0.500000 0.267702
O O10 0.771987 0.626202 0.247020
O O11 0.000000 0.596288 0.318389
O O12 0.265098 0.919931 0.500000
O O13 0.500000 0.920907 0.570643
O O14 0.326009 0.815977 0.572711
O O15 0.269239 0.925056 0.641487
O O16 0.500000 0.415595 0.903421
O O17 0.284123 0.500000 0.901017
O O18 0.247003 0.365869 0.883991
O O19 0.306317 0.413208 0.000000
O O20 0.000000 0.350762 0.827573
O O21 0.500000 0.248047 0.344642
O O22 0.500000 0.092093 0.718754
O O23 0.696906 0.000000 0.749158
#
# Coordination Sequence:
#
# PCOD8195436 Si02
#       8
#     8   8   8   8   8   8   8   8
#     4  10  19  31  49  71  95 122 159 205 248 288
#     4  10  20  32  47  66  87 113 152 207 264 312
#     4  10  21  36  50  65  90 124 162 204 250 301
#     4   8  13  22  39  62  84 107 142 188 236 290
#     4   9  19  35  54  80 114 146 173 202 240 288
#     4  10  20  34  53  76 101 132 172 211 244 286
#     4   9  16  28  45  64  86 113 148 193 248 305
#     4   9  18  31  46  66  93 125 160 198 245 303
#
# _framework density 17.357285000000001
#
# number of rings (size 3 to 8) (size 9 to 14) (size 15 to 20)
#    0.000    2.625    1.250    2.250    0.000    5.250 
#    0.000    3.125    0.000    9.000    0.000    3.500 
#    0.000    0.500    0.000    5.500    0.000    4.000 
#
# Total GULP energy -793017.806667 kJ/mol
# GULP energy per Si atom -12390.903229 kJ/mol
# Density = 1.731778 g / cm^3
# Si number density = 17.357285 Si / 1000 Ang^3
#
#
#
# Elastic Constant Matrix: (Units=GPa)
#
#
# Indices 1 2 3 4 5 6 
#
# 1 59.7379 41.3567 34.1021 0.0000 0.0000 0.0000
# 2 41.3567 109.9877 36.9742 0.0000 0.0000 0.0000
# 3 34.1021 36.9742 61.5769 0.0000 0.0000 0.0000
# 4 0.0000 0.0000 0.0000 14.7030 0.0000 0.0000
# 5 0.0000 0.0000 0.0000 0.0000 19.7879 0.0000
# 6 0.0000 0.0000 0.0000 0.0000 0.0000 24.2980
#
#
#
# Elastic Compliance Matrix: (Units=1/GPa)
#
#
# Indices 1 2 3 4 5 6 
#
# 1 0.027866 -0.006628 -0.011453 0.000000 0.000000 0.000000
# 2 -0.006628 0.012968 -0.004116 0.000000 0.000000 0.000000
# 3 -0.011453 -0.004116 0.025054 0.000000 0.000000 0.000000
# 4 0.000000 0.000000 0.000000 0.068014 0.000000 0.000000
# 5 0.000000 0.000000 0.000000 0.000000 0.050536 0.000000
# 6 0.000000 0.000000 0.000000 0.000000 0.000000 0.041156
#
#
# Mechanical properties :
#
#
# Convention : Reuss Voigt Hill
#
# Bulk Modulus (GPa) = 46.52345 50.68537 48.60441
# Shear Modulus (GPa) = 18.04066 19.68243 18.86154
#
# Velocity S-wave (km/s) = 3.22743 3.37108 3.30004
# Velocity P-wave (km/s) = 6.38357 6.66460 6.52560
#
# Compressibility (1/GPa) = 0.02149454
#
# Stress axis : x y z
#
# Youngs Moduli (GPa) = 35.88552 77.11432 39.91371
#
# Poissons Ratio (x) = 0.51111 0.45713
# Poissons Ratio (y) = 0.23785 0.16428
# Poissons Ratio (z) = 0.41099 0.31739
#
# Static dielectric constant tensor:
#      x y z
#    x 3.052010 0.000000 0.000000 
#    y 0.000000 3.343010 0.000000 
#    z 0.000000 0.000000 2.916100 
# 
# 
# High freq. dielectric constant tensor:
#      x y z
#    x 1.649040 0.000000 0.000000 
#    y 0.000000 1.678230 0.000000 
#    z 0.000000 0.000000 1.627880 
# 
# From -- ./inp_files/27047.got.cif
#   From: 2010.03.12/outbox.cif.g09.slc.cpg/sg47_14_cif.got.tgz:27047.got - 2010.04.14 03:12:58.
