data_PCOD8195484
_publ_section_title
;
Structure prediction by ZEFSAII (Michael W. Deem and Ramdas Pophale) SiO2 
 PCOD8195484
Probable space group: P M M M
;
_chemical_formula_sum "Si O2"
_cell_formula_units_Z 52
_cell_length_a 22.923994
_cell_length_b 9.632696
_cell_length_c 14.170491
_cell_angle_alpha 90.000000
_cell_angle_beta 90.000000
_cell_angle_gamma 90.000000
_cell_volume 3129.125914
_symmetry_space_group_name_H-M "P M M M"
_symmetry_group_IT_number 47
_symmetry_cell_setting 'orthorhombic'
loop_
_space_group_symop_operation_xyz
x,y,z
-x,-y,z
x,-y,-z
-x,y,-z
-x,-y,-z
x,y,-z
-x,y,z
x,-y,z
loop_
_atom_site_type_symbol
_atom_site_label
_atom_site_fract_x
_atom_site_fract_y
_atom_site_fract_z
Si Si1 0.832108 0.659028 0.895212
Si Si2 0.000000 0.335131 0.606909
Si Si3 0.279267 0.841259 0.105048
Si Si4 0.219657 0.159722 0.389162
Si Si5 0.118037 0.661826 0.701405
Si Si6 0.339437 0.159901 0.708505
Si Si7 0.567132 0.339494 0.392346
O O1 0.811438 0.500000 0.893018
O O2 0.776273 0.749559 0.869016
O O3 0.881032 0.685189 0.815066
O O4 0.856652 0.697356 0.000000
O O5 0.943107 0.280001 0.661927
O O6 0.000000 0.500000 0.606210
O O7 0.000000 0.276779 0.500000
O O8 0.330620 0.813015 0.179707
O O9 0.258124 0.000000 0.112897
O O10 0.302867 0.806946 0.000000
O O11 0.222689 0.182479 0.500000
O O12 0.169598 0.255576 0.347697
O O13 0.281372 0.206869 0.346386
O O14 0.206452 0.000000 0.362496
O O15 0.125878 0.500000 0.676002
O O16 0.394132 0.249731 0.677531
O O17 0.353616 0.000000 0.686611
O O18 0.580026 0.295805 0.500000
O O19 0.500000 0.310728 0.367374
O O20 0.582471 0.500000 0.377309
#
# Coordination Sequence:
#
# PCOD8195484 Si02
#       7
#     8   4   8   8   8   8   8
#     4   9  17  29  46  70  97 121 151 196 245 289
#     4   9  18  32  48  66  90 123 165 207 240 279
#     4   9  17  30  49  72  98 128 159 191 234 288
#     4  10  20  32  46  69 101 127 151 195 248 288
#     4  10  19  32  50  69  91 124 164 200 237 288
#     4  10  19  31  49  74 101 126 158 198 242 288
#     4   9  19  35  52  71  98 132 168 203 237 278
#
# _framework density 16.618058999999999
#
# number of rings (size 3 to 8) (size 9 to 14) (size 15 to 20)
#    0.000    2.538    1.538    1.385    0.000    3.385 
#    0.000    1.538    0.000    4.154    0.000    3.231 
#    0.000    3.692    0.000    0.000    0.000    0.000 
#
# Total GULP energy -644706.243974 kJ/mol
# GULP energy per Si atom -12398.197000 kJ/mol
# Density = 1.658024 g / cm^3
# Si number density = 16.618059 Si / 1000 Ang^3
#
#
#
# Elastic Constant Matrix: (Units=GPa)
#
#
# Indices 1 2 3 4 5 6 
#
# 1 105.9631 49.1711 68.2265 0.0000 0.0000 0.0000
# 2 49.1711 51.9202 43.4623 0.0000 0.0000 0.0000
# 3 68.2265 43.4623 120.1793 0.0000 0.0000 0.0000
# 4 0.0000 0.0000 0.0000 23.7765 0.0000 0.0000
# 5 0.0000 0.0000 0.0000 0.0000 26.5539 0.0000
# 6 0.0000 0.0000 0.0000 0.0000 0.0000 -33.2239
#
#
#
# Elastic Compliance Matrix: (Units=1/GPa)
#
#
# Indices 1 2 3 4 5 6 
#
# 1 0.019742 -0.013359 -0.006376 0.000000 0.000000 0.000000
# 2 -0.013359 0.036662 -0.005675 0.000000 0.000000 0.000000
# 3 -0.006376 -0.005675 0.013993 0.000000 0.000000 0.000000
# 4 0.000000 0.000000 0.000000 0.042058 0.000000 0.000000
# 5 0.000000 0.000000 0.000000 0.000000 0.037659 0.000000
# 6 0.000000 0.000000 0.000000 0.000000 0.000000 -0.030099
#
#
# Mechanical properties :
#
#
# Convention : Reuss Voigt Hill
#
# Bulk Modulus (GPa) = 51.08033 66.64249 58.86141
# Shear Modulus (GPa) = 28.19096 11.23482 19.71289
#
# Velocity S-wave (km/s) = 4.12321 2.60294 3.44791
# Velocity P-wave (km/s) = 7.31248 7.01593 7.16574
#
# Compressibility (1/GPa) = 0.01957701
#
# Stress axis : x y z
#
# Youngs Moduli (GPa) = 50.65383 27.27602 71.46378
#
# Poissons Ratio (x) = 0.36438 0.45568
# Poissons Ratio (y) = 0.67668 0.40555
# Poissons Ratio (z) = 0.32299 0.15479
#
# Static dielectric constant tensor:
#      x y z
#    x 2.953540 0.000000 0.000000 
#    y 0.000000 3.067350 0.000000 
#    z 0.000000 0.000000 3.455630 
# 
# 
# High freq. dielectric constant tensor:
#      x y z
#    x 1.615340 0.000000 0.000000 
#    y 0.000000 1.633360 0.000000 
#    z 0.000000 0.000000 1.655560 
# 
# From -- ./inp_files/7024.got.cif
#   From: 2010.03.12/outbox.cif.g09.slc.cpg/sg47_4_cif.got.tgz:7024.got - 2010.04.14 03:12:58.
