data_PCOD8195279
_publ_section_title
;
Structure prediction by ZEFSAII (Michael W. Deem and Ramdas Pophale) SiO2 
 PCOD8195279
Probable space group: P M M M
;
_chemical_formula_sum "Si O2"
_cell_formula_units_Z 40
_cell_length_a 12.555619
_cell_length_b 8.897682
_cell_length_c 22.087868
_cell_angle_alpha 90.000000
_cell_angle_beta 90.000000
_cell_angle_gamma 90.000000
_cell_volume 2467.566167
_symmetry_space_group_name_H-M "P M M M"
_symmetry_group_IT_number 47
_symmetry_cell_setting 'orthorhombic'
loop_
_space_group_symop_operation_xyz
x,y,z
-x,-y,z
x,-y,-z
-x,y,-z
-x,-y,-z
x,y,-z
-x,y,z
x,-y,z
loop_
_atom_site_type_symbol
_atom_site_label
_atom_site_fract_x
_atom_site_fract_y
_atom_site_fract_z
Si Si1 0.377219 0.827708 0.930184
Si Si2 0.872881 0.830365 0.500000
Si Si3 0.194216 0.323136 0.138242
Si Si4 0.873372 0.330991 0.619835
Si Si5 0.875033 0.825191 0.257795
Si Si6 0.000000 0.827852 0.928359
O O1 0.500000 0.803738 0.912967
O O2 0.309151 0.717205 0.888555
O O3 0.343057 0.000000 0.918487
O O4 0.357400 0.786118 0.000000
O O5 0.827865 0.747020 0.440583
O O6 0.000000 0.828699 0.500000
O O7 0.829702 0.000000 0.500000
O O8 0.177398 0.500000 0.139273
O O9 0.188892 0.261200 0.206125
O O10 0.104823 0.250603 0.096279
O O11 0.828445 0.500000 0.623738
O O12 0.834823 0.237819 0.678000
O O13 0.000000 0.332258 0.617192
O O14 0.000000 0.795031 0.248092
O O15 0.847664 0.000000 0.255022
O O16 0.000000 0.000000 0.906085
O O17 0.000000 0.815666 0.000000
#
# Coordination Sequence:
#
# PCOD8195279 Si02
#       6
#     8   4   8   8   8   4
#     4   9  19  37  58  75  92 119 155 192 233 285
#     4   9  15  23  35  53  77 109 152 191 226 269
#     4  12  23  33  49  72  98 123 152 193 240 284
#     4   9  16  25  38  56  81 111 148 193 236 270
#     4  10  19  31  46  62  86 122 160 192 228 279
#     4  11  23  37  51  67  91 124 159 192 229 279
#
# _framework density 16.210304000000001
#
# number of rings (size 3 to 8) (size 9 to 14) (size 15 to 20)
#    0.000    2.000    1.000    4.800    0.000    8.400 
#    0.000    1.000    0.000    0.000    0.000    0.000 
#    0.000    0.000    0.000    0.900    0.000   16.700 
#
# Total GULP energy -496107.015849 kJ/mol
# GULP energy per Si atom -12402.675396 kJ/mol
# Density = 1.617341 g / cm^3
# Si number density = 16.210304 Si / 1000 Ang^3
#
#
#
# Elastic Constant Matrix: (Units=GPa)
#
#
# Indices 1 2 3 4 5 6 
#
# 1 47.2580 34.3978 37.9367 0.0000 0.0000 0.0000
# 2 34.3978 144.1924 73.1851 0.0000 0.0000 0.0000
# 3 37.9367 73.1851 128.7091 0.0000 0.0000 0.0000
# 4 0.0000 0.0000 0.0000 25.3463 0.0000 0.0000
# 5 0.0000 0.0000 0.0000 0.0000 6.1140 0.0000
# 6 0.0000 0.0000 0.0000 0.0000 0.0000 14.6481
#
#
#
# Elastic Compliance Matrix: (Units=1/GPa)
#
#
# Indices 1 2 3 4 5 6 
#
# 1 0.029009 -0.003627 -0.006488 0.000000 0.000000 0.000000
# 2 -0.003627 0.010202 -0.004732 0.000000 0.000000 0.000000
# 3 -0.006488 -0.004732 0.012372 0.000000 0.000000 0.000000
# 4 0.000000 0.000000 0.000000 0.039453 0.000000 0.000000
# 5 0.000000 0.000000 0.000000 0.000000 0.163559 0.000000
# 6 0.000000 0.000000 0.000000 0.000000 0.000000 0.068268
#
#
# Mechanical properties :
#
#
# Convention : Reuss Voigt Hill
#
# Bulk Modulus (GPa) = 45.68438 67.91095 56.79766
# Shear Modulus (GPa) = 13.89451 20.86435 17.37943
#
# Velocity S-wave (km/s) = 2.93087 3.59152 3.27788
# Velocity P-wave (km/s) = 6.30054 7.69307 7.03136
#
# Compressibility (1/GPa) = 0.02188932
#
# Stress axis : x y z
#
# Youngs Moduli (GPa) = 34.47240 98.01830 80.82576
#
# Poissons Ratio (x) = 0.35554 0.52437
# Poissons Ratio (y) = 0.12504 0.38246
# Poissons Ratio (z) = 0.22365 0.46381
#
# Static dielectric constant tensor:
#      x y z
#    x 2.614320 0.000000 0.000000 
#    y 0.000000 3.222100 0.000000 
#    z 0.000000 0.000000 3.215040 
# 
# 
# High freq. dielectric constant tensor:
#      x y z
#    x 1.560870 0.000000 0.000000 
#    y 0.000000 1.640310 0.000000 
#    z 0.000000 0.000000 1.635050 
# 
# From -- ./inp_files/4067.got.cif
#   From: 2010.03.12/outbox.cif.g09.slc.cpg/sg47_3_cif.got.tgz:4067.got - 2010.04.14 03:12:58.
