data_PCOD8195856
_publ_section_title
;
Structure prediction by ZEFSAII (Michael W. Deem and Ramdas Pophale) SiO2 
 PCOD8195856
Probable space group: P M M M
;
_chemical_formula_sum "Si O2"
_cell_formula_units_Z 48
_cell_length_a 17.264272
_cell_length_b 16.014621
_cell_length_c 8.849380
_cell_angle_alpha 90.000000
_cell_angle_beta 90.000000
_cell_angle_gamma 90.000000
_cell_volume 2446.683422
_symmetry_space_group_name_H-M "P M M M"
_symmetry_group_IT_number 47
_symmetry_cell_setting 'orthorhombic'
loop_
_space_group_symop_operation_xyz
x,y,z
-x,-y,z
x,-y,-z
-x,y,-z
-x,-y,-z
x,y,-z
-x,y,z
x,-y,z
loop_
_atom_site_type_symbol
_atom_site_label
_atom_site_fract_x
_atom_site_fract_y
_atom_site_fract_z
Si Si1 0.412937 0.910775 0.179380
Si Si2 0.302636 0.403747 0.323412
Si Si3 0.592161 0.729233 0.173514
Si Si4 0.154752 0.677277 0.820823
Si Si5 0.000000 0.591672 0.820338
Si Si6 0.091451 0.000000 0.168110
Si Si7 0.089064 0.168306 0.321525
O O1 0.500000 0.913785 0.242778
O O2 0.376171 0.821263 0.231313
O O3 0.372015 0.000000 0.230445
O O4 0.415272 0.907278 0.000000
O O5 0.287363 0.393028 0.500000
O O6 0.322547 0.500000 0.283110
O O7 0.373305 0.344485 0.274998
O O8 0.226481 0.376662 0.234304
O O9 0.500000 0.726436 0.189056
O O10 0.617551 0.714325 0.000000
O O11 0.076648 0.635284 0.758822
O O12 0.151753 0.769004 0.749741
O O13 0.157828 0.683743 0.000000
O O14 0.000000 0.500000 0.751183
O O15 0.000000 0.590498 0.000000
O O16 0.118928 0.920124 0.261408
O O17 0.000000 0.000000 0.154360
O O18 0.128500 0.000000 0.000000
O O19 0.094672 0.170084 0.500000
O O20 0.000000 0.186575 0.268729
#
# Coordination Sequence:
#
# PCOD8195856 Si02
#       7
#     8   8   8   8   4   4   8
#     4   7  10  20  44  80 116 143 169 209 263 320
#     4  11  25  42  57  77 110 151 191 233 287 347
#     4   9  18  34  59  89 115 143 185 233 278 330
#     4  11  21  36  59  83 110 142 184 235 285 336
#     4   9  18  32  53  82 109 132 167 221 282 337
#     4   9  17  29  49  77 109 145 192 237 274 321
#     4  10  19  32  52  80 115 150 184 225 280 338
#
# _framework density 19.618395
#
# number of rings (size 3 to 8) (size 9 to 14) (size 15 to 20)
#    0.000    2.500    0.833    3.750    0.000    4.333 
#    0.000    1.667    1.833    2.500    0.000    2.333 
#    0.000    0.000    0.000    0.000    0.000    0.000 
#
# Total GULP energy -594722.343318 kJ/mol
# GULP energy per Si atom -12390.048819 kJ/mol
# Density = 1.957374 g / cm^3
# Si number density = 19.618395 Si / 1000 Ang^3
#
#
#
# Elastic Constant Matrix: (Units=GPa)
#
#
# Indices 1 2 3 4 5 6 
#
# 1 49.7078 40.8456 19.4568 0.0000 0.0000 0.0000
# 2 40.8456 188.5736 51.9708 0.0000 0.0000 0.0000
# 3 19.4568 51.9708 76.2995 0.0000 0.0000 0.0000
# 4 0.0000 0.0000 0.0000 28.5042 0.0000 0.0000
# 5 0.0000 0.0000 0.0000 0.0000 22.4170 0.0000
# 6 0.0000 0.0000 0.0000 0.0000 0.0000 34.1878
#
#
#
# Elastic Compliance Matrix: (Units=1/GPa)
#
#
# Indices 1 2 3 4 5 6 
#
# 1 0.025141 -0.004529 -0.003326 0.000000 0.000000 0.000000
# 2 -0.004529 0.007344 -0.003848 0.000000 0.000000 0.000000
# 3 -0.003326 -0.003848 0.016575 0.000000 0.000000 0.000000
# 4 0.000000 0.000000 0.000000 0.035083 0.000000 0.000000
# 5 0.000000 0.000000 0.000000 0.000000 0.044609 0.000000
# 6 0.000000 0.000000 0.000000 0.000000 0.000000 0.029250
#
#
# Mechanical properties :
#
#
# Convention : Reuss Voigt Hill
#
# Bulk Modulus (GPa) = 38.97880 59.90305 49.44092
# Shear Modulus (GPa) = 26.32134 30.50895 28.41514
#
# Velocity S-wave (km/s) = 3.66685 3.94778 3.80990
# Velocity P-wave (km/s) = 6.15137 7.16801 6.67906
#
# Compressibility (1/GPa) = 0.02565497
#
# Stress axis : x y z
#
# Youngs Moduli (GPa) = 39.77559 136.15894 60.33086
#
# Poissons Ratio (x) = 0.61665 0.20068
# Poissons Ratio (y) = 0.18014 0.23213
# Poissons Ratio (z) = 0.13231 0.52389
#
# Static dielectric constant tensor:
#      x y z
#    x 3.239110 0.000000 0.000000 
#    y 0.000000 4.133670 0.000000 
#    z 0.000000 0.000000 3.324520 
# 
# 
# High freq. dielectric constant tensor:
#      x y z
#    x 1.726140 0.000000 0.000000 
#    y 0.000000 1.791840 0.000000 
#    z 0.000000 0.000000 1.740580 
# 
# From -- ./inp_files/9239.got.cif
#   From: 2010.03.12/outbox.cif.g09.slc.cpg/sg47_5_cif.got.tgz:9239.got - 2010.04.14 03:12:58.
