data_PCOD8195537
_publ_section_title
;
Structure prediction by ZEFSAII (Michael W. Deem and Ramdas Pophale) SiO2 
 PCOD8195537
Probable space group: P M M M
;
_chemical_formula_sum "Si O2"
_cell_formula_units_Z 52
_cell_length_a 8.873338
_cell_length_b 10.487525
_cell_length_c 30.609749
_cell_angle_alpha 90.000000
_cell_angle_beta 90.000000
_cell_angle_gamma 90.000000
_cell_volume 2848.523471
_symmetry_space_group_name_H-M "P M M M"
_symmetry_group_IT_number 47
_symmetry_cell_setting 'orthorhombic'
loop_
_space_group_symop_operation_xyz
x,y,z
-x,-y,z
x,-y,-z
-x,y,-z
-x,-y,-z
x,y,-z
-x,y,z
x,-y,z
loop_
_atom_site_type_symbol
_atom_site_label
_atom_site_fract_x
_atom_site_fract_y
_atom_site_fract_z
Si Si1 0.337536 0.358497 0.000000
Si Si2 0.321947 0.146266 0.340589
Si Si3 0.323073 0.149122 0.837034
Si Si4 0.167538 0.349355 0.500000
Si Si5 0.335177 0.000000 0.950692
Si Si6 0.177790 0.244433 0.920645
Si Si7 0.832306 0.849351 0.748352
Si Si8 0.678062 0.353838 0.588708
O O1 0.242438 0.344599 0.044667
O O2 0.392140 0.500000 0.000000
O O3 0.500000 0.279084 0.000000
O O4 0.500000 0.150295 0.335607
O O5 0.252202 0.195118 0.295238
O O6 0.265541 0.249958 0.375969
O O7 0.271035 0.000000 0.352335
O O8 0.500000 0.168265 0.835490
O O9 0.252846 0.246028 0.872595
O O10 0.258312 0.195965 0.790827
O O11 0.281151 0.000000 0.847560
O O12 0.159670 0.500000 0.500000
O O13 0.254391 0.304140 0.456852
O O14 0.000000 0.289994 0.500000
O O15 0.224059 0.113246 0.941690
O O16 0.500000 0.000000 0.924744
O O17 0.382856 0.000000 0.000000
O O18 0.000000 0.262283 0.915774
O O19 0.000000 0.790063 0.749212
O O20 0.840972 0.000000 0.748811
O O21 0.500000 0.350694 0.584267
O O22 0.730306 0.500000 0.600202
#
# Coordination Sequence:
#
# PCOD8195537 Si02
#       8
#     4   8   8   4   4   8   8   8
#     4  11  25  44  61  74  95 133 177 211 244 299
#     4   9  17  30  48  70  97 130 167 204 248 301
#     4  10  19  31  50  75 106 138 166 200 246 303
#     4   9  17  29  46  69  96 126 162 205 252 300
#     4  11  21  33  51  75 108 138 162 192 240 301
#     4  12  23  34  54  80 107 132 161 206 254 297
#     4   9  17  29  46  70 101 132 164 201 243 293
#     4   9  17  30  49  71  95 126 165 207 248 295
#
# _framework density 18.255071999999998
#
# number of rings (size 3 to 8) (size 9 to 14) (size 15 to 20)
#    0.000    2.077    1.538    3.000    0.000    4.923 
#    0.000    0.385    0.000    3.231    0.000    2.154 
#    0.000    0.000    0.000    0.000    0.000    0.000 
#
# Total GULP energy -644271.884390 kJ/mol
# GULP energy per Si atom -12389.843931 kJ/mol
# Density = 1.821352 g / cm^3
# Si number density = 18.255072 Si / 1000 Ang^3
#
#
#
# Elastic Constant Matrix: (Units=GPa)
#
#
# Indices 1 2 3 4 5 6 
#
# 1 89.1040 25.3066 61.9735 0.0000 0.0000 0.0000
# 2 25.3066 57.1344 49.8360 0.0000 0.0000 0.0000
# 3 61.9735 49.8360 178.2939 0.0000 0.0000 0.0000
# 4 0.0000 0.0000 0.0000 25.5576 0.0000 0.0000
# 5 0.0000 0.0000 0.0000 0.0000 20.6069 0.0000
# 6 0.0000 0.0000 0.0000 0.0000 0.0000 10.4162
#
#
#
# Elastic Compliance Matrix: (Units=1/GPa)
#
#
# Indices 1 2 3 4 5 6 
#
# 1 0.015132 -0.002796 -0.004478 0.000000 0.000000 0.000000
# 2 -0.002796 0.023662 -0.005642 0.000000 0.000000 0.000000
# 3 -0.004478 -0.005642 0.008742 0.000000 0.000000 0.000000
# 4 0.000000 0.000000 0.000000 0.039127 0.000000 0.000000
# 5 0.000000 0.000000 0.000000 0.000000 0.048527 0.000000
# 6 0.000000 0.000000 0.000000 0.000000 0.000000 0.096005
#
#
# Mechanical properties :
#
#
# Convention : Reuss Voigt Hill
#
# Bulk Modulus (GPa) = 46.07523 66.52940 56.30232
# Shear Modulus (GPa) = 18.92055 23.81055 21.36555
#
# Velocity S-wave (km/s) = 3.22289 3.61546 3.42481
# Velocity P-wave (km/s) = 6.25651 7.34522 6.82261
#
# Compressibility (1/GPa) = 0.02170364
#
# Stress axis : x y z
#
# Youngs Moduli (GPa) = 66.08706 42.26098 114.38647
#
# Poissons Ratio (x) = 0.11817 0.51222
# Poissons Ratio (y) = 0.18480 0.64538
# Poissons Ratio (z) = 0.29594 0.23844
#
# Static dielectric constant tensor:
#      x y z
#    x 3.465300 0.000000 0.000000 
#    y 0.000000 3.116020 0.000000 
#    z 0.000000 0.000000 3.686370 
# 
# 
# High freq. dielectric constant tensor:
#      x y z
#    x 1.718420 0.000000 0.000000 
#    y 0.000000 1.659950 0.000000 
#    z 0.000000 0.000000 1.717900 
# 
# From -- ./inp_files/33262.got.cif
#   From: 2010.03.12/outbox.cif.g09.slc.cpg/sg47_17_cif.got.tgz:33262.got - 2010.04.14 03:12:58.
