data_PCOD8195929
_publ_section_title
;
Structure prediction by ZEFSAII (Michael W. Deem and Ramdas Pophale) SiO2 
 PCOD8195929
Probable space group: P M M M
;
_chemical_formula_sum "Si O2"
_cell_formula_units_Z 40
_cell_length_a 25.677740
_cell_length_b 11.104219
_cell_length_c 7.748420
_cell_angle_alpha 90.000000
_cell_angle_beta 90.000000
_cell_angle_gamma 90.000000
_cell_volume 2209.316668
_symmetry_space_group_name_H-M "P M M M"
_symmetry_group_IT_number 47
_symmetry_cell_setting 'orthorhombic'
loop_
_space_group_symop_operation_xyz
x,y,z
-x,-y,z
x,-y,-z
-x,y,-z
-x,-y,-z
x,y,-z
-x,y,z
x,-y,z
loop_
_atom_site_type_symbol
_atom_site_label
_atom_site_fract_x
_atom_site_fract_y
_atom_site_fract_z
Si Si1 0.367385 0.853984 0.500000
Si Si2 0.204875 0.635607 0.191695
Si Si3 0.897135 0.753791 0.303121
Si Si4 0.282036 0.642627 0.500000
Si Si5 0.060383 0.000000 0.795095
Si Si6 0.442362 0.142111 0.191048
Si Si7 0.000000 0.365033 0.704953
O O1 0.322602 0.753148 0.500000
O O2 0.400532 0.818462 0.668072
O O3 0.351407 0.000000 0.500000
O O4 0.185145 0.500000 0.225299
O O5 0.154968 0.721340 0.201655
O O6 0.248652 0.668773 0.329558
O O7 0.229180 0.649804 0.000000
O O8 0.889755 0.711271 0.500000
O O9 0.947848 0.692576 0.216039
O O10 0.907392 0.893740 0.289964
O O11 0.302162 0.500000 0.500000
O O12 0.000000 0.000000 0.734928
O O13 0.064377 0.000000 0.000000
O O14 0.500000 0.194098 0.236177
O O15 0.446370 0.000000 0.190639
O O16 0.425124 0.187849 0.000000
O O17 0.000000 0.500000 0.766037
O O18 0.000000 0.346529 0.500000
#
# Coordination Sequence:
#
# PCOD8195929 Si02
#       7
#     4   8   8   4   4   8   4
#     4  10  19  32  54  84 113 143 188 237 277 319
#     4  10  21  39  61  80 101 134 179 228 274 322
#     4  11  20  35  57  78 103 133 170 212 261 324
#     4  10  22  41  59  78 107 146 189 233 282 335
#     4  11  23  37  51  73 111 145 171 202 249 327
#     4   8  14  26  48  81 119 155 188 225 271 320
#     4   9  18  29  49  80 106 126 156 203 259 318
#
# _framework density 18.105145
#
# number of rings (size 3 to 8) (size 9 to 14) (size 15 to 20)
#    0.000    2.200    2.000    2.400    0.000    3.200 
#    1.800    0.000    0.000    3.600    0.000    1.400 
#    0.000    0.000    0.000    0.000    0.000    0.000 
#
# Total GULP energy -495639.091450 kJ/mol
# GULP energy per Si atom -12390.977286 kJ/mol
# Density = 1.806394 g / cm^3
# Si number density = 18.105145 Si / 1000 Ang^3
#
#
#
# Elastic Constant Matrix: (Units=GPa)
#
#
# Indices 1 2 3 4 5 6 
#
# 1 119.3545 62.7097 62.6373 0.0000 0.0000 0.0000
# 2 62.7097 100.8954 28.8540 0.0000 0.0000 0.0000
# 3 62.6373 28.8540 113.2960 0.0000 0.0000 0.0000
# 4 0.0000 0.0000 0.0000 14.2299 0.0000 0.0000
# 5 0.0000 0.0000 0.0000 0.0000 13.0627 0.0000
# 6 0.0000 0.0000 0.0000 0.0000 0.0000 -33.6942
#
#
#
# Elastic Compliance Matrix: (Units=1/GPa)
#
#
# Indices 1 2 3 4 5 6 
#
# 1 0.016299 -0.008147 -0.006936 0.000000 0.000000 0.000000
# 2 -0.008147 0.014762 0.000744 0.000000 0.000000 0.000000
# 3 -0.006936 0.000744 0.012472 0.000000 0.000000 0.000000
# 4 0.000000 0.000000 0.000000 0.070275 0.000000 0.000000
# 5 0.000000 0.000000 0.000000 0.000000 0.076554 0.000000
# 6 0.000000 0.000000 0.000000 0.000000 0.000000 -0.029679
#
#
# Mechanical properties :
#
#
# Convention : Reuss Voigt Hill
#
# Bulk Modulus (GPa) = 67.31561 71.32755 69.32158
# Shear Modulus (GPa) = 25.73199 10.67599 18.20399
#
# Velocity S-wave (km/s) = 3.77404 2.43094 3.17434
# Velocity P-wave (km/s) = 7.50015 6.88194 7.19769
#
# Compressibility (1/GPa) = 0.01485539
#
# Stress axis : x y z
#
# Youngs Moduli (GPa) = 61.35391 67.74270 80.18175
#
# Poissons Ratio (x) = 0.55187 0.55616
# Poissons Ratio (y) = 0.49983 -0.05969
# Poissons Ratio (z) = 0.42557 -0.05043
#
# Static dielectric constant tensor:
#      x y z
#    x 3.259430 0.000000 0.000000 
#    y 0.000000 3.192800 0.000000 
#    z 0.000000 0.000000 3.602250 
# 
# 
# High freq. dielectric constant tensor:
#      x y z
#    x 1.682040 0.000000 0.000000 
#    y 0.000000 1.680080 0.000000 
#    z 0.000000 0.000000 1.714670 
# 
# From -- ./inp_files/10774.got.cif
#   From: 2010.03.12/outbox.cif.g09.slc.cpg/sg47_6_cif.got.tgz:10774.got - 2010.04.14 03:12:58.
