data_PCOD8195884
_publ_section_title
;
Structure prediction by ZEFSAII (Michael W. Deem and Ramdas Pophale) SiO2 
 PCOD8195884
Probable space group: P M M M
;
_chemical_formula_sum "Si O2"
_cell_formula_units_Z 48
_cell_length_a 19.083874
_cell_length_b 15.197427
_cell_length_c 8.482814
_cell_angle_alpha 90.000000
_cell_angle_beta 90.000000
_cell_angle_gamma 90.000000
_cell_volume 2460.234764
_symmetry_space_group_name_H-M "P M M M"
_symmetry_group_IT_number 47
_symmetry_cell_setting 'orthorhombic'
loop_
_space_group_symop_operation_xyz
x,y,z
-x,-y,z
x,-y,-z
-x,y,-z
-x,-y,-z
x,y,-z
-x,y,z
x,-y,z
loop_
_atom_site_type_symbol
_atom_site_label
_atom_site_fract_x
_atom_site_fract_y
_atom_site_fract_z
Si Si1 0.917267 0.000000 0.681426
Si Si2 0.921880 0.500000 0.687115
Si Si3 0.679049 0.097954 0.812522
Si Si4 0.824360 0.343336 0.684787
Si Si5 0.168333 0.157547 0.185990
Si Si6 0.678028 0.597887 0.186090
Si Si7 0.578735 0.749714 0.811815
O O1 0.888808 0.914232 0.768744
O O2 0.893216 0.000000 0.500000
O O3 0.000000 0.000000 0.698055
O O4 0.926552 0.500000 0.500000
O O5 0.880974 0.413710 0.746876
O O6 0.000000 0.500000 0.760257
O O7 0.755490 0.127002 0.752463
O O8 0.620689 0.165282 0.746866
O O9 0.662133 0.000000 0.748436
O O10 0.678874 0.097935 0.000000
O O11 0.811943 0.353884 0.500000
O O12 0.853216 0.247329 0.727226
O O13 0.751552 0.358902 0.772030
O O14 0.168517 0.172887 0.000000
O O15 0.670300 0.500000 0.260539
O O16 0.616143 0.660791 0.250445
O O17 0.672743 0.591695 0.000000
O O18 0.500000 0.752344 0.744177
O O19 0.578434 0.751226 0.000000
#
# Coordination Sequence:
#
# PCOD8195884 Si02
#       7
#     4   4   8   8   8   8   8
#     4  11  25  43  61  87 122 155 192 238 286 340
#     4   9  20  38  57  79 110 145 182 230 287 341
#     4   9  16  28  49  77 106 140 181 227 275 327
#     4  11  21  35  58  86 112 146 192 238 287 350
#     4  11  21  37  61  87 116 151 193 239 288 342
#     4  10  19  32  53  79 109 146 188 237 286 336
#     4   9  17  29  47  76 113 147 182 231 289 339
#
# _framework density 19.510334
#
# number of rings (size 3 to 8) (size 9 to 14) (size 15 to 20)
#    0.000    2.000    3.333    1.250    0.000    2.000 
#    0.000    5.000    0.000    4.000    0.000    1.167 
#    0.000    2.000    0.000    0.000    0.000    0.000 
#
# Total GULP energy -595235.613184 kJ/mol
# GULP energy per Si atom -12400.741941 kJ/mol
# Density = 1.946593 g / cm^3
# Si number density = 19.510334 Si / 1000 Ang^3
#
#
#
# Elastic Constant Matrix: (Units=GPa)
#
#
# Indices 1 2 3 4 5 6 
#
# 1 133.9485 63.7442 8.2565 0.0000 0.0000 0.0000
# 2 63.7442 179.9641 8.8601 0.0000 0.0000 0.0000
# 3 8.2565 8.8601 11.4014 0.0000 0.0000 0.0000
# 4 0.0000 0.0000 0.0000 21.5612 0.0000 0.0000
# 5 0.0000 0.0000 0.0000 0.0000 5.9888 0.0000
# 6 0.0000 0.0000 0.0000 0.0000 0.0000 24.7156
#
#
#
# Elastic Compliance Matrix: (Units=1/GPa)
#
#
# Indices 1 2 3 4 5 6 
#
# 1 0.009176 -0.003039 -0.004283 0.000000 0.000000 0.000000
# 2 -0.003039 0.006784 -0.003071 0.000000 0.000000 0.000000
# 3 -0.004283 -0.003071 0.093197 0.000000 0.000000 0.000000
# 4 0.000000 0.000000 0.000000 0.046380 0.000000 0.000000
# 5 0.000000 0.000000 0.000000 0.000000 0.166980 0.000000
# 6 0.000000 0.000000 0.000000 0.000000 0.000000 0.040460
#
#
# Mechanical properties :
#
#
# Convention : Reuss Voigt Hill
#
# Bulk Modulus (GPa) = 11.31602 54.11506 32.71554
# Shear Modulus (GPa) = 12.10006 26.74998 19.42502
#
# Velocity S-wave (km/s) = 2.49306 3.70681 3.15878
# Velocity P-wave (km/s) = 3.75496 6.79098 5.48713
#
# Compressibility (1/GPa) = 0.08837032
#
# Stress axis : x y z
#
# Youngs Moduli (GPa) = 108.98099 147.39685 10.72994
#
# Poissons Ratio (x) = 0.44798 0.04596
# Poissons Ratio (y) = 0.33123 0.03295
# Poissons Ratio (z) = 0.46677 0.45270
#
# Static dielectric constant tensor:
#      x y z
#    x 3.658110 0.000000 0.000000 
#    y 0.000000 3.997270 0.000000 
#    z 0.000000 0.000000 3.143640 
# 
# 
# High freq. dielectric constant tensor:
#      x y z
#    x 1.756650 0.000000 0.000000 
#    y 0.000000 1.781340 0.000000 
#    z 0.000000 0.000000 1.717670 
# 
# From -- ./inp_files/9252.got.cif
#   From: 2010.03.12/outbox.cif.g09.slc.cpg/sg47_5_cif.got.tgz:9252.got - 2010.04.14 03:12:58.
