data_PCOD8195185
_publ_section_title
;
Structure prediction by ZEFSAII (Michael W. Deem and Ramdas Pophale) SiO2 
 PCOD8195185
Probable space group: P M M M
;
_chemical_formula_sum "Si O2"
_cell_formula_units_Z 64
_cell_length_a 9.063760
_cell_length_b 20.701063
_cell_length_c 18.874225
_cell_angle_alpha 90.000000
_cell_angle_beta 90.000000
_cell_angle_gamma 90.000000
_cell_volume 3541.360773
_symmetry_space_group_name_H-M "P M M M"
_symmetry_group_IT_number 47
_symmetry_cell_setting 'orthorhombic'
loop_
_space_group_symop_operation_xyz
x,y,z
-x,-y,z
x,-y,-z
-x,y,-z
-x,-y,-z
x,y,-z
-x,y,z
x,-y,z
loop_
_atom_site_type_symbol
_atom_site_label
_atom_site_fract_x
_atom_site_fract_y
_atom_site_fract_z
Si Si1 0.829002 0.209472 0.665706
Si Si2 0.675382 0.207442 0.816697
Si Si3 0.672175 0.317827 0.419019
Si Si4 0.672213 0.426574 0.689525
Si Si5 0.328160 0.321602 0.918933
Si Si6 0.833437 0.068777 0.321198
Si Si7 0.172459 0.425546 0.167251
Si Si8 0.326610 0.067969 0.822836
O O1 0.753576 0.219906 0.741913
O O2 0.758325 0.255339 0.607437
O O3 0.806438 0.135577 0.636061
O O4 0.000000 0.226971 0.673969
O O5 0.500000 0.208869 0.803764
O O6 0.726473 0.261596 0.871793
O O7 0.725989 0.138047 0.851979
O O8 0.714904 0.331328 0.500000
O O9 0.500000 0.303746 0.409750
O O10 0.719739 0.381401 0.375523
O O11 0.500000 0.420685 0.706327
O O12 0.716177 0.500000 0.669856
O O13 0.757232 0.402106 0.758940
O O14 0.500000 0.335280 0.907105
O O15 0.239717 0.385439 0.897363
O O16 0.292472 0.304918 0.000000
O O17 0.715476 0.067439 0.259099
O O18 0.000000 0.072062 0.289629
O O19 0.815876 0.000000 0.364542
O O20 0.211169 0.500000 0.152892
O O21 0.000000 0.413095 0.171623
O O22 0.500000 0.065111 0.829913
O O23 0.263583 0.000000 0.857915
#
# Coordination Sequence:
#
# PCOD8195185 Si02
#       8
#     8   8   8   8   8   8   8   8
#     4  10  19  30  48  73  97 123 158 198 238 283
#     4   9  17  30  48  69  95 126 159 197 239 281
#     4  10  21  35  50  70  98 130 160 192 232 276
#     4   9  18  34  56  78  98 123 157 194 230 273
#     4  10  21  35  50  69  95 129 166 200 234 276
#     4   8  14  25  41  63  91 119 149 190 237 279
#     4  10  21  36  54  76 100 124 152 191 239 287
#     4   8  13  22  39  64  91 118 150 189 233 279
#
# _framework density 18.072147999999999
#
# number of rings (size 3 to 8) (size 9 to 14) (size 15 to 20)
#    0.000    2.750    0.000    1.500    0.000    6.250 
#    0.000    2.500    0.000    0.750    0.000    7.875 
#    0.000    0.000    0.000   21.375    0.000   10.750 
#
# Total GULP energy -792860.343668 kJ/mol
# GULP energy per Si atom -12388.442870 kJ/mol
# Density = 1.803101 g / cm^3
# Si number density = 18.072148 Si / 1000 Ang^3
#
#
#
# Elastic Constant Matrix: (Units=GPa)
#
#
# Indices 1 2 3 4 5 6 
#
# 1 31.3422 32.1712 23.6356 0.0000 0.0000 0.0000
# 2 32.1712 122.1229 43.4255 0.0000 0.0000 0.0000
# 3 23.6356 43.4255 62.2817 0.0000 0.0000 0.0000
# 4 0.0000 0.0000 0.0000 7.6885 0.0000 0.0000
# 5 0.0000 0.0000 0.0000 0.0000 3.6694 0.0000
# 6 0.0000 0.0000 0.0000 0.0000 0.0000 22.6441
#
#
#
# Elastic Compliance Matrix: (Units=1/GPa)
#
#
# Indices 1 2 3 4 5 6 
#
# 1 0.050783 -0.008676 -0.013222 0.000000 0.000000 0.000000
# 2 -0.008676 0.012370 -0.005333 0.000000 0.000000 0.000000
# 3 -0.013222 -0.005333 0.024792 0.000000 0.000000 0.000000
# 4 0.000000 0.000000 0.000000 0.130064 0.000000 0.000000
# 5 0.000000 0.000000 0.000000 0.000000 0.272525 0.000000
# 6 0.000000 0.000000 0.000000 0.000000 0.000000 0.044162
#
#
# Mechanical properties :
#
#
# Convention : Reuss Voigt Hill
#
# Bulk Modulus (GPa) = 29.86603 46.02349 37.94476
# Shear Modulus (GPa) = 8.32891 14.56804 11.44847
#
# Velocity S-wave (km/s) = 2.14912 2.84228 2.51965
# Velocity P-wave (km/s) = 4.76657 6.02438 5.43201
#
# Compressibility (1/GPa) = 0.03348286
#
# Stress axis : x y z
#
# Youngs Moduli (GPa) = 19.69174 80.83922 40.33567
#
# Poissons Ratio (x) = 0.70137 0.53333
# Poissons Ratio (y) = 0.17085 0.21509
# Poissons Ratio (z) = 0.26037 0.43108
#
# Static dielectric constant tensor:
#      x y z
#    x 3.303610 0.000000 0.000000 
#    y 0.000000 4.034220 0.000000 
#    z 0.000000 0.000000 2.975190 
# 
# 
# High freq. dielectric constant tensor:
#      x y z
#    x 1.694600 0.000000 0.000000 
#    y 0.000000 1.730690 0.000000 
#    z 0.000000 0.000000 1.649910 
# 
# From -- ./inp_files/9915.got.cif
#   From: 2010.03.12/outbox.cif.g09.slc.cpg/sg47_5_cif.got.tgz:9915.got - 2010.04.14 03:12:58.
