data_PCOD8195749
_publ_section_title
;
Structure prediction by ZEFSAII (Michael W. Deem and Ramdas Pophale) SiO2 
 PCOD8195749
Probable space group: P M M M
;
_chemical_formula_sum "Si O2"
_cell_formula_units_Z 48
_cell_length_a 32.565923
_cell_length_b 9.095307
_cell_length_c 8.045906
_cell_angle_alpha 90.000000
_cell_angle_beta 90.000000
_cell_angle_gamma 90.000000
_cell_volume 2383.173762
_symmetry_space_group_name_H-M "P M M M"
_symmetry_group_IT_number 47
_symmetry_cell_setting 'orthorhombic'
loop_
_space_group_symop_operation_xyz
x,y,z
-x,-y,z
x,-y,-z
-x,y,-z
-x,-y,-z
x,y,-z
-x,y,z
x,-y,z
loop_
_atom_site_type_symbol
_atom_site_label
_atom_site_fract_x
_atom_site_fract_y
_atom_site_fract_z
Si Si1 0.078497 0.337010 0.693541
Si Si2 0.157881 0.831637 0.196186
Si Si3 0.000000 0.834321 0.698739
Si Si4 0.546595 0.175500 0.500000
Si Si5 0.317296 0.835134 0.690578
Si Si6 0.239340 0.330278 0.194203
Si Si7 0.596467 0.825311 0.183857
O O1 0.070485 0.353846 0.500000
O O2 0.081105 0.500000 0.774830
O O3 0.120225 0.250166 0.720583
O O4 0.040208 0.247883 0.770903
O O5 0.199789 0.757592 0.260089
O O6 0.157836 0.000000 0.254675
O O7 0.153807 0.816076 0.000000
O O8 0.000000 0.836632 0.500000
O O9 0.000000 0.000000 0.768724
O O10 0.500000 0.232317 0.500000
O O11 0.568082 0.238922 0.667872
O O12 0.548608 0.000000 0.500000
O O13 0.331080 0.838196 0.500000
O O14 0.279262 0.727112 0.712239
O O15 0.356339 0.774605 0.792732
O O16 0.305057 0.000000 0.749939
O O17 0.232603 0.500000 0.237759
O O18 0.245830 0.303404 0.000000
O O19 0.594739 0.000000 0.194013
O O20 0.581569 0.771611 0.000000
#
# Coordination Sequence:
#
# PCOD8195749 Si02
#       7
#     8   8   4   4   8   8   8
#     4  10  20  34  54  79 106 136 171 213 263 318
#     4  10  21  37  56  77 103 137 176 216 261 315
#     4   9  17  31  52  77 104 135 172 216 264 315
#     4   9  16  26  40  64 101 139 179 227 275 330
#     4  10  19  32  51  74 101 134 175 221 265 315
#     4  10  21  36  53  74 101 133 170 212 260 316
#     4   9  16  27  44  66  96 136 179 223 273 327
#
# _framework density 20.141209
#
# number of rings (size 3 to 8) (size 9 to 14) (size 15 to 20)
#    0.000    2.333    0.833    2.250    0.000    6.000 
#    0.000    2.083    0.000    2.500    0.000    0.000 
#    0.000    1.333    0.000    3.500    0.000    3.333 
#
# Total GULP energy -595171.078678 kJ/mol
# GULP energy per Si atom -12399.397472 kJ/mol
# Density = 2.009537 g / cm^3
# Si number density = 20.141209 Si / 1000 Ang^3
#
#
#
# Elastic Constant Matrix: (Units=GPa)
#
#
# Indices 1 2 3 4 5 6 
#
# 1 151.8238 50.9826 48.9622 0.0000 0.0000 0.0000
# 2 50.9826 108.4745 24.2327 0.0000 0.0000 0.0000
# 3 48.9622 24.2327 75.7327 0.0000 0.0000 0.0000
# 4 0.0000 0.0000 0.0000 16.8166 0.0000 0.0000
# 5 0.0000 0.0000 0.0000 0.0000 15.7568 0.0000
# 6 0.0000 0.0000 0.0000 0.0000 0.0000 4.7201
#
#
#
# Elastic Compliance Matrix: (Units=1/GPa)
#
#
# Indices 1 2 3 4 5 6 
#
# 1 0.009278 -0.003253 -0.004957 0.000000 0.000000 0.000000
# 2 -0.003253 0.011069 -0.001439 0.000000 0.000000 0.000000
# 3 -0.004957 -0.001439 0.016870 0.000000 0.000000 0.000000
# 4 0.000000 0.000000 0.000000 0.059465 0.000000 0.000000
# 5 0.000000 0.000000 0.000000 0.000000 0.063465 0.000000
# 6 0.000000 0.000000 0.000000 0.000000 0.000000 0.211861
#
#
# Mechanical properties :
#
#
# Convention : Reuss Voigt Hill
#
# Bulk Modulus (GPa) = 55.80863 64.93177 60.37020
# Shear Modulus (GPa) = 12.58565 21.58227 17.08396
#
# Velocity S-wave (km/s) = 2.50245 3.27700 2.91556
# Velocity P-wave (km/s) = 6.00987 6.82837 6.43215
#
# Compressibility (1/GPa) = 0.01791837
#
# Stress axis : x y z
#
# Youngs Moduli (GPa) = 107.78624 90.34185 59.27823
#
# Poissons Ratio (x) = 0.29388 0.29386
# Poissons Ratio (y) = 0.35063 0.08528
# Poissons Ratio (z) = 0.53432 0.12998
#
# Static dielectric constant tensor:
#      x y z
#    x 3.684640 0.000000 0.000000 
#    y 0.000000 3.514970 0.000000 
#    z 0.000000 0.000000 3.585660 
# 
# 
# High freq. dielectric constant tensor:
#      x y z
#    x 1.792780 0.000000 0.000000 
#    y 0.000000 1.759030 0.000000 
#    z 0.000000 0.000000 1.775330 
# 
# From -- ./inp_files/13810.got.cif
#   From: 2010.03.12/outbox.cif.g09.slc.cpg/sg47_7_cif.got.tgz:13810.got - 2010.04.14 03:12:58.
