data_PCOD8195372
_publ_section_title
;
Structure prediction by ZEFSAII (Michael W. Deem and Ramdas Pophale) SiO2 
 PCOD8195372
Probable space group: P M M M
;
_chemical_formula_sum "Si O2"
_cell_formula_units_Z 64
_cell_length_a 29.889890
_cell_length_b 8.795548
_cell_length_c 14.255384
_cell_angle_alpha 90.000000
_cell_angle_beta 90.000000
_cell_angle_gamma 90.000000
_cell_volume 3747.711404
_symmetry_space_group_name_H-M "P M M M"
_symmetry_group_IT_number 47
_symmetry_cell_setting 'orthorhombic'
loop_
_space_group_symop_operation_xyz
x,y,z
-x,-y,z
x,-y,-z
-x,y,-z
-x,-y,-z
x,y,-z
-x,y,z
x,-y,z
loop_
_atom_site_type_symbol
_atom_site_label
_atom_site_fract_x
_atom_site_fract_y
_atom_site_fract_z
Si Si1 0.631138 0.319165 0.607007
Si Si2 0.549194 0.678746 0.727995
Si Si3 0.133628 0.173613 0.786458
Si Si4 0.685459 0.820842 0.230299
Si Si5 0.221822 0.322095 0.760136
Si Si6 0.950954 0.180605 0.106142
Si Si7 0.611777 0.322422 0.107182
Si Si8 0.175472 0.826860 0.396366
O O1 0.635823 0.262265 0.500000
O O2 0.634562 0.500000 0.613733
O O3 0.583342 0.261496 0.648084
O O4 0.670580 0.250314 0.670140
O O5 0.500000 0.754647 0.715884
O O6 0.544322 0.500000 0.716921
O O7 0.568144 0.719158 0.831248
O O8 0.178233 0.264991 0.819593
O O9 0.088395 0.248273 0.828137
O O10 0.131721 0.181298 0.671938
O O11 0.138442 0.000000 0.821593
O O12 0.734430 0.762014 0.202188
O O13 0.653579 0.772312 0.145163
O O14 0.685679 0.000000 0.240602
O O15 0.228107 0.500000 0.771948
O O16 0.214405 0.276736 0.650111
O O17 0.000000 0.242341 0.137832
O O18 0.951439 0.000000 0.113484
O O19 0.941167 0.232396 0.000000
O O20 0.623507 0.500000 0.117766
O O21 0.601806 0.277281 0.000000
O O22 0.163270 0.766080 0.500000
O O23 0.193180 0.000000 0.400732
#
# Coordination Sequence:
#
# PCOD8195372 Si02
#       8
#     8   8   8   8   8   8   8   8
#     4   9  18  32  49  71 100 132 165 201 241 286
#     4   8  14  26  47  76 104 126 153 194 241 286
#     4   8  15  28  44  66  96 126 156 194 240 281
#     4  11  21  34  51  70  96 127 163 202 243 291
#     4  10  19  31  48  68  92 122 159 197 236 282
#     4   8  13  23  44  73  99 124 158 199 239 278
#     4   9  18  33  52  73  98 127 158 196 241 286
#     4   8  15  28  45  66  92 121 152 188 233 279
#
# _framework density 17.077089000000001
#
# number of rings (size 3 to 8) (size 9 to 14) (size 15 to 20)
#    0.750    2.375    0.000    3.000    0.000    1.750 
#    0.000    3.125    0.000    9.375    0.000   10.500 
#    0.000    1.000    0.000    0.000    0.000    0.000 
#
# Total GULP energy -792858.918243 kJ/mol
# GULP energy per Si atom -12388.420598 kJ/mol
# Density = 1.703822 g / cm^3
# Si number density = 17.077089 Si / 1000 Ang^3
#
#
#
# Elastic Constant Matrix: (Units=GPa)
#
#
# Indices 1 2 3 4 5 6 
#
# 1 118.1101 23.0322 23.0659 0.0000 0.0000 0.0000
# 2 23.0322 48.3884 16.7962 0.0000 0.0000 0.0000
# 3 23.0659 16.7962 52.1119 0.0000 0.0000 0.0000
# 4 0.0000 0.0000 0.0000 15.9032 0.0000 0.0000
# 5 0.0000 0.0000 0.0000 0.0000 17.7819 0.0000
# 6 0.0000 0.0000 0.0000 0.0000 0.0000 17.5983
#
#
#
# Elastic Compliance Matrix: (Units=1/GPa)
#
#
# Indices 1 2 3 4 5 6 
#
# 1 0.009781 -0.003550 -0.003185 0.000000 0.000000 0.000000
# 2 -0.003550 0.024558 -0.006344 0.000000 0.000000 0.000000
# 3 -0.003185 -0.006344 0.022644 0.000000 0.000000 0.000000
# 4 0.000000 0.000000 0.000000 0.062880 0.000000 0.000000
# 5 0.000000 0.000000 0.000000 0.000000 0.056237 0.000000
# 6 0.000000 0.000000 0.000000 0.000000 0.000000 0.056824
#
#
# Mechanical properties :
#
#
# Convention : Reuss Voigt Hill
#
# Bulk Modulus (GPa) = 32.44143 38.26656 35.35400
# Shear Modulus (GPa) = 18.56273 20.63775 19.60024
#
# Velocity S-wave (km/s) = 3.30054 3.48013 3.39152
# Velocity P-wave (km/s) = 5.79336 6.21330 6.00700
#
# Compressibility (1/GPa) = 0.03082478
#
# Stress axis : x y z
#
# Youngs Moduli (GPa) = 102.23930 40.72006 44.16190
#
# Poissons Ratio (x) = 0.14456 0.14066
# Poissons Ratio (y) = 0.36295 0.28016
# Poissons Ratio (z) = 0.32564 0.25833
#
# Static dielectric constant tensor:
#      x y z
#    x 3.375510 0.000000 0.000000 
#    y 0.000000 2.861220 0.000000 
#    z 0.000000 0.000000 3.193970 
# 
# 
# High freq. dielectric constant tensor:
#      x y z
#    x 1.652930 0.000000 0.000000 
#    y 0.000000 1.629460 0.000000 
#    z 0.000000 0.000000 1.644210 
# 
# From -- ./inp_files/25881.got.cif
#   From: 2010.03.12/outbox.cif.g09.slc.cpg/sg47_13_cif.got.tgz:25881.got - 2010.04.14 03:12:58.
