data_PCOD8195371
_publ_section_title
;
Structure prediction by ZEFSAII (Michael W. Deem and Ramdas Pophale) SiO2 
 PCOD8195371
Probable space group: P M M M
;
_chemical_formula_sum "Si O2"
_cell_formula_units_Z 64
_cell_length_a 14.619153
_cell_length_b 28.103851
_cell_length_c 9.140256
_cell_angle_alpha 90.000000
_cell_angle_beta 90.000000
_cell_angle_gamma 90.000000
_cell_volume 3755.315287
_symmetry_space_group_name_H-M "P M M M"
_symmetry_group_IT_number 47
_symmetry_cell_setting 'orthorhombic'
loop_
_space_group_symop_operation_xyz
x,y,z
-x,-y,z
x,-y,-z
-x,y,-z
-x,-y,-z
x,y,-z
-x,y,z
x,-y,z
loop_
_atom_site_type_symbol
_atom_site_label
_atom_site_fract_x
_atom_site_fract_y
_atom_site_fract_z
Si Si1 0.401610 0.594764 0.666382
Si Si2 0.099597 0.269880 0.332655
Si Si3 0.393238 0.855299 0.171490
Si Si4 0.349973 0.318257 0.163343
Si Si5 0.211567 0.446643 0.328128
Si Si6 0.851483 0.359092 0.837352
Si Si7 0.290694 0.228518 0.673442
Si Si8 0.608250 0.052258 0.336672
O O1 0.383152 0.610925 0.500000
O O2 0.500000 0.567708 0.679839
O O3 0.412994 0.642261 0.762473
O O4 0.318176 0.561233 0.717121
O O5 0.118523 0.283922 0.500000
O O6 0.090497 0.319250 0.245465
O O7 0.183381 0.236036 0.280920
O O8 0.000000 0.244015 0.314609
O O9 0.500000 0.846188 0.211195
O O10 0.327222 0.819683 0.256782
O O11 0.360597 0.907799 0.221340
O O12 0.376341 0.849986 0.000000
O O13 0.250423 0.340314 0.156601
O O14 0.351773 0.270949 0.261194
O O15 0.385684 0.306010 0.000000
O O16 0.197711 0.439456 0.500000
O O17 0.184771 0.500000 0.280164
O O18 0.145275 0.409711 0.245865
O O19 0.891579 0.366421 0.000000
O O20 0.303531 0.226499 0.500000
O O21 0.644309 0.064913 0.500000
O O22 0.500000 0.050090 0.339981
O O23 0.646009 0.000000 0.288904
#
# Coordination Sequence:
#
# PCOD8195371 Si02
#       8
#     8   8   8   8   8   8   8   8
#     4   9  17  28  41  58  80 106 140 181 220 260
#     4   9  18  33  53  75  96 118 146 182 226 276
#     4  10  20  31  43  63  94 131 167 201 236 272
#     4   9  17  29  43  58  79 108 141 176 214 258
#     4   9  17  29  45  63  83 110 142 175 216 264
#     4   9  17  29  46  67  88 110 137 169 207 255
#     4  10  19  31  48  68  92 122 154 189 229 274
#     4   8  14  26  44  64  87 119 161 206 246 281
#
# _framework density 17.042511000000001
#
# number of rings (size 3 to 8) (size 9 to 14) (size 15 to 20)
#    0.000    2.875    0.000    1.875    0.000    6.000 
#    0.000    2.500    0.000    0.375    0.000    6.125 
#    0.000    0.500    0.000    5.750    0.000    1.875 
#
# Total GULP energy -793080.644907 kJ/mol
# GULP energy per Si atom -12391.885077 kJ/mol
# Density = 1.700372 g / cm^3
# Si number density = 17.042511 Si / 1000 Ang^3
#
#
#
# Elastic Constant Matrix: (Units=GPa)
#
#
# Indices 1 2 3 4 5 6 
#
# 1 53.2682 27.6322 24.4509 0.0000 0.0000 0.0000
# 2 27.6322 113.2819 53.1977 0.0000 0.0000 0.0000
# 3 24.4509 53.1977 89.0335 0.0000 0.0000 0.0000
# 4 0.0000 0.0000 0.0000 21.7198 0.0000 0.0000
# 5 0.0000 0.0000 0.0000 0.0000 11.1604 0.0000
# 6 0.0000 0.0000 0.0000 0.0000 0.0000 12.9667
#
#
#
# Elastic Compliance Matrix: (Units=1/GPa)
#
#
# Indices 1 2 3 4 5 6 
#
# 1 0.022486 -0.003593 -0.004028 0.000000 0.000000 0.000000
# 2 -0.003593 0.012845 -0.006688 0.000000 0.000000 0.000000
# 3 -0.004028 -0.006688 0.016334 0.000000 0.000000 0.000000
# 4 0.000000 0.000000 0.000000 0.046041 0.000000 0.000000
# 5 0.000000 0.000000 0.000000 0.000000 0.089603 0.000000
# 6 0.000000 0.000000 0.000000 0.000000 0.000000 0.077120
#
#
# Mechanical properties :
#
#
# Convention : Reuss Voigt Hill
#
# Bulk Modulus (GPa) = 43.39180 51.79393 47.59287
# Shear Modulus (GPa) = 16.62624 19.18957 17.90790
#
# Velocity S-wave (km/s) = 3.12681 3.35921 3.24509
# Velocity P-wave (km/s) = 6.20903 6.74557 6.48285
#
# Compressibility (1/GPa) = 0.02304583
#
# Stress axis : x y z
#
# Youngs Moduli (GPa) = 44.47242 77.85320 61.22173
#
# Poissons Ratio (x) = 0.27974 0.24662
# Poissons Ratio (y) = 0.15980 0.40945
# Poissons Ratio (z) = 0.17915 0.52068
#
# Static dielectric constant tensor:
#      x y z
#    x 2.975360 0.000000 0.000000 
#    y 0.000000 3.235510 0.000000 
#    z 0.000000 0.000000 3.364940 
# 
# 
# High freq. dielectric constant tensor:
#      x y z
#    x 1.627230 0.000000 0.000000 
#    y 0.000000 1.637960 0.000000 
#    z 0.000000 0.000000 1.663450 
# 
# From -- ./inp_files/8293.got.cif
#   From: 2010.03.12/outbox.cif.g09.slc.cpg/sg47_5_cif.got.tgz:8293.got - 2010.04.14 03:12:58.
