data_PCOD8195223
_publ_section_title
;
Structure prediction by ZEFSAII (Michael W. Deem and Ramdas Pophale) SiO2 
 PCOD8195223
Probable space group: P M M M
;
_chemical_formula_sum "Si O2"
_cell_formula_units_Z 52
_cell_length_a 9.227026
_cell_length_b 19.479837
_cell_length_c 15.722441
_cell_angle_alpha 90.000000
_cell_angle_beta 90.000000
_cell_angle_gamma 90.000000
_cell_volume 2825.966678
_symmetry_space_group_name_H-M "P M M M"
_symmetry_group_IT_number 47
_symmetry_cell_setting 'orthorhombic'
loop_
_space_group_symop_operation_xyz
x,y,z
-x,-y,z
x,-y,-z
-x,y,-z
-x,-y,-z
x,y,-z
-x,y,z
x,-y,z
loop_
_atom_site_type_symbol
_atom_site_label
_atom_site_fract_x
_atom_site_fract_y
_atom_site_fract_z
Si Si1 0.327941 0.926375 0.405411
Si Si2 0.329148 0.921544 0.000000
Si Si3 0.169496 0.668483 0.597594
Si Si4 0.328995 0.197516 0.876290
Si Si5 0.671555 0.793255 0.682422
Si Si6 0.165777 0.669034 0.907585
Si Si7 0.828555 0.423579 0.246253
O O1 0.264752 0.919635 0.500000
O O2 0.500000 0.921391 0.408112
O O3 0.264945 0.865329 0.349819
O O4 0.281027 0.000000 0.365998
O O5 0.281542 0.876225 0.917060
O O6 0.500000 0.930762 0.000000
O O7 0.261635 0.000000 0.000000
O O8 0.209550 0.648598 0.500000
O O9 0.255805 0.735134 0.626053
O O10 0.214948 0.607395 0.661780
O O11 0.000000 0.684413 0.605866
O O12 0.500000 0.205831 0.888182
O O13 0.279641 0.205985 0.779422
O O14 0.251573 0.260468 0.921986
O O15 0.500000 0.785685 0.671923
O O16 0.233930 0.621982 0.832178
O O17 0.000000 0.686523 0.883961
O O18 0.174050 0.630857 0.000000
O O19 0.761263 0.500000 0.240762
O O20 0.000000 0.427786 0.236893
#
# Coordination Sequence:
#
# PCOD8195223 Si02
#       7
#     8   4   8   8   8   8   8
#     4   8  14  25  41  63  92 122 153 196 246 287
#     4   9  18  32  49  73 106 139 172 212 255 301
#     4  10  20  33  51  75 102 135 171 207 253 306
#     4  10  19  31  50  74 100 135 170 203 248 300
#     4  10  19  30  49  75  99 128 169 212 252 296
#     4  10  19  32  54  79 101 130 165 203 251 302
#     4   9  18  33  52  76 105 132 163 208 254 299
#
# _framework density 18.400783000000001
#
# number of rings (size 3 to 8) (size 9 to 14) (size 15 to 20)
#    0.000    2.538    2.308    0.923    0.000    2.154 
#    0.000    6.154    0.000    3.231    0.000    6.462 
#    0.000    0.000    0.000    0.000    0.000    0.000 
#
# Total GULP energy -644272.885164 kJ/mol
# GULP energy per Si atom -12389.863176 kJ/mol
# Density = 1.835890 g / cm^3
# Si number density = 18.400783 Si / 1000 Ang^3
#
#
#
# Elastic Constant Matrix: (Units=GPa)
#
#
# Indices 1 2 3 4 5 6 
#
# 1 16.5263 20.5804 20.1691 0.0000 0.0000 0.0000
# 2 20.5804 147.4043 68.9813 0.0000 0.0000 0.0000
# 3 20.1691 68.9813 142.8845 0.0000 0.0000 0.0000
# 4 0.0000 0.0000 0.0000 27.0595 0.0000 0.0000
# 5 0.0000 0.0000 0.0000 0.0000 16.8718 0.0000
# 6 0.0000 0.0000 0.0000 0.0000 0.0000 22.9244
#
#
#
# Elastic Compliance Matrix: (Units=1/GPa)
#
#
# Indices 1 2 3 4 5 6 
#
# 1 0.079059 -0.007513 -0.007533 0.000000 0.000000 0.000000
# 2 -0.007513 0.009478 -0.003515 0.000000 0.000000 0.000000
# 3 -0.007533 -0.003515 0.009759 0.000000 0.000000 0.000000
# 4 0.000000 0.000000 0.000000 0.036956 0.000000 0.000000
# 5 0.000000 0.000000 0.000000 0.000000 0.059271 0.000000
# 6 0.000000 0.000000 0.000000 0.000000 0.000000 0.043622
#
#
# Mechanical properties :
#
#
# Convention : Reuss Voigt Hill
#
# Bulk Modulus (GPa) = 16.34681 58.47520 37.41101
# Shear Modulus (GPa) = 16.91151 26.51008 21.71080
#
# Velocity S-wave (km/s) = 3.03490 3.79978 3.43867
# Velocity P-wave (km/s) = 4.60259 7.14834 6.01176
#
# Compressibility (1/GPa) = 0.06117400
#
# Stress axis : x y z
#
# Youngs Moduli (GPa) = 12.64884 105.50646 102.46932
#
# Poissons Ratio (x) = 0.79268 0.77185
# Poissons Ratio (y) = 0.09503 0.36021
# Poissons Ratio (z) = 0.09528 0.37089
#
# Static dielectric constant tensor:
#      x y z
#    x 2.914160 0.000000 0.000000 
#    y 0.000000 3.661770 0.000000 
#    z 0.000000 0.000000 3.689700 
# 
# 
# High freq. dielectric constant tensor:
#      x y z
#    x 1.660100 0.000000 0.000000 
#    y 0.000000 1.714830 0.000000 
#    z 0.000000 0.000000 1.730760 
# 
# From -- ./inp_files/22876.got.cif
#   From: 2010.03.12/outbox.cif.g09.slc.cpg/sg47_12_cif.got.tgz:22876.got - 2010.04.14 03:12:58.
