data_PCOD8195843
_publ_section_title
;
Structure prediction by ZEFSAII (Michael W. Deem and Ramdas Pophale) SiO2 
 PCOD8195843
Probable space group: P M M M
;
_chemical_formula_sum "Si O2"
_cell_formula_units_Z 64
_cell_length_a 8.909639
_cell_length_b 19.446794
_cell_length_c 20.836661
_cell_angle_alpha 90.000000
_cell_angle_beta 90.000000
_cell_angle_gamma 90.000000
_cell_volume 3610.241445
_symmetry_space_group_name_H-M "P M M M"
_symmetry_group_IT_number 47
_symmetry_cell_setting 'orthorhombic'
loop_
_space_group_symop_operation_xyz
x,y,z
-x,-y,z
x,-y,-z
-x,y,-z
-x,-y,-z
x,y,-z
-x,y,z
x,-y,z
loop_
_atom_site_type_symbol
_atom_site_label
_atom_site_fract_x
_atom_site_fract_y
_atom_site_fract_z
Si Si1 0.678104 0.795986 0.191214
Si Si2 0.325048 0.922124 0.619669
Si Si3 0.671910 0.576533 0.138493
Si Si4 0.172440 0.205941 0.427761
Si Si5 0.676969 0.289030 0.070115
Si Si6 0.824592 0.577361 0.727636
Si Si7 0.173935 0.922341 0.755518
Si Si8 0.676777 0.290358 0.683582
O O1 0.500000 0.806503 0.190119
O O2 0.739330 0.759689 0.126522
O O3 0.760192 0.869710 0.192306
O O4 0.727732 0.750351 0.252428
O O5 0.500000 0.903750 0.618475
O O6 0.236632 0.871600 0.572614
O O7 0.267605 0.910244 0.691335
O O8 0.295224 0.000000 0.596643
O O9 0.500000 0.589125 0.161148
O O10 0.691765 0.500000 0.109520
O O11 0.718205 0.631512 0.084636
O O12 0.777334 0.587890 0.199097
O O13 0.189675 0.234699 0.500000
O O14 0.264195 0.253393 0.379705
O O15 0.000000 0.204743 0.406124
O O16 0.500000 0.280025 0.067555
O O17 0.745759 0.270041 0.000000
O O18 0.782639 0.500000 0.704766
O O19 0.740406 0.632309 0.683246
O O20 0.000000 0.590847 0.721833
O O21 0.000000 0.906984 0.741566
O O22 0.196138 0.000000 0.781345
O O23 0.500000 0.294199 0.679446
#
# Coordination Sequence:
#
# PCOD8195843 Si02
#       8
#     8   8   8   8   8   8   8   8
#     4  10  19  32  52  79 105 135 175 218 266 314
#     4  10  20  34  53  78 109 144 180 217 258 307
#     4   9  16  28  47  72 104 140 178 217 257 305
#     4  11  24  39  55  78 109 144 180 218 262 314
#     4   9  17  30  48  73 106 139 174 218 264 311
#     4  10  20  33  52  79 109 141 177 218 265 313
#     4  10  20  33  52  78 105 135 173 218 268 317
#     4  11  21  35  57  82 107 138 177 222 267 311
#
# _framework density 17.727346000000001
#
# number of rings (size 3 to 8) (size 9 to 14) (size 15 to 20)
#    0.000    2.000    2.500    1.875    0.000    4.250 
#    0.000    2.500    0.000    2.250    0.000    7.000 
#    0.000    0.000    0.000    0.000    0.000    0.000 
#
# Total GULP energy -793559.313058 kJ/mol
# GULP energy per Si atom -12399.364267 kJ/mol
# Density = 1.768700 g / cm^3
# Si number density = 17.727346 Si / 1000 Ang^3
#
#
#
# Elastic Constant Matrix: (Units=GPa)
#
#
# Indices 1 2 3 4 5 6 
#
# 1 56.6722 41.0127 28.2842 0.0000 0.0000 0.0000
# 2 41.0127 115.0696 56.4375 0.0000 0.0000 0.0000
# 3 28.2842 56.4375 96.0087 0.0000 0.0000 0.0000
# 4 0.0000 0.0000 0.0000 23.2068 0.0000 0.0000
# 5 0.0000 0.0000 0.0000 0.0000 14.1480 0.0000
# 6 0.0000 0.0000 0.0000 0.0000 0.0000 30.0012
#
#
#
# Elastic Compliance Matrix: (Units=1/GPa)
#
#
# Indices 1 2 3 4 5 6 
#
# 1 0.024344 -0.007249 -0.002910 0.000000 0.000000 0.000000
# 2 -0.007249 0.014370 -0.006311 0.000000 0.000000 0.000000
# 3 -0.002910 -0.006311 0.014983 0.000000 0.000000 0.000000
# 4 0.000000 0.000000 0.000000 0.043091 0.000000 0.000000
# 5 0.000000 0.000000 0.000000 0.000000 0.070681 0.000000
# 6 0.000000 0.000000 0.000000 0.000000 0.000000 0.033332
#
#
# Mechanical properties :
#
#
# Convention : Reuss Voigt Hill
#
# Bulk Modulus (GPa) = 48.18144 57.69100 52.93622
# Shear Modulus (GPa) = 20.77609 22.93894 21.85751
#
# Velocity S-wave (km/s) = 3.42713 3.60110 3.51519
# Velocity P-wave (km/s) = 6.54969 7.06433 6.81187
#
# Compressibility (1/GPa) = 0.02075488
#
# Stress axis : x y z
#
# Youngs Moduli (GPa) = 41.07796 69.59132 66.74134
#
# Poissons Ratio (x) = 0.50448 0.19425
# Poissons Ratio (y) = 0.29778 0.42123
# Poissons Ratio (z) = 0.11955 0.43922
#
# Static dielectric constant tensor:
#      x y z
#    x 3.236490 0.000000 0.000000 
#    y 0.000000 3.554630 0.000000 
#    z 0.000000 0.000000 3.174430 
# 
# 
# High freq. dielectric constant tensor:
#      x y z
#    x 1.681910 0.000000 0.000000 
#    y 0.000000 1.692490 0.000000 
#    z 0.000000 0.000000 1.656890 
# 
# From -- ./inp_files/30173.got.cif
#   From: 2010.03.12/outbox.cif.g09.slc.cpg/sg47_16_cif.got.tgz:30173.got - 2010.04.14 03:12:58.
