data_PCOD8195499
_publ_section_title
;
Structure prediction by ZEFSAII (Michael W. Deem and Ramdas Pophale) SiO2 
 PCOD8195499
Probable space group: P M M M
;
_chemical_formula_sum "Si O2"
_cell_formula_units_Z 48
_cell_length_a 14.089861
_cell_length_b 10.289525
_cell_length_c 18.057018
_cell_angle_alpha 90.000000
_cell_angle_beta 90.000000
_cell_angle_gamma 90.000000
_cell_volume 2617.869940
_symmetry_space_group_name_H-M "P M M M"
_symmetry_group_IT_number 47
_symmetry_cell_setting 'orthorhombic'
loop_
_space_group_symop_operation_xyz
x,y,z
-x,-y,z
x,-y,-z
-x,y,-z
-x,-y,-z
x,y,-z
-x,y,z
x,-y,z
loop_
_atom_site_type_symbol
_atom_site_label
_atom_site_fract_x
_atom_site_fract_y
_atom_site_fract_z
Si Si1 0.112027 0.500000 0.581672
Si Si2 0.891357 0.738467 0.680354
Si Si3 0.245017 0.850789 0.915068
Si Si4 0.701885 0.852306 0.648569
Si Si5 0.609310 0.845030 0.500000
Si Si6 0.891052 0.352896 0.847985
Si Si7 0.394542 0.845718 0.205517
O O1 0.158406 0.500000 0.500000
O O2 0.144147 0.374431 0.626236
O O3 0.000000 0.500000 0.575824
O O4 0.816185 0.850751 0.660742
O O5 0.879922 0.689799 0.763444
O O6 0.000000 0.784326 0.664995
O O7 0.159419 0.751577 0.900534
O O8 0.333254 0.804086 0.865491
O O9 0.214237 0.000000 0.895805
O O10 0.276779 0.840997 0.000000
O O11 0.663906 0.787607 0.572367
O O12 0.651442 0.785669 0.719680
O O13 0.669077 0.000000 0.645726
O O14 0.500000 0.797943 0.500000
O O15 0.615156 0.000000 0.500000
O O16 0.850604 0.500000 0.858030
O O17 0.000000 0.351276 0.871918
O O18 0.500000 0.788175 0.195805
O O19 0.397441 0.000000 0.211055
#
# Coordination Sequence:
#
# PCOD8195499 Si02
#       7
#     4   8   8   8   4   8   8
#     4   9  18  32  50  72  97 129 172 217 256 298
#     4  10  19  32  51  75 103 135 174 216 257 308
#     4  10  21  36  54  81 113 140 174 224 280 331
#     4  10  19  31  49  77 108 137 171 210 260 320
#     4   9  18  32  49  72 105 140 173 216 263 309
#     4  10  20  36  57  79 107 144 184 222 261 315
#     4   9  17  31  52  76 102 135 176 220 264 313
#
# _framework density 18.335518
#
# number of rings (size 3 to 8) (size 9 to 14) (size 15 to 20)
#    0.000    2.333    2.500    0.500    1.167    3.667 
#    0.000    5.000    0.000    2.000    0.000    3.500 
#    0.000    0.000    0.000    0.000    0.000    0.000 
#
# Total GULP energy -594905.477817 kJ/mol
# GULP energy per Si atom -12393.864121 kJ/mol
# Density = 1.829379 g / cm^3
# Si number density = 18.335518 Si / 1000 Ang^3
#
#
#
# Elastic Constant Matrix: (Units=GPa)
#
#
# Indices 1 2 3 4 5 6 
#
# 1 119.1400 27.6020 54.9768 0.0000 0.0000 0.0000
# 2 27.6020 40.7843 28.2813 0.0000 0.0000 0.0000
# 3 54.9768 28.2813 138.3447 0.0000 0.0000 0.0000
# 4 0.0000 0.0000 0.0000 21.6564 0.0000 0.0000
# 5 0.0000 0.0000 0.0000 0.0000 26.3522 0.0000
# 6 0.0000 0.0000 0.0000 0.0000 0.0000 6.8717
#
#
#
# Elastic Compliance Matrix: (Units=1/GPa)
#
#
# Indices 1 2 3 4 5 6 
#
# 1 0.011155 -0.005215 -0.003367 0.000000 0.000000 0.000000
# 2 -0.005215 0.031007 -0.004266 0.000000 0.000000 0.000000
# 3 -0.003367 -0.004266 0.009438 0.000000 0.000000 0.000000
# 4 0.000000 0.000000 0.000000 0.046176 0.000000 0.000000
# 5 0.000000 0.000000 0.000000 0.000000 0.037947 0.000000
# 6 0.000000 0.000000 0.000000 0.000000 0.000000 0.145523
#
#
# Mechanical properties :
#
#
# Convention : Reuss Voigt Hill
#
# Bulk Modulus (GPa) = 38.60341 57.77657 48.18999
# Shear Modulus (GPa) = 15.84391 23.46999 19.65695
#
# Velocity S-wave (km/s) = 2.94276 3.58163 3.27780
# Velocity P-wave (km/s) = 5.71368 6.97734 6.37689
#
# Compressibility (1/GPa) = 0.02590445
#
# Stress axis : x y z
#
# Youngs Moduli (GPa) = 89.64320 32.25077 105.94947
#
# Poissons Ratio (x) = 0.16819 0.35673
# Poissons Ratio (y) = 0.46748 0.45201
# Poissons Ratio (z) = 0.30182 0.13759
#
# Static dielectric constant tensor:
#      x y z
#    x 3.411500 0.000000 0.000000 
#    y 0.000000 2.991020 0.000000 
#    z 0.000000 0.000000 3.631590 
# 
# 
# High freq. dielectric constant tensor:
#      x y z
#    x 1.704500 0.000000 0.000000 
#    y 0.000000 1.665640 0.000000 
#    z 0.000000 0.000000 1.725380 
# 
# From -- ./inp_files/9202.got.cif
#   From: 2010.03.12/outbox.cif.g09.slc.cpg/sg47_5_cif.got.tgz:9202.got - 2010.04.14 03:12:58.
