data_PCOD8195430
_publ_section_title
;
Structure prediction by ZEFSAII (Michael W. Deem and Ramdas Pophale) SiO2 
 PCOD8195430
Probable space group: P M M M
;
_chemical_formula_sum "Si O2"
_cell_formula_units_Z 52
_cell_length_a 13.661912
_cell_length_b 26.726986
_cell_length_c 9.160838
_cell_angle_alpha 90.000000
_cell_angle_beta 90.000000
_cell_angle_gamma 90.000000
_cell_volume 3345.004243
_symmetry_space_group_name_H-M "P M M M"
_symmetry_group_IT_number 47
_symmetry_cell_setting 'orthorhombic'
loop_
_space_group_symop_operation_xyz
x,y,z
-x,-y,z
x,-y,-z
-x,y,-z
-x,-y,-z
x,y,-z
-x,y,z
x,-y,z
loop_
_atom_site_type_symbol
_atom_site_label
_atom_site_fract_x
_atom_site_fract_y
_atom_site_fract_z
Si Si1 0.111502 0.853784 0.170959
Si Si2 0.889064 0.660440 0.325961
Si Si3 0.883804 0.552931 0.663345
Si Si4 0.610187 0.000000 0.673072
Si Si5 0.711983 0.101229 0.673150
Si Si6 0.610354 0.811089 0.833175
Si Si7 0.794376 0.250205 0.166821
O O1 0.180198 0.892024 0.258654
O O2 0.138357 0.796838 0.212567
O O3 0.000000 0.864420 0.216382
O O4 0.129308 0.862410 0.000000
O O5 0.884864 0.659951 0.500000
O O6 0.851007 0.605918 0.264408
O O7 0.817647 0.702725 0.266816
O O8 0.000000 0.671271 0.272771
O O9 0.841237 0.550790 0.500000
O O10 0.851585 0.500000 0.742881
O O11 0.000000 0.555279 0.655872
O O12 0.668929 0.048525 0.727731
O O13 0.500000 0.000000 0.738639
O O14 0.603385 0.000000 0.500000
O O15 0.720604 0.104075 0.500000
O O16 0.637807 0.143758 0.726915
O O17 0.500000 0.793626 0.800609
O O18 0.680908 0.763772 0.806109
O O19 0.623425 0.829821 0.000000
O O20 0.814750 0.265096 0.000000
#
# Coordination Sequence:
#
# PCOD8195430 Si02
#       7
#     8   8   8   4   8   8   8
#     4   9  18  33  49  63  85 118 150 176 204 243
#     4   9  16  24  36  57  83 109 138 171 202 234
#     4   7  10  18  32  49  71 102 138 170 198 231
#     4   9  18  32  48  67  92 116 135 163 210 263
#     4  10  19  31  49  71  91 111 138 172 209 250
#     4   9  18  33  49  63  83 111 141 172 207 250
#     4   9  17  28  42  60  81 107 137 167 204 248
#
# _framework density 15.545572
#
# number of rings (size 3 to 8) (size 9 to 14) (size 15 to 20)
#    0.000    3.154    0.000    3.692    0.000    4.615 
#    0.000    1.923    0.000    5.538    0.000    2.154 
#    0.000    0.615    0.000    7.692    0.000    0.308 
#
# Total GULP energy -644299.554150 kJ/mol
# GULP energy per Si atom -12390.376041 kJ/mol
# Density = 1.551019 g / cm^3
# Si number density = 15.545572 Si / 1000 Ang^3
#
#
#
# Elastic Constant Matrix: (Units=GPa)
#
#
# Indices 1 2 3 4 5 6 
#
# 1 112.1504 61.1465 30.3287 0.0000 0.0000 0.0000
# 2 61.1465 133.7706 37.8557 0.0000 0.0000 0.0000
# 3 30.3287 37.8557 36.5557 0.0000 0.0000 0.0000
# 4 0.0000 0.0000 0.0000 1.9564 0.0000 0.0000
# 5 0.0000 0.0000 0.0000 0.0000 20.9463 0.0000
# 6 0.0000 0.0000 0.0000 0.0000 0.0000 15.9629
#
#
#
# Elastic Compliance Matrix: (Units=1/GPa)
#
#
# Indices 1 2 3 4 5 6 
#
# 1 0.012881 -0.004051 -0.006492 0.000000 0.000000 0.000000
# 2 -0.004051 0.011848 -0.008909 0.000000 0.000000 0.000000
# 3 -0.006492 -0.008909 0.041967 0.000000 0.000000 0.000000
# 4 0.000000 0.000000 0.000000 0.511143 0.000000 0.000000
# 5 0.000000 0.000000 0.000000 0.000000 0.047741 0.000000
# 6 0.000000 0.000000 0.000000 0.000000 0.000000 0.062645
#
#
# Mechanical properties :
#
#
# Convention : Reuss Voigt Hill
#
# Bulk Modulus (GPa) = 35.97984 60.12650 48.05317
# Shear Modulus (GPa) = 6.78985 17.98284 12.38635
#
# Velocity S-wave (km/s) = 2.09217 3.40484 2.82579
# Velocity P-wave (km/s) = 5.38807 7.36334 6.45175
#
# Compressibility (1/GPa) = 0.02779334
#
# Stress axis : x y z
#
# Youngs Moduli (GPa) = 77.63579 84.40144 23.82808
#
# Poissons Ratio (x) = 0.34188 0.15469
# Poissons Ratio (y) = 0.31447 0.21228
# Poissons Ratio (z) = 0.50400 0.75192
#
# Static dielectric constant tensor:
#      x y z
#    x 2.924850 0.000000 0.000000 
#    y 0.000000 3.196530 0.000000 
#    z 0.000000 0.000000 2.738440 
# 
# 
# High freq. dielectric constant tensor:
#      x y z
#    x 1.573870 0.000000 0.000000 
#    y 0.000000 1.596430 0.000000 
#    z 0.000000 0.000000 1.574370 
# 
# From -- ./inp_files/7700.got.cif
#   From: 2010.03.12/outbox.cif.g09.slc.cpg/sg47_4_cif.got.tgz:7700.got - 2010.04.14 03:12:58.
