data_PCOD8195865
_publ_section_title
;
Structure prediction by ZEFSAII (Michael W. Deem and Ramdas Pophale) SiO2 
 PCOD8195865
Probable space group: P M M M
;
_chemical_formula_sum "Si O2"
_cell_formula_units_Z 60
_cell_length_a 19.408969
_cell_length_b 19.311866
_cell_length_c 8.953680
_cell_angle_alpha 90.000000
_cell_angle_beta 90.000000
_cell_angle_gamma 90.000000
_cell_volume 3356.048856
_symmetry_space_group_name_H-M "P M M M"
_symmetry_group_IT_number 47
_symmetry_cell_setting 'orthorhombic'
loop_
_space_group_symop_operation_xyz
x,y,z
-x,-y,z
x,-y,-z
-x,y,-z
-x,-y,-z
x,y,-z
-x,y,z
x,-y,z
loop_
_atom_site_type_symbol
_atom_site_label
_atom_site_fract_x
_atom_site_fract_y
_atom_site_fract_z
Si Si1 0.189659 0.792580 0.176754
Si Si2 0.238790 0.919716 0.676303
Si Si3 0.710353 0.686254 0.675075
Si Si4 0.420725 0.288972 0.166774
Si Si5 0.824855 0.422151 0.325245
Si Si6 0.374822 0.134407 0.833457
Si Si7 0.500000 0.074411 0.674100
Si Si8 0.077735 0.318740 0.174462
O O1 0.180508 0.867154 0.260035
O O2 0.256332 0.752145 0.240414
O O3 0.120681 0.750098 0.214453
O O4 0.200723 0.803674 0.000000
O O5 0.249605 0.909516 0.500000
O O6 0.305194 0.895491 0.767016
O O7 0.220543 0.000000 0.711840
O O8 0.710267 0.703301 0.500000
O O9 0.631751 0.668223 0.727382
O O10 0.754863 0.618447 0.714498
O O11 0.500000 0.285979 0.228984
O O12 0.381811 0.216233 0.160240
O O13 0.422791 0.320855 0.000000
O O14 0.838198 0.422285 0.500000
O O15 0.817822 0.500000 0.262577
O O16 0.890797 0.386061 0.252110
O O17 0.432921 0.113758 0.720170
O O18 0.384722 0.103684 0.000000
O O19 0.500000 0.066471 0.500000
O O20 0.500000 0.000000 0.753104
O O21 0.000000 0.307353 0.231697
O O22 0.080205 0.333281 0.000000
#
# Coordination Sequence:
#
# PCOD8195865 Si02
#       8
#     8   8   8   8   8   8   4   8
#     4  10  19  33  54  76 101 135 174 213 256 308
#     4  11  23  36  50  71  99 129 166 216 268 312
#     4  10  19  32  53  77 101 133 174 216 257 303
#     4  10  20  34  50  70  98 129 165 214 267 313
#     4   9  19  35  54  80 114 147 176 207 246 296
#     4  11  21  34  50  68  92 126 166 209 261 319
#     4  11  23  35  45  61  91 129 166 207 258 315
#     4   9  19  35  55  82 114 144 174 210 250 294
#
# _framework density 17.878166
#
# number of rings (size 3 to 8) (size 9 to 14) (size 15 to 20)
#    0.000    1.933    2.000    2.200    0.000    5.867 
#    0.000    1.333    0.000    0.800    0.000    5.600 
#    0.000    0.000    0.000    0.000    0.000    0.000 
#
# Total GULP energy -743607.334708 kJ/mol
# GULP energy per Si atom -12393.455578 kJ/mol
# Density = 1.783747 g / cm^3
# Si number density = 17.878166 Si / 1000 Ang^3
#
#
#
# Elastic Constant Matrix: (Units=GPa)
#
#
# Indices 1 2 3 4 5 6 
#
# 1 123.1654 55.2170 40.4009 0.0000 0.0000 0.0000
# 2 55.2170 107.1047 35.4007 0.0000 0.0000 0.0000
# 3 40.4009 35.4007 66.8207 0.0000 0.0000 0.0000
# 4 0.0000 0.0000 0.0000 21.8281 0.0000 0.0000
# 5 0.0000 0.0000 0.0000 0.0000 27.7602 0.0000
# 6 0.0000 0.0000 0.0000 0.0000 0.0000 18.4329
#
#
#
# Elastic Compliance Matrix: (Units=1/GPa)
#
#
# Indices 1 2 3 4 5 6 
#
# 1 0.011655 -0.004461 -0.004684 0.000000 0.000000 0.000000
# 2 -0.004461 0.013026 -0.004204 0.000000 0.000000 0.000000
# 3 -0.004684 -0.004204 0.020024 0.000000 0.000000 0.000000
# 4 0.000000 0.000000 0.000000 0.045812 0.000000 0.000000
# 5 0.000000 0.000000 0.000000 0.000000 0.036023 0.000000
# 6 0.000000 0.000000 0.000000 0.000000 0.000000 0.054251
#
#
# Mechanical properties :
#
#
# Convention : Reuss Voigt Hill
#
# Bulk Modulus (GPa) = 55.52814 62.12530 58.82672
# Shear Modulus (GPa) = 23.42013 24.67572 24.04793
#
# Velocity S-wave (km/s) = 3.62330 3.71916 3.67154
# Velocity P-wave (km/s) = 6.97359 7.29846 7.13788
#
# Compressibility (1/GPa) = 0.01800889
#
# Stress axis : x y z
#
# Youngs Moduli (GPa) = 85.79741 76.77052 49.93885
#
# Poissons Ratio (x) = 0.34245 0.23390
# Poissons Ratio (y) = 0.38272 0.20994
# Poissons Ratio (z) = 0.40186 0.32273
#
# Static dielectric constant tensor:
#      x y z
#    x 3.446100 0.000000 0.000000 
#    y 0.000000 3.426840 0.000000 
#    z 0.000000 0.000000 3.434970 
# 
# 
# High freq. dielectric constant tensor:
#      x y z
#    x 1.682740 0.000000 0.000000 
#    y 0.000000 1.675400 0.000000 
#    z 0.000000 0.000000 1.699920 
# 
# From -- ./inp_files/11669.got.cif
#   From: 2010.03.12/outbox.cif.g09.slc.cpg/sg47_6_cif.got.tgz:11669.got - 2010.04.14 03:12:58.
