data_PCOD8195646
_publ_section_title
;
Structure prediction by ZEFSAII (Michael W. Deem and Ramdas Pophale) SiO2 
 PCOD8195646
Probable space group: P M M M
;
_chemical_formula_sum "Si O2"
_cell_formula_units_Z 52
_cell_length_a 18.010707
_cell_length_b 17.848314
_cell_length_c 8.879837
_cell_angle_alpha 90.000000
_cell_angle_beta 90.000000
_cell_angle_gamma 90.000000
_cell_volume 2854.519097
_symmetry_space_group_name_H-M "P M M M"
_symmetry_group_IT_number 47
_symmetry_cell_setting 'orthorhombic'
loop_
_space_group_symop_operation_xyz
x,y,z
-x,-y,z
x,-y,-z
-x,y,-z
-x,-y,-z
x,y,-z
-x,y,z
x,-y,z
loop_
_atom_site_type_symbol
_atom_site_label
_atom_site_fract_x
_atom_site_fract_y
_atom_site_fract_z
Si Si1 0.419095 0.359435 0.826602
Si Si2 0.414431 0.915695 0.668699
Si Si3 0.338321 0.788651 0.829053
Si Si4 0.085922 0.163285 0.178225
Si Si5 0.198616 0.724909 0.323109
Si Si6 0.911814 0.000000 0.166238
Si Si7 0.263586 0.415555 0.822483
O O1 0.500000 0.378310 0.750369
O O2 0.404553 0.270921 0.807111
O O3 0.348002 0.403798 0.758039
O O4 0.425352 0.382062 0.000000
O O5 0.403149 0.883347 0.500000
O O6 0.500000 0.912909 0.714257
O O7 0.368514 0.870012 0.790728
O O8 0.384437 0.000000 0.675874
O O9 0.271741 0.771196 0.716620
O O10 0.308298 0.787181 0.000000
O O11 0.128519 0.230845 0.257907
O O12 0.111664 0.080079 0.242287
O O13 0.000000 0.176230 0.215788
O O14 0.100295 0.166099 0.000000
O O15 0.189074 0.717201 0.500000
O O16 0.205408 0.641065 0.254212
O O17 0.000000 0.000000 0.152822
O O18 0.876849 0.000000 0.000000
O O19 0.237887 0.500000 0.786915
O O20 0.263954 0.398116 0.000000
#
# Coordination Sequence:
#
# PCOD8195646 Si02
#       7
#     8   8   8   8   8   4   8
#     4   8  14  25  44  72 100 123 154 204 260 306
#     4   9  18  32  48  67  95 130 166 210 268 325
#     4  10  19  32  49  69  95 129 175 220 256 300
#     4   9  17  33  58  84 109 137 170 209 252 303
#     4  11  22  35  52  75 105 140 174 210 258 312
#     4   7  12  26  51  81 107 131 160 195 238 289
#     4   9  18  33  53  76 103 136 173 214 260 313
#
# _framework density 18.216726999999999
#
# number of rings (size 3 to 8) (size 9 to 14) (size 15 to 20)
#    0.000    2.846    0.000    4.615    0.000    2.154 
#    1.385    2.692    0.000    6.000    0.000    7.538 
#    0.000    0.000    0.000    0.000    0.000    0.000 
#
# Total GULP energy -644284.891933 kJ/mol
# GULP energy per Si atom -12390.094076 kJ/mol
# Density = 1.817527 g / cm^3
# Si number density = 18.216727 Si / 1000 Ang^3
#
#
#
# Elastic Constant Matrix: (Units=GPa)
#
#
# Indices 1 2 3 4 5 6 
#
# 1 71.1898 58.2951 35.1944 0.0000 0.0000 0.0000
# 2 58.2951 142.0917 51.1434 0.0000 0.0000 0.0000
# 3 35.1944 51.1434 61.2783 0.0000 0.0000 0.0000
# 4 0.0000 0.0000 0.0000 19.9119 0.0000 0.0000
# 5 0.0000 0.0000 0.0000 0.0000 18.3539 0.0000
# 6 0.0000 0.0000 0.0000 0.0000 0.0000 23.7695
#
#
#
# Elastic Compliance Matrix: (Units=1/GPa)
#
#
# Indices 1 2 3 4 5 6 
#
# 1 0.023495 -0.006836 -0.007789 0.000000 0.000000 0.000000
# 2 -0.006836 0.012048 -0.006130 0.000000 0.000000 0.000000
# 3 -0.007789 -0.006130 0.025908 0.000000 0.000000 0.000000
# 4 0.000000 0.000000 0.000000 0.050221 0.000000 0.000000
# 5 0.000000 0.000000 0.000000 0.000000 0.054484 0.000000
# 6 0.000000 0.000000 0.000000 0.000000 0.000000 0.042071
#
#
# Mechanical properties :
#
#
# Convention : Reuss Voigt Hill
#
# Bulk Modulus (GPa) = 50.14250 62.64728 56.39489
# Shear Modulus (GPa) = 19.50193 21.06886 20.28540
#
# Velocity S-wave (km/s) = 3.27548 3.40452 3.34062
# Velocity P-wave (km/s) = 6.47227 7.06534 6.77530
#
# Compressibility (1/GPa) = 0.01994316
#
# Stress axis : x y z
#
# Youngs Moduli (GPa) = 42.56192 82.99825 38.59742
#
# Poissons Ratio (x) = 0.56735 0.30064
# Poissons Ratio (y) = 0.29094 0.23659
# Poissons Ratio (z) = 0.33152 0.50876
#
# Static dielectric constant tensor:
#      x y z
#    x 3.192240 0.000000 0.000000 
#    y 0.000000 3.479500 0.000000 
#    z 0.000000 0.000000 3.046700 
# 
# 
# High freq. dielectric constant tensor:
#      x y z
#    x 1.682060 0.000000 0.000000 
#    y 0.000000 1.710930 0.000000 
#    z 0.000000 0.000000 1.673690 
# 
# From -- ./inp_files/9555.got.cif
#   From: 2010.03.12/outbox.cif.g09.slc.cpg/sg47_5_cif.got.tgz:9555.got - 2010.04.14 03:12:58.
