data_PCOD8195025
_publ_section_title
;
Structure prediction by ZEFSAII (Michael W. Deem and Ramdas Pophale) SiO2 
 PCOD8195025
Probable space group: P M M M
;
_chemical_formula_sum "Si O2"
_cell_formula_units_Z 48
_cell_length_a 21.646647
_cell_length_b 9.436593
_cell_length_c 17.052727
_cell_angle_alpha 90.000000
_cell_angle_beta 90.000000
_cell_angle_gamma 90.000000
_cell_volume 3483.370734
_symmetry_space_group_name_H-M "P M M M"
_symmetry_group_IT_number 47
_symmetry_cell_setting 'orthorhombic'
loop_
_space_group_symop_operation_xyz
x,y,z
-x,-y,z
x,-y,-z
-x,y,-z
-x,-y,-z
x,y,-z
-x,y,z
x,-y,z
loop_
_atom_site_type_symbol
_atom_site_label
_atom_site_fract_x
_atom_site_fract_y
_atom_site_fract_z
Si Si1 0.260781 0.332659 0.092129
Si Si2 0.072980 0.000000 0.414348
Si Si3 0.073126 0.245910 0.694970
Si Si4 0.500000 0.337180 0.906467
Si Si5 0.926992 0.500000 0.588509
Si Si6 0.854960 0.170061 0.150280
Si Si7 0.931839 0.832928 0.000000
Si Si8 0.382522 0.838108 0.092762
O O1 0.264391 0.500000 0.112660
O O2 0.209073 0.253211 0.143023
O O3 0.323277 0.253707 0.117579
O O4 0.247516 0.310985 0.000000
O O5 0.096031 0.128746 0.364143
O O6 0.104477 0.000000 0.500000
O O7 0.000000 0.000000 0.424972
O O8 0.095575 0.375465 0.643525
O O9 0.109546 0.230917 0.775231
O O10 0.000000 0.243140 0.713837
O O11 0.500000 0.500000 0.874586
O O12 0.441003 0.249812 0.874564
O O13 0.500000 0.342334 0.000000
O O14 0.897868 0.500000 0.500000
O O15 0.000000 0.500000 0.577548
O O16 0.895898 0.217138 0.076630
O O17 0.844889 0.000000 0.154385
O O18 0.000000 0.763335 0.000000
O O19 0.938112 0.000000 0.000000
O O20 0.380314 0.000000 0.126779
O O21 0.387015 0.848574 0.000000
#
# Coordination Sequence:
#
# PCOD8195025 Si02
#       8
#     8   4   8   4   4   8   4   8
#     4  10  20  32  44  57  77 107 144 182 219 256
#     4   9  16  28  46  65  83 101 123 159 210 263
#     4  10  19  30  45  65  85 104 131 171 214 261
#     4   9  15  23  37  59  85 107 129 165 214 255
#     4   9  18  32  48  65  85 107 127 153 206 273
#     4  11  20  31  45  61  81 107 143 180 218 259
#     4   9  18  30  45  59  75 102 137 178 221 261
#     4   9  16  26  41  59  79 103 136 174 214 253
#
# _framework density 13.779757
#
# number of rings (size 3 to 8) (size 9 to 14) (size 15 to 20)
#    0.000    2.333    1.667    2.250    1.167    6.333 
#    0.000    0.000    0.000    0.500    0.000    0.000 
#    0.000    0.000    0.000    0.000    0.000    0.000 
#
# Total GULP energy -594701.524131 kJ/mol
# GULP energy per Si atom -12389.615086 kJ/mol
# Density = 1.374839 g / cm^3
# Si number density = 13.779757 Si / 1000 Ang^3
#
#
#
# Elastic Constant Matrix: (Units=GPa)
#
#
# Indices 1 2 3 4 5 6 
#
# 1 96.4507 52.2575 40.1559 0.0000 0.0000 0.0000
# 2 52.2575 125.0128 44.8610 0.0000 0.0000 0.0000
# 3 40.1559 44.8610 93.5493 0.0000 0.0000 0.0000
# 4 0.0000 0.0000 0.0000 26.4644 0.0000 0.0000
# 5 0.0000 0.0000 0.0000 0.0000 -14.3939 0.0000
# 6 0.0000 0.0000 0.0000 0.0000 0.0000 23.8487
#
#
#
# Elastic Compliance Matrix: (Units=1/GPa)
#
#
# Indices 1 2 3 4 5 6 
#
# 1 0.014558 -0.004642 -0.004023 0.000000 0.000000 0.000000
# 2 -0.004642 0.011142 -0.003351 0.000000 0.000000 0.000000
# 3 -0.004023 -0.003351 0.014023 0.000000 0.000000 0.000000
# 4 0.000000 0.000000 0.000000 0.037787 0.000000 0.000000
# 5 0.000000 0.000000 0.000000 0.000000 -0.069474 0.000000
# 6 0.000000 0.000000 0.000000 0.000000 0.000000 0.041931
#
#
# Mechanical properties :
#
#
# Convention : Reuss Voigt Hill
#
# Bulk Modulus (GPa) = 63.72578 65.50684 64.61631
# Shear Modulus (GPa) = 63.10918 19.03307 41.07113
#
# Velocity S-wave (km/s) = 6.77480 3.72053 5.46536
# Velocity P-wave (km/s) = 10.37032 8.13007 9.31777
#
# Compressibility (1/GPa) = 0.01569224
#
# Stress axis : x y z
#
# Youngs Moduli (GPa) = 68.69141 89.75150 71.31072
#
# Poissons Ratio (x) = 0.41661 0.28688
# Poissons Ratio (y) = 0.31885 0.23893
# Poissons Ratio (z) = 0.27635 0.30072
#
# Static dielectric constant tensor:
#      x y z
#    x 2.651400 0.000000 0.000000 
#    y 0.000000 2.851550 0.000000 
#    z 0.000000 0.000000 2.163210 
# 
# 
# High freq. dielectric constant tensor:
#      x y z
#    x 1.503800 0.000000 0.000000 
#    y 0.000000 1.543350 0.000000 
#    z 0.000000 0.000000 1.486450 
# 
# From -- ./inp_files/28708.got.cif
#   From: 2010.03.12/outbox.cif.g09.slc.cpg/sg47_15_cif.got.tgz:28708.got - 2010.04.14 03:12:58.
