data_PCOD8195544
_publ_section_title
;
Structure prediction by ZEFSAII (Michael W. Deem and Ramdas Pophale) SiO2 
 PCOD8195544
Probable space group: P M M M
;
_chemical_formula_sum "Si O2"
_cell_formula_units_Z 52
_cell_length_a 13.402332
_cell_length_b 9.315062
_cell_length_c 22.714251
_cell_angle_alpha 90.000000
_cell_angle_beta 90.000000
_cell_angle_gamma 90.000000
_cell_volume 2835.727810
_symmetry_space_group_name_H-M "P M M M"
_symmetry_group_IT_number 47
_symmetry_cell_setting 'orthorhombic'
loop_
_space_group_symop_operation_xyz
x,y,z
-x,-y,z
x,-y,-z
-x,y,-z
-x,-y,-z
x,y,-z
-x,y,z
x,-y,z
loop_
_atom_site_type_symbol
_atom_site_label
_atom_site_fract_x
_atom_site_fract_y
_atom_site_fract_z
Si Si1 0.223007 0.333711 0.565233
Si Si2 0.885007 0.335279 0.681384
Si Si3 0.304564 0.671036 0.136666
Si Si4 0.276240 0.167859 0.745520
Si Si5 0.387640 0.166427 0.626610
Si Si6 0.500000 0.669860 0.065703
Si Si7 0.110956 0.329735 0.933782
O O1 0.183168 0.292267 0.500000
O O2 0.249723 0.500000 0.568482
O O3 0.139892 0.293154 0.613766
O O4 0.324374 0.249861 0.578205
O O5 0.854316 0.500000 0.693945
O O6 0.830543 0.232541 0.727532
O O7 0.000000 0.309283 0.692137
O O8 0.303292 0.500000 0.145864
O O9 0.318603 0.749602 0.198412
O O10 0.399104 0.721102 0.097962
O O11 0.200784 0.726863 0.107357
O O12 0.352684 0.198847 0.692848
O O13 0.264526 0.000000 0.759342
O O14 0.500000 0.220943 0.620880
O O15 0.376846 0.000000 0.612035
O O16 0.500000 0.500000 0.062224
O O17 0.500000 0.735645 0.000000
O O18 0.116028 0.500000 0.935252
O O19 0.000000 0.281519 0.910928
O O20 0.127357 0.270552 0.000000
#
# Coordination Sequence:
#
# PCOD8195544 Si02
#       7
#     8   8   8   8   8   4   8
#     4   9  18  32  50  76 106 130 159 203 254 306
#     4   9  18  34  55  76 101 135 171 207 249 300
#     4  10  19  31  50  76 102 130 168 211 257 310
#     4  10  21  35  51  72 100 133 169 212 256 301
#     4   9  19  35  52  68  91 130 174 211 249 296
#     4   9  18  32  51  77 107 137 170 215 266 311
#     4   8  14  26  46  71  96 123 158 200 243 290
#
# _framework density 18.337444999999999
#
# number of rings (size 3 to 8) (size 9 to 14) (size 15 to 20)
#    0.000    2.846    0.000    1.385    1.077    4.615 
#    0.000    4.615    0.000    2.308    0.000    5.385 
#    0.000    0.000    0.000    0.000    0.000    0.000 
#
# Total GULP energy -644655.607170 kJ/mol
# GULP energy per Si atom -12397.223215 kJ/mol
# Density = 1.829571 g / cm^3
# Si number density = 18.337445 Si / 1000 Ang^3
#
#
#
# Elastic Constant Matrix: (Units=GPa)
#
#
# Indices 1 2 3 4 5 6 
#
# 1 84.6085 20.8146 27.4262 0.0000 0.0000 0.0000
# 2 20.8146 38.4110 30.7064 0.0000 0.0000 0.0000
# 3 27.4262 30.7064 98.9253 0.0000 0.0000 0.0000
# 4 0.0000 0.0000 0.0000 18.4682 0.0000 0.0000
# 5 0.0000 0.0000 0.0000 0.0000 16.9534 0.0000
# 6 0.0000 0.0000 0.0000 0.0000 0.0000 18.9129
#
#
#
# Elastic Compliance Matrix: (Units=1/GPa)
#
#
# Indices 1 2 3 4 5 6 
#
# 1 0.013934 -0.005935 -0.002021 0.000000 0.000000 0.000000
# 2 -0.005935 0.037155 -0.009887 0.000000 0.000000 0.000000
# 3 -0.002021 -0.009887 0.013738 0.000000 0.000000 0.000000
# 4 0.000000 0.000000 0.000000 0.054147 0.000000 0.000000
# 5 0.000000 0.000000 0.000000 0.000000 0.058985 0.000000
# 6 0.000000 0.000000 0.000000 0.000000 0.000000 0.052874
#
#
# Mechanical properties :
#
#
# Convention : Reuss Voigt Hill
#
# Bulk Modulus (GPa) = 34.31725 42.20435 38.26080
# Shear Modulus (GPa) = 18.10062 20.40007 19.25034
#
# Velocity S-wave (km/s) = 3.14520 3.33901 3.24355
# Velocity P-wave (km/s) = 5.65196 6.15879 5.91081
#
# Compressibility (1/GPa) = 0.02913987
#
# Stress axis : x y z
#
# Youngs Moduli (GPa) = 71.76496 26.91456 72.79131
#
# Poissons Ratio (x) = 0.15975 0.14710
# Poissons Ratio (y) = 0.42596 0.71971
# Poissons Ratio (z) = 0.14502 0.26611
#
# Static dielectric constant tensor:
#      x y z
#    x 3.530490 0.000000 0.000000 
#    y 0.000000 3.117060 0.000000 
#    z 0.000000 0.000000 3.484250 
# 
# 
# High freq. dielectric constant tensor:
#      x y z
#    x 1.715210 0.000000 0.000000 
#    y 0.000000 1.677770 0.000000 
#    z 0.000000 0.000000 1.714720 
# 
# From -- ./inp_files/6926.got.cif
#   From: 2010.03.12/outbox.cif.g09.slc.cpg/sg47_4_cif.got.tgz:6926.got - 2010.04.14 03:12:58.
