data_PCOD8195707
_publ_section_title
;
Structure prediction by ZEFSAII (Michael W. Deem and Ramdas Pophale) SiO2 
 PCOD8195707
Probable space group: P M M M
;
_chemical_formula_sum "Si O2"
_cell_formula_units_Z 44
_cell_length_a 9.388806
_cell_length_b 16.874334
_cell_length_c 15.032915
_cell_angle_alpha 90.000000
_cell_angle_beta 90.000000
_cell_angle_gamma 90.000000
_cell_volume 2381.662443
_symmetry_space_group_name_H-M "P M M M"
_symmetry_group_IT_number 47
_symmetry_cell_setting 'orthorhombic'
loop_
_space_group_symop_operation_xyz
x,y,z
-x,-y,z
x,-y,-z
-x,y,-z
-x,-y,-z
x,y,-z
-x,y,z
x,-y,z
loop_
_atom_site_type_symbol
_atom_site_label
_atom_site_fract_x
_atom_site_fract_y
_atom_site_fract_z
Si Si1 0.837393 0.592966 0.836894
Si Si2 0.829513 0.409202 0.500000
Si Si3 0.831180 0.000000 0.398376
Si Si4 0.168540 0.685318 0.332156
Si Si5 0.658028 0.405535 0.000000
Si Si6 0.169359 0.856892 0.273405
Si Si7 0.665295 0.092935 0.101084
O O1 0.821040 0.500000 0.823118
O O2 0.776561 0.635224 0.750745
O O3 0.000000 0.615972 0.857780
O O4 0.741029 0.626839 0.915280
O O5 0.772268 0.500000 0.500000
O O6 0.767186 0.359328 0.417354
O O7 0.000000 0.411300 0.500000
O O8 0.778342 0.075919 0.342336
O O9 0.768939 0.000000 0.500000
O O10 0.000000 0.000000 0.405036
O O11 0.218789 0.775767 0.321117
O O12 0.000000 0.682259 0.338833
O O13 0.656546 0.500000 0.000000
O O14 0.500000 0.369875 0.000000
O O15 0.241114 0.863171 0.176077
O O16 0.000000 0.860262 0.258076
O O17 0.500000 0.112504 0.118096
O O18 0.694091 0.000000 0.110730
O O19 0.707708 0.119834 0.000000
#
# Coordination Sequence:
#
# PCOD8195707 Si02
#       7
#     8   4   4   8   4   8   8
#     4   9  16  29  48  68  93 127 162 196 243 296
#     4   9  16  28  48  75 106 137 168 205 253 307
#     4   9  18  30  48  73 102 136 167 199 244 301
#     4   9  18  29  45  72 103 131 162 207 252 291
#     4   9  17  29  47  71  95 122 161 204 242 288
#     4  10  19  32  50  76 105 133 169 210 252 297
#     4   9  18  34  55  75  98 133 173 212 257 308
#
# _framework density 18.474491
#
# number of rings (size 3 to 8) (size 9 to 14) (size 15 to 20)
#    0.000    2.818    0.909    1.364    1.273    3.636 
#    1.636    1.818    0.000    1.091    0.000    1.909 
#    0.000    5.818    0.000    0.000    0.000    0.000 
#
# Total GULP energy -545350.412707 kJ/mol
# GULP energy per Si atom -12394.327562 kJ/mol
# Density = 1.843244 g / cm^3
# Si number density = 18.474491 Si / 1000 Ang^3
#
#
#
# Elastic Constant Matrix: (Units=GPa)
#
#
# Indices 1 2 3 4 5 6 
#
# 1 45.3479 33.0050 49.9742 0.0000 0.0000 0.0000
# 2 33.0050 101.5441 87.7462 0.0000 0.0000 0.0000
# 3 49.9742 87.7462 194.2877 0.0000 0.0000 0.0000
# 4 0.0000 0.0000 0.0000 129.4359 0.0000 0.0000
# 5 0.0000 0.0000 0.0000 0.0000 6.8265 0.0000
# 6 0.0000 0.0000 0.0000 0.0000 0.0000 10.4181
#
#
#
# Elastic Compliance Matrix: (Units=1/GPa)
#
#
# Indices 1 2 3 4 5 6 
#
# 1 0.032536 -0.005484 -0.005892 0.000000 0.000000 0.000000
# 2 -0.005484 0.017075 -0.006301 0.000000 0.000000 0.000000
# 3 -0.005892 -0.006301 0.009508 0.000000 0.000000 0.000000
# 4 0.000000 0.000000 0.000000 0.007726 0.000000 0.000000
# 5 0.000000 0.000000 0.000000 0.000000 0.146488 0.000000
# 6 0.000000 0.000000 0.000000 0.000000 0.000000 0.095987
#
#
# Mechanical properties :
#
#
# Convention : Reuss Voigt Hill
#
# Bulk Modulus (GPa) = 42.07754 75.84782 58.96268
# Shear Modulus (GPa) = 14.18050 40.69972 27.44011
#
# Velocity S-wave (km/s) = 2.77351 4.69873 3.85814
# Velocity P-wave (km/s) = 5.75169 8.40131 7.19944
#
# Compressibility (1/GPa) = 0.02376565
#
# Stress axis : x y z
#
# Youngs Moduli (GPa) = 30.73490 58.56414 105.16971
#
# Poissons Ratio (x) = 0.32114 0.61969
# Poissons Ratio (y) = 0.16854 0.66270
# Poissons Ratio (z) = 0.18110 0.36903
#
# Static dielectric constant tensor:
#      x y z
#    x 2.995540 0.000000 0.000000 
#    y 0.000000 3.385940 0.000000 
#    z 0.000000 0.000000 3.756100 
# 
# 
# High freq. dielectric constant tensor:
#      x y z
#    x 1.665120 0.000000 0.000000 
#    y 0.000000 1.712480 0.000000 
#    z 0.000000 0.000000 1.732310 
# 
# From -- ./inp_files/20986.got.cif
#   From: 2010.03.12/outbox.cif.g09.slc.cpg/sg47_11_cif.got.tgz:20986.got - 2010.04.14 03:12:58.
