data_PCOD8195461
_publ_section_title
;
Structure prediction by ZEFSAII (Michael W. Deem and Ramdas Pophale) SiO2 
 PCOD8195461
Probable space group: P M M M
;
_chemical_formula_sum "Si O2"
_cell_formula_units_Z 48
_cell_length_a 9.051083
_cell_length_b 14.169082
_cell_length_c 20.701251
_cell_angle_alpha 90.000000
_cell_angle_beta 90.000000
_cell_angle_gamma 90.000000
_cell_volume 2654.843056
_symmetry_space_group_name_H-M "P M M M"
_symmetry_group_IT_number 47
_symmetry_cell_setting 'orthorhombic'
loop_
_space_group_symop_operation_xyz
x,y,z
-x,-y,z
x,-y,-z
-x,y,-z
-x,-y,-z
x,y,-z
-x,y,z
x,-y,z
loop_
_atom_site_type_symbol
_atom_site_label
_atom_site_fract_x
_atom_site_fract_y
_atom_site_fract_z
Si Si1 0.175691 0.397124 0.815964
Si Si2 0.170907 0.889957 0.740353
Si Si3 0.675715 0.893613 0.500000
Si Si4 0.175075 0.205546 0.871751
Si Si5 0.828064 0.393126 0.331265
Si Si6 0.176677 0.892653 0.000000
Si Si7 0.674957 0.216251 0.374350
O O1 0.235166 0.500000 0.839789
O O2 0.236359 0.312568 0.861230
O O3 0.226113 0.378785 0.742455
O O4 0.000000 0.398523 0.817115
O O5 0.222224 0.859737 0.811809
O O6 0.269419 0.835731 0.689264
O O7 0.000000 0.862722 0.729294
O O8 0.198996 0.000000 0.732178
O O9 0.500000 0.896471 0.500000
O O10 0.734733 0.839542 0.563184
O O11 0.739780 0.000000 0.500000
O O12 0.000000 0.208329 0.877652
O O13 0.241183 0.161221 0.937206
O O14 0.796512 0.500000 0.353989
O O15 0.736737 0.322773 0.376938
O O16 0.000000 0.368660 0.337421
O O17 0.000000 0.892262 0.000000
O O18 0.234988 0.000000 0.000000
O O19 0.500000 0.219668 0.373611
#
# Coordination Sequence:
#
# PCOD8195461 Si02
#       7
#     8   8   4   8   8   4   8
#     4   8  13  23  42  65  89 121 157 193 241 295
#     4  10  19  31  49  72  98 129 168 213 256 300
#     4   9  20  38  54  69  98 140 173 199 248 309
#     4   9  15  25  41  63  93 126 163 204 247 297
#     4   9  17  32  54  77 103 134 164 200 251 306
#     4   9  16  24  35  57  92 132 166 199 248 301
#     4  11  21  34  54  77 101 130 167 211 254 298
#
# _framework density 18.080165000000001
#
# number of rings (size 3 to 8) (size 9 to 14) (size 15 to 20)
#    0.000    2.667    1.667    2.500    0.000    3.333 
#    0.000    2.500    0.000    8.000    0.000    0.583 
#    0.000    2.000    0.000    3.667    0.000    3.667 
#
# Total GULP energy -595017.717215 kJ/mol
# GULP energy per Si atom -12396.202442 kJ/mol
# Density = 1.803901 g / cm^3
# Si number density = 18.080165 Si / 1000 Ang^3
#
#
#
# Elastic Constant Matrix: (Units=GPa)
#
#
# Indices 1 2 3 4 5 6 
#
# 1 30.3244 31.9474 26.3791 0.0000 0.0000 0.0000
# 2 31.9474 164.2157 71.6747 0.0000 0.0000 0.0000
# 3 26.3791 71.6747 114.0991 0.0000 0.0000 0.0000
# 4 0.0000 0.0000 0.0000 36.4309 0.0000 0.0000
# 5 0.0000 0.0000 0.0000 0.0000 3.0271 0.0000
# 6 0.0000 0.0000 0.0000 0.0000 0.0000 19.7394
#
#
#
# Elastic Compliance Matrix: (Units=1/GPa)
#
#
# Indices 1 2 3 4 5 6 
#
# 1 0.044960 -0.005800 -0.006751 0.000000 0.000000 0.000000
# 2 -0.005800 0.009138 -0.004399 0.000000 0.000000 0.000000
# 3 -0.006751 -0.004399 0.013089 0.000000 0.000000 0.000000
# 4 0.000000 0.000000 0.000000 0.027449 0.000000 0.000000
# 5 0.000000 0.000000 0.000000 0.000000 0.330350 0.000000
# 6 0.000000 0.000000 0.000000 0.000000 0.000000 0.050660
#
#
# Mechanical properties :
#
#
# Convention : Reuss Voigt Hill
#
# Bulk Modulus (GPa) = 30.04291 63.18240 46.61265
# Shear Modulus (GPa) = 9.60351 23.74868 16.67610
#
# Velocity S-wave (km/s) = 2.30720 3.62818 3.04030
# Velocity P-wave (km/s) = 4.87341 7.25074 6.17751
#
# Compressibility (1/GPa) = 0.03328573
#
# Stress axis : x y z
#
# Youngs Moduli (GPa) = 22.24200 109.43123 76.40163
#
# Poissons Ratio (x) = 0.63472 0.51578
# Poissons Ratio (y) = 0.12901 0.33612
# Poissons Ratio (z) = 0.15015 0.48143
#
# Static dielectric constant tensor:
#      x y z
#    x 2.801030 0.000000 0.000000 
#    y 0.000000 3.828460 0.000000 
#    z 0.000000 0.000000 3.389260 
# 
# 
# High freq. dielectric constant tensor:
#      x y z
#    x 1.640040 0.000000 0.000000 
#    y 0.000000 1.725030 0.000000 
#    z 0.000000 0.000000 1.686660 
# 
# From -- ./inp_files/26572.got.cif
#   From: 2010.03.12/outbox.cif.g09.slc.cpg/sg47_14_cif.got.tgz:26572.got - 2010.04.14 03:12:58.
