data_PCOD8195434
_publ_section_title
;
Structure prediction by ZEFSAII (Michael W. Deem and Ramdas Pophale) SiO2 
 PCOD8195434
Probable space group: P M M M
;
_chemical_formula_sum "Si O2"
_cell_formula_units_Z 52
_cell_length_a 23.418486
_cell_length_b 14.418873
_cell_length_c 9.365244
_cell_angle_alpha 90.000000
_cell_angle_beta 90.000000
_cell_angle_gamma 90.000000
_cell_volume 3162.344854
_symmetry_space_group_name_H-M "P M M M"
_symmetry_group_IT_number 47
_symmetry_cell_setting 'orthorhombic'
loop_
_space_group_symop_operation_xyz
x,y,z
-x,-y,z
x,-y,-z
-x,y,-z
-x,-y,-z
x,y,-z
-x,y,z
x,-y,z
loop_
_atom_site_type_symbol
_atom_site_label
_atom_site_fract_x
_atom_site_fract_y
_atom_site_fract_z
Si Si1 0.562271 0.287818 0.668950
Si Si2 0.267981 0.897941 0.163141
Si Si3 0.890877 0.608112 0.834425
Si Si4 0.618039 0.897507 0.666536
Si Si5 0.673526 0.607414 0.668476
Si Si6 0.775365 0.295698 0.165575
Si Si7 0.000000 0.389724 0.338555
O O1 0.560316 0.297415 0.500000
O O2 0.500000 0.317028 0.731849
O O3 0.572951 0.180624 0.713670
O O4 0.612960 0.353262 0.727115
O O5 0.322651 0.876991 0.257698
O O6 0.222469 0.815760 0.190624
O O7 0.241590 0.000000 0.199829
O O8 0.288668 0.895677 0.000000
O O9 0.879603 0.500000 0.805563
O O10 0.835397 0.663591 0.781491
O O11 0.943881 0.646575 0.742925
O O12 0.904530 0.626670 0.000000
O O13 0.631233 0.889616 0.500000
O O14 0.594093 0.000000 0.705962
O O15 0.679472 0.624544 0.500000
O O16 0.676299 0.500000 0.708420
O O17 0.724719 0.659662 0.744940
O O18 0.765447 0.320910 0.000000
O O19 0.000000 0.500000 0.335815
O O20 0.000000 0.351373 0.500000
#
# Coordination Sequence:
#
# PCOD8195434 Si02
#       7
#     8   8   8   8   8   8   4
#     4   9  17  29  44  63  87 114 147 187 231 280
#     4   9  17  29  46  68  93 119 146 181 228 276
#     4   9  17  29  45  66  93 125 157 185 216 259
#     4   9  16  27  45  66  86 110 142 183 231 281
#     4  10  20  32  46  65  89 117 151 193 236 274
#     4  10  19  31  49  71  94 122 154 188 227 273
#     4   9  17  29  45  67  96 127 156 186 221 257
#
# _framework density 16.443496
#
# number of rings (size 3 to 8) (size 9 to 14) (size 15 to 20)
#    0.000    2.692    1.538    0.692    0.000    3.077 
#    0.000    4.615    0.000    1.846    0.000    3.769 
#    0.000    4.308    0.000    0.000    0.000    0.000 
#
# Total GULP energy -644524.088657 kJ/mol
# GULP energy per Si atom -12394.694013 kJ/mol
# Density = 1.640607 g / cm^3
# Si number density = 16.443496 Si / 1000 Ang^3
#
#
#
# Elastic Constant Matrix: (Units=GPa)
#
#
# Indices 1 2 3 4 5 6 
#
# 1 137.0827 66.0740 39.4563 0.0000 0.0000 0.0000
# 2 66.0740 95.9511 29.5039 0.0000 0.0000 0.0000
# 3 39.4563 29.5039 37.3476 0.0000 0.0000 0.0000
# 4 0.0000 0.0000 0.0000 16.8148 0.0000 0.0000
# 5 0.0000 0.0000 0.0000 0.0000 37.0114 0.0000
# 6 0.0000 0.0000 0.0000 0.0000 0.0000 17.5707
#
#
#
# Elastic Compliance Matrix: (Units=1/GPa)
#
#
# Indices 1 2 3 4 5 6 
#
# 1 0.012718 -0.006111 -0.008609 0.000000 0.000000 0.000000
# 2 -0.006111 0.016702 -0.006738 0.000000 0.000000 0.000000
# 3 -0.008609 -0.006738 0.041193 0.000000 0.000000 0.000000
# 4 0.000000 0.000000 0.000000 0.059471 0.000000 0.000000
# 5 0.000000 0.000000 0.000000 0.000000 0.027019 0.000000
# 6 0.000000 0.000000 0.000000 0.000000 0.000000 0.056913
#
#
# Mechanical properties :
#
#
# Convention : Reuss Voigt Hill
#
# Bulk Modulus (GPa) = 36.10417 60.04997 48.07707
# Shear Modulus (GPa) = 18.78531 23.30253 21.04392
#
# Velocity S-wave (km/s) = 3.38363 3.76856 3.58127
# Velocity P-wave (km/s) = 6.10487 7.45213 6.81189
#
# Compressibility (1/GPa) = 0.02769763
#
# Stress axis : x y z
#
# Youngs Moduli (GPa) = 78.62769 59.87287 24.27570
#
# Poissons Ratio (x) = 0.36588 0.20898
# Poissons Ratio (y) = 0.48049 0.16358
# Poissons Ratio (z) = 0.67689 0.40345
#
# Static dielectric constant tensor:
#      x y z
#    x 3.141740 0.000000 0.000000 
#    y 0.000000 3.315310 0.000000 
#    z 0.000000 0.000000 2.996100 
# 
# 
# High freq. dielectric constant tensor:
#      x y z
#    x 1.618030 0.000000 0.000000 
#    y 0.000000 1.630580 0.000000 
#    z 0.000000 0.000000 1.616160 
# 
# From -- ./inp_files/7592.got.cif
#   From: 2010.03.12/outbox.cif.g09.slc.cpg/sg47_4_cif.got.tgz:7592.got - 2010.04.14 03:12:58.
