data_PCOD8195518
_publ_section_title
;
Structure prediction by ZEFSAII (Michael W. Deem and Ramdas Pophale) SiO2 
 PCOD8195518
Probable space group: P M M M
;
_chemical_formula_sum "Si O2"
_cell_formula_units_Z 64
_cell_length_a 9.163318
_cell_length_b 14.615933
_cell_length_c 27.784690
_cell_angle_alpha 90.000000
_cell_angle_beta 90.000000
_cell_angle_gamma 90.000000
_cell_volume 3721.215811
_symmetry_space_group_name_H-M "P M M M"
_symmetry_group_IT_number 47
_symmetry_cell_setting 'orthorhombic'
loop_
_space_group_symop_operation_xyz
x,y,z
-x,-y,z
x,-y,-z
-x,y,-z
-x,-y,-z
x,y,-z
-x,y,z
x,-y,z
loop_
_atom_site_type_symbol
_atom_site_label
_atom_site_fract_x
_atom_site_fract_y
_atom_site_fract_z
Si Si1 0.173316 0.102684 0.946879
Si Si2 0.827399 0.210275 0.855614
Si Si3 0.668261 0.604478 0.444136
Si Si4 0.662520 0.351092 0.725875
Si Si5 0.827670 0.709219 0.635705
Si Si6 0.833098 0.400983 0.815403
Si Si7 0.166682 0.900799 0.323575
Si Si8 0.662272 0.148934 0.765768
O O1 0.231163 0.174889 0.907256
O O2 0.000000 0.103423 0.947151
O O3 0.228240 0.000000 0.934464
O O4 0.231069 0.131670 0.000000
O O5 0.781378 0.317434 0.849742
O O6 0.752725 0.147380 0.815196
O O7 0.000000 0.197106 0.850910
O O8 0.695979 0.624091 0.500000
O O9 0.500000 0.621700 0.430784
O O10 0.711588 0.500000 0.431713
O O11 0.768211 0.675651 0.415380
O O12 0.500000 0.390143 0.715931
O O13 0.754785 0.353587 0.676778
O O14 0.741475 0.410480 0.766480
O O15 0.653246 0.250005 0.745715
O O16 0.782753 0.816552 0.642486
O O17 0.000000 0.695364 0.637669
O O18 0.816973 0.500000 0.842125
O O19 0.000000 0.382463 0.800406
O O20 0.257818 0.910537 0.274544
O O21 0.000000 0.882567 0.308416
O O22 0.183274 0.000000 0.350267
O O23 0.500000 0.109640 0.775167
#
# Coordination Sequence:
#
# PCOD8195518 Si02
#       8
#     8   8   8   8   8   8   8   8
#     4   8  14  25  42  64  85 104 134 178 222 264
#     4   9  16  27  44  63  84 113 146 179 220 268
#     4   9  19  36  55  73  94 121 152 187 231 281
#     4   9  17  29  44  62  87 119 152 184 218 258
#     4  10  19  31  50  74  97 122 154 192 231 268
#     4   9  17  28  41  59  86 118 149 180 214 256
#     4   9  18  32  48  67  95 130 162 188 218 263
#     4   9  17  28  42  63  90 117 148 186 223 258
#
# _framework density 17.19868
#
# number of rings (size 3 to 8) (size 9 to 14) (size 15 to 20)
#    0.000    3.000    0.000    1.875    0.000    5.500 
#    0.000    1.875    0.000    1.125    0.000    6.125 
#    0.000    0.000    0.000    6.250    0.000    6.500 
#
# Total GULP energy -793105.460359 kJ/mol
# GULP energy per Si atom -12392.272818 kJ/mol
# Density = 1.715954 g / cm^3
# Si number density = 17.198680 Si / 1000 Ang^3
#
#
#
# Elastic Constant Matrix: (Units=GPa)
#
#
# Indices 1 2 3 4 5 6 
#
# 1 67.5803 32.6334 41.6047 0.0000 0.0000 0.0000
# 2 32.6334 101.1526 58.4653 0.0000 0.0000 0.0000
# 3 41.6047 58.4653 107.0351 0.0000 0.0000 0.0000
# 4 0.0000 0.0000 0.0000 23.6861 0.0000 0.0000
# 5 0.0000 0.0000 0.0000 0.0000 13.4251 0.0000
# 6 0.0000 0.0000 0.0000 0.0000 0.0000 12.2312
#
#
#
# Elastic Compliance Matrix: (Units=1/GPa)
#
#
# Indices 1 2 3 4 5 6 
#
# 1 0.020004 -0.002863 -0.006212 0.000000 0.000000 0.000000
# 2 -0.002863 0.014857 -0.007002 0.000000 0.000000 0.000000
# 3 -0.006212 -0.007002 0.015582 0.000000 0.000000 0.000000
# 4 0.000000 0.000000 0.000000 0.042219 0.000000 0.000000
# 5 0.000000 0.000000 0.000000 0.000000 0.074487 0.000000
# 6 0.000000 0.000000 0.000000 0.000000 0.000000 0.081758
#
#
# Mechanical properties :
#
#
# Convention : Reuss Voigt Hill
#
# Bulk Modulus (GPa) = 54.67888 60.13054 57.40471
# Shear Modulus (GPa) = 17.41203 19.40612 18.40908
#
# Velocity S-wave (km/s) = 3.18528 3.36274 3.27521
# Velocity P-wave (km/s) = 6.73718 7.07923 6.91032
#
# Compressibility (1/GPa) = 0.01828860
#
# Stress axis : x y z
#
# Youngs Moduli (GPa) = 49.99024 67.30782 64.17655
#
# Poissons Ratio (x) = 0.19273 0.39863
# Poissons Ratio (y) = 0.14314 0.44939
# Poissons Ratio (z) = 0.31051 0.47131
#
# Static dielectric constant tensor:
#      x y z
#    x 3.240260 0.000000 0.000000 
#    y 0.000000 3.249020 0.000000 
#    z 0.000000 0.000000 3.157680 
# 
# 
# High freq. dielectric constant tensor:
#      x y z
#    x 1.654400 0.000000 0.000000 
#    y 0.000000 1.662270 0.000000 
#    z 0.000000 0.000000 1.636880 
# 
# From -- ./inp_files/25847.got.cif
#   From: 2010.03.12/outbox.cif.g09.slc.cpg/sg47_13_cif.got.tgz:25847.got - 2010.04.14 03:12:58.
