data_PCOD8195488
_publ_section_title
;
Structure prediction by ZEFSAII (Michael W. Deem and Ramdas Pophale) SiO2 
 PCOD8195488
Probable space group: P M M M
;
_chemical_formula_sum "Si O2"
_cell_formula_units_Z 52
_cell_length_a 28.406090
_cell_length_b 11.734682
_cell_length_c 8.864227
_cell_angle_alpha 90.000000
_cell_angle_beta 90.000000
_cell_angle_gamma 90.000000
_cell_volume 2954.769810
_symmetry_space_group_name_H-M "P M M M"
_symmetry_group_IT_number 47
_symmetry_cell_setting 'orthorhombic'
loop_
_space_group_symop_operation_xyz
x,y,z
-x,-y,z
x,-y,-z
-x,y,-z
-x,-y,-z
x,y,-z
-x,y,z
x,-y,z
loop_
_atom_site_type_symbol
_atom_site_label
_atom_site_fract_x
_atom_site_fract_y
_atom_site_fract_z
Si Si1 0.905314 0.869198 0.321496
Si Si2 0.552193 0.127238 0.820914
Si Si3 0.814257 0.259766 0.321149
Si Si4 0.000000 0.864577 0.170104
Si Si5 0.279180 0.134210 0.326515
Si Si6 0.672067 0.500000 0.321135
Si Si7 0.779550 0.500000 0.679613
Si Si8 0.360462 0.270984 0.178286
O O1 0.909220 0.859946 0.500000
O O2 0.862343 0.793786 0.255913
O O3 0.953300 0.818438 0.252284
O O4 0.896925 0.000000 0.272006
O O5 0.500000 0.166200 0.767530
O O6 0.590919 0.215846 0.760626
O O7 0.563003 0.000000 0.758303
O O8 0.554364 0.123298 0.000000
O O9 0.817519 0.260632 0.500000
O O10 0.770790 0.181697 0.269918
O O11 0.806594 0.388153 0.259042
O O12 0.000000 0.000000 0.178814
O O13 0.000000 0.819189 0.000000
O O14 0.288549 0.170929 0.500000
O O15 0.318714 0.185557 0.219745
O O16 0.278690 0.000000 0.307589
O O17 0.670836 0.500000 0.500000
O O18 0.725831 0.500000 0.261035
O O19 0.644935 0.609418 0.260565
O O20 0.778553 0.500000 0.500000
O O21 0.361059 0.290408 0.000000
#
# Coordination Sequence:
#
# PCOD8195488 Si02
#       8
#     8   8   8   4   8   4   4   8
#     4   9  16  27  46  71  96 121 156 203 246 284
#     4   8  15  30  52  76 102 133 168 207 254 306
#     4   9  16  28  47  72  97 126 167 209 244 287
#     4   9  17  29  45  66  95 128 158 189 238 303
#     4  10  19  31  49  74 105 139 170 200 247 312
#     4  11  21  37  56  72  98 139 178 209 249 307
#     4   9  16  29  51  71  91 125 171 209 239 282
#     4  11  21  33  52  78 104 130 168 218 262 299
#
# _framework density 17.598665
#
# number of rings (size 3 to 8) (size 9 to 14) (size 15 to 20)
#    0.000    2.538    1.538    2.308    0.000    3.692 
#    0.000    1.154    0.000    6.462    0.000    8.615 
#    0.000    0.000    0.000    0.000    0.000    0.000 
#
# Total GULP energy -644693.916774 kJ/mol
# GULP energy per Si atom -12397.959938 kJ/mol
# Density = 1.755861 g / cm^3
# Si number density = 17.598665 Si / 1000 Ang^3
#
#
#
# Elastic Constant Matrix: (Units=GPa)
#
#
# Indices 1 2 3 4 5 6 
#
# 1 173.7595 83.3394 31.9186 0.0000 0.0000 0.0000
# 2 83.3394 121.0816 26.4863 0.0000 0.0000 0.0000
# 3 31.9186 26.4863 33.9873 0.0000 0.0000 0.0000
# 4 0.0000 0.0000 0.0000 20.3842 0.0000 0.0000
# 5 0.0000 0.0000 0.0000 0.0000 18.3250 0.0000
# 6 0.0000 0.0000 0.0000 0.0000 0.0000 17.2623
#
#
#
# Elastic Compliance Matrix: (Units=1/GPa)
#
#
# Indices 1 2 3 4 5 6 
#
# 1 0.009111 -0.005304 -0.004424 0.000000 0.000000 0.000000
# 2 -0.005304 0.013043 -0.005184 0.000000 0.000000 0.000000
# 3 -0.004424 -0.005184 0.037617 0.000000 0.000000 0.000000
# 4 0.000000 0.000000 0.000000 0.049058 0.000000 0.000000
# 5 0.000000 0.000000 0.000000 0.000000 0.054570 0.000000
# 6 0.000000 0.000000 0.000000 0.000000 0.000000 0.057930
#
#
# Mechanical properties :
#
#
# Convention : Reuss Voigt Hill
#
# Bulk Modulus (GPa) = 33.38974 68.03523 50.71249
# Shear Modulus (GPa) = 19.14720 23.66657 21.40689
#
# Velocity S-wave (km/s) = 3.30205 3.67112 3.49147
# Velocity P-wave (km/s) = 5.79242 7.53079 6.71807
#
# Compressibility (1/GPa) = 0.02994932
#
# Stress axis : x y z
#
# Youngs Moduli (GPa) = 109.75184 76.66769 26.58375
#
# Poissons Ratio (x) = 0.40662 0.11760
# Poissons Ratio (y) = 0.58209 0.13781
# Poissons Ratio (z) = 0.48551 0.39743
#
# Static dielectric constant tensor:
#      x y z
#    x 3.565510 0.000000 0.000000 
#    y 0.000000 3.373010 0.000000 
#    z 0.000000 0.000000 2.924190 
# 
# 
# High freq. dielectric constant tensor:
#      x y z
#    x 1.688400 0.000000 0.000000 
#    y 0.000000 1.672530 0.000000 
#    z 0.000000 0.000000 1.643740 
# 
# From -- ./inp_files/13336.got.cif
#   From: 2010.03.12/outbox.cif.g09.slc.cpg/sg47_7_cif.got.tgz:13336.got - 2010.04.14 03:12:58.
