data_PCOD8195067
_publ_section_title
;
Structure prediction by ZEFSAII (Michael W. Deem and Ramdas Pophale) SiO2 
 PCOD8195067
Probable space group: P M M M
;
_chemical_formula_sum "Si O2"
_cell_formula_units_Z 52
_cell_length_a 9.242710
_cell_length_b 14.105748
_cell_length_c 23.950803
_cell_angle_alpha 90.000000
_cell_angle_beta 90.000000
_cell_angle_gamma 90.000000
_cell_volume 3122.594039
_symmetry_space_group_name_H-M "P M M M"
_symmetry_group_IT_number 47
_symmetry_cell_setting 'orthorhombic'
loop_
_space_group_symop_operation_xyz
x,y,z
-x,-y,z
x,-y,-z
-x,y,-z
-x,-y,-z
x,y,-z
-x,y,z
x,-y,z
loop_
_atom_site_type_symbol
_atom_site_label
_atom_site_fract_x
_atom_site_fract_y
_atom_site_fract_z
Si Si1 0.165476 0.386948 0.500000
Si Si2 0.331549 0.390920 0.608538
Si Si3 0.830950 0.109938 0.331987
Si Si4 0.673215 0.606601 0.821322
Si Si5 0.329611 0.272384 0.282521
Si Si6 0.662155 0.612635 0.940906
Si Si7 0.661399 0.112371 0.438902
O O1 0.177780 0.500000 0.500000
O O2 0.244635 0.348068 0.555695
O O3 0.000000 0.352327 0.500000
O O4 0.500000 0.379950 0.594870
O O5 0.290296 0.500000 0.619381
O O6 0.286960 0.334573 0.663874
O O7 0.751190 0.171226 0.284625
O O8 0.772708 0.146586 0.391981
O O9 0.000000 0.129064 0.329975
O O10 0.793305 0.000000 0.321666
O O11 0.500000 0.605487 0.822903
O O12 0.729712 0.500000 0.809373
O O13 0.729622 0.674690 0.772478
O O14 0.733744 0.645409 0.881838
O O15 0.500000 0.254620 0.279070
O O16 0.500000 0.653363 0.943433
O O17 0.656326 0.500000 0.938051
O O18 0.740633 0.643924 0.000000
O O19 0.709964 0.150963 0.500000
O O20 0.500000 0.150400 0.424056
O O21 0.657974 0.000000 0.441006
#
# Coordination Sequence:
#
# PCOD8195067 Si02
#       7
#     4   8   8   8   8   8   8
#     4   9  17  29  45  63  82 107 140 177 215 250
#     4   9  17  30  47  65  85 109 138 172 210 253
#     4  10  21  35  48  62  83 111 141 176 220 267
#     4   8  13  22  38  62  92 122 151 181 209 244
#     4  10  19  30  46  67  87 112 145 180 217 255
#     4   7   9  14  27  51  86 125 154 172 198 240
#     4   8  14  27  48  69  84  99 123 160 208 261
#
# _framework density 16.652822
#
# number of rings (size 3 to 8) (size 9 to 14) (size 15 to 20)
#    0.000    3.308    0.000    3.000    0.000    4.615 
#    1.385    1.538    0.000    1.385    0.000    0.000 
#    0.000    1.231    0.000   11.538    0.000    4.615 
#
# Total GULP energy -644219.675905 kJ/mol
# GULP energy per Si atom -12388.839921 kJ/mol
# Density = 1.661492 g / cm^3
# Si number density = 16.652822 Si / 1000 Ang^3
#
#
#
# Elastic Constant Matrix: (Units=GPa)
#
#
# Indices 1 2 3 4 5 6 
#
# 1 43.3416 24.4870 44.6814 0.0000 0.0000 0.0000
# 2 24.4870 56.6663 56.2706 0.0000 0.0000 0.0000
# 3 44.6814 56.2706 166.7450 0.0000 0.0000 0.0000
# 4 0.0000 0.0000 0.0000 12.7802 0.0000 0.0000
# 5 0.0000 0.0000 0.0000 0.0000 2.9181 0.0000
# 6 0.0000 0.0000 0.0000 0.0000 0.0000 14.4662
#
#
#
# Elastic Compliance Matrix: (Units=1/GPa)
#
#
# Indices 1 2 3 4 5 6 
#
# 1 0.034460 -0.008605 -0.006330 0.000000 0.000000 0.000000
# 2 -0.008605 0.028690 -0.007376 0.000000 0.000000 0.000000
# 3 -0.006330 -0.007376 0.010183 0.000000 0.000000 0.000000
# 4 0.000000 0.000000 0.000000 0.078246 0.000000 0.000000
# 5 0.000000 0.000000 0.000000 0.000000 0.342694 0.000000
# 6 0.000000 0.000000 0.000000 0.000000 0.000000 0.069127
#
#
# Mechanical properties :
#
#
# Convention : Reuss Voigt Hill
#
# Bulk Modulus (GPa) = 34.83086 57.51453 46.17269
# Shear Modulus (GPa) = 8.09596 15.45381 11.77489
#
# Velocity S-wave (km/s) = 2.20730 3.04961 2.66198
# Velocity P-wave (km/s) = 5.23999 6.85657 6.10205
#
# Compressibility (1/GPa) = 0.02871017
#
# Stress axis : x y z
#
# Youngs Moduli (GPa) = 29.01917 34.85496 98.20704
#
# Poissons Ratio (x) = 0.29993 0.62165
# Poissons Ratio (y) = 0.24972 0.72439
# Poissons Ratio (z) = 0.18369 0.25709
#
# Static dielectric constant tensor:
#      x y z
#    x 2.791870 0.000000 0.000000 
#    y 0.000000 2.934180 0.000000 
#    z 0.000000 0.000000 3.627600 
# 
# 
# High freq. dielectric constant tensor:
#      x y z
#    x 1.601570 0.000000 0.000000 
#    y 0.000000 1.613560 0.000000 
#    z 0.000000 0.000000 1.640930 
# 
# From -- ./inp_files/32012.got.cif
#   From: 2010.03.12/outbox.cif.g09.slc.cpg/sg47_17_cif.got.tgz:32012.got - 2010.04.14 03:12:58.
