data_PCOD8195593
_publ_section_title
;
Structure prediction by ZEFSAII (Michael W. Deem and Ramdas Pophale) SiO2 
 PCOD8195593
Probable space group: P M M M
;
_chemical_formula_sum "Si O2"
_cell_formula_units_Z 64
_cell_length_a 23.849272
_cell_length_b 15.557288
_cell_length_c 8.740776
_cell_angle_alpha 90.000000
_cell_angle_beta 90.000000
_cell_angle_gamma 90.000000
_cell_volume 3243.090059
_symmetry_space_group_name_H-M "P M M M"
_symmetry_group_IT_number 47
_symmetry_cell_setting 'orthorhombic'
loop_
_space_group_symop_operation_xyz
x,y,z
-x,-y,z
x,-y,-z
-x,y,-z
-x,-y,-z
x,y,-z
-x,y,z
x,-y,z
loop_
_atom_site_type_symbol
_atom_site_label
_atom_site_fract_x
_atom_site_fract_y
_atom_site_fract_z
Si Si1 0.562908 0.904553 0.318083
Si Si2 0.063186 0.649646 0.821635
Si Si3 0.062642 0.830948 0.324568
Si Si4 0.759084 0.747428 0.179493
Si Si5 0.362577 0.250286 0.681871
Si Si6 0.835173 0.095247 0.823529
Si Si7 0.437164 0.595249 0.318071
Si Si8 0.172162 0.596394 0.324480
O O1 0.563370 0.901845 0.500000
O O2 0.500000 0.882871 0.260162
O O3 0.606436 0.834619 0.252080
O O4 0.580638 0.000000 0.261161
O O5 0.072289 0.749160 0.782952
O O6 0.107083 0.593903 0.725419
O O7 0.000000 0.620509 0.778355
O O8 0.074936 0.635687 0.000000
O O9 0.072516 0.803626 0.500000
O O10 0.107495 0.901807 0.273631
O O11 0.000000 0.868615 0.302398
O O12 0.700746 0.747233 0.265529
O O13 0.792002 0.832539 0.235296
O O14 0.793360 0.661902 0.220068
O O15 0.748213 0.749644 0.000000
O O16 0.364358 0.250407 0.500000
O O17 0.394402 0.334173 0.748426
O O18 0.808991 0.000000 0.799460
O O19 0.849997 0.111711 0.000000
O O20 0.436813 0.598336 0.500000
O O21 0.500000 0.615856 0.259253
O O22 0.418664 0.500000 0.262065
O O23 0.176990 0.625993 0.500000
O O24 0.196416 0.500000 0.303813
#
# Coordination Sequence:
#
# PCOD8195593 Si02
#       8
#     8   8   8   8   8   8   8   8
#     4   8  14  26  47  78 113 144 178 225 278 328
#     4  10  20  35  58  87 118 151 184 221 272 336
#     4  10  20  34  56  86 117 146 179 226 283 338
#     4  11  24  41  58  78 109 150 192 235 281 335
#     4  10  19  31  52  79 106 139 181 228 274 324
#     4  10  22  40  60  80 105 144 192 237 284 339
#     4   8  14  26  47  77 109 137 169 213 264 317
#     4  11  24  41  62  86 112 144 185 236 289 336
#
# _framework density 19.734266000000002
#
# number of rings (size 3 to 8) (size 9 to 14) (size 15 to 20)
#    0.000    2.250    1.250    2.625    0.000    6.250 
#    0.000    3.750    0.000    1.500    0.000    1.750 
#    0.000    0.000    0.000    0.000    0.000    0.000 
#
# Total GULP energy -793501.531502 kJ/mol
# GULP energy per Si atom -12398.461430 kJ/mol
# Density = 1.968935 g / cm^3
# Si number density = 19.734266 Si / 1000 Ang^3
#
#
#
# Elastic Constant Matrix: (Units=GPa)
#
#
# Indices 1 2 3 4 5 6 
#
# 1 124.4978 71.3043 13.8979 0.0000 0.0000 0.0000
# 2 71.3043 136.1251 18.2068 0.0000 0.0000 0.0000
# 3 13.8979 18.2068 24.7110 0.0000 0.0000 0.0000
# 4 0.0000 0.0000 0.0000 18.9765 0.0000 0.0000
# 5 0.0000 0.0000 0.0000 0.0000 9.5741 0.0000
# 6 0.0000 0.0000 0.0000 0.0000 0.0000 14.5147
#
#
#
# Elastic Compliance Matrix: (Units=1/GPa)
#
#
# Indices 1 2 3 4 5 6 
#
# 1 0.011588 -0.005767 -0.002269 0.000000 0.000000 0.000000
# 2 -0.005767 0.011019 -0.004875 0.000000 0.000000 0.000000
# 3 -0.002269 -0.004875 0.045336 0.000000 0.000000 0.000000
# 4 0.000000 0.000000 0.000000 0.052697 0.000000 0.000000
# 5 0.000000 0.000000 0.000000 0.000000 0.104449 0.000000
# 6 0.000000 0.000000 0.000000 0.000000 0.000000 0.068896
#
#
# Mechanical properties :
#
#
# Convention : Reuss Voigt Hill
#
# Bulk Modulus (GPa) = 23.74071 54.68355 39.21213
# Shear Modulus (GPa) = 14.97694 20.74137 17.85915
#
# Velocity S-wave (km/s) = 2.75786 3.24548 3.01156
# Velocity P-wave (km/s) = 4.71141 6.46640 5.65737
#
# Compressibility (1/GPa) = 0.04212175
#
# Stress axis : x y z
#
# Youngs Moduli (GPa) = 86.29383 90.75286 22.05760
#
# Poissons Ratio (x) = 0.52334 0.05004
# Poissons Ratio (y) = 0.49763 0.10754
# Poissons Ratio (z) = 0.19577 0.44245
#
# Static dielectric constant tensor:
#      x y z
#    x 3.638090 0.000000 0.000000 
#    y 0.000000 3.779640 0.000000 
#    z 0.000000 0.000000 3.259010 
# 
# 
# High freq. dielectric constant tensor:
#      x y z
#    x 1.765710 0.000000 0.000000 
#    y 0.000000 1.774900 0.000000 
#    z 0.000000 0.000000 1.739230 
# 
# From -- ./inp_files/12785.got.cif
#   From: 2010.03.12/outbox.cif.g09.slc.cpg/sg47_7_cif.got.tgz:12785.got - 2010.04.14 03:12:58.
