data_PCOD8195699
_publ_section_title
;
Structure prediction by ZEFSAII (Michael W. Deem and Ramdas Pophale) SiO2 
 PCOD8195699
Probable space group: P M M M
;
_chemical_formula_sum "Si O2"
_cell_formula_units_Z 52
_cell_length_a 27.711394
_cell_length_b 7.950557
_cell_length_c 12.868351
_cell_angle_alpha 90.000000
_cell_angle_beta 90.000000
_cell_angle_gamma 90.000000
_cell_volume 2835.168186
_symmetry_space_group_name_H-M "P M M M"
_symmetry_group_IT_number 47
_symmetry_cell_setting 'orthorhombic'
loop_
_space_group_symop_operation_xyz
x,y,z
-x,-y,z
x,-y,-z
-x,y,-z
-x,-y,-z
x,y,-z
-x,y,z
x,-y,z
loop_
_atom_site_type_symbol
_atom_site_label
_atom_site_fract_x
_atom_site_fract_y
_atom_site_fract_z
Si Si1 0.383111 0.812465 0.621147
Si Si2 0.945618 0.799151 0.700859
Si Si3 0.227962 0.196665 0.881119
Si Si4 0.715492 0.309997 0.311380
Si Si5 0.110448 0.799690 0.500000
Si Si6 0.219526 0.801339 0.500000
Si Si7 0.445940 0.500000 0.376417
Si Si8 0.880660 0.799832 0.885696
O O1 0.372867 0.781287 0.500000
O O2 0.331975 0.804045 0.679333
O O3 0.419554 0.669767 0.663830
O O4 0.404912 0.000000 0.640029
O O5 0.917673 0.730387 0.600337
O O6 0.918070 0.726984 0.801902
O O7 0.000000 0.728557 0.700738
O O8 0.945967 0.000000 0.701610
O O9 0.263418 0.293960 0.804215
O O10 0.173544 0.261842 0.860776
O O11 0.231584 0.000000 0.856500
O O12 0.243204 0.234559 0.000000
O O13 0.699034 0.500000 0.331626
O O14 0.755272 0.261058 0.395751
O O15 0.164982 0.730552 0.500000
O O16 0.110677 0.000000 0.500000
O O17 0.219761 0.000000 0.500000
O O18 0.500000 0.500000 0.330284
O O19 0.447819 0.500000 0.500000
O O20 0.880637 0.000000 0.883808
O O21 0.896442 0.735680 0.000000
#
# Coordination Sequence:
#
# PCOD8195699 Si02
#       8
#     8   8   8   8   4   4   4   8
#     4  10  19  32  50  73 106 145 184 225 270 318
#     4   9  15  22  34  54  83 117 147 184 242 305
#     4   9  18  33  51  69  94 132 172 207 252 315
#     4  12  22  32  48  73 105 135 170 217 267 315
#     4   9  17  27  38  55  82 114 155 197 235 297
#     4  11  21  32  49  70  92 131 175 207 252 317
#     4   9  18  32  50  74 107 147 189 231 270 310
#     4   8  14  25  40  58  82 113 150 193 240 298
#
# _framework density 18.341062999999998
#
# number of rings (size 3 to 8) (size 9 to 14) (size 15 to 20)
#    0.000    2.385    1.538    3.692    0.000    4.308 
#    0.000    3.077    0.000    0.000    0.000    0.000 
#    0.000   26.462    0.000   16.769    0.000   13.692 
#
# Total GULP energy -644722.321711 kJ/mol
# GULP energy per Si atom -12398.506187 kJ/mol
# Density = 1.829932 g / cm^3
# Si number density = 18.341063 Si / 1000 Ang^3
#
#
#
# Elastic Constant Matrix: (Units=GPa)
#
#
# Indices 1 2 3 4 5 6 
#
# 1 133.4224 34.0970 57.7263 0.0000 0.0000 0.0000
# 2 34.0970 71.0770 19.4692 0.0000 0.0000 0.0000
# 3 57.7263 19.4692 105.7159 0.0000 0.0000 0.0000
# 4 0.0000 0.0000 0.0000 10.9522 0.0000 0.0000
# 5 0.0000 0.0000 0.0000 0.0000 14.0098 0.0000
# 6 0.0000 0.0000 0.0000 0.0000 0.0000 10.6710
#
#
#
# Elastic Compliance Matrix: (Units=1/GPa)
#
#
# Indices 1 2 3 4 5 6 
#
# 1 0.010668 -0.003709 -0.005142 0.000000 0.000000 0.000000
# 2 -0.003709 0.016106 -0.000941 0.000000 0.000000 0.000000
# 3 -0.005142 -0.000941 0.012440 0.000000 0.000000 0.000000
# 4 0.000000 0.000000 0.000000 0.091306 0.000000 0.000000
# 5 0.000000 0.000000 0.000000 0.000000 0.071378 0.000000
# 6 0.000000 0.000000 0.000000 0.000000 0.000000 0.093712
#
#
# Mechanical properties :
#
#
# Convention : Reuss Voigt Hill
#
# Bulk Modulus (GPa) = 50.94125 59.20005 55.07065
# Shear Modulus (GPa) = 15.54060 20.38812 17.96436
#
# Velocity S-wave (km/s) = 2.91402 3.33770 3.13303
# Velocity P-wave (km/s) = 6.25753 6.87030 6.57106
#
# Compressibility (1/GPa) = 0.01963046
#
# Stress axis : x y z
#
# Youngs Moduli (GPa) = 93.74206 62.08774 80.38331
#
# Poissons Ratio (x) = 0.23028 0.41333
# Poissons Ratio (y) = 0.34769 0.07563
# Poissons Ratio (z) = 0.48202 0.05842
#
# Static dielectric constant tensor:
#      x y z
#    x 3.396430 0.000000 0.000000 
#    y 0.000000 3.132570 0.000000 
#    z 0.000000 0.000000 3.356360 
# 
# 
# High freq. dielectric constant tensor:
#      x y z
#    x 1.698580 0.000000 0.000000 
#    y 0.000000 1.691890 0.000000 
#    z 0.000000 0.000000 1.692980 
# 
# From -- ./inp_files/19849.got.cif
#   From: 2010.03.12/outbox.cif.g09.slc.cpg/sg47_10_cif.got.tgz:19849.got - 2010.04.14 03:12:58.
