data_PCOD8195177
_publ_section_title
;
Structure prediction by ZEFSAII (Michael W. Deem and Ramdas Pophale) SiO2 
 PCOD8195177
Probable space group: P M M M
;
_chemical_formula_sum "Si O2"
_cell_formula_units_Z 56
_cell_length_a 9.191267
_cell_length_b 18.812102
_cell_length_c 18.599257
_cell_angle_alpha 90.000000
_cell_angle_beta 90.000000
_cell_angle_gamma 90.000000
_cell_volume 3215.942703
_symmetry_space_group_name_H-M "P M M M"
_symmetry_group_IT_number 47
_symmetry_cell_setting 'orthorhombic'
loop_
_space_group_symop_operation_xyz
x,y,z
-x,-y,z
x,-y,-z
-x,y,-z
-x,-y,-z
x,y,-z
-x,y,z
x,-y,z
loop_
_atom_site_type_symbol
_atom_site_label
_atom_site_fract_x
_atom_site_fract_y
_atom_site_fract_z
Si Si1 0.170292 0.722010 0.417324
Si Si2 0.827396 0.423015 0.647936
Si Si3 0.167431 0.917785 0.789785
Si Si4 0.666449 0.711655 0.157189
Si Si5 0.829614 0.578906 0.189291
Si Si6 0.670635 0.802014 0.704168
Si Si7 0.669606 0.146751 0.082348
O O1 0.200608 0.739618 0.500000
O O2 0.228166 0.641945 0.401146
O O3 0.259568 0.778551 0.370968
O O4 0.000000 0.728476 0.398227
O O5 0.771053 0.500000 0.618315
O O6 0.771291 0.413038 0.729279
O O7 0.000000 0.424363 0.648408
O O8 0.254623 0.875014 0.729010
O O9 0.235608 0.905366 0.868623
O O10 0.000000 0.892758 0.790930
O O11 0.180778 0.000000 0.769719
O O12 0.500000 0.690346 0.149531
O O13 0.755893 0.639963 0.141275
O O14 0.701496 0.741733 0.236494
O O15 0.710036 0.771259 0.098827
O O16 0.789898 0.500000 0.160032
O O17 0.000000 0.591514 0.185890
O O18 0.500000 0.815871 0.694003
O O19 0.500000 0.134267 0.100751
O O20 0.705222 0.129270 0.000000
#
# Coordination Sequence:
#
# PCOD8195177 Si02
#       7
#     8   8   8   8   8   8   8
#     4  10  19  30  48  73 100 133 171 212 258 302
#     4   8  14  25  41  64  95 129 166 208 253 300
#     4  10  21  36  56  82 108 132 160 199 243 287
#     4   9  17  29  47  70  93 124 167 209 247 286
#     4   9  16  26  43  66  91 123 164 211 259 300
#     4  10  20  34  52  73  99 132 169 207 246 295
#     4   9  19  35  53  76 108 141 169 197 234 287
#
# _framework density 17.413246000000001
#
# number of rings (size 3 to 8) (size 9 to 14) (size 15 to 20)
#    0.000    2.714    1.429    2.571    0.000    4.857 
#    0.000    2.857    0.000    1.286    0.000    7.000 
#    0.000    0.000    0.000    0.000    0.000    0.000 
#
# Total GULP energy -694236.874702 kJ/mol
# GULP energy per Si atom -12397.087048 kJ/mol
# Density = 1.737361 g / cm^3
# Si number density = 17.413246 Si / 1000 Ang^3
#
#
#
# Elastic Constant Matrix: (Units=GPa)
#
#
# Indices 1 2 3 4 5 6 
#
# 1 72.1820 53.1456 33.1295 0.0000 0.0000 0.0000
# 2 53.1456 104.6348 36.9990 0.0000 0.0000 0.0000
# 3 33.1295 36.9990 67.4849 0.0000 0.0000 0.0000
# 4 0.0000 0.0000 0.0000 17.7825 0.0000 0.0000
# 5 0.0000 0.0000 0.0000 0.0000 23.8566 0.0000
# 6 0.0000 0.0000 0.0000 0.0000 0.0000 24.7879
#
#
#
# Elastic Compliance Matrix: (Units=1/GPa)
#
#
# Indices 1 2 3 4 5 6 
#
# 1 0.024149 -0.010015 -0.006364 0.000000 0.000000 0.000000
# 2 -0.010015 0.016009 -0.003860 0.000000 0.000000 0.000000
# 3 -0.006364 -0.003860 0.020059 0.000000 0.000000 0.000000
# 4 0.000000 0.000000 0.000000 0.056235 0.000000 0.000000
# 5 0.000000 0.000000 0.000000 0.000000 0.041917 0.000000
# 6 0.000000 0.000000 0.000000 0.000000 0.000000 0.040342
#
#
# Mechanical properties :
#
#
# Convention : Reuss Voigt Hill
#
# Bulk Modulus (GPa) = 50.66583 54.53888 52.60236
# Shear Modulus (GPa) = 20.34426 21.35388 20.84907
#
# Velocity S-wave (km/s) = 3.42178 3.50566 3.46397
# Velocity P-wave (km/s) = 6.69109 6.91191 6.80240
#
# Compressibility (1/GPa) = 0.01973717
#
# Stress axis : x y z
#
# Youngs Moduli (GPa) = 41.41014 62.46511 49.85318
#
# Poissons Ratio (x) = 0.62560 0.31727
# Poissons Ratio (y) = 0.41473 0.19245
# Poissons Ratio (z) = 0.26354 0.24114
#
# Static dielectric constant tensor:
#      x y z
#    x 3.090960 0.000000 0.000000 
#    y 0.000000 3.280850 0.000000 
#    z 0.000000 0.000000 3.023130 
# 
# 
# High freq. dielectric constant tensor:
#      x y z
#    x 1.659380 0.000000 0.000000 
#    y 0.000000 1.673880 0.000000 
#    z 0.000000 0.000000 1.643680 
# 
# From -- ./inp_files/29882.got.cif
#   From: 2010.03.12/outbox.cif.g09.slc.cpg/sg47_15_cif.got.tgz:29882.got - 2010.04.14 03:12:58.
