data_PCOD8195717
_publ_section_title
;
Structure prediction by ZEFSAII (Michael W. Deem and Ramdas Pophale) SiO2 
 PCOD8195717
Probable space group: P M M M
;
_chemical_formula_sum "Si O2"
_cell_formula_units_Z 64
_cell_length_a 14.344577
_cell_length_b 18.824682
_cell_length_c 14.115292
_cell_angle_alpha 90.000000
_cell_angle_beta 90.000000
_cell_angle_gamma 90.000000
_cell_volume 3811.581947
_symmetry_space_group_name_H-M "P M M M"
_symmetry_group_IT_number 47
_symmetry_cell_setting 'orthorhombic'
loop_
_space_group_symop_operation_xyz
x,y,z
-x,-y,z
x,-y,-z
-x,y,-z
-x,-y,-z
x,y,-z
-x,y,z
x,-y,z
loop_
_atom_site_type_symbol
_atom_site_label
_atom_site_fract_x
_atom_site_fract_y
_atom_site_fract_z
Si Si1 0.299229 0.080390 0.607505
Si Si2 0.104116 0.341075 0.889567
Si Si3 0.767107 0.919019 0.891595
Si Si4 0.894254 0.802174 0.798847
Si Si5 0.391066 0.712529 0.108480
Si Si6 0.719395 0.422536 0.111280
Si Si7 0.390471 0.855509 0.216569
Si Si8 0.103021 0.860133 0.604637
O O1 0.328252 0.099508 0.500000
O O2 0.353494 0.135261 0.675825
O O3 0.186918 0.084056 0.619514
O O4 0.329021 0.000000 0.632695
O O5 0.146198 0.271485 0.838241
O O6 0.171976 0.406539 0.866256
O O7 0.000000 0.360056 0.853489
O O8 0.103765 0.323432 0.000000
O O9 0.837085 0.869610 0.834202
O O10 0.662738 0.911769 0.849993
O O11 0.800259 0.000000 0.879786
O O12 0.766551 0.895178 0.000000
O O13 0.888661 0.799153 0.684435
O O14 0.000000 0.811003 0.835512
O O15 0.500000 0.698830 0.109122
O O16 0.344273 0.641166 0.151174
O O17 0.364513 0.777193 0.178018
O O18 0.357270 0.728566 0.000000
O O19 0.694896 0.500000 0.156209
O O20 0.702097 0.426564 0.000000
O O21 0.500000 0.870848 0.210657
O O22 0.111889 0.824945 0.500000
O O23 0.000000 0.897215 0.614452
#
# Coordination Sequence:
#
# PCOD8195717 Si02
#       8
#     8   8   8   8   8   8   8   8
#     4  10  21  36  53  74  99 126 159 202 254 305
#     4   9  17  28  43  65  94 129 165 194 224 272
#     4  11  23  35  47  66  92 123 162 206 247 287
#     4  10  19  32  51  71  95 128 162 199 245 294
#     4   9  18  32  50  71  94 123 159 198 240 288
#     4   9  17  28  44  68  97 128 158 190 231 277
#     4  11  22  36  53  70  92 125 165 205 247 293
#     4   9  18  32  51  75  99 122 153 196 245 297
#
# _framework density 16.790928000000001
#
# number of rings (size 3 to 8) (size 9 to 14) (size 15 to 20)
#    0.000    2.250    1.250    1.875    0.000    4.750 
#    0.000    6.875    0.000    0.000    0.000    0.000 
#    0.000    2.000    0.000    7.625    0.000    0.250 
#
# Total GULP energy -793183.155318 kJ/mol
# GULP energy per Si atom -12393.486802 kJ/mol
# Density = 1.675271 g / cm^3
# Si number density = 16.790928 Si / 1000 Ang^3
#
#
#
# Elastic Constant Matrix: (Units=GPa)
#
#
# Indices 1 2 3 4 5 6 
#
# 1 60.9552 31.7152 24.6760 0.0000 0.0000 0.0000
# 2 31.7152 94.9275 42.3306 0.0000 0.0000 0.0000
# 3 24.6760 42.3306 87.3390 0.0000 0.0000 0.0000
# 4 0.0000 0.0000 0.0000 9.5693 0.0000 0.0000
# 5 0.0000 0.0000 0.0000 0.0000 21.7689 0.0000
# 6 0.0000 0.0000 0.0000 0.0000 0.0000 19.1265
#
#
#
# Elastic Compliance Matrix: (Units=1/GPa)
#
#
# Indices 1 2 3 4 5 6 
#
# 1 0.020518 -0.005447 -0.003157 0.000000 0.000000 0.000000
# 2 -0.005447 0.014885 -0.005675 0.000000 0.000000 0.000000
# 3 -0.003157 -0.005675 0.015092 0.000000 0.000000 0.000000
# 4 0.000000 0.000000 0.000000 0.104501 0.000000 0.000000
# 5 0.000000 0.000000 0.000000 0.000000 0.045937 0.000000
# 6 0.000000 0.000000 0.000000 0.000000 0.000000 0.052284
#
#
# Mechanical properties :
#
#
# Convention : Reuss Voigt Hill
#
# Bulk Modulus (GPa) = 45.58671 48.96281 47.27476
# Shear Modulus (GPa) = 17.29581 19.72626 18.51103
#
# Velocity S-wave (km/s) = 3.21295 3.43128 3.32391
# Velocity P-wave (km/s) = 6.40098 6.70237 6.55341
#
# Compressibility (1/GPa) = 0.02193622
#
# Stress axis : x y z
#
# Youngs Moduli (GPa) = 48.73856 67.18147 66.25942
#
# Poissons Ratio (x) = 0.36595 0.20916
# Poissons Ratio (y) = 0.26549 0.37604
# Poissons Ratio (z) = 0.15386 0.38128
#
# Static dielectric constant tensor:
#      x y z
#    x 3.319870 0.000000 0.000000 
#    y 0.000000 3.094820 0.000000 
#    z 0.000000 0.000000 3.196670 
# 
# 
# High freq. dielectric constant tensor:
#      x y z
#    x 1.660420 0.000000 0.000000 
#    y 0.000000 1.621810 0.000000 
#    z 0.000000 0.000000 1.626400 
# 
# From -- ./inp_files/24082.got.cif
#   From: 2010.03.12/outbox.cif.g09.slc.cpg/sg47_13_cif.got.tgz:24082.got - 2010.04.14 03:12:58.
