data_PCOD8195055
_publ_section_title
;
Structure prediction by ZEFSAII (Michael W. Deem and Ramdas Pophale) SiO2 
 PCOD8195055
Probable space group: P M M M
;
_chemical_formula_sum "Si O2"
_cell_formula_units_Z 40
_cell_length_a 7.776686
_cell_length_b 12.657813
_cell_length_c 22.050597
_cell_angle_alpha 90.000000
_cell_angle_beta 90.000000
_cell_angle_gamma 90.000000
_cell_volume 2170.568975
_symmetry_space_group_name_H-M "P M M M"
_symmetry_group_IT_number 47
_symmetry_cell_setting 'orthorhombic'
loop_
_space_group_symop_operation_xyz
x,y,z
-x,-y,z
x,-y,-z
-x,y,-z
-x,-y,-z
x,y,-z
-x,y,z
x,-y,z
loop_
_atom_site_type_symbol
_atom_site_label
_atom_site_fract_x
_atom_site_fract_y
_atom_site_fract_z
Si Si1 0.500000 0.121139 0.123510
Si Si2 0.186944 0.250157 0.267822
Si Si3 0.203298 0.500000 0.931892
Si Si4 0.798023 0.281895 0.129703
Si Si5 0.500000 0.885970 0.266702
Si Si6 0.304898 0.621172 0.372728
Si Si7 0.202284 0.380497 0.500000
O O1 0.673819 0.186850 0.104801
O O2 0.500000 0.108346 0.194808
O O3 0.500000 0.000000 0.095555
O O4 0.230423 0.296958 0.201599
O O5 0.327716 0.167847 0.290510
O O6 0.182430 0.340339 0.318632
O O7 0.000000 0.194871 0.265104
O O8 0.265566 0.392690 0.899006
O O9 0.000000 0.500000 0.932404
O O10 0.278152 0.500000 0.000000
O O11 0.000000 0.256924 0.114161
O O12 0.500000 0.000000 0.296737
O O13 0.500000 0.640430 0.352198
O O14 0.257310 0.500000 0.381087
O O15 0.270170 0.676496 0.438352
O O16 0.274576 0.500000 0.500000
O O17 0.000000 0.376720 0.500000
#
# Coordination Sequence:
#
# PCOD8195055 Si02
#       7
#     4   8   4   8   4   8   4
#     4   9  18  33  53  76 102 136 171 215 268 315
#     4  10  19  31  49  75 102 129 166 205 254 303
#     4   9  18  35  57  79 108 146 181 213 255 309
#     4   9  19  33  51  78 106 136 175 218 259 310
#     4   9  18  34  50  69 100 128 162 208 257 305
#     4  10  19  30  45  68 100 136 169 201 244 297
#     4   9  17  29  43  63  93 132 173 205 241 289
#
# _framework density 18.428346000000001
#
# number of rings (size 3 to 8) (size 9 to 14) (size 15 to 20)
#    0.000    2.600    1.000    0.900    1.400    3.600 
#    0.000    5.000    0.000    1.200    0.000    4.200 
#    0.000    2.400    0.000    0.000    0.000    0.000 
#
# Total GULP energy -495601.916271 kJ/mol
# GULP energy per Si atom -12390.047907 kJ/mol
# Density = 1.838640 g / cm^3
# Si number density = 18.428346 Si / 1000 Ang^3
#
#
#
# Elastic Constant Matrix: (Units=GPa)
#
#
# Indices 1 2 3 4 5 6 
#
# 1 103.6893 56.3710 29.9019 0.0000 0.0000 0.0000
# 2 56.3710 112.7939 44.1508 0.0000 0.0000 0.0000
# 3 29.9019 44.1508 86.2824 0.0000 0.0000 0.0000
# 4 0.0000 0.0000 0.0000 4.2251 0.0000 0.0000
# 5 0.0000 0.0000 0.0000 0.0000 8.9092 0.0000
# 6 0.0000 0.0000 0.0000 0.0000 0.0000 17.6709
#
#
#
# Elastic Compliance Matrix: (Units=1/GPa)
#
#
# Indices 1 2 3 4 5 6 
#
# 1 0.013400 -0.006101 -0.001522 0.000000 0.000000 0.000000
# 2 -0.006101 0.013864 -0.004980 0.000000 0.000000 0.000000
# 3 -0.001522 -0.004980 0.014665 0.000000 0.000000 0.000000
# 4 0.000000 0.000000 0.000000 0.236681 0.000000 0.000000
# 5 0.000000 0.000000 0.000000 0.000000 0.112244 0.000000
# 6 0.000000 0.000000 0.000000 0.000000 0.000000 0.056590
#
#
# Mechanical properties :
#
#
# Convention : Reuss Voigt Hill
#
# Bulk Modulus (GPa) = 59.79540 62.62370 61.20955
# Shear Modulus (GPa) = 10.45532 17.65049 14.05291
#
# Velocity S-wave (km/s) = 2.38450 3.09818 2.76446
# Velocity P-wave (km/s) = 6.33238 6.84502 6.59368
#
# Compressibility (1/GPa) = 0.01672370
#
# Stress axis : x y z
#
# Youngs Moduli (GPa) = 74.62672 72.12807 68.18725
#
# Poissons Ratio (x) = 0.44007 0.10377
# Poissons Ratio (y) = 0.45531 0.33957
# Poissons Ratio (z) = 0.11357 0.35919
#
# Static dielectric constant tensor:
#      x y z
#    x 3.479390 0.000000 0.000000 
#    y 0.000000 3.354410 0.000000 
#    z 0.000000 0.000000 3.372560 
# 
# 
# High freq. dielectric constant tensor:
#      x y z
#    x 1.726590 0.000000 0.000000 
#    y 0.000000 1.674570 0.000000 
#    z 0.000000 0.000000 1.703680 
# 
# From -- ./inp_files/29391.got.cif
#   From: 2010.03.12/outbox.cif.g09.slc.cpg/sg47_15_cif.got.tgz:29391.got - 2010.04.14 03:12:58.
