data_PCOD8195649
_publ_section_title
;
Structure prediction by ZEFSAII (Michael W. Deem and Ramdas Pophale) SiO2 
 PCOD8195649
Probable space group: P M M M
;
_chemical_formula_sum "Si O2"
_cell_formula_units_Z 48
_cell_length_a 22.024638
_cell_length_b 10.861213
_cell_length_c 12.080340
_cell_angle_alpha 90.000000
_cell_angle_beta 90.000000
_cell_angle_gamma 90.000000
_cell_volume 2889.789890
_symmetry_space_group_name_H-M "P M M M"
_symmetry_group_IT_number 47
_symmetry_cell_setting 'orthorhombic'
loop_
_space_group_symop_operation_xyz
x,y,z
-x,-y,z
x,-y,-z
-x,y,-z
-x,-y,-z
x,y,-z
-x,y,z
x,-y,z
loop_
_atom_site_type_symbol
_atom_site_label
_atom_site_fract_x
_atom_site_fract_y
_atom_site_fract_z
Si Si1 0.071568 0.144996 0.000000
Si Si2 0.135487 0.809445 0.777914
Si Si3 0.197373 0.360538 0.620559
Si Si4 0.316449 0.356802 0.246568
Si Si5 0.566853 0.354494 0.377319
Si Si6 0.260627 0.865646 0.126362
Si Si7 0.071832 0.000000 0.373899
O O1 0.098655 0.211191 0.891464
O O2 0.000000 0.164152 0.000000
O O3 0.088655 0.000000 0.000000
O O4 0.151036 0.683249 0.715425
O O5 0.199620 0.874373 0.801380
O O6 0.095169 0.882266 0.690977
O O7 0.189809 0.294039 0.500000
O O8 0.179900 0.500000 0.604486
O O9 0.267408 0.345491 0.656105
O O10 0.317613 0.500000 0.201502
O O11 0.381434 0.312110 0.292560
O O12 0.301518 0.254095 0.153853
O O13 0.578354 0.298639 0.500000
O O14 0.500000 0.312572 0.334235
O O15 0.569511 0.500000 0.386940
O O16 0.293696 0.000000 0.143654
O O17 0.240533 0.849599 0.000000
O O18 0.096035 0.000000 0.500000
O O19 0.000000 0.000000 0.371194
#
# Coordination Sequence:
#
# PCOD8195649 Si02
#       7
#     4   8   8   8   8   8   4
#     4  11  20  32  53  75  95 123 157 199 248 296
#     4  11  19  33  52  74  97 125 162 201 243 292
#     4   9  18  32  50  72 100 133 162 194 242 297
#     4   9  17  28  47  74 101 128 163 205 246 293
#     4   8  13  23  43  71 100 129 162 200 242 291
#     4  10  19  32  49  69  96 130 164 202 249 297
#     4  11  22  33  49  75 103 126 154 197 244 293
#
# _framework density 16.610204
#
# number of rings (size 3 to 8) (size 9 to 14) (size 15 to 20)
#    0.000    2.333    2.500    2.000    0.000    2.333 
#    0.000    0.417    0.000    3.500    0.000   10.500 
#    0.000    0.000    0.000    0.000    0.000    0.000 
#
# Total GULP energy -594630.202955 kJ/mol
# GULP energy per Si atom -12388.129228 kJ/mol
# Density = 1.657240 g / cm^3
# Si number density = 16.610204 Si / 1000 Ang^3
#
#
#
# Elastic Constant Matrix: (Units=GPa)
#
#
# Indices 1 2 3 4 5 6 
#
# 1 86.9657 31.3903 41.5612 0.0000 0.0000 0.0000
# 2 31.3903 70.6570 40.6364 0.0000 0.0000 0.0000
# 3 41.5612 40.6364 111.3949 0.0000 0.0000 0.0000
# 4 0.0000 0.0000 0.0000 -21.3175 0.0000 0.0000
# 5 0.0000 0.0000 0.0000 0.0000 28.0399 0.0000
# 6 0.0000 0.0000 0.0000 0.0000 0.0000 15.5489
#
#
#
# Elastic Compliance Matrix: (Units=1/GPa)
#
#
# Indices 1 2 3 4 5 6 
#
# 1 0.014983 -0.004355 -0.004001 0.000000 0.000000 0.000000
# 2 -0.004355 0.019176 -0.005371 0.000000 0.000000 0.000000
# 3 -0.004001 -0.005371 0.012429 0.000000 0.000000 0.000000
# 4 0.000000 0.000000 0.000000 -0.046910 0.000000 0.000000
# 5 0.000000 0.000000 0.000000 0.000000 0.035663 0.000000
# 6 0.000000 0.000000 0.000000 0.000000 0.000000 0.064313
#
#
# Mechanical properties :
#
#
# Convention : Reuss Voigt Hill
#
# Bulk Modulus (GPa) = 52.26192 55.13261 53.69727
# Shear Modulus (GPa) = 37.45655 14.81623 26.13639
#
# Velocity S-wave (km/s) = 4.75387 2.98987 3.97106
# Velocity P-wave (km/s) = 7.85267 6.72184 7.30916
#
# Compressibility (1/GPa) = 0.01913439
#
# Stress axis : x y z
#
# Youngs Moduli (GPa) = 66.74202 52.14732 80.45589
#
# Poissons Ratio (x) = 0.22711 0.32194
# Poissons Ratio (y) = 0.29067 0.43210
# Poissons Ratio (z) = 0.26706 0.28006
#
# Static dielectric constant tensor:
#      x y z
#    x 3.202110 0.000000 0.000000 
#    y 0.000000 3.050380 0.000000 
#    z 0.000000 0.000000 3.264450 
# 
# 
# High freq. dielectric constant tensor:
#      x y z
#    x 1.631080 0.000000 0.000000 
#    y 0.000000 1.611740 0.000000 
#    z 0.000000 0.000000 1.641750 
# 
# From -- ./inp_files/19095.got.cif
#   From: 2010.03.12/outbox.cif.g09.slc.cpg/sg47_10_cif.got.tgz:19095.got - 2010.04.14 03:12:58.
