data_PCOD8195652
_publ_section_title
;
Structure prediction by ZEFSAII (Michael W. Deem and Ramdas Pophale) SiO2 
 PCOD8195652
Probable space group: P M M M
;
_chemical_formula_sum "Si O2"
_cell_formula_units_Z 52
_cell_length_a 18.790425
_cell_length_b 8.789159
_cell_length_c 18.558543
_cell_angle_alpha 90.000000
_cell_angle_beta 90.000000
_cell_angle_gamma 90.000000
_cell_volume 3064.981106
_symmetry_space_group_name_H-M "P M M M"
_symmetry_group_IT_number 47
_symmetry_cell_setting 'orthorhombic'
loop_
_space_group_symop_operation_xyz
x,y,z
-x,-y,z
x,-y,-z
-x,y,-z
-x,-y,-z
x,y,-z
-x,y,z
x,-y,z
loop_
_atom_site_type_symbol
_atom_site_label
_atom_site_fract_x
_atom_site_fract_y
_atom_site_fract_z
Si Si1 0.922396 0.677578 0.662402
Si Si2 0.080623 0.823112 0.083353
Si Si3 0.831185 0.320316 0.204703
Si Si4 0.581464 0.320458 0.351931
Si Si5 0.709175 0.821307 0.712601
Si Si6 0.787524 0.322495 0.418697
Si Si7 0.584380 0.828550 0.500000
O O1 0.933201 0.500000 0.673635
O O2 0.885616 0.742537 0.734726
O O3 0.871698 0.709433 0.593954
O O4 0.000000 0.755048 0.650798
O O5 0.138662 0.728032 0.127473
O O6 0.000000 0.772050 0.102998
O O7 0.090369 0.000000 0.100791
O O8 0.095684 0.789529 0.000000
O O9 0.821976 0.500000 0.208148
O O10 0.753815 0.247694 0.220703
O O11 0.500000 0.270788 0.338364
O O12 0.589956 0.500000 0.351973
O O13 0.629297 0.248019 0.288282
O O14 0.610530 0.259824 0.428898
O O15 0.743450 0.779720 0.635835
O O16 0.704717 0.000000 0.722655
O O17 0.767975 0.275847 0.500000
O O18 0.770743 0.500000 0.403381
O O19 0.500000 0.831295 0.500000
O O20 0.615203 0.000000 0.500000
#
# Coordination Sequence:
#
# PCOD8195652 Si02
#       7
#     8   8   8   8   8   8   4
#     4   8  14  25  42  64  86 110 146 193 241 282
#     4   9  18  32  50  75 108 141 168 197 239 289
#     4  10  19  32  49  70  97 127 164 203 240 285
#     4  10  20  34  51  70  93 121 154 196 246 297
#     4  11  22  34  49  67  91 124 161 200 245 295
#     4   9  18  31  45  62  86 116 152 197 247 294
#     4   9  17  29  45  67  93 119 150 189 236 291
#
# _framework density 16.965845999999999
#
# number of rings (size 3 to 8) (size 9 to 14) (size 15 to 20)
#    0.000    2.538    0.000    4.385    1.077    3.692 
#    0.000    2.308    0.000    4.154    0.000    4.308 
#    0.000    0.615    0.000    6.462    0.000    2.769 
#
# Total GULP energy -644643.980667 kJ/mol
# GULP energy per Si atom -12396.999628 kJ/mol
# Density = 1.692723 g / cm^3
# Si number density = 16.965846 Si / 1000 Ang^3
#
#
#
# Elastic Constant Matrix: (Units=GPa)
#
#
# Indices 1 2 3 4 5 6 
#
# 1 97.8673 36.7269 34.6396 0.0000 0.0000 0.0000
# 2 36.7269 80.9806 28.9130 0.0000 0.0000 0.0000
# 3 34.6396 28.9130 66.0059 0.0000 0.0000 0.0000
# 4 0.0000 0.0000 0.0000 24.6339 0.0000 0.0000
# 5 0.0000 0.0000 0.0000 0.0000 27.3770 0.0000
# 6 0.0000 0.0000 0.0000 0.0000 0.0000 22.1228
#
#
#
# Elastic Compliance Matrix: (Units=1/GPa)
#
#
# Indices 1 2 3 4 5 6 
#
# 1 0.013720 -0.004329 -0.005304 0.000000 0.000000 0.000000
# 2 -0.004329 0.016004 -0.004739 0.000000 0.000000 0.000000
# 3 -0.005304 -0.004739 0.020009 0.000000 0.000000 0.000000
# 4 0.000000 0.000000 0.000000 0.040594 0.000000 0.000000
# 5 0.000000 0.000000 0.000000 0.000000 0.036527 0.000000
# 6 0.000000 0.000000 0.000000 0.000000 0.000000 0.045202
#
#
# Mechanical properties :
#
#
# Convention : Reuss Voigt Hill
#
# Bulk Modulus (GPa) = 47.64073 49.49033 48.56553
# Shear Modulus (GPa) = 24.06217 24.46502 24.26359
#
# Velocity S-wave (km/s) = 3.77008 3.80151 3.78583
# Velocity P-wave (km/s) = 6.86241 6.96437 6.91358
#
# Compressibility (1/GPa) = 0.02099044
#
# Stress axis : x y z
#
# Youngs Moduli (GPa) = 72.88847 62.48605 49.97678
#
# Poissons Ratio (x) = 0.27047 0.26507
# Poissons Ratio (y) = 0.31550 0.23682
# Poissons Ratio (z) = 0.38660 0.29609
#
# Static dielectric constant tensor:
#      x y z
#    x 3.425170 0.000000 0.000000 
#    y 0.000000 3.032820 0.000000 
#    z 0.000000 0.000000 2.945610 
# 
# 
# High freq. dielectric constant tensor:
#      x y z
#    x 1.657000 0.000000 0.000000 
#    y 0.000000 1.646710 0.000000 
#    z 0.000000 0.000000 1.615780 
# 
# From -- ./inp_files/28497.got.cif
#   From: 2010.03.12/outbox.cif.g09.slc.cpg/sg47_15_cif.got.tgz:28497.got - 2010.04.14 03:12:58.
