data_PCOD8195061
_publ_section_title
;
Structure prediction by ZEFSAII (Michael W. Deem and Ramdas Pophale) SiO2 
 PCOD8195061
Probable space group: P M M M
;
_chemical_formula_sum "Si O2"
_cell_formula_units_Z 52
_cell_length_a 26.245255
_cell_length_b 8.884214
_cell_length_c 12.826667
_cell_angle_alpha 90.000000
_cell_angle_beta 90.000000
_cell_angle_gamma 90.000000
_cell_volume 2990.774216
_symmetry_space_group_name_H-M "P M M M"
_symmetry_group_IT_number 47
_symmetry_cell_setting 'orthorhombic'
loop_
_space_group_symop_operation_xyz
x,y,z
-x,-y,z
x,-y,-z
-x,y,-z
-x,-y,-z
x,y,-z
-x,y,z
x,-y,z
loop_
_atom_site_type_symbol
_atom_site_label
_atom_site_fract_x
_atom_site_fract_y
_atom_site_fract_z
Si Si1 0.397417 0.822699 0.620206
Si Si2 0.942701 0.820403 0.697268
Si Si3 0.238636 0.174644 0.879310
Si Si4 0.702467 0.322794 0.302925
Si Si5 0.120558 0.821308 0.500000
Si Si6 0.230713 0.677204 0.500000
Si Si7 0.500000 0.330077 0.376085
Si Si8 0.876619 0.821091 0.885754
O O1 0.389224 0.775360 0.500000
O O2 0.351666 0.757554 0.687993
O O3 0.449755 0.754147 0.665376
O O4 0.400007 0.000000 0.633459
O O5 0.910236 0.761308 0.599851
O O6 0.916021 0.755744 0.801404
O O7 0.000000 0.756279 0.690745
O O8 0.943765 0.000000 0.698268
O O9 0.274300 0.276384 0.807745
O O10 0.180774 0.228148 0.858095
O O11 0.245518 0.000000 0.849267
O O12 0.253154 0.201109 0.000000
O O13 0.693791 0.500000 0.306979
O O14 0.738810 0.269814 0.397462
O O15 0.176832 0.757644 0.500000
O O16 0.124243 0.000000 0.500000
O O17 0.221788 0.500000 0.500000
O O18 0.500000 0.500000 0.333555
O O19 0.500000 0.325207 0.500000
O O20 0.878597 0.000000 0.887209
O O21 0.892126 0.758824 0.000000
#
# Coordination Sequence:
#
# PCOD8195061 Si02
#       8
#     8   8   8   8   4   4   4   8
#     4  10  19  31  48  72 102 136 175 212 248 295
#     4   9  16  25  39  62  89 114 146 190 235 282
#     4   9  18  33  51  71  97 128 164 205 248 297
#     4  11  21  33  49  71 102 133 165 207 254 301
#     4  10  19  30  46  64  85 119 158 191 230 287
#     4  10  22  35  47  68  99 130 160 201 251 297
#     4   9  17  29  47  69 100 141 176 209 251 294
#     4   8  14  25  41  61  86 116 148 186 236 292
#
# _framework density 17.386801999999999
#
# number of rings (size 3 to 8) (size 9 to 14) (size 15 to 20)
#    0.000    2.538    0.769    3.231    0.000    5.538 
#    0.000    1.538    0.000    0.923    0.000    0.538 
#    0.000    4.308    0.000   13.231    0.000   10.769 
#
# Total GULP energy -644791.656511 kJ/mol
# GULP energy per Si atom -12399.839548 kJ/mol
# Density = 1.734723 g / cm^3
# Si number density = 17.386802 Si / 1000 Ang^3
#
#
#
# Elastic Constant Matrix: (Units=GPa)
#
#
# Indices 1 2 3 4 5 6 
#
# 1 153.9202 36.9324 67.7875 0.0000 0.0000 0.0000
# 2 36.9324 43.7892 24.3181 0.0000 0.0000 0.0000
# 3 67.7875 24.3181 100.3871 0.0000 0.0000 0.0000
# 4 0.0000 0.0000 0.0000 17.6517 0.0000 0.0000
# 5 0.0000 0.0000 0.0000 0.0000 12.4195 0.0000
# 6 0.0000 0.0000 0.0000 0.0000 0.0000 11.6393
#
#
#
# Elastic Compliance Matrix: (Units=1/GPa)
#
#
# Indices 1 2 3 4 5 6 
#
# 1 0.010305 -0.005577 -0.005607 0.000000 0.000000 0.000000
# 2 -0.005577 0.029405 -0.003357 0.000000 0.000000 0.000000
# 3 -0.005607 -0.003357 0.014561 0.000000 0.000000 0.000000
# 4 0.000000 0.000000 0.000000 0.056652 0.000000 0.000000
# 5 0.000000 0.000000 0.000000 0.000000 0.080518 0.000000
# 6 0.000000 0.000000 0.000000 0.000000 0.000000 0.085916
#
#
# Mechanical properties :
#
#
# Convention : Reuss Voigt Hill
#
# Bulk Modulus (GPa) = 39.70223 61.79696 50.74960
# Shear Modulus (GPa) = 15.88133 19.61266 17.74700
#
# Velocity S-wave (km/s) = 3.02555 3.36224 3.19833
# Velocity P-wave (km/s) = 5.92364 7.11987 6.54913
#
# Compressibility (1/GPa) = 0.02518750
#
# Stress axis : x y z
#
# Youngs Moduli (GPa) = 97.04478 34.00799 68.67640
#
# Poissons Ratio (x) = 0.18966 0.38509
# Poissons Ratio (y) = 0.54122 0.23056
# Poissons Ratio (z) = 0.54415 0.11417
#
# Static dielectric constant tensor:
#      x y z
#    x 3.330980 0.000000 0.000000 
#    y 0.000000 2.919500 0.000000 
#    z 0.000000 0.000000 3.288360 
# 
# 
# High freq. dielectric constant tensor:
#      x y z
#    x 1.677940 0.000000 0.000000 
#    y 0.000000 1.643030 0.000000 
#    z 0.000000 0.000000 1.657250 
# 
# From -- ./inp_files/19852.got.cif
#   From: 2010.03.12/outbox.cif.g09.slc.cpg/sg47_10_cif.got.tgz:19852.got - 2010.04.14 03:12:58.
