data_PCOD8195323
_publ_section_title
;
Structure prediction by ZEFSAII (Michael W. Deem and Ramdas Pophale) SiO2 
 PCOD8195323
Probable space group: P M M M
;
_chemical_formula_sum "Si O2"
_cell_formula_units_Z 52
_cell_length_a 18.110138
_cell_length_b 12.817524
_cell_length_c 14.157467
_cell_angle_alpha 90.000000
_cell_angle_beta 90.000000
_cell_angle_gamma 90.000000
_cell_volume 3286.332161
_symmetry_space_group_name_H-M "P M M M"
_symmetry_group_IT_number 47
_symmetry_cell_setting 'orthorhombic'
loop_
_space_group_symop_operation_xyz
x,y,z
-x,-y,z
x,-y,-z
-x,y,-z
-x,-y,-z
x,y,-z
-x,y,z
x,-y,z
loop_
_atom_site_type_symbol
_atom_site_label
_atom_site_fract_x
_atom_site_fract_y
_atom_site_fract_z
Si Si1 0.412679 0.192354 0.731662
Si Si2 0.587651 0.000000 0.605536
Si Si3 0.916256 0.623832 0.216964
Si Si4 0.830516 0.622968 0.604023
Si Si5 0.310365 0.381961 0.279331
Si Si6 0.684899 0.116586 0.107142
Si Si7 0.220332 0.690751 0.891465
O O1 0.500000 0.203706 0.733468
O O2 0.379127 0.304992 0.706135
O O3 0.384845 0.157099 0.834006
O O4 0.385078 0.105054 0.657374
O O5 0.500000 0.000000 0.604035
O O6 0.620580 0.000000 0.500000
O O7 0.906160 0.500000 0.207937
O O8 0.892798 0.661837 0.322161
O O9 0.864918 0.678175 0.138527
O O10 0.000000 0.658682 0.198011
O O11 0.842391 0.674004 0.500000
O O12 0.836526 0.500000 0.594751
O O13 0.750201 0.653125 0.643755
O O14 0.338044 0.500000 0.296655
O O15 0.273821 0.378090 0.174904
O O16 0.757070 0.188245 0.122298
O O17 0.707905 0.000000 0.137369
O O18 0.657152 0.120905 0.000000
O O19 0.230267 0.654554 0.000000
#
# Coordination Sequence:
#
# PCOD8195323 Si02
#       7
#     8   4   8   8   8   8   8
#     4  10  19  31  47  67  92 120 149 188 236 277
#     4   9  18  32  47  63  85 113 143 178 226 278
#     4   9  17  27  40  63  92 118 148 184 219 262
#     4   8  14  26  43  61  84 115 148 183 223 264
#     4   9  18  30  44  65  91 121 157 191 221 267
#     4   9  17  30  49  70  89 112 147 190 232 274
#     4   9  17  29  45  64  89 123 154 184 223 264
#
# _framework density 15.823112
#
# number of rings (size 3 to 8) (size 9 to 14) (size 15 to 20)
#    0.000    3.000    0.769    1.385    0.000    3.077 
#    0.000    3.077    0.000    0.462    0.000   10.769 
#    0.000    0.000    0.000    7.231    0.000    0.769 
#
# Total GULP energy -644539.901343 kJ/mol
# GULP energy per Si atom -12394.998103 kJ/mol
# Density = 1.578710 g / cm^3
# Si number density = 15.823112 Si / 1000 Ang^3
#
#
#
# Elastic Constant Matrix: (Units=GPa)
#
#
# Indices 1 2 3 4 5 6 
#
# 1 93.1946 45.3112 34.8295 0.0000 0.0000 0.0000
# 2 45.3112 80.2420 20.9163 0.0000 0.0000 0.0000
# 3 34.8295 20.9163 83.0875 0.0000 0.0000 0.0000
# 4 0.0000 0.0000 0.0000 16.9258 0.0000 0.0000
# 5 0.0000 0.0000 0.0000 0.0000 15.7120 0.0000
# 6 0.0000 0.0000 0.0000 0.0000 0.0000 16.1666
#
#
#
# Elastic Compliance Matrix: (Units=1/GPa)
#
#
# Indices 1 2 3 4 5 6 
#
# 1 0.016452 -0.008019 -0.004878 0.000000 0.000000 0.000000
# 2 -0.008019 0.017246 -0.000980 0.000000 0.000000 0.000000
# 3 -0.004878 -0.000980 0.014327 0.000000 0.000000 0.000000
# 4 0.000000 0.000000 0.000000 0.059081 0.000000 0.000000
# 5 0.000000 0.000000 0.000000 0.000000 0.063646 0.000000
# 6 0.000000 0.000000 0.000000 0.000000 0.000000 0.061856
#
#
# Mechanical properties :
#
#
# Convention : Reuss Voigt Hill
#
# Bulk Modulus (GPa) = 49.33040 50.95978 50.14509
# Shear Modulus (GPa) = 18.71835 20.12537 19.42186
#
# Velocity S-wave (km/s) = 3.44317 3.57024 3.50728
# Velocity P-wave (km/s) = 6.85938 7.01935 6.93983
#
# Compressibility (1/GPa) = 0.02027148
#
# Stress axis : x y z
#
# Youngs Moduli (GPa) = 60.78329 57.98531 69.79837
#
# Poissons Ratio (x) = 0.46496 0.34047
# Poissons Ratio (y) = 0.48740 0.06841
# Poissons Ratio (z) = 0.29649 0.05683
#
# Static dielectric constant tensor:
#      x y z
#    x 2.825480 0.000000 0.000000 
#    y 0.000000 2.953670 0.000000 
#    z 0.000000 0.000000 3.308220 
# 
# 
# High freq. dielectric constant tensor:
#      x y z
#    x 1.587090 0.000000 0.000000 
#    y 0.000000 1.586870 0.000000 
#    z 0.000000 0.000000 1.616930 
# 
# From -- ./inp_files/22873.got.cif
#   From: 2010.03.12/outbox.cif.g09.slc.cpg/sg47_12_cif.got.tgz:22873.got - 2010.04.14 03:12:58.
