data_PCOD8195909
_publ_section_title
;
Structure prediction by ZEFSAII (Michael W. Deem and Ramdas Pophale) SiO2 
 PCOD8195909
Probable space group: P M M M
;
_chemical_formula_sum "Si O2"
_cell_formula_units_Z 56
_cell_length_a 16.783186
_cell_length_b 9.394931
_cell_length_c 20.496964
_cell_angle_alpha 90.000000
_cell_angle_beta 90.000000
_cell_angle_gamma 90.000000
_cell_volume 3231.897219
_symmetry_space_group_name_H-M "P M M M"
_symmetry_group_IT_number 47
_symmetry_cell_setting 'orthorhombic'
loop_
_space_group_symop_operation_xyz
x,y,z
-x,-y,z
x,-y,-z
-x,y,-z
-x,-y,-z
x,y,-z
-x,y,z
x,-y,z
loop_
_atom_site_type_symbol
_atom_site_label
_atom_site_fract_x
_atom_site_fract_y
_atom_site_fract_z
Si Si1 0.266832 0.162473 0.927083
Si Si2 0.589537 0.665633 0.729406
Si Si3 0.734343 0.164555 0.312432
Si Si4 0.000000 0.667266 0.622843
Si Si5 0.410430 0.665866 0.879147
Si Si6 0.000000 0.668827 0.775037
Si Si7 0.843827 0.167822 0.191031
Si Si8 0.851910 0.161976 0.425725
O O1 0.348219 0.250138 0.923029
O O2 0.201067 0.213413 0.875236
O O3 0.289273 0.000000 0.912060
O O4 0.231537 0.181132 0.000000
O O5 0.500000 0.700866 0.705600
O O6 0.607617 0.500000 0.721527
O O7 0.651718 0.751046 0.685580
O O8 0.599846 0.712629 0.804253
O O9 0.789732 0.213165 0.252346
O O10 0.777835 0.200917 0.379957
O O11 0.713159 0.000000 0.305524
O O12 0.923395 0.732069 0.588404
O O13 0.000000 0.500000 0.610858
O O14 0.000000 0.706415 0.698772
O O15 0.500000 0.701433 0.902888
O O16 0.392974 0.500000 0.887224
O O17 0.076553 0.739556 0.808147
O O18 0.000000 0.500000 0.787558
O O19 0.864666 0.000000 0.193042
O O20 0.823413 0.180514 0.500000
O O21 0.880442 0.000000 0.411862
#
# Coordination Sequence:
#
# PCOD8195909 Si02
#       8
#     8   8   8   4   8   4   8   8
#     4  10  21  36  53  75 103 134 170 213 261 307
#     4   9  18  32  51  77 107 137 170 212 260 303
#     4  10  19  32  54  80 102 132 176 215 250 297
#     4  11  22  34  51  79 111 139 169 206 251 303
#     4   9  18  32  50  74 105 139 172 207 252 307
#     4  11  23  36  55  82 106 132 169 214 258 299
#     4  10  20  36  56  77 101 133 172 214 255 301
#     4  10  21  36  53  75 107 142 172 206 252 305
#
# _framework density 17.327283999999999
#
# number of rings (size 3 to 8) (size 9 to 14) (size 15 to 20)
#    0.000    2.143    2.857    1.500    0.000    4.571 
#    0.000    3.214    0.000    2.571    0.000    3.000 
#    0.000    0.000    0.000    0.000    0.000    0.000 
#
# Total GULP energy -694523.376594 kJ/mol
# GULP energy per Si atom -12402.203153 kJ/mol
# Density = 1.728785 g / cm^3
# Si number density = 17.327284 Si / 1000 Ang^3
#
#
#
# Elastic Constant Matrix: (Units=GPa)
#
#
# Indices 1 2 3 4 5 6 
#
# 1 125.3726 57.8677 62.3755 0.0000 0.0000 0.0000
# 2 57.8677 59.7907 41.1483 0.0000 0.0000 0.0000
# 3 62.3755 41.1483 113.2706 0.0000 0.0000 0.0000
# 4 0.0000 0.0000 0.0000 20.8299 0.0000 0.0000
# 5 0.0000 0.0000 0.0000 0.0000 27.1907 0.0000
# 6 0.0000 0.0000 0.0000 0.0000 0.0000 47.0949
#
#
#
# Elastic Compliance Matrix: (Units=1/GPa)
#
#
# Indices 1 2 3 4 5 6 
#
# 1 0.015778 -0.012388 -0.004188 0.000000 0.000000 0.000000
# 2 -0.012388 0.032027 -0.004813 0.000000 0.000000 0.000000
# 3 -0.004188 -0.004813 0.012883 0.000000 0.000000 0.000000
# 4 0.000000 0.000000 0.000000 0.048008 0.000000 0.000000
# 5 0.000000 0.000000 0.000000 0.000000 0.036777 0.000000
# 6 0.000000 0.000000 0.000000 0.000000 0.000000 0.021234
#
#
# Mechanical properties :
#
#
# Convention : Reuss Voigt Hill
#
# Bulk Modulus (GPa) = 55.83545 69.02409 62.42977
# Shear Modulus (GPa) = 23.20676 28.15925 25.68300
#
# Velocity S-wave (km/s) = 3.66364 4.03568 3.85415
# Velocity P-wave (km/s) = 7.08451 7.85096 7.47756
#
# Compressibility (1/GPa) = 0.01790977
#
# Stress axis : x y z
#
# Youngs Moduli (GPa) = 63.37998 31.22395 77.62094
#
# Poissons Ratio (x) = 0.38680 0.32510
# Poissons Ratio (y) = 0.78515 0.37357
# Poissons Ratio (z) = 0.26545 0.15027
#
# Static dielectric constant tensor:
#      x y z
#    x 3.179010 0.000000 0.000000 
#    y 0.000000 3.159550 0.000000 
#    z 0.000000 0.000000 3.211360 
# 
# 
# High freq. dielectric constant tensor:
#      x y z
#    x 1.665530 0.000000 0.000000 
#    y 0.000000 1.667330 0.000000 
#    z 0.000000 0.000000 1.659330 
# 
# From -- ./inp_files/31043.got.cif
#   From: 2010.03.12/outbox.cif.g09.slc.cpg/sg47_16_cif.got.tgz:31043.got - 2010.04.14 03:12:58.
