data_PCOD8195562
_publ_section_title
;
Structure prediction by ZEFSAII (Michael W. Deem and Ramdas Pophale) SiO2 
 PCOD8195562
Probable space group: P M M M
;
_chemical_formula_sum "Si O2"
_cell_formula_units_Z 60
_cell_length_a 20.192849
_cell_length_b 9.438555
_cell_length_c 18.019561
_cell_angle_alpha 90.000000
_cell_angle_beta 90.000000
_cell_angle_gamma 90.000000
_cell_volume 3434.371843
_symmetry_space_group_name_H-M "P M M M"
_symmetry_group_IT_number 47
_symmetry_cell_setting 'orthorhombic'
loop_
_space_group_symop_operation_xyz
x,y,z
-x,-y,z
x,-y,-z
-x,y,-z
-x,-y,-z
x,y,-z
-x,y,z
x,-y,z
loop_
_atom_site_type_symbol
_atom_site_label
_atom_site_fract_x
_atom_site_fract_y
_atom_site_fract_z
Si Si1 0.247085 0.839999 0.655410
Si Si2 0.576663 0.165869 0.833272
Si Si3 0.858480 0.664414 0.582683
Si Si4 0.602997 0.842006 0.334110
Si Si5 0.500000 0.342741 0.412869
Si Si6 0.792543 0.665901 0.793996
Si Si7 0.071845 0.333663 0.731662
Si Si8 0.311766 0.335747 0.084863
O O1 0.207744 0.757578 0.591126
O O2 0.323431 0.843578 0.633790
O O3 0.243997 0.757532 0.732666
O O4 0.219279 0.000000 0.664178
O O5 0.500000 0.206128 0.848890
O O6 0.596897 0.211602 0.750416
O O7 0.624361 0.248749 0.889166
O O8 0.588756 0.000000 0.845916
O O9 0.888421 0.690373 0.500000
O O10 0.839579 0.500000 0.593259
O O11 0.908869 0.713294 0.647521
O O12 0.565082 0.736526 0.386871
O O13 0.572240 0.000000 0.338304
O O14 0.500000 0.500000 0.378827
O O15 0.500000 0.348110 0.500000
O O16 0.785896 0.500000 0.774005
O O17 0.870992 0.709935 0.791206
O O18 0.756541 0.701808 0.871495
O O19 0.063223 0.500000 0.732890
O O20 0.000000 0.264257 0.751676
O O21 0.329414 0.500000 0.095670
O O22 0.296778 0.297452 0.000000
#
# Coordination Sequence:
#
# PCOD8195562 Si02
#       8
#     8   8   8   8   4   8   8   8
#     4  10  19  31  51  74  95 123 165 210 250 296
#     4  10  20  36  56  77 102 131 169 210 249 298
#     4   9  18  31  46  68 100 134 166 204 252 302
#     4  10  20  36  55  73  95 128 167 209 256 306
#     4  11  25  39  51  73 100 127 166 213 257 302
#     4   9  17  31  51  74 101 132 167 206 247 293
#     4   8  14  26  47  74  99 128 171 215 250 290
#     4  10  21  35  52  77 108 138 166 200 247 302
#
# _framework density 17.470445000000002
#
# number of rings (size 3 to 8) (size 9 to 14) (size 15 to 20)
#    0.000    2.467    2.000    1.400    0.000    4.000 
#    0.000    5.333    0.000    6.800    0.000    6.533 
#    0.000    0.000    0.000    6.000    0.000    6.667 
#
# Total GULP energy -743619.103036 kJ/mol
# GULP energy per Si atom -12393.651717 kJ/mol
# Density = 1.743068 g / cm^3
# Si number density = 17.470445 Si / 1000 Ang^3
#
#
#
# Elastic Constant Matrix: (Units=GPa)
#
#
# Indices 1 2 3 4 5 6 
#
# 1 131.1630 35.9367 46.1558 0.0000 0.0000 0.0000
# 2 35.9367 64.8759 28.7072 0.0000 0.0000 0.0000
# 3 46.1558 28.7072 80.9841 0.0000 0.0000 0.0000
# 4 0.0000 0.0000 0.0000 18.8463 0.0000 0.0000
# 5 0.0000 0.0000 0.0000 0.0000 19.0124 0.0000
# 6 0.0000 0.0000 0.0000 0.0000 0.0000 21.2952
#
#
#
# Elastic Compliance Matrix: (Units=1/GPa)
#
#
# Indices 1 2 3 4 5 6 
#
# 1 0.010220 -0.003657 -0.004528 0.000000 0.000000 0.000000
# 2 -0.003657 0.019590 -0.004860 0.000000 0.000000 0.000000
# 3 -0.004528 -0.004860 0.016652 0.000000 0.000000 0.000000
# 4 0.000000 0.000000 0.000000 0.053061 0.000000 0.000000
# 5 0.000000 0.000000 0.000000 0.000000 0.052597 0.000000
# 6 0.000000 0.000000 0.000000 0.000000 0.000000 0.046959
#
#
# Mechanical properties :
#
#
# Convention : Reuss Voigt Hill
#
# Bulk Modulus (GPa) = 49.08962 55.40248 52.24605
# Shear Modulus (GPa) = 21.55549 22.91234 22.23392
#
# Velocity S-wave (km/s) = 3.51640 3.62538 3.57130
# Velocity P-wave (km/s) = 6.68180 7.02179 6.85390
#
# Compressibility (1/GPa) = 0.02037090
#
# Stress axis : x y z
#
# Youngs Moduli (GPa) = 97.85173 51.04537 60.05441
#
# Poissons Ratio (x) = 0.18669 0.27193
# Poissons Ratio (y) = 0.35787 0.29186
# Poissons Ratio (z) = 0.44308 0.24808
#
# Static dielectric constant tensor:
#      x y z
#    x 3.244190 0.000000 0.000000 
#    y 0.000000 3.229950 0.000000 
#    z 0.000000 0.000000 3.151610 
# 
# 
# High freq. dielectric constant tensor:
#      x y z
#    x 1.676320 0.000000 0.000000 
#    y 0.000000 1.663840 0.000000 
#    z 0.000000 0.000000 1.656390 
# 
# From -- ./inp_files/28777.got.cif
#   From: 2010.03.12/outbox.cif.g09.slc.cpg/sg47_15_cif.got.tgz:28777.got - 2010.04.14 03:12:58.
