data_PCOD8195271
_publ_section_title
;
Structure prediction by ZEFSAII (Michael W. Deem and Ramdas Pophale) SiO2 
 PCOD8195271
Probable space group: P M M M
;
_chemical_formula_sum "Si O2"
_cell_formula_units_Z 36
_cell_length_a 16.929365
_cell_length_b 8.813774
_cell_length_c 15.767791
_cell_angle_alpha 90.000000
_cell_angle_beta 90.000000
_cell_angle_gamma 90.000000
_cell_volume 2352.737277
_symmetry_space_group_name_H-M "P M M M"
_symmetry_group_IT_number 47
_symmetry_cell_setting 'orthorhombic'
loop_
_space_group_symop_operation_xyz
x,y,z
-x,-y,z
x,-y,-z
-x,y,-z
-x,-y,-z
x,y,-z
-x,y,z
x,-y,z
loop_
_atom_site_type_symbol
_atom_site_label
_atom_site_fract_x
_atom_site_fract_y
_atom_site_fract_z
Si Si1 0.339619 0.822847 0.599294
Si Si2 0.906227 0.666170 0.000000
Si Si3 0.817732 0.320001 0.655741
Si Si4 0.500000 0.670865 0.399258
Si Si5 0.911492 0.681272 0.181613
Si Si6 0.093173 0.175371 0.500000
O O1 0.327798 0.788294 0.500000
O O2 0.271225 0.739254 0.650670
O O3 0.422550 0.758146 0.633455
O O4 0.336876 0.000000 0.618383
O O5 0.882560 0.748017 0.089303
O O6 0.866457 0.500000 0.000000
O O7 0.000000 0.648668 0.000000
O O8 0.818694 0.500000 0.647555
O O9 0.852463 0.262740 0.745407
O O10 0.872009 0.252720 0.582734
O O11 0.500000 0.500000 0.363338
O O12 0.500000 0.670744 0.500000
O O13 0.912380 0.500000 0.175875
O O14 0.000000 0.739605 0.203023
O O15 0.000000 0.197922 0.500000
O O16 0.118469 0.000000 0.500000
#
# Coordination Sequence:
#
# PCOD8195271 Si02
#       6
#     8   4   8   4   8   4
#     4  10  19  31  45  61  86 117 148 177 214 260
#     4   7  10  20  38  58  83 110 135 172 225 275
#     4  11  20  29  44  64  87 113 148 188 220 251
#     4   9  17  29  47  67  85 106 141 182 220 256
#     4   8  14  24  39  61  86 112 143 181 225 265
#     4  11  23  35  43  54  79 118 157 187 219 259
#
# _framework density 15.301327000000001
#
# number of rings (size 3 to 8) (size 9 to 14) (size 15 to 20)
#    0.000    2.556    1.111    4.000    0.000    4.000 
#    0.000    0.000    0.000    0.000    0.000    3.111 
#    0.000   13.333    0.000   10.444    0.000    2.000 
#
# Total GULP energy -446172.699364 kJ/mol
# GULP energy per Si atom -12393.686093 kJ/mol
# Density = 1.526650 g / cm^3
# Si number density = 15.301327 Si / 1000 Ang^3
#
#
#
# Elastic Constant Matrix: (Units=GPa)
#
#
# Indices 1 2 3 4 5 6 
#
# 1 113.1498 43.0228 63.6264 0.0000 0.0000 0.0000
# 2 43.0228 64.0450 37.2138 0.0000 0.0000 0.0000
# 3 63.6264 37.2138 123.2814 0.0000 0.0000 0.0000
# 4 0.0000 0.0000 0.0000 -0.1705 0.0000 0.0000
# 5 0.0000 0.0000 0.0000 0.0000 7.7101 0.0000
# 6 0.0000 0.0000 0.0000 0.0000 0.0000 24.3734
#
#
#
# Elastic Compliance Matrix: (Units=1/GPa)
#
#
# Indices 1 2 3 4 5 6 
#
# 1 0.014374 -0.006482 -0.005462 0.000000 0.000000 0.000000
# 2 -0.006482 0.021858 -0.003253 0.000000 0.000000 0.000000
# 3 -0.005462 -0.003253 0.011912 0.000000 0.000000 0.000000
# 4 0.000000 0.000000 0.000000 -5.863710 0.000000 0.000000
# 5 0.000000 0.000000 0.000000 0.000000 0.129699 0.000000
# 6 0.000000 0.000000 0.000000 0.000000 0.000000 0.041028
#
#
# Mechanical properties :
#
#
# Convention : Reuss Voigt Hill
#
# Bulk Modulus (GPa) = 56.33387 65.35578 60.84482
# Shear Modulus (GPa) = -0.89150 16.82348 7.96599
#
# Velocity S-wave (km/s) = -0.76413 3.31944 2.28416
# Velocity P-wave (km/s) = 6.00980 7.58266 6.84158
#
# Compressibility (1/GPa) = 0.01775131
#
# Stress axis : x y z
#
# Youngs Moduli (GPa) = 69.57120 45.74884 83.94745
#
# Poissons Ratio (x) = 0.29655 0.45850
# Poissons Ratio (y) = 0.45097 0.27306
# Poissons Ratio (z) = 0.37998 0.14881
#
# Static dielectric constant tensor:
#      x y z
#    x 2.958260 0.000000 0.000000 
#    y 0.000000 2.821940 0.000000 
#    z 0.000000 0.000000 3.422180 
# 
# 
# High freq. dielectric constant tensor:
#      x y z
#    x 1.575560 0.000000 0.000000 
#    y 0.000000 1.573570 0.000000 
#    z 0.000000 0.000000 1.565140 
# 
# From -- ./inp_files/23287.got.cif
#   From: 2010.03.12/outbox.cif.g09.slc.cpg/sg47_12_cif.got.tgz:23287.got - 2010.04.14 03:12:58.
