data_PCOD8195122
_publ_section_title
;
Structure prediction by ZEFSAII (Michael W. Deem and Ramdas Pophale) SiO2 
 PCOD8195122
Probable space group: P M M M
;
_chemical_formula_sum "Si O2"
_cell_formula_units_Z 60
_cell_length_a 17.268591
_cell_length_b 22.968307
_cell_length_c 9.102672
_cell_angle_alpha 90.000000
_cell_angle_beta 90.000000
_cell_angle_gamma 90.000000
_cell_volume 3610.395522
_symmetry_space_group_name_H-M "P M M M"
_symmetry_group_IT_number 47
_symmetry_cell_setting 'orthorhombic'
loop_
_space_group_symop_operation_xyz
x,y,z
-x,-y,z
x,-y,-z
-x,y,-z
-x,-y,-z
x,y,-z
-x,y,z
x,-y,z
loop_
_atom_site_type_symbol
_atom_site_label
_atom_site_fract_x
_atom_site_fract_y
_atom_site_fract_z
Si Si1 0.179007 0.258272 0.165949
Si Si2 0.654634 0.067541 0.172236
Si Si3 0.776685 0.566212 0.672485
Si Si4 0.321476 0.654099 0.834877
Si Si5 0.412263 0.744680 0.669605
Si Si6 0.275477 0.831098 0.673031
Si Si7 0.087770 0.651311 0.669871
Si Si8 0.500000 0.931460 0.663811
O O1 0.250038 0.302218 0.169742
O O2 0.200737 0.201851 0.262171
O O3 0.105495 0.290477 0.237471
O O4 0.158877 0.239186 0.000000
O O5 0.721439 0.106055 0.247676
O O6 0.574806 0.088190 0.246345
O O7 0.672883 0.000000 0.203235
O O8 0.649504 0.080421 0.000000
O O9 0.762130 0.570162 0.500000
O O10 0.783704 0.500000 0.726750
O O11 0.702691 0.595402 0.750510
O O12 0.856592 0.598222 0.717225
O O13 0.394118 0.685574 0.758320
O O14 0.345116 0.637594 0.000000
O O15 0.400987 0.728856 0.500000
O O16 0.500000 0.764926 0.704549
O O17 0.354233 0.796531 0.713834
O O18 0.264914 0.839504 0.500000
O O19 0.101042 0.667071 0.500000
O O20 0.000000 0.631492 0.701165
O O21 0.500000 0.902502 0.500000
O O22 0.500000 0.000000 0.645784
#
# Coordination Sequence:
#
# PCOD8195122 Si02
#       8
#     8   8   8   8   8   8   8   4
#     4   9  17  30  46  64  89 119 152 186 224 270
#     4  10  20  32  44  61  88 121 155 191 233 277
#     4   9  17  29  46  67  91 122 156 184 215 260
#     4   9  17  29  45  64  86 114 147 184 226 269
#     4   9  18  31  46  65  87 111 142 185 234 279
#     4  10  19  30  47  67  89 117 152 192 230 273
#     4   9  17  29  46  69  97 125 152 184 220 259
#     4   9  17  29  43  57  77 111 153 191 226 267
#
# _framework density 16.618677000000002
#
# number of rings (size 3 to 8) (size 9 to 14) (size 15 to 20)
#    0.000    2.733    0.000    1.800    0.933    6.400 
#    0.000    1.333    0.000    0.400    0.000    6.533 
#    0.000    0.533    0.000    5.600    0.000    2.400 
#
# Total GULP energy -743957.014734 kJ/mol
# GULP energy per Si atom -12399.283579 kJ/mol
# Density = 1.658085 g / cm^3
# Si number density = 16.618677 Si / 1000 Ang^3
#
#
#
# Elastic Constant Matrix: (Units=GPa)
#
#
# Indices 1 2 3 4 5 6 
#
# 1 27.0182 22.3222 17.5725 0.0000 0.0000 0.0000
# 2 22.3222 92.1333 49.7111 0.0000 0.0000 0.0000
# 3 17.5725 49.7111 90.9268 0.0000 0.0000 0.0000
# 4 0.0000 0.0000 0.0000 25.6236 0.0000 0.0000
# 5 0.0000 0.0000 0.0000 0.0000 19.2464 0.0000
# 6 0.0000 0.0000 0.0000 0.0000 0.0000 21.0541
#
#
#
# Elastic Compliance Matrix: (Units=1/GPa)
#
#
# Indices 1 2 3 4 5 6 
#
# 1 0.047319 -0.009263 -0.004081 0.000000 0.000000 0.000000
# 2 -0.009263 0.017208 -0.007618 0.000000 0.000000 0.000000
# 3 -0.004081 -0.007618 0.015951 0.000000 0.000000 0.000000
# 4 0.000000 0.000000 0.000000 0.039026 0.000000 0.000000
# 5 0.000000 0.000000 0.000000 0.000000 0.051958 0.000000
# 6 0.000000 0.000000 0.000000 0.000000 0.000000 0.047497
#
#
# Mechanical properties :
#
#
# Convention : Reuss Voigt Hill
#
# Bulk Modulus (GPa) = 25.93643 43.25445 34.59544
# Shear Modulus (GPa) = 18.26587 21.21633 19.74110
#
# Velocity S-wave (km/s) = 3.31889 3.57691 3.45031
# Velocity P-wave (km/s) = 5.50703 6.56834 6.06096
#
# Compressibility (1/GPa) = 0.03855581
#
# Stress axis : x y z
#
# Youngs Moduli (GPa) = 21.13311 58.11130 62.69052
#
# Poissons Ratio (x) = 0.53827 0.25583
# Poissons Ratio (y) = 0.19575 0.47757
# Poissons Ratio (z) = 0.08624 0.44269
#
# Static dielectric constant tensor:
#      x y z
#    x 2.883690 0.000000 0.000000 
#    y 0.000000 3.079370 0.000000 
#    z 0.000000 0.000000 3.239330 
# 
# 
# High freq. dielectric constant tensor:
#      x y z
#    x 1.600920 0.000000 0.000000 
#    y 0.000000 1.626700 0.000000 
#    z 0.000000 0.000000 1.650630 
# 
# From -- ./inp_files/9904.got.cif
#   From: 2010.03.12/outbox.cif.g09.slc.cpg/sg47_5_cif.got.tgz:9904.got - 2010.04.14 03:12:58.
