data_PCOD8195174
_publ_section_title
;
Structure prediction by ZEFSAII (Michael W. Deem and Ramdas Pophale) SiO2 
 PCOD8195174
Probable space group: P M M M
;
_chemical_formula_sum "Si O2"
_cell_formula_units_Z 60
_cell_length_a 20.807740
_cell_length_b 9.355582
_cell_length_c 19.027326
_cell_angle_alpha 90.000000
_cell_angle_beta 90.000000
_cell_angle_gamma 90.000000
_cell_volume 3704.021350
_symmetry_space_group_name_H-M "P M M M"
_symmetry_group_IT_number 47
_symmetry_cell_setting 'orthorhombic'
loop_
_space_group_symop_operation_xyz
x,y,z
-x,-y,z
x,-y,-z
-x,y,-z
-x,-y,-z
x,y,-z
-x,y,z
x,-y,z
loop_
_atom_site_type_symbol
_atom_site_label
_atom_site_fract_x
_atom_site_fract_y
_atom_site_fract_z
Si Si1 0.772803 0.834614 0.577370
Si Si2 0.320728 0.837936 0.790195
Si Si3 0.000000 0.669035 0.078963
Si Si4 0.184418 0.835086 0.276394
Si Si5 0.130091 0.329914 0.846902
Si Si6 0.356729 0.334753 0.577830
Si Si7 0.758954 0.836365 0.920397
Si Si8 0.572101 0.668370 0.284825
O O1 0.802355 0.797962 0.500000
O O2 0.823287 0.799495 0.640173
O O3 0.708302 0.749242 0.591020
O O4 0.753639 0.000000 0.581930
O O5 0.257995 0.801105 0.744125
O O6 0.303485 0.810803 0.871964
O O7 0.379921 0.737428 0.771072
O O8 0.342483 0.000000 0.776735
O O9 0.937748 0.720705 0.121641
O O10 0.000000 0.500000 0.072824
O O11 0.000000 0.734783 0.000000
O O12 0.136797 0.735561 0.231456
O O13 0.167841 0.000000 0.259861
O O14 0.136341 0.500000 0.842409
O O15 0.184291 0.269534 0.898523
O O16 0.384915 0.302437 0.500000
O O17 0.338935 0.500000 0.586124
O O18 0.408940 0.288008 0.635540
O O19 0.783116 0.000000 0.910670
O O20 0.738493 0.803796 0.000000
O O21 0.500000 0.724407 0.271175
O O22 0.576105 0.500000 0.274339
#
# Coordination Sequence:
#
# PCOD8195174 Si02
#       8
#     8   8   4   8   8   8   8   8
#     4   9  16  27  45  66  89 119 151 186 232 278
#     4   9  17  30  47  66  86 112 144 182 229 274
#     4   9  18  32  47  67 100 133 158 186 217 253
#     4   9  17  30  46  67  95 121 151 193 234 269
#     4  10  19  30  48  72  97 128 160 186 215 259
#     4   9  17  28  42  61  86 116 150 187 226 269
#     4   9  18  33  51  71  95 118 144 184 230 271
#     4  10  20  31  43  61  86 117 152 188 227 272
#
# _framework density 16.198611
#
# number of rings (size 3 to 8) (size 9 to 14) (size 15 to 20)
#    0.000    2.733    1.333    1.600    0.000    4.000 
#    0.000    2.667    0.000    2.800    0.000    6.067 
#    0.000    3.733    0.000    0.000    0.000    0.000 
#
# Total GULP energy -743728.790687 kJ/mol
# GULP energy per Si atom -12395.479845 kJ/mol
# Density = 1.616174 g / cm^3
# Si number density = 16.198611 Si / 1000 Ang^3
#
#
#
# Elastic Constant Matrix: (Units=GPa)
#
#
# Indices 1 2 3 4 5 6 
#
# 1 86.7097 38.3320 61.9778 0.0000 0.0000 0.0000
# 2 38.3320 50.4034 44.6325 0.0000 0.0000 0.0000
# 3 61.9778 44.6325 146.0694 0.0000 0.0000 0.0000
# 4 0.0000 0.0000 0.0000 24.5847 0.0000 0.0000
# 5 0.0000 0.0000 0.0000 0.0000 21.7626 0.0000
# 6 0.0000 0.0000 0.0000 0.0000 0.0000 -1.4723
#
#
#
# Elastic Compliance Matrix: (Units=1/GPa)
#
#
# Indices 1 2 3 4 5 6 
#
# 1 0.019928 -0.010512 -0.005243 0.000000 0.000000 0.000000
# 2 -0.010512 0.032744 -0.005545 0.000000 0.000000 0.000000
# 3 -0.005243 -0.005545 0.010765 0.000000 0.000000 0.000000
# 4 0.000000 0.000000 0.000000 0.040676 0.000000 0.000000
# 5 0.000000 0.000000 0.000000 0.000000 0.045950 0.000000
# 6 0.000000 0.000000 0.000000 0.000000 0.000000 -0.679230
#
#
# Mechanical properties :
#
#
# Convention : Reuss Voigt Hill
#
# Bulk Modulus (GPa) = 47.99270 63.67413 55.83341
# Shear Modulus (GPa) = -10.42490 18.19104 3.88307
#
# Velocity S-wave (km/s) = -2.53962 3.35475 1.54996
# Velocity P-wave (km/s) = 4.59265 7.37561 6.14378
#
# Compressibility (1/GPa) = 0.02083650
#
# Stress axis : x y z
#
# Youngs Moduli (GPa) = 50.18165 30.53953 92.89239
#
# Poissons Ratio (x) = 0.32103 0.48707
# Poissons Ratio (y) = 0.52751 0.51509
# Poissons Ratio (z) = 0.26312 0.16934
#
# Static dielectric constant tensor:
#      x y z
#    x 2.812420 0.000000 0.000000 
#    y 0.000000 3.005450 0.000000 
#    z 0.000000 0.000000 3.411620 
# 
# 
# High freq. dielectric constant tensor:
#      x y z
#    x 1.581680 0.000000 0.000000 
#    y 0.000000 1.619360 0.000000 
#    z 0.000000 0.000000 1.636110 
# 
# From -- ./inp_files/31369.got.cif
#   From: 2010.03.12/outbox.cif.g09.slc.cpg/sg47_16_cif.got.tgz:31369.got - 2010.04.14 03:12:58.
