data_PCOD8195036
_publ_section_title
;
Structure prediction by ZEFSAII (Michael W. Deem and Ramdas Pophale) SiO2 
 PCOD8195036
Probable space group: P M M M
;
_chemical_formula_sum "Si O2"
_cell_formula_units_Z 64
_cell_length_a 23.565171
_cell_length_b 9.114127
_cell_length_c 18.890877
_cell_angle_alpha 90.000000
_cell_angle_beta 90.000000
_cell_angle_gamma 90.000000
_cell_volume 4057.306267
_symmetry_space_group_name_H-M "P M M M"
_symmetry_group_IT_number 47
_symmetry_cell_setting 'orthorhombic'
loop_
_space_group_symop_operation_xyz
x,y,z
-x,-y,z
x,-y,-z
-x,y,-z
-x,-y,-z
x,y,-z
-x,y,z
x,-y,z
loop_
_atom_site_type_symbol
_atom_site_label
_atom_site_fract_x
_atom_site_fract_y
_atom_site_fract_z
Si Si1 0.744460 0.171791 0.579504
Si Si2 0.165181 0.671909 0.149952
Si Si3 0.064970 0.170577 0.919042
Si Si4 0.374025 0.668771 0.419829
Si Si5 0.563685 0.168711 0.301545
Si Si6 0.266858 0.830765 0.078838
Si Si7 0.228400 0.328355 0.710390
Si Si8 0.328740 0.831274 0.216379
O O1 0.766407 0.205499 0.500000
O O2 0.682297 0.236972 0.591556
O O3 0.786830 0.247476 0.636308
O O4 0.741599 0.000000 0.594217
O O5 0.164230 0.500000 0.136958
O O6 0.103506 0.736844 0.134197
O O7 0.211188 0.738414 0.096781
O O8 0.180870 0.710289 0.231207
O O9 0.000000 0.207321 0.900673
O O10 0.077568 0.000000 0.907485
O O11 0.078292 0.214636 0.000000
O O12 0.396356 0.684535 0.500000
O O13 0.360465 0.500000 0.401515
O O14 0.422669 0.729965 0.368730
O O15 0.500000 0.204182 0.275493
O O16 0.605953 0.202281 0.235875
O O17 0.569445 0.000000 0.325597
O O18 0.318133 0.796097 0.133341
O O19 0.248650 0.000000 0.083388
O O20 0.287966 0.789541 0.000000
O O21 0.232237 0.500000 0.696334
O O22 0.289557 0.272266 0.736194
O O23 0.312783 0.000000 0.233028
#
# Coordination Sequence:
#
# PCOD8195036 Si02
#       8
#     8   8   8   8   8   8   8   8
#     4  10  19  30  46  67  90 117 148 180 218 267
#     4  10  20  30  43  68  98 124 153 190 227 264
#     4   9  18  32  48  66  92 129 169 201 227 260
#     4  10  20  32  46  64  86 112 142 178 218 262
#     4  10  20  32  46  63  83 110 146 186 223 265
#     4   9  17  29  46  66  87 114 148 185 225 270
#     4  10  19  30  45  66  92 119 148 184 224 265
#     4   9  17  30  46  62  83 112 144 179 223 272
#
# _framework density 15.774012000000001
#
# number of rings (size 3 to 8) (size 9 to 14) (size 15 to 20)
#    0.000    2.375    1.250    2.250    0.000    5.750 
#    0.000    1.875    0.000    0.375    0.000    2.625 
#    0.000    0.500    0.000   12.875    0.000   11.750 
#
# Total GULP energy -793519.346911 kJ/mol
# GULP energy per Si atom -12398.739795 kJ/mol
# Density = 1.573811 g / cm^3
# Si number density = 15.774012 Si / 1000 Ang^3
#
#
#
# Elastic Constant Matrix: (Units=GPa)
#
#
# Indices 1 2 3 4 5 6 
#
# 1 84.7210 41.7036 58.1604 0.0000 0.0000 0.0000
# 2 41.7036 78.0264 58.2010 0.0000 0.0000 0.0000
# 3 58.1604 58.2010 127.5153 0.0000 0.0000 0.0000
# 4 0.0000 0.0000 0.0000 23.9567 0.0000 0.0000
# 5 0.0000 0.0000 0.0000 0.0000 23.7470 0.0000
# 6 0.0000 0.0000 0.0000 0.0000 0.0000 13.3496
#
#
#
# Elastic Compliance Matrix: (Units=1/GPa)
#
#
# Indices 1 2 3 4 5 6 
#
# 1 0.018612 -0.005482 -0.005987 0.000000 0.000000 0.000000
# 2 -0.005482 0.021046 -0.007106 0.000000 0.000000 0.000000
# 3 -0.005987 -0.007106 0.013816 0.000000 0.000000 0.000000
# 4 0.000000 0.000000 0.000000 0.041742 0.000000 0.000000
# 5 0.000000 0.000000 0.000000 0.000000 0.042111 0.000000
# 6 0.000000 0.000000 0.000000 0.000000 0.000000 0.074908
#
#
# Mechanical properties :
#
#
# Convention : Reuss Voigt Hill
#
# Bulk Modulus (GPa) = 61.25497 67.37697 64.31597
# Shear Modulus (GPa) = 19.62120 21.02385 20.32252
#
# Velocity S-wave (km/s) = 3.53071 3.65474 3.59326
# Velocity P-wave (km/s) = 7.45241 7.78563 7.62084
#
# Compressibility (1/GPa) = 0.01632521
#
# Stress axis : x y z
#
# Youngs Moduli (GPa) = 53.72907 47.51393 72.37959
#
# Poissons Ratio (x) = 0.26047 0.43333
# Poissons Ratio (y) = 0.29454 0.51431
# Poissons Ratio (z) = 0.32167 0.33762
#
# Static dielectric constant tensor:
#      x y z
#    x 2.771030 0.000000 0.000000 
#    y 0.000000 3.074430 0.000000 
#    z 0.000000 0.000000 3.249450 
# 
# 
# High freq. dielectric constant tensor:
#      x y z
#    x 1.567830 0.000000 0.000000 
#    y 0.000000 1.615070 0.000000 
#    z 0.000000 0.000000 1.606690 
# 
# From -- ./inp_files/10189.got.cif
#   From: 2010.03.12/outbox.cif.g09.slc.cpg/sg47_6_cif.got.tgz:10189.got - 2010.04.14 03:12:58.
