data_PCOD8195439
_publ_section_title
;
Structure prediction by ZEFSAII (Michael W. Deem and Ramdas Pophale) SiO2 
 PCOD8195439
Probable space group: P M M M
;
_chemical_formula_sum "Si O2"
_cell_formula_units_Z 56
_cell_length_a 8.902147
_cell_length_b 18.900973
_cell_length_c 19.040147
_cell_angle_alpha 90.000000
_cell_angle_beta 90.000000
_cell_angle_gamma 90.000000
_cell_volume 3203.680665
_symmetry_space_group_name_H-M "P M M M"
_symmetry_group_IT_number 47
_symmetry_cell_setting 'orthorhombic'
loop_
_space_group_symop_operation_xyz
x,y,z
-x,-y,z
x,-y,-z
-x,y,-z
-x,-y,-z
x,y,-z
-x,y,z
x,-y,z
loop_
_atom_site_type_symbol
_atom_site_label
_atom_site_fract_x
_atom_site_fract_y
_atom_site_fract_z
Si Si1 0.824062 0.920547 0.166771
Si Si2 0.677121 0.842233 0.712068
Si Si3 0.824605 0.198177 0.579122
Si Si4 0.822987 0.210178 0.077007
Si Si5 0.824368 0.713302 0.787453
Si Si6 0.173363 0.579256 0.701891
Si Si7 0.327282 0.652869 0.579190
O O1 0.740811 0.904924 0.239779
O O2 0.767404 0.865538 0.107473
O O3 0.000000 0.910485 0.180516
O O4 0.785739 0.000000 0.141732
O O5 0.500000 0.845484 0.713078
O O6 0.737010 0.853242 0.632681
O O7 0.732144 0.765551 0.737855
O O8 0.787063 0.173284 0.500000
O O9 0.773280 0.278407 0.591112
O O10 0.000000 0.194172 0.595207
O O11 0.776983 0.272906 0.131135
O O12 0.000000 0.207937 0.068043
O O13 0.748955 0.223031 0.000000
O O14 0.785825 0.632981 0.765456
O O15 0.000000 0.730970 0.777709
O O16 0.207308 0.500000 0.729043
O O17 0.272944 0.592993 0.633012
O O18 0.000000 0.588124 0.680337
O O19 0.307614 0.623543 0.500000
O O20 0.500000 0.672793 0.594162
#
# Coordination Sequence:
#
# PCOD8195439 Si02
#       7
#     8   8   8   8   8   8   8
#     4   9  18  32  50  73 102 135 166 195 233 285
#     4  11  20  30  49  73  98 128 163 204 246 286
#     4  10  19  31  49  71  95 125 162 204 247 291
#     4   8  14  26  48  77 102 126 160 201 242 283
#     4   9  17  31  49  68  94 126 164 206 245 292
#     4  10  20  32  47  66  91 129 172 211 251 296
#     4  10  20  32  46  67  95 125 159 203 254 300
#
# _framework density 17.479894999999999
#
# number of rings (size 3 to 8) (size 9 to 14) (size 15 to 20)
#    0.000    2.429    1.429    3.000    0.000    2.857 
#    0.000    2.857    0.000    7.714    0.000   10.000 
#    0.000    0.000    0.000    6.429    0.000    7.143 
#
# Total GULP energy -694227.974367 kJ/mol
# GULP energy per Si atom -12396.928114 kJ/mol
# Density = 1.744011 g / cm^3
# Si number density = 17.479895 Si / 1000 Ang^3
#
#
#
# Elastic Constant Matrix: (Units=GPa)
#
#
# Indices 1 2 3 4 5 6 
#
# 1 59.3395 19.3662 37.3287 0.0000 0.0000 0.0000
# 2 19.3662 79.4051 54.8981 0.0000 0.0000 0.0000
# 3 37.3287 54.8981 142.8724 0.0000 0.0000 0.0000
# 4 0.0000 0.0000 0.0000 20.1938 0.0000 0.0000
# 5 0.0000 0.0000 0.0000 0.0000 10.0459 0.0000
# 6 0.0000 0.0000 0.0000 0.0000 0.0000 9.3984
#
#
#
# Elastic Compliance Matrix: (Units=1/GPa)
#
#
# Indices 1 2 3 4 5 6 
#
# 1 0.020344 -0.001752 -0.004642 0.000000 0.000000 0.000000
# 2 -0.001752 0.017300 -0.006190 0.000000 0.000000 0.000000
# 3 -0.004642 -0.006190 0.010590 0.000000 0.000000 0.000000
# 4 0.000000 0.000000 0.000000 0.049520 0.000000 0.000000
# 5 0.000000 0.000000 0.000000 0.000000 0.099543 0.000000
# 6 0.000000 0.000000 0.000000 0.000000 0.000000 0.106401
#
#
# Mechanical properties :
#
#
# Convention : Reuss Voigt Hill
#
# Bulk Modulus (GPa) = 43.35249 56.08921 49.72085
# Shear Modulus (GPa) = 14.85635 19.26257 17.05946
#
# Velocity S-wave (km/s) = 2.91849 3.32322 3.12741
# Velocity P-wave (km/s) = 6.01763 6.84708 6.44571
#
# Compressibility (1/GPa) = 0.02306673
#
# Stress axis : x y z
#
# Youngs Moduli (GPa) = 49.15392 57.80197 94.42446
#
# Poissons Ratio (x) = 0.10129 0.43832
# Poissons Ratio (y) = 0.08614 0.58446
# Poissons Ratio (z) = 0.22817 0.35778
#
# Static dielectric constant tensor:
#      x y z
#    x 3.094040 0.000000 0.000000 
#    y 0.000000 3.099270 0.000000 
#    z 0.000000 0.000000 3.600110 
# 
# 
# High freq. dielectric constant tensor:
#      x y z
#    x 1.662150 0.000000 0.000000 
#    y 0.000000 1.646690 0.000000 
#    z 0.000000 0.000000 1.675840 
# 
# From -- ./inp_files/9850.got.cif
#   From: 2010.03.12/outbox.cif.g09.slc.cpg/sg47_5_cif.got.tgz:9850.got - 2010.04.14 03:12:58.
