data_PCOD8195485
_publ_section_title
;
Structure prediction by ZEFSAII (Michael W. Deem and Ramdas Pophale) SiO2 
 PCOD8195485
Probable space group: P M M M
;
_chemical_formula_sum "Si O2"
_cell_formula_units_Z 56
_cell_length_a 8.940612
_cell_length_b 16.351734
_cell_length_c 23.215946
_cell_angle_alpha 90.000000
_cell_angle_beta 90.000000
_cell_angle_gamma 90.000000
_cell_volume 3394.043832
_symmetry_space_group_name_H-M "P M M M"
_symmetry_group_IT_number 47
_symmetry_cell_setting 'orthorhombic'
loop_
_space_group_symop_operation_xyz
x,y,z
-x,-y,z
x,-y,-z
-x,y,-z
-x,-y,-z
x,y,-z
-x,y,z
x,-y,z
loop_
_atom_site_type_symbol
_atom_site_label
_atom_site_fract_x
_atom_site_fract_y
_atom_site_fract_z
Si Si1 0.673997 0.308275 0.337184
Si Si2 0.677879 0.000000 0.748597
Si Si3 0.823561 0.833907 0.725138
Si Si4 0.828058 0.593433 0.433404
Si Si5 0.323052 0.167164 0.934180
Si Si6 0.175512 0.266020 0.837773
Si Si7 0.677430 0.000000 0.120137
Si Si8 0.325949 0.593225 0.775760
O O1 0.500000 0.286109 0.339511
O O2 0.765526 0.225441 0.325212
O O3 0.724104 0.345701 0.397690
O O4 0.710084 0.374687 0.288083
O O5 0.742899 0.920549 0.717008
O O6 0.735271 0.000000 0.814461
O O7 0.500000 0.000000 0.744283
O O8 0.777517 0.796456 0.787061
O O9 0.000000 0.845075 0.719307
O O10 0.806075 0.615811 0.500000
O O11 0.778634 0.500000 0.422075
O O12 0.000000 0.605403 0.414970
O O13 0.500000 0.171309 0.926492
O O14 0.250193 0.239075 0.897256
O O15 0.260372 0.079831 0.912416
O O16 0.274608 0.179560 0.000000
O O17 0.233778 0.356324 0.822961
O O18 0.000000 0.269262 0.846142
O O19 0.500000 0.000000 0.118188
O O20 0.500000 0.602665 0.790126
O O21 0.272300 0.500000 0.779298
#
# Coordination Sequence:
#
# PCOD8195485 Si02
#       8
#     8   4   8   8   8   8   4   8
#     4  10  19  31  49  74 102 130 166 207 246 285
#     4  11  19  30  51  73  97 129 162 202 247 284
#     4  10  20  33  48  69  98 132 165 198 242 296
#     4   9  18  32  49  71 103 142 176 204 241 290
#     4  10  19  32  50  70  93 124 160 194 233 286
#     4  10  20  32  47  68  95 124 156 194 238 287
#     4   9  17  29  48  71  95 122 156 194 233 278
#     4   9  18  32  50  71  95 123 156 196 242 290
#
# _framework density 16.499492
#
# number of rings (size 3 to 8) (size 9 to 14) (size 15 to 20)
#    0.000    2.286    1.429    2.571    0.000    4.286 
#    0.000    1.071    0.000    1.286    0.000    3.500 
#    0.000    4.000    0.000    0.000    0.000    0.000 
#
# Total GULP energy -694589.878549 kJ/mol
# GULP energy per Si atom -12403.390688 kJ/mol
# Density = 1.646194 g / cm^3
# Si number density = 16.499492 Si / 1000 Ang^3
#
#
#
# Elastic Constant Matrix: (Units=GPa)
#
#
# Indices 1 2 3 4 5 6 
#
# 1 57.6142 42.7734 33.0323 0.0000 0.0000 0.0000
# 2 42.7734 121.5208 49.4346 0.0000 0.0000 0.0000
# 3 33.0323 49.4346 80.8176 0.0000 0.0000 0.0000
# 4 0.0000 0.0000 0.0000 27.8651 0.0000 0.0000
# 5 0.0000 0.0000 0.0000 0.0000 25.6741 0.0000
# 6 0.0000 0.0000 0.0000 0.0000 0.0000 26.3913
#
#
#
# Elastic Compliance Matrix: (Units=1/GPa)
#
#
# Indices 1 2 3 4 5 6 
#
# 1 0.025952 -0.006416 -0.006682 0.000000 0.000000 0.000000
# 2 -0.006416 0.012541 -0.005049 0.000000 0.000000 0.000000
# 3 -0.006682 -0.005049 0.018193 0.000000 0.000000 0.000000
# 4 0.000000 0.000000 0.000000 0.035887 0.000000 0.000000
# 5 0.000000 0.000000 0.000000 0.000000 0.038950 0.000000
# 6 0.000000 0.000000 0.000000 0.000000 0.000000 0.037891
#
#
# Mechanical properties :
#
#
# Convention : Reuss Voigt Hill
#
# Bulk Modulus (GPa) = 49.04097 56.71481 52.87789
# Shear Modulus (GPa) = 23.52877 24.96694 24.24786
#
# Velocity S-wave (km/s) = 3.78038 3.89420 3.83771
# Velocity P-wave (km/s) = 6.98872 7.39378 7.19410
#
# Compressibility (1/GPa) = 0.02039112
#
# Stress axis : x y z
#
# Youngs Moduli (GPa) = 38.53340 79.73672 54.96586
#
# Poissons Ratio (x) = 0.51160 0.36731
# Poissons Ratio (y) = 0.24723 0.27751
# Poissons Ratio (z) = 0.25750 0.40258
#
# Static dielectric constant tensor:
#      x y z
#    x 3.005080 0.000000 0.000000 
#    y 0.000000 3.096940 0.000000 
#    z 0.000000 0.000000 2.926970 
# 
# 
# High freq. dielectric constant tensor:
#      x y z
#    x 1.635440 0.000000 0.000000 
#    y 0.000000 1.631430 0.000000 
#    z 0.000000 0.000000 1.612880 
# 
# From -- ./inp_files/29744.got.cif
#   From: 2010.03.12/outbox.cif.g09.slc.cpg/sg47_15_cif.got.tgz:29744.got - 2010.04.14 03:12:58.
