data_PCOD8195414
_publ_section_title
;
Structure prediction by ZEFSAII (Michael W. Deem and Ramdas Pophale) SiO2 
 PCOD8195414
Probable space group: P M M M
;
_chemical_formula_sum "Si O2"
_cell_formula_units_Z 56
_cell_length_a 9.439260
_cell_length_b 13.956017
_cell_length_c 24.491809
_cell_angle_alpha 90.000000
_cell_angle_beta 90.000000
_cell_angle_gamma 90.000000
_cell_volume 3226.415552
_symmetry_space_group_name_H-M "P M M M"
_symmetry_group_IT_number 47
_symmetry_cell_setting 'orthorhombic'
loop_
_space_group_symop_operation_xyz
x,y,z
-x,-y,z
x,-y,-z
-x,y,-z
-x,-y,-z
x,y,-z
-x,y,z
x,-y,z
loop_
_atom_site_type_symbol
_atom_site_label
_atom_site_fract_x
_atom_site_fract_y
_atom_site_fract_z
Si Si1 0.665274 0.891637 0.605196
Si Si2 0.836180 0.275858 0.561672
Si Si3 0.662408 0.389528 0.648448
Si Si4 0.333588 0.275258 0.240678
Si Si5 0.500000 0.613725 0.939964
Si Si6 0.000000 0.613763 0.061696
Si Si7 0.253224 0.613365 0.865052
Si Si8 0.164728 0.891343 0.282985
O O1 0.500000 0.862098 0.613233
O O2 0.744508 0.822057 0.563149
O O3 0.747859 0.880084 0.661553
O O4 0.675692 0.000000 0.582851
O O5 0.828640 0.315382 0.500000
O O6 0.767403 0.354645 0.601135
O O7 0.000000 0.256870 0.578490
O O8 0.500000 0.375334 0.629334
O O9 0.694738 0.500000 0.661136
O O10 0.692838 0.329565 0.702691
O O11 0.500000 0.255962 0.230599
O O12 0.265815 0.339784 0.193825
O O13 0.243969 0.176792 0.239755
O O14 0.500000 0.500000 0.946000
O O15 0.371999 0.651313 0.904984
O O16 0.500000 0.660764 0.000000
O O17 0.875471 0.650862 0.099440
O O18 0.000000 0.500000 0.055413
O O19 0.000000 0.657722 0.000000
O O20 0.254296 0.500000 0.855281
O O21 0.000000 0.861591 0.291621
O O22 0.173964 0.000000 0.261231
#
# Coordination Sequence:
#
# PCOD8195414 Si02
#       8
#     8   8   8   8   4   4   8   8
#     4  10  20  36  59  85 110 137 171 214 270 333
#     4  11  24  40  57  79 107 140 182 229 274 326
#     4  10  22  39  58  79 105 142 182 223 273 324
#     4  11  21  34  55  82 112 142 178 222 269 321
#     4   9  16  28  48  72 103 147 190 220 254 305
#     4   9  18  32  48  70 107 153 196 232 266 307
#     4  10  19  31  48  75 111 150 187 224 266 310
#     4  10  21  36  56  81 109 141 175 214 266 327
#
# _framework density 17.356722999999999
#
# number of rings (size 3 to 8) (size 9 to 14) (size 15 to 20)
#    0.000    1.857    2.143    2.143    1.000    6.000 
#    0.000    2.857    0.000    0.000    0.000    0.000 
#    0.000    3.429    0.000    0.000    0.000    0.000 
#
# Total GULP energy -694048.331914 kJ/mol
# GULP energy per Si atom -12393.720213 kJ/mol
# Density = 1.731722 g / cm^3
# Si number density = 17.356723 Si / 1000 Ang^3
#
#
#
# Elastic Constant Matrix: (Units=GPa)
#
#
# Indices 1 2 3 4 5 6 
#
# 1 150.7295 45.1475 58.4839 0.0000 0.0000 0.0000
# 2 45.1475 80.5383 35.7275 0.0000 0.0000 0.0000
# 3 58.4839 35.7275 102.1796 0.0000 0.0000 0.0000
# 4 0.0000 0.0000 0.0000 9.3853 0.0000 0.0000
# 5 0.0000 0.0000 0.0000 0.0000 37.2822 0.0000
# 6 0.0000 0.0000 0.0000 0.0000 0.0000 27.7736
#
#
#
# Elastic Compliance Matrix: (Units=1/GPa)
#
#
# Indices 1 2 3 4 5 6 
#
# 1 0.009234 -0.003352 -0.004113 0.000000 0.000000 0.000000
# 2 -0.003352 0.015913 -0.003645 0.000000 0.000000 0.000000
# 3 -0.004113 -0.003645 0.013416 0.000000 0.000000 0.000000
# 4 0.000000 0.000000 0.000000 0.106550 0.000000 0.000000
# 5 0.000000 0.000000 0.000000 0.000000 0.026822 0.000000
# 6 0.000000 0.000000 0.000000 0.000000 0.000000 0.036005
#
#
# Mechanical properties :
#
#
# Convention : Reuss Voigt Hill
#
# Bulk Modulus (GPa) = 61.19474 68.01835 64.60654
# Shear Modulus (GPa) = 21.22164 27.82747 24.52455
#
# Velocity S-wave (km/s) = 3.50047 4.00843 3.76303
# Velocity P-wave (km/s) = 7.18828 7.79082 7.49561
#
# Compressibility (1/GPa) = 0.01634127
#
# Stress axis : x y z
#
# Youngs Moduli (GPa) = 108.29089 62.84359 74.53936
#
# Poissons Ratio (x) = 0.21064 0.30662
# Poissons Ratio (y) = 0.36297 0.27173
# Poissons Ratio (z) = 0.44545 0.22909
#
# Static dielectric constant tensor:
#      x y z
#    x 3.410560 0.000000 0.000000 
#    y 0.000000 3.166970 0.000000 
#    z 0.000000 0.000000 3.173740 
# 
# 
# High freq. dielectric constant tensor:
#      x y z
#    x 1.690880 0.000000 0.000000 
#    y 0.000000 1.645340 0.000000 
#    z 0.000000 0.000000 1.660580 
# 
# From -- ./inp_files/29743.got.cif
#   From: 2010.03.12/outbox.cif.g09.slc.cpg/sg47_15_cif.got.tgz:29743.got - 2010.04.14 03:12:58.
