data_PCOD8195124
_publ_section_title
;
Structure prediction by ZEFSAII (Michael W. Deem and Ramdas Pophale) SiO2 
 PCOD8195124
Probable space group: P M M M
;
_chemical_formula_sum "Si O2"
_cell_formula_units_Z 64
_cell_length_a 8.999048
_cell_length_b 18.576268
_cell_length_c 22.340426
_cell_angle_alpha 90.000000
_cell_angle_beta 90.000000
_cell_angle_gamma 90.000000
_cell_volume 3734.620584
_symmetry_space_group_name_H-M "P M M M"
_symmetry_group_IT_number 47
_symmetry_cell_setting 'orthorhombic'
loop_
_space_group_symop_operation_xyz
x,y,z
-x,-y,z
x,-y,-z
-x,y,-z
-x,-y,-z
x,y,-z
-x,y,z
x,-y,z
loop_
_atom_site_type_symbol
_atom_site_label
_atom_site_fract_x
_atom_site_fract_y
_atom_site_fract_z
Si Si1 0.165933 0.169861 0.836974
Si Si2 0.171522 0.706124 0.260131
Si Si3 0.337264 0.921464 0.756632
Si Si4 0.329083 0.419201 0.811490
Si Si5 0.174478 0.615670 0.067502
Si Si6 0.665149 0.238093 0.933898
Si Si7 0.332348 0.808213 0.652651
Si Si8 0.170493 0.918970 0.570552
O O1 0.187075 0.237127 0.793061
O O2 0.208587 0.096599 0.803682
O O3 0.281827 0.175070 0.890871
O O4 0.000000 0.164200 0.861716
O O5 0.247462 0.633190 0.235647
O O6 0.247200 0.737320 0.321231
O O7 0.000000 0.689835 0.275104
O O8 0.500000 0.918167 0.787528
O O9 0.333339 0.867216 0.703074
O O10 0.303176 0.000000 0.730490
O O11 0.500000 0.394351 0.816808
O O12 0.317065 0.500000 0.785307
O O13 0.260319 0.423076 0.878645
O O14 0.214545 0.699115 0.071674
O O15 0.000000 0.605523 0.078389
O O16 0.217279 0.586949 0.000000
O O17 0.500000 0.265866 0.916132
O O18 0.663163 0.205411 0.000000
O O19 0.500000 0.784922 0.634737
O O20 0.255740 0.849670 0.597500
O O21 0.186133 0.910760 0.500000
O O22 0.000000 0.912716 0.591154
O O23 0.229199 0.000000 0.588939
#
# Coordination Sequence:
#
# PCOD8195124 Si02
#       8
#     8   8   8   8   8   8   8   8
#     4  10  19  30  47  69  90 115 148 190 237 285
#     4  10  20  34  51  71  95 126 164 203 244 293
#     4   9  18  31  46  66  93 124 156 192 237 286
#     4  11  23  36  51  71  97 129 162 201 251 303
#     4  10  20  33  49  69  93 122 157 197 241 294
#     4  10  19  30  47  68  88 113 146 187 235 287
#     4  10  19  31  50  74 101 133 169 211 249 286
#     4   9  18  32  49  72 107 149 186 217 250 290
#
# _framework density 17.136948
#
# number of rings (size 3 to 8) (size 9 to 14) (size 15 to 20)
#    0.000    2.125    1.250    3.000    0.000    5.500 
#    0.000    1.875    0.000    0.375    0.000    2.625 
#    0.000    0.500    0.000    5.250    0.000    2.250 
#
# Total GULP energy -792996.053062 kJ/mol
# GULP energy per Si atom -12390.563329 kJ/mol
# Density = 1.709794 g / cm^3
# Si number density = 17.136948 Si / 1000 Ang^3
#
#
#
# Elastic Constant Matrix: (Units=GPa)
#
#
# Indices 1 2 3 4 5 6 
#
# 1 107.5795 36.0573 39.4314 0.0000 0.0000 0.0000
# 2 36.0573 67.6819 29.7050 0.0000 0.0000 0.0000
# 3 39.4314 29.7050 55.9899 0.0000 0.0000 0.0000
# 4 0.0000 0.0000 0.0000 23.2309 0.0000 0.0000
# 5 0.0000 0.0000 0.0000 0.0000 27.0002 0.0000
# 6 0.0000 0.0000 0.0000 0.0000 0.0000 22.4170
#
#
#
# Elastic Compliance Matrix: (Units=1/GPa)
#
#
# Indices 1 2 3 4 5 6 
#
# 1 0.013263 -0.003867 -0.007289 0.000000 0.000000 0.000000
# 2 -0.003867 0.020387 -0.008093 0.000000 0.000000 0.000000
# 3 -0.007289 -0.008093 0.027288 0.000000 0.000000 0.000000
# 4 0.000000 0.000000 0.000000 0.043046 0.000000 0.000000
# 5 0.000000 0.000000 0.000000 0.000000 0.037037 0.000000
# 6 0.000000 0.000000 0.000000 0.000000 0.000000 0.044609
#
#
# Mechanical properties :
#
#
# Convention : Reuss Voigt Hill
#
# Bulk Modulus (GPa) = 44.56369 49.07096 46.81733
# Shear Modulus (GPa) = 21.58825 22.93344 22.26085
#
# Velocity S-wave (km/s) = 3.55314 3.66217 3.60807
# Velocity P-wave (km/s) = 6.54935 6.82486 6.68853
#
# Compressibility (1/GPa) = 0.02243979
#
# Stress axis : x y z
#
# Youngs Moduli (GPa) = 75.39644 49.05109 36.64675
#
# Poissons Ratio (x) = 0.18967 0.26713
# Poissons Ratio (y) = 0.29154 0.29658
# Poissons Ratio (z) = 0.54959 0.39697
#
# Static dielectric constant tensor:
#      x y z
#    x 3.477640 0.000000 0.000000 
#    y 0.000000 2.852050 0.000000 
#    z 0.000000 0.000000 3.109640 
# 
# 
# High freq. dielectric constant tensor:
#      x y z
#    x 1.677200 0.000000 0.000000 
#    y 0.000000 1.636330 0.000000 
#    z 0.000000 0.000000 1.633160 
# 
# From -- ./inp_files/9979.got.cif
#   From: 2010.03.12/outbox.cif.g09.slc.cpg/sg47_5_cif.got.tgz:9979.got - 2010.04.14 03:12:58.
