data_PCOD8195517
_publ_section_title
;
Structure prediction by ZEFSAII (Michael W. Deem and Ramdas Pophale) SiO2 
 PCOD8195517
Probable space group: P M M M
;
_chemical_formula_sum "Si O2"
_cell_formula_units_Z 64
_cell_length_a 13.825576
_cell_length_b 9.131547
_cell_length_c 28.741635
_cell_angle_alpha 90.000000
_cell_angle_beta 90.000000
_cell_angle_gamma 90.000000
_cell_volume 3628.599718
_symmetry_space_group_name_H-M "P M M M"
_symmetry_group_IT_number 47
_symmetry_cell_setting 'orthorhombic'
loop_
_space_group_symop_operation_xyz
x,y,z
-x,-y,z
x,-y,-z
-x,y,-z
-x,-y,-z
x,y,-z
-x,y,z
x,-y,z
loop_
_atom_site_type_symbol
_atom_site_label
_atom_site_fract_x
_atom_site_fract_y
_atom_site_fract_z
Si Si1 0.612997 0.672371 0.723805
Si Si2 0.206312 0.670743 0.947887
Si Si3 0.704586 0.827568 0.190301
Si Si4 0.391223 0.667646 0.891448
Si Si5 0.290469 0.670384 0.445902
Si Si6 0.612750 0.162069 0.632559
Si Si7 0.108961 0.170192 0.865618
Si Si8 0.105626 0.163282 0.555137
O O1 0.500000 0.708297 0.733385
O O2 0.630761 0.500000 0.722420
O O3 0.680913 0.743670 0.762536
O O4 0.650627 0.739523 0.675189
O O5 0.183215 0.500000 0.946110
O O6 0.317254 0.702241 0.933131
O O7 0.131079 0.747871 0.913663
O O8 0.192226 0.732361 0.000000
O O9 0.629126 0.774964 0.151417
O O10 0.814144 0.785758 0.174471
O O11 0.692019 0.000000 0.198217
O O12 0.500000 0.695510 0.909721
O O13 0.378765 0.500000 0.874083
O O14 0.306203 0.709279 0.500000
O O15 0.303004 0.500000 0.436459
O O16 0.368567 0.758727 0.416446
O O17 0.184623 0.720098 0.427783
O O18 0.500000 0.143968 0.637886
O O19 0.660977 0.000000 0.633654
O O20 0.000000 0.209901 0.848948
O O21 0.119269 0.000000 0.876776
O O22 0.101153 0.163916 0.500000
O O23 0.000000 0.208358 0.575000
O O24 0.133276 0.000000 0.572602
#
# Coordination Sequence:
#
# PCOD8195517 Si02
#       8
#     8   8   8   8   8   8   8   8
#     4  10  20  34  53  76 102 129 154 186 235 293
#     4   9  18  31  46  67  95 126 163 206 247 286
#     4  10  19  31  50  74  97 121 153 195 239 285
#     4   9  17  29  45  66  94 127 160 194 236 288
#     4  10  20  32  48  72 102 136 171 208 251 296
#     4  10  21  36  53  73  98 130 169 209 245 285
#     4   9  19  35  52  70  94 126 163 201 242 288
#     4   8  14  26  45  68  93 122 158 200 243 285
#
# _framework density 17.637657999999998
#
# number of rings (size 3 to 8) (size 9 to 14) (size 15 to 20)
#    0.000    2.625    0.000    2.250    0.000    6.000 
#    0.000    5.000    0.000    0.750    0.000    5.250 
#    0.000    0.000    0.000    0.000    0.000    0.000 
#
# Total GULP energy -793425.354901 kJ/mol
# GULP energy per Si atom -12397.271170 kJ/mol
# Density = 1.759751 g / cm^3
# Si number density = 17.637658 Si / 1000 Ang^3
#
#
#
# Elastic Constant Matrix: (Units=GPa)
#
#
# Indices 1 2 3 4 5 6 
#
# 1 75.7202 35.2027 38.5507 0.0000 0.0000 0.0000
# 2 35.2027 92.8574 58.4617 0.0000 0.0000 0.0000
# 3 38.5507 58.4617 104.2930 0.0000 0.0000 0.0000
# 4 0.0000 0.0000 0.0000 27.2700 0.0000 0.0000
# 5 0.0000 0.0000 0.0000 0.0000 19.0249 0.0000
# 6 0.0000 0.0000 0.0000 0.0000 0.0000 26.9044
#
#
#
# Elastic Compliance Matrix: (Units=1/GPa)
#
#
# Indices 1 2 3 4 5 6 
#
# 1 0.017125 -0.003874 -0.004158 0.000000 0.000000 0.000000
# 2 -0.003874 0.017519 -0.008388 0.000000 0.000000 0.000000
# 3 -0.004158 -0.008388 0.015828 0.000000 0.000000 0.000000
# 4 0.000000 0.000000 0.000000 0.036670 0.000000 0.000000
# 5 0.000000 0.000000 0.000000 0.000000 0.052563 0.000000
# 6 0.000000 0.000000 0.000000 0.000000 0.000000 0.037169
#
#
# Mechanical properties :
#
#
# Convention : Reuss Voigt Hill
#
# Bulk Modulus (GPa) = 56.72198 59.70007 58.21103
# Shear Modulus (GPa) = 23.19207 24.01691 23.60449
#
# Velocity S-wave (km/s) = 3.63011 3.69410 3.66225
# Velocity P-wave (km/s) = 7.05689 7.21919 7.13850
#
# Compressibility (1/GPa) = 0.01762985
#
# Stress axis : x y z
#
# Youngs Moduli (GPa) = 58.39535 57.08076 63.18089
#
# Poissons Ratio (x) = 0.22113 0.26273
# Poissons Ratio (y) = 0.22622 0.52998
# Poissons Ratio (z) = 0.24283 0.47881
#
# Static dielectric constant tensor:
#      x y z
#    x 3.396050 0.000000 0.000000 
#    y 0.000000 3.408220 0.000000 
#    z 0.000000 0.000000 3.151340 
# 
# 
# High freq. dielectric constant tensor:
#      x y z
#    x 1.674790 0.000000 0.000000 
#    y 0.000000 1.688610 0.000000 
#    z 0.000000 0.000000 1.660390 
# 
# From -- ./inp_files/32801.got.cif
#   From: 2010.03.12/outbox.cif.g09.slc.cpg/sg47_17_cif.got.tgz:32801.got - 2010.04.14 03:12:58.
