data_PCOD8195877
_publ_section_title
;
Structure prediction by ZEFSAII (Michael W. Deem and Ramdas Pophale) SiO2 
 PCOD8195877
Probable space group: P M M M
;
_chemical_formula_sum "Si O2"
_cell_formula_units_Z 48
_cell_length_a 20.652509
_cell_length_b 14.078762
_cell_length_c 8.937599
_cell_angle_alpha 90.000000
_cell_angle_beta 90.000000
_cell_angle_gamma 90.000000
_cell_volume 2598.712006
_symmetry_space_group_name_H-M "P M M M"
_symmetry_group_IT_number 47
_symmetry_cell_setting 'orthorhombic'
loop_
_space_group_symop_operation_xyz
x,y,z
-x,-y,z
x,-y,-z
-x,y,-z
-x,-y,-z
x,y,-z
-x,y,z
x,-y,z
loop_
_atom_site_type_symbol
_atom_site_label
_atom_site_fract_x
_atom_site_fract_y
_atom_site_fract_z
Si Si1 0.744888 0.888979 0.171438
Si Si2 0.500000 0.890858 0.177286
Si Si3 0.319503 0.396489 0.677405
Si Si4 0.125641 0.784129 0.823374
Si Si5 0.000000 0.107103 0.178549
Si Si6 0.173873 0.392525 0.326246
Si Si7 0.624202 0.201135 0.323152
O O1 0.809507 0.837654 0.229352
O O2 0.686347 0.859995 0.278544
O O3 0.757386 0.000000 0.185888
O O4 0.728346 0.861218 0.000000
O O5 0.437477 0.838459 0.238862
O O6 0.500000 0.000000 0.231400
O O7 0.500000 0.884777 0.000000
O O8 0.315232 0.398702 0.500000
O O9 0.345289 0.500000 0.734721
O O10 0.246818 0.379179 0.738062
O O11 0.366097 0.310937 0.729278
O O12 0.063473 0.839448 0.759139
O O13 0.125609 0.677301 0.760402
O O14 0.121559 0.779892 0.000000
O O15 0.000000 0.000000 0.241158
O O16 0.000000 0.105757 0.000000
O O17 0.171867 0.366543 0.500000
O O18 0.150217 0.500000 0.298207
O O19 0.613342 0.193370 0.500000
#
# Coordination Sequence:
#
# PCOD8195877 Si02
#       7
#     8   4   8   8   4   8   8
#     4  10  20  33  50  75 107 139 172 216 272 326
#     4  11  25  43  58  73 106 152 183 211 262 321
#     4   8  15  30  53  80 108 137 169 208 260 317
#     4  10  19  32  53  79 105 137 182 229 268 312
#     4   9  18  34  54  75 104 146 189 225 268 323
#     4   9  17  32  54  78 107 142 175 212 266 328
#     4  11  21  35  58  84 106 134 178 225 262 305
#
# _framework density 18.470690000000001
#
# number of rings (size 3 to 8) (size 9 to 14) (size 15 to 20)
#    0.000    2.333    1.667    2.750    0.000    5.333 
#    0.000    1.250    0.000    9.000    0.000    0.000 
#    0.000    0.000    0.000    0.000    0.000    0.000 
#
# Total GULP energy -595136.646507 kJ/mol
# GULP energy per Si atom -12398.680136 kJ/mol
# Density = 1.842865 g / cm^3
# Si number density = 18.470690 Si / 1000 Ang^3
#
#
#
# Elastic Constant Matrix: (Units=GPa)
#
#
# Indices 1 2 3 4 5 6 
#
# 1 128.6552 72.4874 29.0693 0.0000 0.0000 0.0000
# 2 72.4874 147.4043 29.3195 0.0000 0.0000 0.0000
# 3 29.0693 29.3195 28.7339 0.0000 0.0000 0.0000
# 4 0.0000 0.0000 0.0000 28.5049 0.0000 0.0000
# 5 0.0000 0.0000 0.0000 0.0000 -13.2588 0.0000
# 6 0.0000 0.0000 0.0000 0.0000 0.0000 39.7820
#
#
#
# Elastic Compliance Matrix: (Units=1/GPa)
#
#
# Indices 1 2 3 4 5 6 
#
# 1 0.011957 -0.004358 -0.007649 0.000000 0.000000 0.000000
# 2 -0.004358 0.010100 -0.005897 0.000000 0.000000 0.000000
# 3 -0.007649 -0.005897 0.048557 0.000000 0.000000 0.000000
# 4 0.000000 0.000000 0.000000 0.035082 0.000000 0.000000
# 5 0.000000 0.000000 0.000000 0.000000 -0.075421 0.000000
# 6 0.000000 0.000000 0.000000 0.000000 0.000000 0.025137
#
#
# Mechanical properties :
#
#
# Convention : Reuss Voigt Hill
#
# Bulk Modulus (GPa) = 28.73085 62.94951 45.84018
# Shear Modulus (GPa) = 48.62791 22.60010 35.61400
#
# Velocity S-wave (km/s) = 5.13656 3.50175 4.39582
# Velocity P-wave (km/s) = 7.12514 7.10664 7.11590
#
# Compressibility (1/GPa) = 0.03480580
#
# Stress axis : x y z
#
# Youngs Moduli (GPa) = 83.63608 99.00765 20.59422
#
# Poissons Ratio (x) = 0.43151 0.15752
# Poissons Ratio (y) = 0.36451 0.12144
# Poissons Ratio (z) = 0.63973 0.58383
#
# Static dielectric constant tensor:
#      x y z
#    x 4.177960 0.000000 0.000000 
#    y 0.000000 3.793370 0.000000 
#    z 0.000000 0.000000 3.123710 
# 
# 
# High freq. dielectric constant tensor:
#      x y z
#    x 1.702530 0.000000 0.000000 
#    y 0.000000 1.735430 0.000000 
#    z 0.000000 0.000000 1.688490 
# 
# From -- ./inp_files/9215.got.cif
#   From: 2010.03.12/outbox.cif.g09.slc.cpg/sg47_5_cif.got.tgz:9215.got - 2010.04.14 03:12:58.
