data_PCOD8195126
_publ_section_title
;
Structure prediction by ZEFSAII (Michael W. Deem and Ramdas Pophale) SiO2 
 PCOD8195126
Probable space group: P M M M
;
_chemical_formula_sum "Si O2"
_cell_formula_units_Z 60
_cell_length_a 20.937675
_cell_length_b 18.893900
_cell_length_c 8.912316
_cell_angle_alpha 90.000000
_cell_angle_beta 90.000000
_cell_angle_gamma 90.000000
_cell_volume 3525.661745
_symmetry_space_group_name_H-M "P M M M"
_symmetry_group_IT_number 47
_symmetry_cell_setting 'orthorhombic'
loop_
_space_group_symop_operation_xyz
x,y,z
-x,-y,z
x,-y,-z
-x,y,-z
-x,-y,-z
x,y,-z
-x,y,z
x,-y,z
loop_
_atom_site_type_symbol
_atom_site_label
_atom_site_fract_x
_atom_site_fract_y
_atom_site_fract_z
Si Si1 0.636152 0.076529 0.178124
Si Si2 0.880277 0.344090 0.174567
Si Si3 0.781369 0.079736 0.824342
Si Si4 0.813294 0.781977 0.676670
Si Si5 0.428239 0.783504 0.821843
Si Si6 0.316003 0.295753 0.675043
Si Si7 0.748575 0.580973 0.827339
Si Si8 0.000000 0.581516 0.677915
O O1 0.708661 0.086923 0.232733
O O2 0.591872 0.139124 0.241637
O O3 0.610522 0.000000 0.235846
O O4 0.635528 0.076998 0.000000
O O5 0.865808 0.266688 0.242315
O O6 0.820908 0.395778 0.202304
O O7 0.938620 0.378833 0.260004
O O8 0.896823 0.335659 0.000000
O O9 0.822658 0.137400 0.733168
O O10 0.806535 0.000000 0.790797
O O11 0.786784 0.096747 0.000000
O O12 0.824480 0.777291 0.500000
O O13 0.742307 0.755570 0.722563
O O14 0.500000 0.767119 0.767152
O O15 0.380915 0.725067 0.757759
O O16 0.423584 0.782319 0.000000
O O17 0.328765 0.292885 0.500000
O O18 0.299764 0.375381 0.723783
O O19 0.741514 0.500000 0.779771
O O20 0.730014 0.593719 0.000000
O O21 0.000000 0.500000 0.732517
O O22 0.000000 0.586206 0.500000
#
# Coordination Sequence:
#
# PCOD8195126 Si02
#       8
#     8   8   8   8   8   8   8   4
#     4   8  14  25  42  65  92 121 157 202 248 292
#     4  10  20  34  54  78 105 139 176 208 238 283
#     4   9  16  27  46  70  96 129 167 209 257 302
#     4  10  19  31  48  72 101 132 169 210 254 299
#     4  10  19  30  47  68  90 122 164 205 246 296
#     4  10  20  32  47  68  95 127 158 196 246 298
#     4   9  18  33  54  78 100 123 156 200 244 286
#     4  11  23  37  53  77 114 151 176 203 241 285
#
# _framework density 17.018082
#
# number of rings (size 3 to 8) (size 9 to 14) (size 15 to 20)
#    0.000    2.467    1.333    2.600    0.000    3.733 
#    0.000    1.333    0.000    0.800    0.000    4.200 
#    0.000    3.733    0.000    0.000    0.000    0.000 
#
# Total GULP energy -743938.491621 kJ/mol
# GULP energy per Si atom -12398.974860 kJ/mol
# Density = 1.697935 g / cm^3
# Si number density = 17.018082 Si / 1000 Ang^3
#
#
#
# Elastic Constant Matrix: (Units=GPa)
#
#
# Indices 1 2 3 4 5 6 
#
# 1 84.7668 56.4877 33.6685 0.0000 0.0000 0.0000
# 2 56.4877 128.7926 40.0546 0.0000 0.0000 0.0000
# 3 33.6685 40.0546 51.2707 0.0000 0.0000 0.0000
# 4 0.0000 0.0000 0.0000 23.6061 0.0000 0.0000
# 5 0.0000 0.0000 0.0000 0.0000 21.4690 0.0000
# 6 0.0000 0.0000 0.0000 0.0000 0.0000 19.4867
#
#
#
# Elastic Compliance Matrix: (Units=1/GPa)
#
#
# Indices 1 2 3 4 5 6 
#
# 1 0.018757 -0.005807 -0.007781 0.000000 0.000000 0.000000
# 2 -0.005807 0.012054 -0.005604 0.000000 0.000000 0.000000
# 3 -0.007781 -0.005604 0.028992 0.000000 0.000000 0.000000
# 4 0.000000 0.000000 0.000000 0.042362 0.000000 0.000000
# 5 0.000000 0.000000 0.000000 0.000000 0.046579 0.000000
# 6 0.000000 0.000000 0.000000 0.000000 0.000000 0.051317
#
#
# Mechanical properties :
#
#
# Convention : Reuss Voigt Hill
#
# Bulk Modulus (GPa) = 46.68575 58.36131 52.52353
# Shear Modulus (GPa) = 20.35962 21.88699 21.12331
#
# Velocity S-wave (km/s) = 3.46258 3.59012 3.52693
# Velocity P-wave (km/s) = 6.59383 7.18007 6.89318
#
# Compressibility (1/GPa) = 0.02141981
#
# Stress axis : x y z
#
# Youngs Moduli (GPa) = 53.31270 82.95923 34.49248
#
# Poissons Ratio (x) = 0.48174 0.26838
# Poissons Ratio (y) = 0.30958 0.19329
# Poissons Ratio (z) = 0.41482 0.46489
#
# Static dielectric constant tensor:
#      x y z
#    x 2.969790 0.000000 0.000000 
#    y 0.000000 3.352100 0.000000 
#    z 0.000000 0.000000 3.025660 
# 
# 
# High freq. dielectric constant tensor:
#      x y z
#    x 1.623980 0.000000 0.000000 
#    y 0.000000 1.663110 0.000000 
#    z 0.000000 0.000000 1.647260 
# 
# From -- ./inp_files/11596.got.cif
#   From: 2010.03.12/outbox.cif.g09.slc.cpg/sg47_6_cif.got.tgz:11596.got - 2010.04.14 03:12:58.
