data_PCOD8195020
_publ_section_title
;
Structure prediction by ZEFSAII (Michael W. Deem and Ramdas Pophale) SiO2 
 PCOD8195020
Probable space group: P M M M
;
_chemical_formula_sum "Si O2"
_cell_formula_units_Z 64
_cell_length_a 9.329025
_cell_length_b 23.379630
_cell_length_c 19.195386
_cell_angle_alpha 90.000000
_cell_angle_beta 90.000000
_cell_angle_gamma 90.000000
_cell_volume 4186.689377
_symmetry_space_group_name_H-M "P M M M"
_symmetry_group_IT_number 47
_symmetry_cell_setting 'orthorhombic'
loop_
_space_group_symop_operation_xyz
x,y,z
-x,-y,z
x,-y,-z
-x,y,-z
-x,-y,-z
x,y,-z
-x,y,z
x,-y,z
loop_
_atom_site_type_symbol
_atom_site_label
_atom_site_fract_x
_atom_site_fract_y
_atom_site_fract_z
Si Si1 0.668375 0.435373 0.921249
Si Si2 0.330474 0.831612 0.798512
Si Si3 0.831098 0.242230 0.425661
Si Si4 0.832228 0.218873 0.919841
Si Si5 0.833681 0.732916 0.277748
Si Si6 0.664686 0.064319 0.296256
Si Si7 0.833259 0.113022 0.421209
Si Si8 0.163669 0.662349 0.851198
O O1 0.500000 0.426826 0.915268
O O2 0.711184 0.500000 0.900718
O O3 0.742237 0.392456 0.868102
O O4 0.719420 0.422334 0.000000
O O5 0.500000 0.822856 0.806193
O O6 0.257682 0.826632 0.874654
O O7 0.266872 0.783554 0.748150
O O8 0.289541 0.893003 0.765935
O O9 0.768013 0.266014 0.500000
O O10 0.789978 0.280827 0.358295
O O11 0.775433 0.177853 0.412942
O O12 0.000000 0.239424 0.433747
O O13 0.789414 0.283250 0.897536
O O14 0.000000 0.208993 0.905524
O O15 0.791586 0.209608 0.000000
O O16 0.811549 0.676722 0.230519
O O17 0.000000 0.753041 0.272525
O O18 0.500000 0.074918 0.315479
O O19 0.751617 0.073096 0.367153
O O20 0.691973 0.000000 0.269056
O O21 0.804529 0.091334 0.500000
O O22 0.000000 0.109542 0.402921
O O23 0.000000 0.646468 0.866937
#
# Coordination Sequence:
#
# PCOD8195020 Si02
#       8
#     8   8   8   8   8   8   8   8
#     4   9  18  31  44  59  84 120 156 184 209 238
#     4  10  19  30  45  64  84 107 140 177 211 254
#     4   8  13  23  42  64  84 110 142 173 208 253
#     4   9  18  32  49  68  90 113 135 167 214 263
#     4   9  16  28  45  63  88 116 141 174 217 260
#     4  10  21  34  45  59  83 114 144 175 214 261
#     4   9  17  29  46  66  84 106 142 182 213 249
#     4   9  17  27  42  66  91 115 142 172 207 249
#
# _framework density 15.286542000000001
#
# number of rings (size 3 to 8) (size 9 to 14) (size 15 to 20)
#    0.000    2.875    1.250    2.625    0.000    4.500 
#    0.000    1.875    0.000    0.750    0.000    2.625 
#    0.000    0.500    0.000    6.250    0.000    1.000 
#
# Total GULP energy -793198.614834 kJ/mol
# GULP energy per Si atom -12393.728357 kJ/mol
# Density = 1.525175 g / cm^3
# Si number density = 15.286542 Si / 1000 Ang^3
#
#
#
# Elastic Constant Matrix: (Units=GPa)
#
#
# Indices 1 2 3 4 5 6 
#
# 1 46.9959 37.9914 41.6384 0.0000 0.0000 0.0000
# 2 37.9914 82.7413 56.9270 0.0000 0.0000 0.0000
# 3 41.6384 56.9270 135.6856 0.0000 0.0000 0.0000
# 4 0.0000 0.0000 0.0000 22.2280 0.0000 0.0000
# 5 0.0000 0.0000 0.0000 0.0000 19.3072 0.0000
# 6 0.0000 0.0000 0.0000 0.0000 0.0000 21.1063
#
#
#
# Elastic Compliance Matrix: (Units=1/GPa)
#
#
# Indices 1 2 3 4 5 6 
#
# 1 0.036951 -0.012884 -0.005934 0.000000 0.000000 0.000000
# 2 -0.012884 0.021482 -0.005059 0.000000 0.000000 0.000000
# 3 -0.005934 -0.005059 0.011314 0.000000 0.000000 0.000000
# 4 0.000000 0.000000 0.000000 0.044988 0.000000 0.000000
# 5 0.000000 0.000000 0.000000 0.000000 0.051794 0.000000
# 6 0.000000 0.000000 0.000000 0.000000 0.000000 0.047379
#
#
# Mechanical properties :
#
#
# Convention : Reuss Voigt Hill
#
# Bulk Modulus (GPa) = 45.46881 59.83739 52.65310
# Shear Modulus (GPa) = 18.58778 21.11937 19.85357
#
# Velocity S-wave (km/s) = 3.49084 3.72097 3.60774
# Velocity P-wave (km/s) = 6.78652 7.59537 7.20231
#
# Compressibility (1/GPa) = 0.02199310
#
# Stress axis : x y z
#
# Youngs Moduli (GPa) = 27.06273 46.54967 88.38955
#
# Poissons Ratio (x) = 0.59974 0.52450
# Poissons Ratio (y) = 0.34867 0.44718
# Poissons Ratio (z) = 0.16059 0.23551
#
# Static dielectric constant tensor:
#      x y z
#    x 2.806490 0.000000 0.000000 
#    y 0.000000 2.708420 0.000000 
#    z 0.000000 0.000000 3.228930 
# 
# 
# High freq. dielectric constant tensor:
#      x y z
#    x 1.576280 0.000000 0.000000 
#    y 0.000000 1.549910 0.000000 
#    z 0.000000 0.000000 1.590770 
# 
# From -- ./inp_files/30177.got.cif
#   From: 2010.03.12/outbox.cif.g09.slc.cpg/sg47_16_cif.got.tgz:30177.got - 2010.04.14 03:12:58.
