data_PCOD8195083
_publ_section_title
;
Structure prediction by ZEFSAII (Michael W. Deem and Ramdas Pophale) SiO2 
 PCOD8195083
Probable space group: P M M M
;
_chemical_formula_sum "Si O2"
_cell_formula_units_Z 64
_cell_length_a 9.465204
_cell_length_b 15.669237
_cell_length_c 23.401837
_cell_angle_alpha 90.000000
_cell_angle_beta 90.000000
_cell_angle_gamma 90.000000
_cell_volume 3470.785529
_symmetry_space_group_name_H-M "P M M M"
_symmetry_group_IT_number 47
_symmetry_cell_setting 'orthorhombic'
loop_
_space_group_symop_operation_xyz
x,y,z
-x,-y,z
x,-y,-z
-x,y,-z
-x,-y,-z
x,y,-z
-x,y,z
x,-y,z
loop_
_atom_site_type_symbol
_atom_site_label
_atom_site_fract_x
_atom_site_fract_y
_atom_site_fract_z
Si Si1 0.335699 0.860138 0.773359
Si Si2 0.346133 0.402578 0.273907
Si Si3 0.834322 0.738636 0.936070
Si Si4 0.339812 0.317035 0.834952
Si Si5 0.165523 0.099272 0.340669
Si Si6 0.165650 0.402608 0.622041
Si Si7 0.832845 0.768148 0.562984
Si Si8 0.840761 0.908167 0.875897
O O1 0.500000 0.885536 0.767368
O O2 0.314224 0.763829 0.794181
O O3 0.257661 0.875523 0.713905
O O4 0.262170 0.916968 0.821825
O O5 0.500000 0.356222 0.281496
O O6 0.365947 0.500000 0.288409
O O7 0.297881 0.393661 0.207771
O O8 0.232681 0.368027 0.318816
O O9 0.758329 0.677234 0.890686
O O10 0.793013 0.836133 0.920823
O O11 0.000000 0.722154 0.932070
O O12 0.779342 0.719406 0.000000
O O13 0.500000 0.321672 0.857398
O O14 0.220566 0.160359 0.392154
O O15 0.000000 0.115331 0.327487
O O16 0.190980 0.000000 0.357184
O O17 0.212814 0.500000 0.604091
O O18 0.212466 0.330256 0.576743
O O19 0.000000 0.401955 0.632124
O O20 0.771096 0.789525 0.500000
O O21 0.000000 0.772775 0.561714
O O22 0.000000 0.887838 0.854192
O O23 0.836071 0.000000 0.907549
#
# Coordination Sequence:
#
# PCOD8195083 Si02
#       8
#     8   8   8   8   8   8   8   8
#     4  10  19  30  46  68  93 119 148 185 231 280
#     4   9  17  30  49  72  97 122 147 179 222 272
#     4   9  18  31  46  65  88 117 154 190 224 264
#     4   9  18  31  47  68  92 119 151 186 225 270
#     4  10  20  32  47  67  90 119 157 198 235 271
#     4   9  17  29  48  75 101 122 147 182 227 280
#     4   9  18  32  49  69  93 122 157 195 231 268
#     4   9  17  29  45  65  90 118 147 183 226 270
#
# _framework density 18.439630000000001
#
# number of rings (size 3 to 8) (size 9 to 14) (size 15 to 20)
#    0.000    2.750    0.000    1.500    0.000    4.000 
#    0.000    3.750    0.000    1.875    0.000    8.750 
#    0.000    0.000    0.000    0.000    0.000    0.000 
#
# Total GULP energy -792952.427514 kJ/mol
# GULP energy per Si atom -12389.881680 kJ/mol
# Density = 1.839766 g / cm^3
# Si number density = 18.439630 Si / 1000 Ang^3
#
#
#
# Elastic Constant Matrix: (Units=GPa)
#
#
# Indices 1 2 3 4 5 6 
#
# 1 50.8943 19.0208 43.2796 0.0000 0.0000 0.0000
# 2 19.0208 48.5021 33.0141 0.0000 0.0000 0.0000
# 3 43.2796 33.0141 128.4435 0.0000 0.0000 0.0000
# 4 0.0000 0.0000 0.0000 17.4781 0.0000 0.0000
# 5 0.0000 0.0000 0.0000 0.0000 10.8290 0.0000
# 6 0.0000 0.0000 0.0000 0.0000 0.0000 15.4298
#
#
#
# Elastic Compliance Matrix: (Units=1/GPa)
#
#
# Indices 1 2 3 4 5 6 
#
# 1 0.028775 -0.005678 -0.008236 0.000000 0.000000 0.000000
# 2 -0.005678 0.026110 -0.004798 0.000000 0.000000 0.000000
# 3 -0.008236 -0.004798 0.011794 0.000000 0.000000 0.000000
# 4 0.000000 0.000000 0.000000 0.057214 0.000000 0.000000
# 5 0.000000 0.000000 0.000000 0.000000 0.092345 0.000000
# 6 0.000000 0.000000 0.000000 0.000000 0.000000 0.064810
#
#
# Mechanical properties :
#
#
# Convention : Reuss Voigt Hill
#
# Bulk Modulus (GPa) = 34.18312 46.49654 40.33983
# Shear Modulus (GPa) = 15.23352 17.58241 16.40796
#
# Velocity S-wave (km/s) = 2.87736 3.09125 2.98622
# Velocity P-wave (km/s) = 5.44216 6.16534 5.81500
#
# Compressibility (1/GPa) = 0.02925420
#
# Stress axis : x y z
#
# Youngs Moduli (GPa) = 34.75282 38.29923 84.78901
#
# Poissons Ratio (x) = 0.21747 0.69835
# Poissons Ratio (y) = 0.19733 0.40681
# Poissons Ratio (z) = 0.28623 0.18375
#
# Static dielectric constant tensor:
#      x y z
#    x 3.464830 0.000000 0.000000 
#    y 0.000000 3.519060 0.000000 
#    z 0.000000 0.000000 3.454580 
# 
# 
# High freq. dielectric constant tensor:
#      x y z
#    x 1.696920 0.000000 0.000000 
#    y 0.000000 1.710260 0.000000 
#    z 0.000000 0.000000 1.704780 
# 
# From -- ./inp_files/29985.got.cif
#   From: 2010.03.12/outbox.cif.g09.slc.cpg/sg47_15_cif.got.tgz:29985.got - 2010.04.14 03:12:58.
