data_PCOD8195983
_publ_section_title
;
Structure prediction by ZEFSAII (Michael W. Deem and Ramdas Pophale) SiO2 
 PCOD8195983
Probable space group: P M M M
;
_chemical_formula_sum "Si O2"
_cell_formula_units_Z 52
_cell_length_a 15.750367
_cell_length_b 18.614908
_cell_length_c 9.828892
_cell_angle_alpha 90.000000
_cell_angle_beta 90.000000
_cell_angle_gamma 90.000000
_cell_volume 2881.748893
_symmetry_space_group_name_H-M "P M M M"
_symmetry_group_IT_number 47
_symmetry_cell_setting 'orthorhombic'
loop_
_space_group_symop_operation_xyz
x,y,z
-x,-y,z
x,-y,-z
-x,y,-z
-x,-y,-z
x,y,-z
-x,y,z
x,-y,z
loop_
_atom_site_type_symbol
_atom_site_label
_atom_site_fract_x
_atom_site_fract_y
_atom_site_fract_z
Si Si1 0.353560 0.180849 0.157535
Si Si2 0.904551 0.327365 0.662339
Si Si3 0.252729 0.419820 0.660648
Si Si4 0.195992 0.919117 0.153939
Si Si5 0.500000 0.921474 0.839044
Si Si6 0.401133 0.313662 0.341019
Si Si7 0.098693 0.168655 0.352082
O O1 0.264341 0.142810 0.178768
O O2 0.418827 0.121642 0.210613
O O3 0.363708 0.249508 0.251914
O O4 0.369478 0.202546 0.000000
O O5 0.905633 0.328571 0.500000
O O6 0.831290 0.380103 0.720984
O O7 0.878426 0.247038 0.710768
O O8 0.000000 0.348741 0.715066
O O9 0.242359 0.423133 0.500000
O O10 0.256075 0.500000 0.722768
O O11 0.341981 0.381476 0.697365
O O12 0.120514 0.897496 0.253756
O O13 0.229402 0.000000 0.186412
O O14 0.162539 0.916494 0.000000
O O15 0.500000 0.000000 0.770193
O O16 0.500000 0.930159 0.000000
O O17 0.391987 0.293848 0.500000
O O18 0.500000 0.330142 0.305140
O O19 0.143586 0.158395 0.500000
O O20 0.000000 0.166573 0.376062
#
# Coordination Sequence:
#
# PCOD8195983 Si02
#       7
#     8   8   8   8   4   8   8
#     4  10  19  33  53  74  95 125 165 204 243 297
#     4   8  14  26  45  69  96 125 159 201 245 288
#     4   9  17  28  44  69  99 130 163 198 241 295
#     4  10  21  34  48  71 101 129 161 205 255 299
#     4   9  16  28  49  73  94 119 154 198 243 287
#     4  10  20  33  50  72  99 131 166 206 250 293
#     4   9  18  33  52  72  96 131 172 206 241 293
#
# _framework density 18.044598000000001
#
# number of rings (size 3 to 8) (size 9 to 14) (size 15 to 20)
#    0.000    2.692    0.769    2.308    0.000    5.231 
#    0.000    4.615    0.000    2.308    0.000    1.077 
#    0.000    0.000    0.000   13.231    0.000   10.769 
#
# Total GULP energy -644355.740298 kJ/mol
# GULP energy per Si atom -12391.456544 kJ/mol
# Density = 1.800353 g / cm^3
# Si number density = 18.044598 Si / 1000 Ang^3
#
#
#
# Elastic Constant Matrix: (Units=GPa)
#
#
# Indices 1 2 3 4 5 6 
#
# 1 83.3782 69.5017 31.6003 0.0000 0.0000 0.0000
# 2 69.5017 132.5866 49.8733 0.0000 0.0000 0.0000
# 3 31.6003 49.8733 44.8774 0.0000 0.0000 0.0000
# 4 0.0000 0.0000 0.0000 16.1354 0.0000 0.0000
# 5 0.0000 0.0000 0.0000 0.0000 16.3155 0.0000
# 6 0.0000 0.0000 0.0000 0.0000 0.0000 24.1937
#
#
#
# Elastic Compliance Matrix: (Units=1/GPa)
#
#
# Indices 1 2 3 4 5 6 
#
# 1 0.021831 -0.009728 -0.004561 0.000000 0.000000 0.000000
# 2 -0.009728 0.017295 -0.012370 0.000000 0.000000 0.000000
# 3 -0.004561 -0.012370 0.039242 0.000000 0.000000 0.000000
# 4 0.000000 0.000000 0.000000 0.061976 0.000000 0.000000
# 5 0.000000 0.000000 0.000000 0.000000 0.061291 0.000000
# 6 0.000000 0.000000 0.000000 0.000000 0.000000 0.041333
#
#
# Mechanical properties :
#
#
# Convention : Reuss Voigt Hill
#
# Bulk Modulus (GPa) = 39.92184 62.53254 51.22719
# Shear Modulus (GPa) = 16.41297 18.65338 17.53318
#
# Velocity S-wave (km/s) = 3.01919 3.21867 3.12052
# Velocity P-wave (km/s) = 5.85884 6.96726 6.43696
#
# Compressibility (1/GPa) = 0.02504894
#
# Stress axis : x y z
#
# Youngs Moduli (GPa) = 45.80548 57.82082 25.48293
#
# Poissons Ratio (x) = 0.56249 0.11624
# Poissons Ratio (y) = 0.44561 0.31522
# Poissons Ratio (z) = 0.20894 0.71525
#
# Static dielectric constant tensor:
#      x y z
#    x 3.454220 0.000000 0.000000 
#    y 0.000000 3.628310 0.000000 
#    z 0.000000 0.000000 3.617510 
# 
# 
# High freq. dielectric constant tensor:
#      x y z
#    x 1.706870 0.000000 0.000000 
#    y 0.000000 1.700280 0.000000 
#    z 0.000000 0.000000 1.650380 
# 
# From -- ./inp_files/17805.got.cif
#   From: 2010.03.12/outbox.cif.g09.slc.cpg/sg47_9_cif.got.tgz:17805.got - 2010.04.14 03:12:58.
