data_PCOD8195683
_publ_section_title
;
Structure prediction by ZEFSAII (Michael W. Deem and Ramdas Pophale) SiO2 
 PCOD8195683
Probable space group: P M M M
;
_chemical_formula_sum "Si O2"
_cell_formula_units_Z 36
_cell_length_a 12.228738
_cell_length_b 14.783541
_cell_length_c 11.853938
_cell_angle_alpha 90.000000
_cell_angle_beta 90.000000
_cell_angle_gamma 90.000000
_cell_volume 2143.002915
_symmetry_space_group_name_H-M "P M M M"
_symmetry_group_IT_number 47
_symmetry_cell_setting 'orthorhombic'
loop_
_space_group_symop_operation_xyz
x,y,z
-x,-y,z
x,-y,-z
-x,y,-z
-x,-y,-z
x,y,-z
-x,y,z
x,-y,z
loop_
_atom_site_type_symbol
_atom_site_label
_atom_site_fract_x
_atom_site_fract_y
_atom_site_fract_z
Si Si1 0.789790 0.107150 0.261432
Si Si2 0.629168 0.226073 0.871553
Si Si3 0.630479 0.399603 0.258122
Si Si4 0.876672 0.107141 0.500000
Si Si5 0.000000 0.892526 0.874022
Si Si6 0.618660 0.393321 0.500000
O O1 0.681724 0.152411 0.211042
O O2 0.808897 0.138533 0.390325
O O3 0.892948 0.142471 0.189917
O O4 0.774822 0.000000 0.252304
O O5 0.500000 0.214848 0.859550
O O6 0.667073 0.327015 0.835322
O O7 0.667259 0.209969 0.000000
O O8 0.500000 0.402702 0.269127
O O9 0.673425 0.500000 0.223512
O O10 0.679384 0.368773 0.381561
O O11 0.000000 0.148161 0.500000
O O12 0.888878 0.000000 0.500000
O O13 0.000000 0.000000 0.875015
O O14 0.000000 0.852568 0.000000
O O15 0.601442 0.500000 0.500000
O O16 0.500000 0.344789 0.500000
#
# Coordination Sequence:
#
# PCOD8195683 Si02
#       6
#     8   8   8   4   4   4
#     4  10  19  32  50  71  95 123 158 198 241 287
#     4  10  21  33  44  65  99 136 169 196 230 284
#     4   8  14  26  44  64  88 121 161 204 242 274
#     4   9  16  31  53  75  96 118 148 199 259 296
#     4   9  16  27  47  71  90 113 151 198 239 270
#     4   7  10  19  38  62  83 105 140 189 241 280
#
# _framework density 16.798856000000001
#
# number of rings (size 3 to 8) (size 9 to 14) (size 15 to 20)
#    0.000    3.000    1.111    2.000    0.000    3.111 
#    0.000    5.000    0.000    2.000    0.000    0.778 
#    0.000    3.556    0.000    0.000    0.000    0.000 
#
# Total GULP energy -446050.322549 kJ/mol
# GULP energy per Si atom -12390.286737 kJ/mol
# Density = 1.676062 g / cm^3
# Si number density = 16.798856 Si / 1000 Ang^3
#
#
#
# Elastic Constant Matrix: (Units=GPa)
#
#
# Indices 1 2 3 4 5 6 
#
# 1 43.0060 27.4488 44.8129 0.0000 0.0000 0.0000
# 2 27.4488 57.5619 44.1635 0.0000 0.0000 0.0000
# 3 44.8129 44.1635 153.9393 0.0000 0.0000 0.0000
# 4 0.0000 0.0000 0.0000 25.1127 0.0000 0.0000
# 5 0.0000 0.0000 0.0000 0.0000 24.3724 0.0000
# 6 0.0000 0.0000 0.0000 0.0000 0.0000 1.8452
#
#
#
# Elastic Compliance Matrix: (Units=1/GPa)
#
#
# Indices 1 2 3 4 5 6 
#
# 1 0.039656 -0.012890 -0.007846 0.000000 0.000000 0.000000
# 2 -0.012890 0.026466 -0.003840 0.000000 0.000000 0.000000
# 3 -0.007846 -0.003840 0.009882 0.000000 0.000000 0.000000
# 4 0.000000 0.000000 0.000000 0.039821 0.000000 0.000000
# 5 0.000000 0.000000 0.000000 0.000000 0.041030 0.000000
# 6 0.000000 0.000000 0.000000 0.000000 0.000000 0.541952
#
#
# Mechanical properties :
#
#
# Convention : Reuss Voigt Hill
#
# Bulk Modulus (GPa) = 37.24388 54.15085 45.69737
# Shear Modulus (GPa) = 6.60581 19.47150 13.03866
#
# Velocity S-wave (km/s) = 1.98515 3.40824 2.78899
# Velocity P-wave (km/s) = 5.24148 6.91325 6.13458
#
# Compressibility (1/GPa) = 0.02685005
#
# Stress axis : x y z
#
# Youngs Moduli (GPa) = 25.21717 37.78454 101.19605
#
# Poissons Ratio (x) = 0.48706 0.79398
# Poissons Ratio (y) = 0.32506 0.38862
# Poissons Ratio (z) = 0.19785 0.14510
#
# Static dielectric constant tensor:
#      x y z
#    x 2.766880 0.000000 0.000000 
#    y 0.000000 2.902320 0.000000 
#    z 0.000000 0.000000 3.606780 
# 
# 
# High freq. dielectric constant tensor:
#      x y z
#    x 1.600120 0.000000 0.000000 
#    y 0.000000 1.615060 0.000000 
#    z 0.000000 0.000000 1.670260 
# 
# From -- ./inp_files/16193.got.cif
#   From: 2010.03.12/outbox.cif.g09.slc.cpg/sg47_9_cif.got.tgz:16193.got - 2010.04.14 03:12:58.
