data_PCOD8195381
_publ_section_title
;
Structure prediction by ZEFSAII (Michael W. Deem and Ramdas Pophale) SiO2 
 PCOD8195381
Probable space group: P M M M
;
_chemical_formula_sum "Si O2"
_cell_formula_units_Z 64
_cell_length_a 9.286541
_cell_length_b 18.138272
_cell_length_c 20.090846
_cell_angle_alpha 90.000000
_cell_angle_beta 90.000000
_cell_angle_gamma 90.000000
_cell_volume 3384.138396
_symmetry_space_group_name_H-M "P M M M"
_symmetry_group_IT_number 47
_symmetry_cell_setting 'orthorhombic'
loop_
_space_group_symop_operation_xyz
x,y,z
-x,-y,z
x,-y,-z
-x,y,-z
-x,-y,-z
x,y,-z
-x,y,z
x,-y,z
loop_
_atom_site_type_symbol
_atom_site_label
_atom_site_fract_x
_atom_site_fract_y
_atom_site_fract_z
Si Si1 0.338978 0.583269 0.887130
Si Si2 0.170873 0.783928 0.286232
Si Si3 0.843529 0.284466 0.924645
Si Si4 0.330839 0.853918 0.077745
Si Si5 0.165014 0.418590 0.625206
Si Si6 0.337064 0.357699 0.742507
Si Si7 0.165161 0.917472 0.806203
Si Si8 0.168258 0.736129 0.428649
O O1 0.500000 0.600153 0.913893
O O2 0.294914 0.500000 0.904112
O O3 0.225186 0.635078 0.923131
O O4 0.333355 0.595119 0.808837
O O5 0.245893 0.717262 0.246494
O O6 0.216076 0.861021 0.251824
O O7 0.227946 0.779789 0.363527
O O8 0.000000 0.771784 0.284333
O O9 0.734963 0.223422 0.895549
O O10 0.000000 0.282765 0.887707
O O11 0.870196 0.262231 0.000000
O O12 0.500000 0.851198 0.090103
O O13 0.259445 0.914091 0.126184
O O14 0.297538 0.871636 0.000000
O O15 0.190734 0.500000 0.592743
O O16 0.267405 0.411021 0.688415
O O17 0.201024 0.351778 0.575135
O O18 0.000000 0.411036 0.649299
O O19 0.500000 0.336994 0.721925
O O20 0.000000 0.900811 0.825860
O O21 0.182248 0.000000 0.777136
O O22 0.235441 0.763265 0.500000
O O23 0.000000 0.750679 0.431289
#
# Coordination Sequence:
#
# PCOD8195381 Si02
#       8
#     8   8   8   8   8   8   8   8
#     4  10  21  34  47  66  93 126 165 210 259 306
#     4   9  18  33  52  74 100 130 166 206 247 295
#     4  10  21  36  53  72  94 123 162 206 250 298
#     4  10  21  37  57  80 106 136 169 204 242 290
#     4   9  17  28  43  66  96 129 165 205 250 298
#     4  10  19  31  48  69  93 123 162 204 246 294
#     4  10  21  36  55  80 109 138 165 198 244 296
#     4   8  14  26  46  71  97 129 171 214 252 292
#
# _framework density 18.911756
#
# number of rings (size 3 to 8) (size 9 to 14) (size 15 to 20)
#    0.000    2.500    0.000    3.000    0.000    7.000 
#    0.000    3.750    0.000    6.375    0.000    6.125 
#    0.000    0.000    0.000    5.625    0.000    6.250 
#
# Total GULP energy -793098.971557 kJ/mol
# GULP energy per Si atom -12392.171431 kJ/mol
# Density = 1.886871 g / cm^3
# Si number density = 18.911756 Si / 1000 Ang^3
#
#
#
# Elastic Constant Matrix: (Units=GPa)
#
#
# Indices 1 2 3 4 5 6 
#
# 1 72.8477 30.7709 26.4568 0.0000 0.0000 0.0000
# 2 30.7709 100.9254 34.8340 0.0000 0.0000 0.0000
# 3 26.4568 34.8340 76.4822 0.0000 0.0000 0.0000
# 4 0.0000 0.0000 0.0000 11.4916 0.0000 0.0000
# 5 0.0000 0.0000 0.0000 0.0000 14.9124 0.0000
# 6 0.0000 0.0000 0.0000 0.0000 0.0000 21.9446
#
#
#
# Elastic Compliance Matrix: (Units=1/GPa)
#
#
# Indices 1 2 3 4 5 6 
#
# 1 0.016785 -0.003694 -0.004124 0.000000 0.000000 0.000000
# 2 -0.003694 0.012569 -0.004447 0.000000 0.000000 0.000000
# 3 -0.004124 -0.004447 0.016527 0.000000 0.000000 0.000000
# 4 0.000000 0.000000 0.000000 0.087020 0.000000 0.000000
# 5 0.000000 0.000000 0.000000 0.000000 0.067058 0.000000
# 6 0.000000 0.000000 0.000000 0.000000 0.000000 0.045569
#
#
# Mechanical properties :
#
#
# Convention : Reuss Voigt Hill
#
# Bulk Modulus (GPa) = 46.83478 48.26429 47.54953
# Shear Modulus (GPa) = 18.03904 20.21596 19.12750
#
# Velocity S-wave (km/s) = 3.09180 3.27305 3.18371
# Velocity P-wave (km/s) = 6.12897 6.31348 6.22191
#
# Compressibility (1/GPa) = 0.02135165
#
# Stress axis : x y z
#
# Youngs Moduli (GPa) = 59.57535 79.55777 60.50786
#
# Poissons Ratio (x) = 0.29391 0.24953
# Poissons Ratio (y) = 0.22009 0.26907
# Poissons Ratio (z) = 0.24568 0.35378
#
# Static dielectric constant tensor:
#      x y z
#    x 3.452000 0.000000 0.000000 
#    y 0.000000 3.368960 0.000000 
#    z 0.000000 0.000000 3.553220 
# 
# 
# High freq. dielectric constant tensor:
#      x y z
#    x 1.721910 0.000000 0.000000 
#    y 0.000000 1.719470 0.000000 
#    z 0.000000 0.000000 1.724600 
# 
# From -- ./inp_files/26988.got.cif
#   From: 2010.03.12/outbox.cif.g09.slc.cpg/sg47_14_cif.got.tgz:26988.got - 2010.04.14 03:12:58.
