data_PCOD8195500
_publ_section_title
;
Structure prediction by ZEFSAII (Michael W. Deem and Ramdas Pophale) SiO2 
 PCOD8195500
Probable space group: P M M M
;
_chemical_formula_sum "Si O2"
_cell_formula_units_Z 44
_cell_length_a 18.159121
_cell_length_b 7.758133
_cell_length_c 18.269639
_cell_angle_alpha 90.000000
_cell_angle_beta 90.000000
_cell_angle_gamma 90.000000
_cell_volume 2573.842744
_symmetry_space_group_name_H-M "P M M M"
_symmetry_group_IT_number 47
_symmetry_cell_setting 'orthorhombic'
loop_
_space_group_symop_operation_xyz
x,y,z
-x,-y,z
x,-y,-z
-x,y,-z
-x,-y,-z
x,y,-z
-x,y,z
x,-y,z
loop_
_atom_site_type_symbol
_atom_site_label
_atom_site_fract_x
_atom_site_fract_y
_atom_site_fract_z
Si Si1 0.586774 0.311536 0.419734
Si Si2 0.735940 0.000000 0.267168
Si Si3 0.916421 0.798900 0.917309
Si Si4 0.914572 0.697403 0.638197
Si Si5 0.586095 0.000000 0.682561
Si Si6 0.818557 0.000000 0.582317
Si Si7 0.829449 0.690832 0.217943
O O1 0.620562 0.270487 0.500000
O O2 0.500000 0.312767 0.427433
O O3 0.614804 0.500000 0.392902
O O4 0.609377 0.167706 0.362793
O O5 0.765354 0.169753 0.227033
O O6 0.646926 0.000000 0.253364
O O7 0.756262 0.000000 0.354190
O O8 0.863857 0.697072 0.862631
O O9 0.000000 0.734207 0.907477
O O10 0.911440 0.000000 0.899165
O O11 0.889790 0.761522 0.000000
O O12 0.898070 0.500000 0.614023
O O13 0.893621 0.726902 0.723078
O O14 0.000000 0.741905 0.628767
O O15 0.868055 0.827996 0.588630
O O16 0.500000 0.000000 0.708125
O O17 0.784030 0.000000 0.500000
O O18 0.795503 0.500000 0.229373
#
# Coordination Sequence:
#
# PCOD8195500 Si02
#       7
#     8   4   8   8   4   4   8
#     4   8  14  25  42  66  93 115 137 173 227 292
#     4  10  22  37  49  66  93 123 158 201 247 295
#     4   9  17  29  48  77 111 141 167 198 232 263
#     4   9  18  31  47  67  88 116 159 204 239 274
#     4  10  19  31  50  70  88 114 151 196 244 297
#     4  10  21  34  46  62  86 118 153 195 250 297
#     4  10  19  33  51  69  96 134 168 195 231 283
#
# _framework density 17.09506
#
# number of rings (size 3 to 8) (size 9 to 14) (size 15 to 20)
#    0.000    2.727    0.909    2.182    0.000    5.091 
#    0.000    1.818    0.000    0.000    0.000    0.000 
#    0.000    1.455    0.000    1.636    0.000    0.000 
#
# Total GULP energy -545297.875306 kJ/mol
# GULP energy per Si atom -12393.133530 kJ/mol
# Density = 1.705615 g / cm^3
# Si number density = 17.095060 Si / 1000 Ang^3
#
#
#
# Elastic Constant Matrix: (Units=GPa)
#
#
# Indices 1 2 3 4 5 6 
#
# 1 75.4337 35.4978 22.2191 0.0000 0.0000 0.0000
# 2 35.4978 100.2653 24.8474 0.0000 0.0000 0.0000
# 3 22.2191 24.8474 71.4204 0.0000 0.0000 0.0000
# 4 0.0000 0.0000 0.0000 20.7686 0.0000 0.0000
# 5 0.0000 0.0000 0.0000 0.0000 15.8695 0.0000
# 6 0.0000 0.0000 0.0000 0.0000 0.0000 7.0323
#
#
#
# Elastic Compliance Matrix: (Units=1/GPa)
#
#
# Indices 1 2 3 4 5 6 
#
# 1 0.016637 -0.005042 -0.003422 0.000000 0.000000 0.000000
# 2 -0.005042 0.012443 -0.002760 0.000000 0.000000 0.000000
# 3 -0.003422 -0.002760 0.016026 0.000000 0.000000 0.000000
# 4 0.000000 0.000000 0.000000 0.048150 0.000000 0.000000
# 5 0.000000 0.000000 0.000000 0.000000 0.063014 0.000000
# 6 0.000000 0.000000 0.000000 0.000000 0.000000 0.142202
#
#
# Mechanical properties :
#
#
# Convention : Reuss Voigt Hill
#
# Bulk Modulus (GPa) = 44.13436 45.80532 44.96984
# Shear Modulus (GPa) = 15.22196 19.70441 17.46318
#
# Velocity S-wave (km/s) = 2.98725 3.39873 3.19961
# Velocity P-wave (km/s) = 6.14583 6.50035 6.32557
#
# Compressibility (1/GPa) = 0.02265808
#
# Stress axis : x y z
#
# Youngs Moduli (GPa) = 60.10564 80.36813 62.39712
#
# Poissons Ratio (x) = 0.40524 0.21350
# Poissons Ratio (y) = 0.30307 0.17223
# Poissons Ratio (z) = 0.20566 0.22183
#
# Static dielectric constant tensor:
#      x y z
#    x 2.845630 0.000000 0.000000 
#    y 0.000000 3.716760 0.000000 
#    z 0.000000 0.000000 3.012250 
# 
# 
# High freq. dielectric constant tensor:
#      x y z
#    x 1.622830 0.000000 0.000000 
#    y 0.000000 1.681080 0.000000 
#    z 0.000000 0.000000 1.628470 
# 
# From -- ./inp_files/24364.got.cif
#   From: 2010.03.12/outbox.cif.g09.slc.cpg/sg47_13_cif.got.tgz:24364.got - 2010.04.14 03:12:58.
