data_PCOD8195190
_publ_section_title
;
Structure prediction by ZEFSAII (Michael W. Deem and Ramdas Pophale) SiO2 
 PCOD8195190
Probable space group: P M M M
;
_chemical_formula_sum "Si O2"
_cell_formula_units_Z 40
_cell_length_a 14.684913
_cell_length_b 9.235296
_cell_length_c 15.808604
_cell_angle_alpha 90.000000
_cell_angle_beta 90.000000
_cell_angle_gamma 90.000000
_cell_volume 2143.955259
_symmetry_space_group_name_H-M "P M M M"
_symmetry_group_IT_number 47
_symmetry_cell_setting 'orthorhombic'
loop_
_space_group_symop_operation_xyz
x,y,z
-x,-y,z
x,-y,-z
-x,y,-z
-x,-y,-z
x,y,-z
-x,y,z
x,-y,z
loop_
_atom_site_type_symbol
_atom_site_label
_atom_site_fract_x
_atom_site_fract_y
_atom_site_fract_z
Si Si1 0.214653 0.671070 0.841189
Si Si2 0.897750 0.673042 0.000000
Si Si3 0.402019 0.671989 0.095954
Si Si4 0.102800 0.672439 0.500000
Si Si5 0.224088 0.329359 0.345176
Si Si6 0.602506 0.832005 0.401529
O O1 0.216758 0.500000 0.853707
O O2 0.317457 0.733997 0.850334
O O3 0.180569 0.710333 0.746554
O O4 0.150214 0.735285 0.914905
O O5 0.896095 0.500000 0.000000
O O6 0.000000 0.732776 0.000000
O O7 0.500000 0.730093 0.130661
O O8 0.402400 0.500000 0.099317
O O9 0.388391 0.724150 0.000000
O O10 0.099619 0.500000 0.500000
O O11 0.155601 0.730445 0.583063
O O12 0.000000 0.734987 0.500000
O O13 0.237310 0.500000 0.355230
O O14 0.324083 0.260764 0.350590
O O15 0.614632 0.797401 0.500000
O O16 0.500000 0.788839 0.372866
O O17 0.620264 0.000000 0.383359
#
# Coordination Sequence:
#
# PCOD8195190 Si02
#       6
#     8   4   8   4   8   8
#     4   9  16  25  38  60  89 118 153 195 236 278
#     4   9  16  26  39  57  88 127 161 197 242 288
#     4   8  12  19  32  48  72 108 139 166 212 268
#     4   9  18  32  46  63  94 130 159 193 242 293
#     4  10  19  30  48  73  98 127 164 203 242 286
#     4   9  18  33  52  72  97 131 164 194 237 294
#
# _framework density 18.657105000000001
#
# number of rings (size 3 to 8) (size 9 to 14) (size 15 to 20)
#    0.000    3.000    2.000    1.200    0.000    2.000 
#    0.000    7.000    0.000    1.200    0.000    0.700 
#    0.000    2.400    0.000    0.000    0.000    0.000 
#
# Total GULP energy -495623.376194 kJ/mol
# GULP energy per Si atom -12390.584405 kJ/mol
# Density = 1.861464 g / cm^3
# Si number density = 18.657105 Si / 1000 Ang^3
#
#
#
# Elastic Constant Matrix: (Units=GPa)
#
#
# Indices 1 2 3 4 5 6 
#
# 1 154.7616 14.5017 85.4324 0.0000 0.0000 0.0000
# 2 14.5017 14.3556 16.0865 0.0000 0.0000 0.0000
# 3 85.4324 16.0865 145.2808 0.0000 0.0000 0.0000
# 4 0.0000 0.0000 0.0000 5.8377 0.0000 0.0000
# 5 0.0000 0.0000 0.0000 0.0000 16.6339 0.0000
# 6 0.0000 0.0000 0.0000 0.0000 0.0000 10.1868
#
#
#
# Elastic Compliance Matrix: (Units=1/GPa)
#
#
# Indices 1 2 3 4 5 6 
#
# 1 0.009756 -0.003912 -0.005304 0.000000 0.000000 0.000000
# 2 -0.003912 0.081095 -0.006679 0.000000 0.000000 0.000000
# 3 -0.005304 -0.006679 0.010742 0.000000 0.000000 0.000000
# 4 0.000000 0.000000 0.000000 0.171300 0.000000 0.000000
# 5 0.000000 0.000000 0.000000 0.000000 0.060118 0.000000
# 6 0.000000 0.000000 0.000000 0.000000 0.000000 0.098166
#
#
# Mechanical properties :
#
#
# Convention : Reuss Voigt Hill
#
# Bulk Modulus (GPa) = 14.32594 60.71547 37.52071
# Shear Modulus (GPa) = 10.28311 19.75686 15.01998
#
# Velocity S-wave (km/s) = 2.35023 3.25767 2.84043
# Velocity P-wave (km/s) = 3.88072 6.83838 5.55983
#
# Compressibility (1/GPa) = 0.06980345
#
# Stress axis : x y z
#
# Youngs Moduli (GPa) = 102.50133 12.33116 93.09510
#
# Poissons Ratio (x) = 0.04824 0.49376
# Poissons Ratio (y) = 0.40098 0.62179
# Poissons Ratio (z) = 0.54365 0.08236
#
# Static dielectric constant tensor:
#      x y z
#    x 3.768650 0.000000 0.000000 
#    y 0.000000 2.664390 0.000000 
#    z 0.000000 0.000000 3.549570 
# 
# 
# High freq. dielectric constant tensor:
#      x y z
#    x 1.731130 0.000000 0.000000 
#    y 0.000000 1.640810 0.000000 
#    z 0.000000 0.000000 1.728960 
# 
# From -- ./inp_files/23340.got.cif
#   From: 2010.03.12/outbox.cif.g09.slc.cpg/sg47_12_cif.got.tgz:23340.got - 2010.04.14 03:12:58.
