data_PCOD8195880
_publ_section_title
;
Structure prediction by ZEFSAII (Michael W. Deem and Ramdas Pophale) SiO2 
 PCOD8195880
Probable space group: P M M M
;
_chemical_formula_sum "Si O2"
_cell_formula_units_Z 44
_cell_length_a 9.606516
_cell_length_b 29.687998
_cell_length_c 8.167292
_cell_angle_alpha 90.000000
_cell_angle_beta 90.000000
_cell_angle_gamma 90.000000
_cell_volume 2329.297204
_symmetry_space_group_name_H-M "P M M M"
_symmetry_group_IT_number 47
_symmetry_cell_setting 'orthorhombic'
loop_
_space_group_symop_operation_xyz
x,y,z
-x,-y,z
x,-y,-z
-x,y,-z
-x,-y,-z
x,y,-z
-x,y,z
x,-y,z
loop_
_atom_site_type_symbol
_atom_site_label
_atom_site_fract_x
_atom_site_fract_y
_atom_site_fract_z
Si Si1 0.335060 0.550351 0.500000
Si Si2 0.154398 0.871043 0.688158
Si Si3 0.341127 0.050956 0.190708
Si Si4 0.662122 0.392785 0.185248
Si Si5 0.161530 0.314651 0.686756
Si Si6 0.163353 0.221239 0.184110
O O1 0.272087 0.500000 0.500000
O O2 0.500000 0.548426 0.500000
O O3 0.284431 0.574001 0.330456
O O4 0.140657 0.859481 0.500000
O O5 0.245584 0.915326 0.709611
O O6 0.229354 0.827137 0.768253
O O7 0.000000 0.879903 0.763161
O O8 0.500000 0.058168 0.245210
O O9 0.294498 0.000000 0.231343
O O10 0.323543 0.061005 0.000000
O O11 0.500000 0.381851 0.212314
O O12 0.748007 0.346688 0.197674
O O13 0.685542 0.412722 0.000000
O O14 0.182993 0.329624 0.500000
O O15 0.215439 0.263231 0.706857
O O16 0.000000 0.318349 0.740118
O O17 0.000000 0.215167 0.210995
O O18 0.204089 0.233309 0.000000
#
# Coordination Sequence:
#
# PCOD8195880 Si02
#       6
#     4   8   8   8   8   8
#     4   9  18  34  55  79 109 143 179 223 272 319
#     4  10  20  33  50  74 103 131 162 204 251 299
#     4   9  19  36  55  73  95 126 164 205 250 302
#     4  10  20  34  54  80 109 141 178 222 270 317
#     4  10  19  32  53  79 107 141 178 215 260 315
#     4   9  17  30  49  73 101 134 171 210 252 301
#
# _framework density 18.889818999999999
#
# number of rings (size 3 to 8) (size 9 to 14) (size 15 to 20)
#    0.000    2.455    0.909    2.182    0.000    5.818 
#    0.000    5.455    0.000    6.545    0.000    1.273 
#    0.000    0.000    0.000    0.000    0.000    0.000 
#
# Total GULP energy -545398.214599 kJ/mol
# GULP energy per Si atom -12395.413968 kJ/mol
# Density = 1.884683 g / cm^3
# Si number density = 18.889819 Si / 1000 Ang^3
#
#
#
# Elastic Constant Matrix: (Units=GPa)
#
#
# Indices 1 2 3 4 5 6 
#
# 1 41.5404 39.5811 23.4792 0.0000 0.0000 0.0000
# 2 39.5811 129.3923 48.9800 0.0000 0.0000 0.0000
# 3 23.4792 48.9800 93.9813 0.0000 0.0000 0.0000
# 4 0.0000 0.0000 0.0000 32.2343 0.0000 0.0000
# 5 0.0000 0.0000 0.0000 0.0000 21.8020 0.0000
# 6 0.0000 0.0000 0.0000 0.0000 0.0000 50.2474
#
#
#
# Elastic Compliance Matrix: (Units=1/GPa)
#
#
# Indices 1 2 3 4 5 6 
#
# 1 0.035118 -0.009245 -0.003955 0.000000 0.000000 0.000000
# 2 -0.009245 0.012062 -0.003976 0.000000 0.000000 0.000000
# 3 -0.003955 -0.003976 0.013701 0.000000 0.000000 0.000000
# 4 0.000000 0.000000 0.000000 0.031023 0.000000 0.000000
# 5 0.000000 0.000000 0.000000 0.000000 0.045867 0.000000
# 6 0.000000 0.000000 0.000000 0.000000 0.000000 0.019902
#
#
# Mechanical properties :
#
#
# Convention : Reuss Voigt Hill
#
# Bulk Modulus (GPa) = 37.69783 54.33271 46.01527
# Shear Modulus (GPa) = 24.89196 31.04833 27.97015
#
# Velocity S-wave (km/s) = 3.63401 4.05860 3.85216
# Velocity P-wave (km/s) = 6.13254 7.12660 6.64818
#
# Compressibility (1/GPa) = 0.02652672
#
# Stress axis : x y z
#
# Youngs Moduli (GPa) = 28.47567 82.90601 72.98793
#
# Poissons Ratio (x) = 0.76650 0.28867
# Poissons Ratio (y) = 0.26327 0.29024
# Poissons Ratio (z) = 0.11262 0.32967
#
# Static dielectric constant tensor:
#      x y z
#    x 3.122300 0.000000 0.000000 
#    y 0.000000 3.540760 0.000000 
#    z 0.000000 0.000000 3.510820 
# 
# 
# High freq. dielectric constant tensor:
#      x y z
#    x 1.691070 0.000000 0.000000 
#    y 0.000000 1.737420 0.000000 
#    z 0.000000 0.000000 1.742850 
# 
# From -- ./inp_files/2190.got.cif
#   From: 2010.03.12/outbox.cif.g09.slc.cpg/sg47_2_cif.got.tgz:2190.got - 2010.04.14 03:12:58.
