data_PCOD8195070
_publ_section_title
;
Structure prediction by ZEFSAII (Michael W. Deem and Ramdas Pophale) SiO2 
 PCOD8195070
Probable space group: P M M M
;
_chemical_formula_sum "Si O2"
_cell_formula_units_Z 44
_cell_length_a 13.774799
_cell_length_b 21.464573
_cell_length_c 9.117313
_cell_angle_alpha 90.000000
_cell_angle_beta 90.000000
_cell_angle_gamma 90.000000
_cell_volume 2695.717564
_symmetry_space_group_name_H-M "P M M M"
_symmetry_group_IT_number 47
_symmetry_cell_setting 'orthorhombic'
loop_
_space_group_symop_operation_xyz
x,y,z
-x,-y,z
x,-y,-z
-x,y,-z
-x,-y,-z
x,y,-z
-x,y,z
x,-y,z
loop_
_atom_site_type_symbol
_atom_site_label
_atom_site_fract_x
_atom_site_fract_y
_atom_site_fract_z
Si Si1 0.611106 0.121799 0.171069
Si Si2 0.790435 0.432105 0.328420
Si Si3 0.110369 0.308419 0.673632
Si Si4 0.615389 0.000000 0.665194
Si Si5 0.283722 0.247951 0.172786
Si Si6 0.609393 0.645034 0.669407
O O1 0.500000 0.136465 0.217762
O O2 0.654013 0.061931 0.254937
O O3 0.678887 0.179537 0.214322
O O4 0.616243 0.106976 0.000000
O O5 0.807236 0.438793 0.500000
O O6 0.811394 0.500000 0.254883
O O7 0.862300 0.378123 0.269284
O O8 0.679371 0.412943 0.293572
O O9 0.127509 0.303860 0.500000
O O10 0.179054 0.258142 0.752024
O O11 0.000000 0.293838 0.717327
O O12 0.500000 0.000000 0.672130
O O13 0.654932 0.000000 0.500000
O O14 0.363193 0.296225 0.231642
O O15 0.273042 0.256925 0.000000
O O16 0.622196 0.665009 0.500000
O O17 0.500000 0.624027 0.704642
#
# Coordination Sequence:
#
# PCOD8195070 Si02
#       6
#     8   8   8   4   8   8
#     4   9  17  29  44  63  91 125 154 179 210 249
#     4   8  14  25  42  65  89 111 141 182 225 270
#     4   9  18  32  48  66  88 112 141 183 234 280
#     4   9  17  27  41  65  94 123 154 183 209 242
#     4  10  19  30  46  67  89 116 152 188 221 262
#     4   9  17  28  42  62  89 119 149 183 223 264
#
# _framework density 16.322185000000001
#
# number of rings (size 3 to 8) (size 9 to 14) (size 15 to 20)
#    0.000    3.000    0.000    2.455    0.000    4.727 
#    0.000    5.455    0.000    8.727    0.000   10.818 
#    0.000    5.091    0.000    0.000    0.000    0.000 
#
# Total GULP energy -545414.955410 kJ/mol
# GULP energy per Si atom -12395.794441 kJ/mol
# Density = 1.628504 g / cm^3
# Si number density = 16.322185 Si / 1000 Ang^3
#
#
#
# Elastic Constant Matrix: (Units=GPa)
#
#
# Indices 1 2 3 4 5 6 
#
# 1 100.2792 47.2934 31.5756 0.0000 0.0000 0.0000
# 2 47.2934 129.4262 47.8697 0.0000 0.0000 0.0000
# 3 31.5756 47.8697 48.6752 0.0000 0.0000 0.0000
# 4 0.0000 0.0000 0.0000 18.1110 0.0000 0.0000
# 5 0.0000 0.0000 0.0000 0.0000 19.5202 0.0000
# 6 0.0000 0.0000 0.0000 0.0000 0.0000 16.3486
#
#
#
# Elastic Compliance Matrix: (Units=1/GPa)
#
#
# Indices 1 2 3 4 5 6 
#
# 1 0.013056 -0.002575 -0.005937 0.000000 0.000000 0.000000
# 2 -0.002575 0.012651 -0.010772 0.000000 0.000000 0.000000
# 3 -0.005937 -0.010772 0.034989 0.000000 0.000000 0.000000
# 4 0.000000 0.000000 0.000000 0.055215 0.000000 0.000000
# 5 0.000000 0.000000 0.000000 0.000000 0.051229 0.000000
# 6 0.000000 0.000000 0.000000 0.000000 0.000000 0.061167
#
#
# Mechanical properties :
#
#
# Convention : Reuss Voigt Hill
#
# Bulk Modulus (GPa) = 45.18929 59.09532 52.14231
# Shear Modulus (GPa) = 18.23143 20.90541 19.56842
#
# Velocity S-wave (km/s) = 3.34574 3.58271 3.46625
# Velocity P-wave (km/s) = 6.53232 7.30743 6.93072
#
# Compressibility (1/GPa) = 0.02212913
#
# Stress axis : x y z
#
# Youngs Moduli (GPa) = 76.59326 79.04336 28.58023
#
# Poissons Ratio (x) = 0.20352 0.16969
# Poissons Ratio (y) = 0.19721 0.30786
# Poissons Ratio (z) = 0.45475 0.85143
#
# Static dielectric constant tensor:
#      x y z
#    x 2.998550 0.000000 0.000000 
#    y 0.000000 3.179020 0.000000 
#    z 0.000000 0.000000 2.929410 
# 
# 
# High freq. dielectric constant tensor:
#      x y z
#    x 1.608660 0.000000 0.000000 
#    y 0.000000 1.623520 0.000000 
#    z 0.000000 0.000000 1.610720 
# 
# From -- ./inp_files/6745.got.cif
#   From: 2010.03.12/outbox.cif.g09.slc.cpg/sg47_4_cif.got.tgz:6745.got - 2010.04.14 03:12:58.
