data_PCOD8195280
_publ_section_title
;
Structure prediction by ZEFSAII (Michael W. Deem and Ramdas Pophale) SiO2 
 PCOD8195280
Probable space group: P M M M
;
_chemical_formula_sum "Si O2"
_cell_formula_units_Z 52
_cell_length_a 27.313653
_cell_length_b 17.115632
_cell_length_c 8.333738
_cell_angle_alpha 90.000000
_cell_angle_beta 90.000000
_cell_angle_gamma 90.000000
_cell_volume 3895.942789
_symmetry_space_group_name_H-M "P M M M"
_symmetry_group_IT_number 47
_symmetry_cell_setting 'orthorhombic'
loop_
_space_group_symop_operation_xyz
x,y,z
-x,-y,z
x,-y,-z
-x,y,-z
-x,-y,-z
x,y,-z
-x,y,z
x,-y,z
loop_
_atom_site_type_symbol
_atom_site_label
_atom_site_fract_x
_atom_site_fract_y
_atom_site_fract_z
Si Si1 0.779871 0.088746 0.816059
Si Si2 0.591700 0.183631 0.185911
Si Si3 0.680318 0.090416 0.684268
Si Si4 0.112004 0.093353 0.818320
Si Si5 0.055604 0.092869 0.500000
Si Si6 0.445370 0.661368 0.312927
Si Si7 0.500000 0.087365 0.191459
Si Si8 0.557856 0.500000 0.182033
O O1 0.735263 0.124743 0.712513
O O2 0.833163 0.127917 0.787990
O O3 0.785951 0.000000 0.760531
O O4 0.764066 0.095627 0.000000
O O5 0.643224 0.142110 0.213980
O O6 0.590939 0.269287 0.263280
O O7 0.548006 0.131009 0.259067
O O8 0.582695 0.195054 0.000000
O O9 0.666017 0.098439 0.500000
O O10 0.677336 0.000000 0.741887
O O11 0.079648 0.124465 0.667533
O O12 0.112710 0.000000 0.818508
O O13 0.094081 0.119751 0.000000
O O14 0.000000 0.122657 0.500000
O O15 0.058809 0.000000 0.500000
O O16 0.451054 0.660422 0.500000
O O17 0.500000 0.672834 0.235372
O O18 0.421058 0.579149 0.260317
O O19 0.500000 0.000000 0.262314
O O20 0.500000 0.084559 0.000000
O O21 0.500000 0.500000 0.207810
O O22 0.574420 0.500000 0.000000
#
# Coordination Sequence:
#
# PCOD8195280 Si02
#       8
#     8   8   8   8   4   8   4   4
#     4   8  14  25  39  52  64  83 113 148 184 219
#     4  11  20  31  45  58  76  98 123 150 180 220
#     4  10  20  30  40  56  75  94 119 154 193 228
#     4   8  14  23  34  47  63  84 111 142 177 218
#     4   9  16  22  30  46  66  88 112 137 173 220
#     4  10  19  31  46  63  83 100 116 141 177 215
#     4   9  18  30  43  56  69  92 125 153 178 215
#     4   9  17  29  47  67  83  97 119 141 163 203
#
# _framework density 13.347219000000001
#
# number of rings (size 3 to 8) (size 9 to 14) (size 15 to 20)
#    0.000    2.692    0.769    3.000    1.077    3.385 
#    0.000    1.538    0.000    1.846    0.000    0.000 
#    0.000    0.000    0.000    0.000    0.000    0.000 
#
# Total GULP energy -644340.316750 kJ/mol
# GULP energy per Si atom -12391.159937 kJ/mol
# Density = 1.331684 g / cm^3
# Si number density = 13.347219 Si / 1000 Ang^3
#
#
#
# Elastic Constant Matrix: (Units=GPa)
#
#
# Indices 1 2 3 4 5 6 
#
# 1 74.5422 23.5471 32.3837 0.0000 0.0000 0.0000
# 2 23.5471 63.1727 21.7069 0.0000 0.0000 0.0000
# 3 32.3837 21.7069 64.1510 0.0000 0.0000 0.0000
# 4 0.0000 0.0000 0.0000 13.9325 0.0000 0.0000
# 5 0.0000 0.0000 0.0000 0.0000 20.8400 0.0000
# 6 0.0000 0.0000 0.0000 0.0000 0.0000 2.2954
#
#
#
# Elastic Compliance Matrix: (Units=1/GPa)
#
#
# Indices 1 2 3 4 5 6 
#
# 1 0.018065 -0.004074 -0.007741 0.000000 0.000000 0.000000
# 2 -0.004074 0.018831 -0.004315 0.000000 0.000000 0.000000
# 3 -0.007741 -0.004315 0.020956 0.000000 0.000000 0.000000
# 4 0.000000 0.000000 0.000000 0.071775 0.000000 0.000000
# 5 0.000000 0.000000 0.000000 0.000000 0.047985 0.000000
# 6 0.000000 0.000000 0.000000 0.000000 0.000000 0.435657
#
#
# Mechanical properties :
#
#
# Convention : Reuss Voigt Hill
#
# Bulk Modulus (GPa) = 39.07479 39.68238 39.37858
# Shear Modulus (GPa) = 7.64457 15.69545 11.67001
#
# Velocity S-wave (km/s) = 2.39581 3.43291 2.96013
# Velocity P-wave (km/s) = 6.08213 6.74600 6.42265
#
# Compressibility (1/GPa) = 0.02559195
#
# Stress axis : x y z
#
# Youngs Moduli (GPa) = 55.35582 53.10424 47.71889
#
# Poissons Ratio (x) = 0.21633 0.36938
# Poissons Ratio (y) = 0.22550 0.20593
# Poissons Ratio (z) = 0.42850 0.22917
#
# Static dielectric constant tensor:
#      x y z
#    x 2.698780 0.000000 0.000000 
#    y 0.000000 2.334860 0.000000 
#    z 0.000000 0.000000 2.746590 
# 
# 
# High freq. dielectric constant tensor:
#      x y z
#    x 1.488060 0.000000 0.000000 
#    y 0.000000 1.449380 0.000000 
#    z 0.000000 0.000000 1.521030 
# 
# From -- ./inp_files/12583.got.cif
#   From: 2010.03.12/outbox.cif.g09.slc.cpg/sg47_7_cif.got.tgz:12583.got - 2010.04.14 03:12:58.
