data_PCOD8195173
_publ_section_title
;
Structure prediction by ZEFSAII (Michael W. Deem and Ramdas Pophale) SiO2 
 PCOD8195173
Probable space group: P M M M
;
_chemical_formula_sum "Si O2"
_cell_formula_units_Z 44
_cell_length_a 8.033542
_cell_length_b 8.037751
_cell_length_c 32.147407
_cell_angle_alpha 90.000000
_cell_angle_beta 90.000000
_cell_angle_gamma 90.000000
_cell_volume 2075.809835
_symmetry_space_group_name_H-M "P M M M"
_symmetry_group_IT_number 47
_symmetry_cell_setting 'orthorhombic'
loop_
_space_group_symop_operation_xyz
x,y,z
-x,-y,z
x,-y,-z
-x,y,-z
-x,-y,-z
x,y,-z
-x,y,z
x,-y,z
loop_
_atom_site_type_symbol
_atom_site_label
_atom_site_fract_x
_atom_site_fract_y
_atom_site_fract_z
Si Si1 0.500000 0.802275 0.691099
Si Si2 0.500000 0.304449 0.596761
Si Si3 0.815678 0.302238 0.452904
Si Si4 0.304834 0.187989 0.000000
Si Si5 0.184328 0.801952 0.257382
Si Si6 0.193793 0.188148 0.085953
Si Si7 0.309581 0.192007 0.171540
O O1 0.500000 0.736125 0.644835
O O2 0.668060 0.732247 0.713207
O O3 0.500000 0.000000 0.691651
O O4 0.500000 0.500000 0.589278
O O5 0.332008 0.227970 0.575949
O O6 0.783391 0.241627 0.500000
O O7 0.812914 0.500000 0.451157
O O8 0.000000 0.239851 0.438039
O O9 0.241314 0.279117 0.957664
O O10 0.500000 0.190986 0.000000
O O11 0.231542 0.000000 0.000000
O O12 0.206921 0.731646 0.210291
O O13 0.000000 0.746945 0.273489
O O14 0.199277 0.000000 0.256123
O O15 0.271773 0.278716 0.126820
O O16 0.000000 0.191100 0.092717
O O17 0.265385 0.000000 0.082968
O O18 0.500000 0.214463 0.183862
O O19 0.258473 0.000000 0.166314
#
# Coordination Sequence:
#
# PCOD8195173 Si02
#       7
#     4   4   8   4   8   8   8
#     4  10  20  33  45  63  90 119 150 184 224 271
#     4  10  19  30  48  72  96 122 153 187 223 263
#     4   8  14  26  46  72  98 122 152 190 225 256
#     4   9  15  21  25  31  47  73 103 139 189 246
#     4   9  16  27  42  57  75 102 137 177 219 260
#     4   9  15  20  26  37  53  75 105 144 193 247
#     4   9  14  21  33  48  64  83 114 160 207 248
#
# _framework density 21.196546000000001
#
# number of rings (size 3 to 8) (size 9 to 14) (size 15 to 20)
#    0.000    3.000    0.909    2.182    0.000    7.273 
#    0.000    0.000    0.000    1.091    0.000    1.273 
#    0.000    0.000    0.000    0.000    0.000    0.000 
#
# Total GULP energy -545100.277807 kJ/mol
# GULP energy per Si atom -12388.642677 kJ/mol
# Density = 2.114830 g / cm^3
# Si number density = 21.196546 Si / 1000 Ang^3
#
#
#
# Elastic Constant Matrix: (Units=GPa)
#
#
# Indices 1 2 3 4 5 6 
#
# 1 163.2885 2.1880 96.2754 0.0000 0.0000 0.0000
# 2 2.1880 4.3823 -2.2813 0.0000 0.0000 0.0000
# 3 96.2754 -2.2813 175.6359 0.0000 0.0000 0.0000
# 4 0.0000 0.0000 0.0000 203.9230 0.0000 0.0000
# 5 0.0000 0.0000 0.0000 0.0000 34.4080 0.0000
# 6 0.0000 0.0000 0.0000 0.0000 0.0000 1.6702
#
#
#
# Elastic Compliance Matrix: (Units=1/GPa)
#
#
# Indices 1 2 3 4 5 6 
#
# 1 0.009277 -0.007328 -0.005180 0.000000 0.000000 0.000000
# 2 -0.007328 0.235536 0.007076 0.000000 0.000000 0.000000
# 3 -0.005180 0.007076 0.008625 0.000000 0.000000 0.000000
# 4 0.000000 0.000000 0.000000 0.004904 0.000000 0.000000
# 5 0.000000 0.000000 0.000000 0.000000 0.029063 0.000000
# 6 0.000000 0.000000 0.000000 0.000000 0.000000 0.598716
#
#
# Mechanical properties :
#
#
# Convention : Reuss Voigt Hill
#
# Bulk Modulus (GPa) = 4.12246 59.51896 31.82071
# Shear Modulus (GPa) = 5.11330 64.47524 34.79427
#
# Velocity S-wave (km/s) = 1.55485 5.52122 4.05595
# Velocity P-wave (km/s) = 2.27432 8.29371 6.08104
#
# Compressibility (1/GPa) = 0.24257343
#
# Stress axis : x y z
#
# Youngs Moduli (GPa) = 107.79855 4.24564 115.94159
#
# Poissons Ratio (x) = 0.03111 0.60060
# Poissons Ratio (y) = 0.78998 -0.82045
# Poissons Ratio (z) = 0.55841 -0.03004
#
# Static dielectric constant tensor:
#      x y z
#    x 4.100460 0.000000 0.000000 
#    y 0.000000 2.903830 0.000000 
#    z 0.000000 0.000000 4.182400 
# 
# 
# High freq. dielectric constant tensor:
#      x y z
#    x 1.846580 0.000000 0.000000 
#    y 0.000000 1.730220 0.000000 
#    z 0.000000 0.000000 1.841780 
# 
# From -- ./inp_files/33963.got.cif
#   From: 2010.03.12/outbox.cif.g09.slc.cpg/sg47_17_cif.got.tgz:33963.got - 2010.04.14 03:12:58.
