data_PCOD8195091
_publ_section_title
;
Structure prediction by ZEFSAII (Michael W. Deem and Ramdas Pophale) SiO2 
 PCOD8195091
Probable space group: P M M M
;
_chemical_formula_sum "Si O2"
_cell_formula_units_Z 64
_cell_length_a 28.949994
_cell_length_b 9.283806
_cell_length_c 14.025531
_cell_angle_alpha 90.000000
_cell_angle_beta 90.000000
_cell_angle_gamma 90.000000
_cell_volume 3769.587660
_symmetry_space_group_name_H-M "P M M M"
_symmetry_group_IT_number 47
_symmetry_cell_setting 'orthorhombic'
loop_
_space_group_symop_operation_xyz
x,y,z
-x,-y,z
x,-y,-z
-x,y,-z
-x,-y,-z
x,y,-z
-x,y,z
x,-y,z
loop_
_atom_site_type_symbol
_atom_site_label
_atom_site_fract_x
_atom_site_fract_y
_atom_site_fract_z
Si Si1 0.361281 0.830280 0.391001
Si Si2 0.052154 0.334252 0.793586
Si Si3 0.449408 0.661801 0.386839
Si Si4 0.725157 0.169581 0.734745
Si Si5 0.811705 0.167386 0.608366
Si Si6 0.900148 0.664770 0.393947
Si Si7 0.133773 0.163465 0.112615
Si Si8 0.774607 0.668390 0.111516
O O1 0.351060 0.778885 0.500000
O O2 0.408660 0.764086 0.349159
O O3 0.320683 0.779762 0.320585
O O4 0.366602 0.000000 0.389265
O O5 0.061997 0.500000 0.822057
O O6 0.057838 0.313384 0.679417
O O7 0.086692 0.232496 0.850058
O O8 0.000000 0.290413 0.820450
O O9 0.449797 0.665488 0.500000
O O10 0.500000 0.714229 0.349569
O O11 0.439938 0.500000 0.350399
O O12 0.767356 0.213367 0.667392
O O13 0.731504 0.259317 0.832527
O O14 0.723836 0.000000 0.757811
O O15 0.802151 0.214123 0.500000
O O16 0.856770 0.247684 0.648049
O O17 0.821903 0.000000 0.617132
O O18 0.914769 0.719273 0.500000
O O19 0.884576 0.500000 0.398805
O O20 0.178300 0.254094 0.146274
O O21 0.138968 0.000000 0.151368
O O22 0.130609 0.164525 0.000000
O O23 0.778445 0.500000 0.135795
O O24 0.765633 0.694101 0.000000
#
# Coordination Sequence:
#
# PCOD8195091 Si02
#       8
#     8   8   8   8   8   8   8   8
#     4   9  17  28  42  64  96 131 165 199 235 276
#     4  10  21  35  51  72  96 121 148 180 221 266
#     4   8  14  25  40  58  84 122 167 210 246 277
#     4  10  19  30  46  68  95 126 156 188 228 272
#     4   9  17  29  45  65  90 120 151 181 216 260
#     4   9  18  32  48  66  89 117 150 185 217 253
#     4  10  21  37  56  75  94 117 145 179 222 272
#     4  10  21  36  53  72  93 118 150 188 228 271
#
# _framework density 16.977985
#
# number of rings (size 3 to 8) (size 9 to 14) (size 15 to 20)
#    0.000    2.625    0.000    2.250    0.000    7.500 
#    0.000    3.750    0.000    3.750    0.000    2.625 
#    0.000    0.500    0.000    5.500    0.000    4.250 
#
# Total GULP energy -793454.654963 kJ/mol
# GULP energy per Si atom -12397.728984 kJ/mol
# Density = 1.693934 g / cm^3
# Si number density = 16.977985 Si / 1000 Ang^3
#
#
#
# Elastic Constant Matrix: (Units=GPa)
#
#
# Indices 1 2 3 4 5 6 
#
# 1 117.8860 52.8636 45.6778 0.0000 0.0000 0.0000
# 2 52.8636 68.1382 33.2648 0.0000 0.0000 0.0000
# 3 45.6778 33.2648 44.0191 0.0000 0.0000 0.0000
# 4 0.0000 0.0000 0.0000 23.4740 0.0000 0.0000
# 5 0.0000 0.0000 0.0000 0.0000 19.5846 0.0000
# 6 0.0000 0.0000 0.0000 0.0000 0.0000 30.5448
#
#
#
# Elastic Compliance Matrix: (Units=1/GPa)
#
#
# Indices 1 2 3 4 5 6 
#
# 1 0.015959 -0.006809 -0.011415 0.000000 0.000000 0.000000
# 2 -0.006809 0.026160 -0.012704 0.000000 0.000000 0.000000
# 3 -0.011415 -0.012704 0.044163 0.000000 0.000000 0.000000
# 4 0.000000 0.000000 0.000000 0.042600 0.000000 0.000000
# 5 0.000000 0.000000 0.000000 0.000000 0.051061 0.000000
# 6 0.000000 0.000000 0.000000 0.000000 0.000000 0.032739
#
#
# Mechanical properties :
#
#
# Convention : Reuss Voigt Hill
#
# Bulk Modulus (GPa) = 40.93854 54.85065 47.89460
# Shear Modulus (GPa) = 17.68785 21.26982 19.47884
#
# Velocity S-wave (km/s) = 3.23121 3.54332 3.39086
# Velocity P-wave (km/s) = 6.17139 7.00836 6.60315
#
# Compressibility (1/GPa) = 0.02442686
#
# Stress axis : x y z
#
# Youngs Moduli (GPa) = 62.66026 38.22569 22.64343
#
# Poissons Ratio (x) = 0.26027 0.25848
# Poissons Ratio (y) = 0.42663 0.28766
# Poissons Ratio (z) = 0.71528 0.48562
#
# Static dielectric constant tensor:
#      x y z
#    x 3.296110 0.000000 0.000000 
#    y 0.000000 3.203930 0.000000 
#    z 0.000000 0.000000 3.147230 
# 
# 
# High freq. dielectric constant tensor:
#      x y z
#    x 1.641790 0.000000 0.000000 
#    y 0.000000 1.654220 0.000000 
#    z 0.000000 0.000000 1.637910 
# 
# From -- ./inp_files/25852.got.cif
#   From: 2010.03.12/outbox.cif.g09.slc.cpg/sg47_13_cif.got.tgz:25852.got - 2010.04.14 03:12:58.
