data_PCOD8195686
_publ_section_title
;
Structure prediction by ZEFSAII (Michael W. Deem and Ramdas Pophale) SiO2 
 PCOD8195686
Probable space group: P M M M
;
_chemical_formula_sum "Si O2"
_cell_formula_units_Z 56
_cell_length_a 18.913300
_cell_length_b 8.790899
_cell_length_c 18.842173
_cell_angle_alpha 90.000000
_cell_angle_beta 90.000000
_cell_angle_gamma 90.000000
_cell_volume 3132.792199
_symmetry_space_group_name_H-M "P M M M"
_symmetry_group_IT_number 47
_symmetry_cell_setting 'orthorhombic'
loop_
_space_group_symop_operation_xyz
x,y,z
-x,-y,z
x,-y,-z
-x,y,-z
-x,-y,-z
x,y,-z
-x,y,z
x,-y,z
loop_
_atom_site_type_symbol
_atom_site_label
_atom_site_fract_x
_atom_site_fract_y
_atom_site_fract_z
Si Si1 0.709878 0.320718 0.712474
Si Si2 0.773303 0.818346 0.581097
Si Si3 0.918852 0.678258 0.080733
Si Si4 0.340033 0.179323 0.922703
Si Si5 0.580256 0.820825 0.787209
Si Si6 0.925680 0.169287 0.415954
Si Si7 0.206054 0.820157 0.163697
O O1 0.715389 0.500000 0.716438
O O2 0.717337 0.262848 0.631834
O O3 0.631773 0.269005 0.735223
O O4 0.772343 0.250090 0.760572
O O5 0.756187 0.771879 0.500000
O O6 0.851258 0.754049 0.605904
O O7 0.770421 0.000000 0.589376
O O8 0.905312 0.500000 0.088610
O O9 0.870283 0.765420 0.137240
O O10 0.000000 0.718416 0.098730
O O11 0.901531 0.730137 0.000000
O O12 0.402094 0.226595 0.868455
O O13 0.264374 0.235090 0.893300
O O14 0.338178 0.000000 0.930906
O O15 0.353738 0.254675 0.000000
O O16 0.500000 0.774292 0.770253
O O17 0.593236 0.000000 0.776637
O O18 0.923791 0.156358 0.500000
O O19 0.000000 0.253303 0.392274
O O20 0.927770 0.000000 0.383521
O O21 0.205284 0.000000 0.172944
#
# Coordination Sequence:
#
# PCOD8195686 Si02
#       7
#     8   8   8   8   8   8   8
#     4  11  22  35  52  73 100 134 168 204 251 305
#     4   9  17  31  53  78 102 129 163 206 253 300
#     4   9  18  32  49  71 102 138 173 214 269 324
#     4   8  14  25  44  73 103 126 153 195 244 287
#     4   9  18  33  53  76 102 132 164 199 241 293
#     4   7  10  19  39  68  97 121 147 182 225 273
#     4  10  19  32  50  71  97 131 176 221 254 292
#
# _framework density 17.875426000000001
#
# number of rings (size 3 to 8) (size 9 to 14) (size 15 to 20)
#    0.000    3.000    0.000    4.714    0.000    2.000 
#    0.000    2.857    0.000    7.286    0.000    9.000 
#    0.000    0.000    0.000    0.000    0.000    0.000 
#
# Total GULP energy -693816.738975 kJ/mol
# GULP energy per Si atom -12389.584625 kJ/mol
# Density = 1.783474 g / cm^3
# Si number density = 17.875426 Si / 1000 Ang^3
#
#
#
# Elastic Constant Matrix: (Units=GPa)
#
#
# Indices 1 2 3 4 5 6 
#
# 1 108.3201 41.7660 62.9448 0.0000 0.0000 0.0000
# 2 41.7660 63.6800 40.7403 0.0000 0.0000 0.0000
# 3 62.9448 40.7403 108.7814 0.0000 0.0000 0.0000
# 4 0.0000 0.0000 0.0000 16.3971 0.0000 0.0000
# 5 0.0000 0.0000 0.0000 0.0000 -3.7099 0.0000
# 6 0.0000 0.0000 0.0000 0.0000 0.0000 20.6172
#
#
#
# Elastic Compliance Matrix: (Units=1/GPa)
#
#
# Indices 1 2 3 4 5 6 
#
# 1 0.015370 -0.005774 -0.006731 0.000000 0.000000 0.000000
# 2 -0.005774 0.022821 -0.005206 0.000000 0.000000 0.000000
# 3 -0.006731 -0.005206 0.015037 0.000000 0.000000 0.000000
# 4 0.000000 0.000000 0.000000 0.060986 0.000000 0.000000
# 5 0.000000 0.000000 0.000000 0.000000 -0.269548 0.000000
# 6 0.000000 0.000000 0.000000 0.000000 0.000000 0.048503
#
#
# Mechanical properties :
#
#
# Convention : Reuss Voigt Hill
#
# Bulk Modulus (GPa) = 56.16028 63.52042 59.84035
# Shear Modulus (GPa) = -76.36639 15.68290 -30.34174
#
# Velocity S-wave (km/s) = -6.54325 2.96521 -4.12442
# Velocity P-wave (km/s) = 5.05962 6.88008 3.29664
#
# Compressibility (1/GPa) = 0.01780618
#
# Stress axis : x y z
#
# Youngs Moduli (GPa) = 65.06323 43.81900 66.50252
#
# Poissons Ratio (x) = 0.25303 0.44762
# Poissons Ratio (y) = 0.37570 0.34619
# Poissons Ratio (z) = 0.43793 0.22810
#
# Static dielectric constant tensor:
#      x y z
#    x 3.479830 0.000000 0.000000 
#    y 0.000000 2.934430 0.000000 
#    z 0.000000 0.000000 3.262060 
# 
# 
# High freq. dielectric constant tensor:
#      x y z
#    x 1.691530 0.000000 0.000000 
#    y 0.000000 1.657150 0.000000 
#    z 0.000000 0.000000 1.675530 
# 
# From -- ./inp_files/28731.got.cif
#   From: 2010.03.12/outbox.cif.g09.slc.cpg/sg47_15_cif.got.tgz:28731.got - 2010.04.14 03:12:58.
