data_PCOD8195792
_publ_section_title
;
Structure prediction by ZEFSAII (Michael W. Deem and Ramdas Pophale) SiO2 
 PCOD8195792
Probable space group: P M M M
;
_chemical_formula_sum "Si O2"
_cell_formula_units_Z 52
_cell_length_a 11.846604
_cell_length_b 9.220541
_cell_length_c 27.988085
_cell_angle_alpha 90.000000
_cell_angle_beta 90.000000
_cell_angle_gamma 90.000000
_cell_volume 3057.197241
_symmetry_space_group_name_H-M "P M M M"
_symmetry_group_IT_number 47
_symmetry_cell_setting 'orthorhombic'
loop_
_space_group_symop_operation_xyz
x,y,z
-x,-y,z
x,-y,-z
-x,y,-z
-x,-y,-z
x,y,-z
-x,y,z
x,-y,z
loop_
_atom_site_type_symbol
_atom_site_label
_atom_site_fract_x
_atom_site_fract_y
_atom_site_fract_z
Si Si1 0.874605 0.828503 0.000000
Si Si2 0.871637 0.170555 0.822170
Si Si3 0.866082 0.661369 0.269174
Si Si4 0.723604 0.827963 0.912204
Si Si5 0.133243 0.664210 0.374736
Si Si6 0.500000 0.337384 0.556746
Si Si7 0.500000 0.672463 0.943912
Si Si8 0.718497 0.169202 0.555273
O O1 0.807483 0.775880 0.953719
O O2 0.000000 0.759153 0.000000
O O3 0.885788 0.000000 0.000000
O O4 0.822401 0.233559 0.772596
O O5 0.785667 0.218461 0.863493
O O6 0.000000 0.226001 0.832970
O O7 0.873584 0.000000 0.817095
O O8 0.821609 0.500000 0.257931
O O9 0.822780 0.710177 0.321737
O O10 0.000000 0.662751 0.270237
O O11 0.607788 0.740837 0.917611
O O12 0.699088 0.000000 0.914643
O O13 0.173329 0.500000 0.386405
O O14 0.176595 0.776552 0.413963
O O15 0.000000 0.672573 0.376536
O O16 0.500000 0.500000 0.577694
O O17 0.500000 0.338870 0.500000
O O18 0.609420 0.252837 0.575214
O O19 0.500000 0.500000 0.936981
O O20 0.500000 0.714775 0.000000
O O21 0.742738 0.205458 0.500000
O O22 0.698571 0.000000 0.562936
#
# Coordination Sequence:
#
# PCOD8195792 Si02
#       8
#     4   8   8   8   8   4   4   8
#     4   9  16  27  47  74 100 125 154 189 228 273
#     4   9  17  29  48  77 105 124 151 196 246 292
#     4   8  15  29  48  69  95 129 165 198 236 287
#     4  10  19  32  52  74  97 128 164 197 233 282
#     4   9  18  32  49  70  97 131 171 207 239 286
#     4   9  17  31  51  70  89 120 163 203 238 282
#     4  11  23  37  51  68  95 130 171 211 241 277
#     4  10  20  32  47  70 100 130 161 202 252 301
#
# _framework density 17.009043999999999
#
# number of rings (size 3 to 8) (size 9 to 14) (size 15 to 20)
#    0.000    2.692    0.769    2.308    0.000    5.846 
#    0.000    3.077    0.000    2.769    0.000    4.308 
#    0.000    0.000    0.000    0.000    0.000    0.000 
#
# Total GULP energy -644619.090079 kJ/mol
# GULP energy per Si atom -12396.520963 kJ/mol
# Density = 1.697033 g / cm^3
# Si number density = 17.009044 Si / 1000 Ang^3
#
#
#
# Elastic Constant Matrix: (Units=GPa)
#
#
# Indices 1 2 3 4 5 6 
#
# 1 83.9062 40.7242 51.7984 0.0000 0.0000 0.0000
# 2 40.7242 67.2909 52.9502 0.0000 0.0000 0.0000
# 3 51.7984 52.9502 116.0963 0.0000 0.0000 0.0000
# 4 0.0000 0.0000 0.0000 29.3321 0.0000 0.0000
# 5 0.0000 0.0000 0.0000 0.0000 -32.1020 0.0000
# 6 0.0000 0.0000 0.0000 0.0000 0.0000 22.8685
#
#
#
# Elastic Compliance Matrix: (Units=1/GPa)
#
#
# Indices 1 2 3 4 5 6 
#
# 1 0.018512 -0.007338 -0.004913 0.000000 0.000000 0.000000
# 2 -0.007338 0.026088 -0.008625 0.000000 0.000000 0.000000
# 3 -0.004913 -0.008625 0.014739 0.000000 0.000000 0.000000
# 4 0.000000 0.000000 0.000000 0.034092 0.000000 0.000000
# 5 0.000000 0.000000 0.000000 0.000000 -0.031151 0.000000
# 6 0.000000 0.000000 0.000000 0.000000 0.000000 0.043728
#
#
# Mechanical properties :
#
#
# Convention : Reuss Voigt Hill
#
# Bulk Modulus (GPa) = 56.85354 62.02657 59.44006
# Shear Modulus (GPa) = 32.54708 12.14110 22.34409
#
# Velocity S-wave (km/s) = 4.37912 2.67461 3.62838
# Velocity P-wave (km/s) = 7.68550 6.78852 7.25090
#
# Compressibility (1/GPa) = 0.01758905
#
# Stress axis : x y z
#
# Youngs Moduli (GPa) = 54.01776 38.33142 67.84631
#
# Poissons Ratio (x) = 0.28126 0.33333
# Poissons Ratio (y) = 0.39637 0.58515
# Poissons Ratio (z) = 0.26539 0.33060
#
# Static dielectric constant tensor:
#      x y z
#    x 3.063840 0.000000 0.000000 
#    y 0.000000 3.135010 0.000000 
#    z 0.000000 0.000000 3.317300 
# 
# 
# High freq. dielectric constant tensor:
#      x y z
#    x 1.636450 0.000000 0.000000 
#    y 0.000000 1.648110 0.000000 
#    z 0.000000 0.000000 1.653490 
# 
# From -- ./inp_files/34564.got.cif
#   From: 2010.03.12/outbox.cif.g09.slc.cpg/sg47_18_cif.got.tgz:34564.got - 2010.04.14 03:12:58.
