data_PCOD8195145
_publ_section_title
;
Structure prediction by ZEFSAII (Michael W. Deem and Ramdas Pophale) SiO2 
 PCOD8195145
Probable space group: P M M M
;
_chemical_formula_sum "Si O2"
_cell_formula_units_Z 44
_cell_length_a 9.180336
_cell_length_b 15.694259
_cell_length_c 16.812659
_cell_angle_alpha 90.000000
_cell_angle_beta 90.000000
_cell_angle_gamma 90.000000
_cell_volume 2422.343882
_symmetry_space_group_name_H-M "P M M M"
_symmetry_group_IT_number 47
_symmetry_cell_setting 'orthorhombic'
loop_
_space_group_symop_operation_xyz
x,y,z
-x,-y,z
x,-y,-z
-x,y,-z
-x,-y,-z
x,y,-z
-x,y,z
x,-y,z
loop_
_atom_site_type_symbol
_atom_site_label
_atom_site_fract_x
_atom_site_fract_y
_atom_site_fract_z
Si Si1 0.170882 0.904722 0.091795
Si Si2 0.665977 0.771723 0.200131
Si Si3 0.332269 0.191905 0.379906
Si Si4 0.831141 0.361659 0.411986
Si Si5 0.158191 0.096718 0.500000
Si Si6 0.331990 0.592723 0.261025
O O1 0.242660 0.827156 0.138902
O O2 0.000000 0.897858 0.105424
O O3 0.223594 0.000000 0.118898
O O4 0.211572 0.891884 0.000000
O O5 0.500000 0.772616 0.170461
O O6 0.683556 0.815818 0.285425
O O7 0.722236 0.672398 0.206444
O O8 0.500000 0.195797 0.405550
O O9 0.249859 0.272383 0.415384
O O10 0.252687 0.112978 0.420754
O O11 0.815765 0.404330 0.500000
O O12 0.757180 0.417262 0.342880
O O13 0.000000 0.349553 0.389905
O O14 0.000000 0.145620 0.500000
O O15 0.118658 0.000000 0.500000
O O16 0.500000 0.612521 0.283518
O O17 0.317701 0.500000 0.217237
#
# Coordination Sequence:
#
# PCOD8195145 Si02
#       6
#     8   8   8   8   4   8
#     4   9  19  36  57  82 111 140 169 204 254 318
#     4   9  19  34  54  81 106 134 174 217 261 309
#     4  10  20  34  51  69  95 133 176 218 260 313
#     4  10  19  30  47  70  97 128 168 221 271 313
#     4  11  23  35  47  67  96 131 174 223 271 315
#     4   9  19  35  52  72 102 140 180 219 262 315
#
# _framework density 18.164224000000001
#
# number of rings (size 3 to 8) (size 9 to 14) (size 15 to 20)
#    0.000    2.455    0.909    3.000    0.000    7.636 
#    0.000    6.364    0.000    0.545    0.000    3.818 
#    0.000    0.000    0.000    0.000    0.000    0.000 
#
# Total GULP energy -545162.849056 kJ/mol
# GULP energy per Si atom -12390.064751 kJ/mol
# Density = 1.812288 g / cm^3
# Si number density = 18.164224 Si / 1000 Ang^3
#
#
#
# Elastic Constant Matrix: (Units=GPa)
#
#
# Indices 1 2 3 4 5 6 
#
# 1 94.9893 51.0351 40.9634 0.0000 0.0000 0.0000
# 2 51.0351 131.5025 60.1436 0.0000 0.0000 0.0000
# 3 40.9634 60.1436 75.2380 0.0000 0.0000 0.0000
# 4 0.0000 0.0000 0.0000 -446.8521 0.0000 0.0000
# 5 0.0000 0.0000 0.0000 0.0000 28.0918 0.0000
# 6 0.0000 0.0000 0.0000 0.0000 0.0000 20.8772
#
#
#
# Elastic Compliance Matrix: (Units=1/GPa)
#
#
# Indices 1 2 3 4 5 6 
#
# 1 0.014561 -0.003192 -0.005376 0.000000 0.000000 0.000000
# 2 -0.003192 0.012687 -0.008403 0.000000 0.000000 0.000000
# 3 -0.005376 -0.008403 0.022936 0.000000 0.000000 0.000000
# 4 0.000000 0.000000 0.000000 -0.002238 0.000000 0.000000
# 5 0.000000 0.000000 0.000000 0.000000 0.035598 0.000000
# 6 0.000000 0.000000 0.000000 0.000000 0.000000 0.047899
#
#
# Mechanical properties :
#
#
# Convention : Reuss Voigt Hill
#
# Bulk Modulus (GPa) = 61.57622 67.33490 64.45556
# Shear Modulus (GPa) = 29.27426 -69.60412 -20.16493
#
# Velocity S-wave (km/s) = 4.01888 -6.19698 -3.33550
# Velocity P-wave (km/s) = 7.45041 3.74871 4.55279
#
# Compressibility (1/GPa) = 0.01624004
#
# Stress axis : x y z
#
# Youngs Moduli (GPa) = 68.67693 78.82280 43.60047
#
# Poissons Ratio (x) = 0.25163 0.23439
# Poissons Ratio (y) = 0.21924 0.36639
# Poissons Ratio (z) = 0.36920 0.66238
#
# Static dielectric constant tensor:
#      x y z
#    x 3.431610 0.000000 0.000000 
#    y 0.000000 3.442260 0.000000 
#    z 0.000000 0.000000 3.164900 
# 
# 
# High freq. dielectric constant tensor:
#      x y z
#    x 1.710660 0.000000 0.000000 
#    y 0.000000 1.706110 0.000000 
#    z 0.000000 0.000000 1.672510 
# 
# From -- ./inp_files/26368.got.cif
#   From: 2010.03.12/outbox.cif.g09.slc.cpg/sg47_14_cif.got.tgz:26368.got - 2010.04.14 03:12:58.
