data_PCOD8195647
_publ_section_title
;
Structure prediction by ZEFSAII (Michael W. Deem and Ramdas Pophale) SiO2 
 PCOD8195647
Probable space group: P M M M
;
_chemical_formula_sum "Si O2"
_cell_formula_units_Z 52
_cell_length_a 18.393820
_cell_length_b 9.016777
_cell_length_c 18.624044
_cell_angle_alpha 90.000000
_cell_angle_beta 90.000000
_cell_angle_gamma 90.000000
_cell_volume 3088.853069
_symmetry_space_group_name_H-M "P M M M"
_symmetry_group_IT_number 47
_symmetry_cell_setting 'orthorhombic'
loop_
_space_group_symop_operation_xyz
x,y,z
-x,-y,z
x,-y,-z
-x,y,-z
-x,-y,-z
x,y,-z
-x,y,z
x,-y,z
loop_
_atom_site_type_symbol
_atom_site_label
_atom_site_fract_x
_atom_site_fract_y
_atom_site_fract_z
Si Si1 0.659278 0.825653 0.919762
Si Si2 0.283232 0.325039 0.293535
Si Si3 0.084699 0.670659 0.081661
Si Si4 0.419126 0.671086 0.801230
Si Si5 0.202108 0.825545 0.827796
Si Si6 0.646970 0.173567 0.583474
Si Si7 0.500000 0.334127 0.415226
O O1 0.592418 0.758319 0.875476
O O2 0.735259 0.779582 0.883578
O O3 0.649593 0.000000 0.920814
O O4 0.658446 0.760028 0.000000
O O5 0.271928 0.500000 0.301597
O O6 0.359568 0.279662 0.256671
O O7 0.216698 0.256884 0.247933
O O8 0.287087 0.248824 0.372016
O O9 0.107229 0.500000 0.092907
O O10 0.126503 0.772537 0.138488
O O11 0.000000 0.692905 0.097161
O O12 0.102828 0.719792 0.000000
O O13 0.500000 0.705936 0.771148
O O14 0.409410 0.500000 0.819939
O O15 0.199233 0.000000 0.813330
O O16 0.662322 0.204722 0.500000
O O17 0.571479 0.246789 0.609459
O O18 0.642763 0.000000 0.599959
O O19 0.500000 0.500000 0.380342
O O20 0.500000 0.348510 0.500000
#
# Coordination Sequence:
#
# PCOD8195647 Si02
#       7
#     8   8   8   8   8   8   4
#     4   9  18  31  45  62  84 112 148 189 233 279
#     4  10  20  33  50  68  90 123 160 197 240 291
#     4   9  18  32  50  74 104 135 165 198 237 282
#     4   9  19  33  45  60  82 109 146 193 239 280
#     4  10  19  32  49  69  96 126 159 197 237 284
#     4  10  20  33  48  69  96 122 153 197 247 296
#     4   9  17  29  45  65  89 119 154 191 236 291
#
# _framework density 16.834727999999998
#
# number of rings (size 3 to 8) (size 9 to 14) (size 15 to 20)
#    0.000    2.538    0.000    2.538    1.077    5.231 
#    0.000    2.308    0.000    0.000    0.000    0.000 
#    0.000    0.615    0.000    6.462    0.000    2.769 
#
# Total GULP energy -644823.671646 kJ/mol
# GULP energy per Si atom -12400.455224 kJ/mol
# Density = 1.679641 g / cm^3
# Si number density = 16.834728 Si / 1000 Ang^3
#
#
#
# Elastic Constant Matrix: (Units=GPa)
#
#
# Indices 1 2 3 4 5 6 
#
# 1 58.6524 31.3329 30.1707 0.0000 0.0000 0.0000
# 2 31.3329 82.1616 46.1823 0.0000 0.0000 0.0000
# 3 30.1707 46.1823 83.8130 0.0000 0.0000 0.0000
# 4 0.0000 0.0000 0.0000 29.0706 0.0000 0.0000
# 5 0.0000 0.0000 0.0000 0.0000 26.4804 0.0000
# 6 0.0000 0.0000 0.0000 0.0000 0.0000 26.3549
#
#
#
# Elastic Compliance Matrix: (Units=1/GPa)
#
#
# Indices 1 2 3 4 5 6 
#
# 1 0.022739 -0.005897 -0.004936 0.000000 0.000000 0.000000
# 2 -0.005897 0.019162 -0.008436 0.000000 0.000000 0.000000
# 3 -0.004936 -0.008436 0.018356 0.000000 0.000000 0.000000
# 4 0.000000 0.000000 0.000000 0.034399 0.000000 0.000000
# 5 0.000000 0.000000 0.000000 0.000000 0.037764 0.000000
# 6 0.000000 0.000000 0.000000 0.000000 0.000000 0.037944
#
#
# Mechanical properties :
#
#
# Convention : Reuss Voigt Hill
#
# Bulk Modulus (GPa) = 46.04173 48.88875 47.46524
# Shear Modulus (GPa) = 23.13307 24.17724 23.65515
#
# Velocity S-wave (km/s) = 3.71094 3.79377 3.75259
# Velocity P-wave (km/s) = 6.76536 6.94937 6.85798
#
# Compressibility (1/GPa) = 0.02171943
#
# Stress axis : x y z
#
# Youngs Moduli (GPa) = 43.97718 52.18767 54.47720
#
# Poissons Ratio (x) = 0.30776 0.26890
# Poissons Ratio (y) = 0.25934 0.45954
# Poissons Ratio (z) = 0.21707 0.44023
#
# Static dielectric constant tensor:
#      x y z
#    x 2.914880 0.000000 0.000000 
#    y 0.000000 3.158650 0.000000 
#    z 0.000000 0.000000 3.188320 
# 
# 
# High freq. dielectric constant tensor:
#      x y z
#    x 1.612120 0.000000 0.000000 
#    y 0.000000 1.657160 0.000000 
#    z 0.000000 0.000000 1.644250 
# 
# From -- ./inp_files/9518.got.cif
#   From: 2010.03.12/outbox.cif.g09.slc.cpg/sg47_5_cif.got.tgz:9518.got - 2010.04.14 03:12:58.
