data_PCOD8195685
_publ_section_title
;
Structure prediction by ZEFSAII (Michael W. Deem and Ramdas Pophale) SiO2 
 PCOD8195685
Probable space group: P M M M
;
_chemical_formula_sum "Si O2"
_cell_formula_units_Z 32
_cell_length_a 9.665450
_cell_length_b 22.140920
_cell_length_c 8.068157
_cell_angle_alpha 90.000000
_cell_angle_beta 90.000000
_cell_angle_gamma 90.000000
_cell_volume 1726.601373
_symmetry_space_group_name_H-M "P M M M"
_symmetry_group_IT_number 47
_symmetry_cell_setting 'orthorhombic'
loop_
_space_group_symop_operation_xyz
x,y,z
-x,-y,z
x,-y,-z
-x,y,-z
-x,-y,-z
x,y,-z
-x,y,z
x,-y,z
loop_
_atom_site_type_symbol
_atom_site_label
_atom_site_fract_x
_atom_site_fract_y
_atom_site_fract_z
Si Si1 0.845125 0.232201 0.310620
Si Si2 0.335879 0.000000 0.313528
Si Si3 0.658666 0.127521 0.809003
Si Si4 0.834922 0.568549 0.500000
Si Si5 0.164467 0.358441 0.183577
O O1 0.848583 0.253473 0.500000
O O2 0.746991 0.174758 0.294540
O O3 0.786922 0.289076 0.207021
O O4 0.000000 0.214592 0.250882
O O5 0.281855 0.060161 0.221930
O O6 0.500000 0.000000 0.307986
O O7 0.278820 0.000000 0.500000
O O8 0.500000 0.131774 0.748592
O O9 0.673011 0.143953 0.000000
O O10 0.781567 0.500000 0.500000
O O11 0.775440 0.599916 0.332021
O O12 0.000000 0.571599 0.500000
O O13 0.000000 0.360668 0.193667
O O14 0.214636 0.380437 0.000000
#
# Coordination Sequence:
#
# PCOD8195685 Si02
#       5
#     8   4   8   4   8
#     4  10  19  32  50  71  97 130 167 205 246 295
#     4   9  17  31  50  69  92 125 160 196 246 301
#     4  10  20  33  50  73  99 126 160 203 248 296
#     4   9  16  26  40  62  93 126 163 202 238 287
#     4   9  16  27  43  63  91 127 163 200 245 293
#
# _framework density 18.533521
#
# number of rings (size 3 to 8) (size 9 to 14) (size 15 to 20)
#    0.000    2.500    1.250    1.875    0.000    5.000 
#    0.000    3.125    0.000    3.750    0.000    0.000 
#    0.000    2.000    0.000    5.250    0.000    5.000 
#
# Total GULP energy -396675.193628 kJ/mol
# GULP energy per Si atom -12396.099801 kJ/mol
# Density = 1.849134 g / cm^3
# Si number density = 18.533521 Si / 1000 Ang^3
#
#
#
# Elastic Constant Matrix: (Units=GPa)
#
#
# Indices 1 2 3 4 5 6 
#
# 1 29.9000 30.2669 16.6137 0.0000 0.0000 0.0000
# 2 30.2669 133.8857 57.8640 0.0000 0.0000 0.0000
# 3 16.6137 57.8640 115.7913 0.0000 0.0000 0.0000
# 4 0.0000 0.0000 0.0000 28.4514 0.0000 0.0000
# 5 0.0000 0.0000 0.0000 0.0000 14.8739 0.0000
# 6 0.0000 0.0000 0.0000 0.0000 0.0000 -6.7547
#
#
#
# Elastic Compliance Matrix: (Units=1/GPa)
#
#
# Indices 1 2 3 4 5 6 
#
# 1 0.043630 -0.009129 -0.001698 0.000000 0.000000 0.000000
# 2 -0.009129 0.011437 -0.004405 0.000000 0.000000 0.000000
# 3 -0.001698 -0.004405 0.011081 0.000000 0.000000 0.000000
# 4 0.000000 0.000000 0.000000 0.035148 0.000000 0.000000
# 5 0.000000 0.000000 0.000000 0.000000 0.067232 0.000000
# 6 0.000000 0.000000 0.000000 0.000000 0.000000 -0.148046
#
#
# Mechanical properties :
#
#
# Convention : Reuss Voigt Hill
#
# Bulk Modulus (GPa) = 28.02486 54.34071 41.18278
# Shear Modulus (GPa) = 79.56662 18.96964 49.26813
#
# Velocity S-wave (km/s) = 6.55930 3.20274 5.16149
# Velocity P-wave (km/s) = 8.51586 6.56206 7.60199
#
# Compressibility (1/GPa) = 0.03568261
#
# Stress axis : x y z
#
# Youngs Moduli (GPa) = 22.92025 87.43647 90.24181
#
# Poissons Ratio (x) = 0.79824 0.15321
# Poissons Ratio (y) = 0.20925 0.39755
# Poissons Ratio (z) = 0.03891 0.38520
#
# Static dielectric constant tensor:
#      x y z
#    x 2.802660 0.000000 0.000000 
#    y 0.000000 3.469870 0.000000 
#    z 0.000000 0.000000 3.611810 
# 
# 
# High freq. dielectric constant tensor:
#      x y z
#    x 1.644580 0.000000 0.000000 
#    y 0.000000 1.723390 0.000000 
#    z 0.000000 0.000000 1.736900 
# 
# From -- ./inp_files/3567.got.cif
#   From: 2010.03.12/outbox.cif.g09.slc.cpg/sg47_2_cif.got.tgz:3567.got - 2010.04.14 03:12:58.
