data_PCOD8195394
_publ_section_title
;
Structure prediction by ZEFSAII (Michael W. Deem and Ramdas Pophale) SiO2 
 PCOD8195394
Probable space group: P M M M
;
_chemical_formula_sum "Si O2"
_cell_formula_units_Z 44
_cell_length_a 9.874220
_cell_length_b 31.918417
_cell_length_c 7.888019
_cell_angle_alpha 90.000000
_cell_angle_beta 90.000000
_cell_angle_gamma 90.000000
_cell_volume 2486.062779
_symmetry_space_group_name_H-M "P M M M"
_symmetry_group_IT_number 47
_symmetry_cell_setting 'orthorhombic'
loop_
_space_group_symop_operation_xyz
x,y,z
-x,-y,z
x,-y,-z
-x,y,-z
-x,-y,-z
x,y,-z
-x,y,z
x,-y,z
loop_
_atom_site_type_symbol
_atom_site_label
_atom_site_fract_x
_atom_site_fract_y
_atom_site_fract_z
Si Si1 0.839196 0.706078 0.186534
Si Si2 0.838664 0.853974 0.500000
Si Si3 0.837750 0.909754 0.190850
Si Si4 0.653536 0.452580 0.801065
Si Si5 0.150663 0.381689 0.306832
Si Si6 0.838129 0.240518 0.500000
Si Si7 0.146655 0.000000 0.199271
O O1 0.787593 0.658185 0.207067
O O2 0.779994 0.736552 0.331676
O O3 0.000000 0.705334 0.204309
O O4 0.794491 0.722405 0.000000
O O5 0.784082 0.876547 0.329205
O O6 0.782246 0.806774 0.500000
O O7 0.000000 0.854330 0.500000
O O8 0.000000 0.912102 0.192183
O O9 0.778711 0.955990 0.245121
O O10 0.788947 0.897107 0.000000
O O11 0.500000 0.442087 0.746935
O O12 0.689406 0.500000 0.747277
O O13 0.754228 0.421793 0.706285
O O14 0.671818 0.446802 0.000000
O O15 0.141387 0.367211 0.500000
O O16 0.000000 0.393365 0.239086
O O17 0.000000 0.240707 0.500000
O O18 0.000000 0.000000 0.290718
O O19 0.123693 0.000000 0.000000
#
# Coordination Sequence:
#
# PCOD8195394 Si02
#       7
#     8   4   8   8   8   4   4
#     4   9  16  27  43  59  77 103 132 167 211 251
#     4   9  16  21  28  41  58  80 104 137 182 238
#     4   8  13  20  27  36  51  72 101 137 178 226
#     4   9  19  35  51  68  94 126 156 185 219 264
#     4  10  19  31  48  70  94 117 149 192 225 259
#     4   9  16  26  35  50  73  92 119 156 198 254
#     4   7  10  17  27  35  46  67  97 136 177 219
#
# _framework density 17.698667
#
# number of rings (size 3 to 8) (size 9 to 14) (size 15 to 20)
#    0.000    3.182    0.909    2.182    0.000    3.273 
#    0.000    8.182    0.000    0.000    0.000    0.000 
#    0.000    0.000    0.000    0.000    0.000    0.000 
#
# Total GULP energy -545132.948341 kJ/mol
# GULP energy per Si atom -12389.385190 kJ/mol
# Density = 1.765838 g / cm^3
# Si number density = 17.698667 Si / 1000 Ang^3
#
#
#
# Elastic Constant Matrix: (Units=GPa)
#
#
# Indices 1 2 3 4 5 6 
#
# 1 22.6972 28.4636 14.4668 0.0000 0.0000 0.0000
# 2 28.4636 146.2917 70.8706 0.0000 0.0000 0.0000
# 3 14.4668 70.8706 117.4521 0.0000 0.0000 0.0000
# 4 0.0000 0.0000 0.0000 29.4692 0.0000 0.0000
# 5 0.0000 0.0000 0.0000 0.0000 9.1601 0.0000
# 6 0.0000 0.0000 0.0000 0.0000 0.0000 -0.7229
#
#
#
# Elastic Compliance Matrix: (Units=1/GPa)
#
#
# Indices 1 2 3 4 5 6 
#
# 1 0.058297 -0.011112 -0.000475 0.000000 0.000000 0.000000
# 2 -0.011112 0.011777 -0.005738 0.000000 0.000000 0.000000
# 3 -0.000475 -0.005738 0.012035 0.000000 0.000000 0.000000
# 4 0.000000 0.000000 0.000000 0.033934 0.000000 0.000000
# 5 0.000000 0.000000 0.000000 0.000000 0.109170 0.000000
# 6 0.000000 0.000000 0.000000 0.000000 0.000000 -1.383226
#
#
# Mechanical properties :
#
#
# Convention : Reuss Voigt Hill
#
# Bulk Modulus (GPa) = 21.07125 57.11591 39.09358
# Shear Modulus (GPa) = -4.51450 19.09059 7.28804
#
# Velocity S-wave (km/s) = -1.59884 3.28784 2.03145
# Velocity P-wave (km/s) = 2.91942 6.83773 5.25726
#
# Compressibility (1/GPa) = 0.04745804
#
# Stress axis : x y z
#
# Youngs Moduli (GPa) = 17.15362 84.90833 83.09229
#
# Poissons Ratio (x) = 0.94354 0.03949
# Poissons Ratio (y) = 0.19062 0.47676
# Poissons Ratio (z) = 0.00815 0.48718
#
# Static dielectric constant tensor:
#      x y z
#    x 2.555620 0.000000 0.000000 
#    y 0.000000 3.528310 0.000000 
#    z 0.000000 0.000000 3.387960 
# 
# 
# High freq. dielectric constant tensor:
#      x y z
#    x 1.588660 0.000000 0.000000 
#    y 0.000000 1.691920 0.000000 
#    z 0.000000 0.000000 1.693920 
# 
# From -- ./inp_files/2356.got.cif
#   From: 2010.03.12/outbox.cif.g09.slc.cpg/sg47_2_cif.got.tgz:2356.got - 2010.04.14 03:12:58.
