data_PCOD8195127
_publ_section_title
;
Structure prediction by ZEFSAII (Michael W. Deem and Ramdas Pophale) SiO2 
 PCOD8195127
Probable space group: P M M M
;
_chemical_formula_sum "Si O2"
_cell_formula_units_Z 64
_cell_length_a 8.967574
_cell_length_b 18.082249
_cell_length_c 23.180627
_cell_angle_alpha 90.000000
_cell_angle_beta 90.000000
_cell_angle_gamma 90.000000
_cell_volume 3758.829211
_symmetry_space_group_name_H-M "P M M M"
_symmetry_group_IT_number 47
_symmetry_cell_setting 'orthorhombic'
loop_
_space_group_symop_operation_xyz
x,y,z
-x,-y,z
x,-y,-z
-x,y,-z
-x,-y,-z
x,y,-z
-x,y,z
x,-y,z
loop_
_atom_site_type_symbol
_atom_site_label
_atom_site_fract_x
_atom_site_fract_y
_atom_site_fract_z
Si Si1 0.330131 0.152155 0.335393
Si Si2 0.836515 0.083351 0.757058
Si Si3 0.673601 0.180762 0.842067
Si Si4 0.325881 0.630122 0.564369
Si Si5 0.171155 0.417095 0.322694
Si Si6 0.832491 0.214132 0.435703
Si Si7 0.825733 0.916672 0.933271
Si Si8 0.671625 0.708446 0.253081
O O1 0.500000 0.125536 0.334765
O O2 0.223925 0.089888 0.307880
O O3 0.273652 0.160050 0.400234
O O4 0.307527 0.229167 0.301551
O O5 0.708283 0.117323 0.796366
O O6 0.000000 0.122047 0.763817
O O7 0.855609 0.000000 0.775872
O O8 0.500000 0.183564 0.855723
O O9 0.755577 0.154237 0.900297
O O10 0.722547 0.258418 0.810308
O O11 0.305292 0.593602 0.500000
O O12 0.500000 0.645163 0.576255
O O13 0.261411 0.581641 0.616703
O O14 0.236224 0.705258 0.566013
O O15 0.183356 0.500000 0.297377
O O16 0.233658 0.362270 0.273218
O O17 0.000000 0.395561 0.335231
O O18 0.835266 0.182341 0.500000
O O19 0.000000 0.217289 0.409968
O O20 0.000000 0.914187 0.920429
O O21 0.767610 0.000000 0.915672
O O22 0.789845 0.903393 0.000000
O O23 0.500000 0.683993 0.249042
#
# Coordination Sequence:
#
# PCOD8195127 Si02
#       8
#     8   8   8   8   8   8   8   8
#     4  10  19  31  49  70  91 116 149 191 237 285
#     4  10  20  32  47  68  94 125 159 194 237 286
#     4  10  20  32  49  73 100 130 167 209 245 279
#     4  10  20  33  49  68  91 121 156 193 236 291
#     4  11  23  35  49  70  95 124 158 200 249 298
#     4  10  19  30  47  69  90 114 146 186 232 283
#     4   9  18  32  49  72 106 146 182 210 238 279
#     4   9  19  34  49  68  93 123 159 197 240 289
#
# _framework density 17.026579000000002
#
# number of rings (size 3 to 8) (size 9 to 14) (size 15 to 20)
#    0.000    2.125    1.250    3.750    0.000    8.250 
#    0.000    1.875    0.000    0.375    0.000    2.625 
#    0.000    0.500    0.000    5.500    0.000    4.000 
#
# Total GULP energy -792902.307480 kJ/mol
# GULP energy per Si atom -12389.098554 kJ/mol
# Density = 1.698783 g / cm^3
# Si number density = 17.026579 Si / 1000 Ang^3
#
#
#
# Elastic Constant Matrix: (Units=GPa)
#
#
# Indices 1 2 3 4 5 6 
#
# 1 71.8171 25.2775 38.0753 0.0000 0.0000 0.0000
# 2 25.2775 52.8670 38.5035 0.0000 0.0000 0.0000
# 3 38.0753 38.5035 89.6646 0.0000 0.0000 0.0000
# 4 0.0000 0.0000 0.0000 21.6175 0.0000 0.0000
# 5 0.0000 0.0000 0.0000 0.0000 29.5772 0.0000
# 6 0.0000 0.0000 0.0000 0.0000 0.0000 14.0457
#
#
#
# Elastic Compliance Matrix: (Units=1/GPa)
#
#
# Indices 1 2 3 4 5 6 
#
# 1 0.018707 -0.004597 -0.005970 0.000000 0.000000 0.000000
# 2 -0.004597 0.028653 -0.010352 0.000000 0.000000 0.000000
# 3 -0.005970 -0.010352 0.018133 0.000000 0.000000 0.000000
# 4 0.000000 0.000000 0.000000 0.046259 0.000000 0.000000
# 5 0.000000 0.000000 0.000000 0.000000 0.033810 0.000000
# 6 0.000000 0.000000 0.000000 0.000000 0.000000 0.071196
#
#
# Mechanical properties :
#
#
# Convention : Reuss Voigt Hill
#
# Bulk Modulus (GPa) = 42.27298 46.45125 44.36212
# Shear Modulus (GPa) = 18.76314 20.54760 19.65537
#
# Velocity S-wave (km/s) = 3.32323 3.47767 3.40132
# Velocity P-wave (km/s) = 6.29338 6.59290 6.44488
#
# Compressibility (1/GPa) = 0.02365577
#
# Stress axis : x y z
#
# Youngs Moduli (GPa) = 53.45520 34.90085 55.14769
#
# Poissons Ratio (x) = 0.16042 0.32923
# Poissons Ratio (y) = 0.24571 0.57089
# Poissons Ratio (z) = 0.31913 0.36129
#
# Static dielectric constant tensor:
#      x y z
#    x 3.425640 0.000000 0.000000 
#    y 0.000000 3.048550 0.000000 
#    z 0.000000 0.000000 3.353600 
# 
# 
# High freq. dielectric constant tensor:
#      x y z
#    x 1.671680 0.000000 0.000000 
#    y 0.000000 1.619820 0.000000 
#    z 0.000000 0.000000 1.641290 
# 
# From -- ./inp_files/10230.got.cif
#   From: 2010.03.12/outbox.cif.g09.slc.cpg/sg47_6_cif.got.tgz:10230.got - 2010.04.14 03:12:58.
