data_PCOD8195321
_publ_section_title
;
Structure prediction by ZEFSAII (Michael W. Deem and Ramdas Pophale) SiO2 
 PCOD8195321
Probable space group: P M M M
;
_chemical_formula_sum "Si O2"
_cell_formula_units_Z 36
_cell_length_a 7.689570
_cell_length_b 9.896470
_cell_length_c 26.751388
_cell_angle_alpha 90.000000
_cell_angle_beta 90.000000
_cell_angle_gamma 90.000000
_cell_volume 2035.769895
_symmetry_space_group_name_H-M "P M M M"
_symmetry_group_IT_number 47
_symmetry_cell_setting 'orthorhombic'
loop_
_space_group_symop_operation_xyz
x,y,z
-x,-y,z
x,-y,-z
-x,y,-z
-x,-y,-z
x,y,-z
-x,y,z
x,-y,z
loop_
_atom_site_type_symbol
_atom_site_label
_atom_site_fract_x
_atom_site_fract_y
_atom_site_fract_z
Si Si1 0.000000 0.839330 0.074098
Si Si2 0.000000 0.838371 0.186334
Si Si3 0.701743 0.839786 0.000000
Si Si4 0.690313 0.159667 0.746570
Si Si5 0.295141 0.347895 0.443702
Si Si6 0.802592 0.149408 0.358407
O O1 0.000000 0.780311 0.130159
O O2 0.180652 0.791140 0.047477
O O3 0.000000 0.000000 0.073449
O O4 0.831137 0.780105 0.215109
O O5 0.000000 0.000000 0.184734
O O6 0.500000 0.781154 0.000000
O O7 0.685076 0.000000 0.000000
O O8 0.500000 0.198101 0.767380
O O9 0.706778 0.215068 0.689707
O O10 0.718241 0.000000 0.743068
O O11 0.236847 0.310802 0.500000
O O12 0.500000 0.336133 0.438443
O O13 0.234101 0.500000 0.430861
O O14 0.207285 0.244273 0.406297
O O15 0.000000 0.134589 0.341553
O O16 0.726882 0.000000 0.371779
#
# Coordination Sequence:
#
# PCOD8195321 Si02
#       6
#     4   4   4   8   8   8
#     4   8  14  21  30  44  64  92 126 171 219 258
#     4   9  15  24  35  52  76  98 131 176 221 270
#     4   8  13  21  30  41  61  92 131 171 212 257
#     4   9  16  26  40  57  79 107 136 172 220 267
#     4   9  19  35  51  67  89 116 147 185 227 272
#     4  10  19  31  47  67  91 116 146 185 226 274
#
# _framework density 17.683727999999999
#
# number of rings (size 3 to 8) (size 9 to 14) (size 15 to 20)
#    0.000    3.000    1.111    2.000    0.000    3.556 
#    0.000    7.778    0.000    0.000    0.000    0.000 
#    0.000    0.000    0.000    0.000    0.000    0.000 
#
# Total GULP energy -446035.515441 kJ/mol
# GULP energy per Si atom -12389.875429 kJ/mol
# Density = 1.764348 g / cm^3
# Si number density = 17.683728 Si / 1000 Ang^3
#
#
#
# Elastic Constant Matrix: (Units=GPa)
#
#
# Indices 1 2 3 4 5 6 
#
# 1 127.7142 15.7080 64.0364 0.0000 0.0000 0.0000
# 2 15.7080 30.2320 33.6741 0.0000 0.0000 0.0000
# 3 64.0364 33.6741 146.0291 0.0000 0.0000 0.0000
# 4 0.0000 0.0000 0.0000 -1.0934 0.0000 0.0000
# 5 0.0000 0.0000 0.0000 0.0000 20.9107 0.0000
# 6 0.0000 0.0000 0.0000 0.0000 0.0000 9.6937
#
#
#
# Elastic Compliance Matrix: (Units=1/GPa)
#
#
# Indices 1 2 3 4 5 6 
#
# 1 0.010041 -0.000421 -0.004306 0.000000 0.000000 0.000000
# 2 -0.000421 0.044528 -0.010084 0.000000 0.000000 0.000000
# 3 -0.004306 -0.010084 0.011061 0.000000 0.000000 0.000000
# 4 0.000000 0.000000 0.000000 -0.914597 0.000000 0.000000
# 5 0.000000 0.000000 0.000000 0.000000 0.047822 0.000000
# 6 0.000000 0.000000 0.000000 0.000000 0.000000 0.103160
#
#
# Mechanical properties :
#
#
# Convention : Reuss Voigt Hill
#
# Bulk Modulus (GPa) = 27.77054 58.97914 43.37484
# Shear Modulus (GPa) = -7.61776 18.60598 5.49411
#
# Velocity S-wave (km/s) = -2.07777 3.24721 1.76454
# Velocity P-wave (km/s) = 3.15942 6.89085 5.36030
#
# Compressibility (1/GPa) = 0.03600938
#
# Stress axis : x y z
#
# Youngs Moduli (GPa) = 99.59363 22.45795 90.40385
#
# Poissons Ratio (x) = 0.00945 0.38928
# Poissons Ratio (y) = 0.04190 0.91159
# Poissons Ratio (z) = 0.42886 0.22646
#
# Static dielectric constant tensor:
#      x y z
#    x 3.450160 0.000000 0.000000 
#    y 0.000000 2.739050 0.000000 
#    z 0.000000 0.000000 3.482040 
# 
# 
# High freq. dielectric constant tensor:
#      x y z
#    x 1.698110 0.000000 0.000000 
#    y 0.000000 1.603120 0.000000 
#    z 0.000000 0.000000 1.685410 
# 
# From -- ./inp_files/31783.got.cif
#   From: 2010.03.12/outbox.cif.g09.slc.cpg/sg47_16_cif.got.tgz:31783.got - 2010.04.14 03:12:58.
