data_PCOD8195306
_publ_section_title
;
Structure prediction by ZEFSAII (Michael W. Deem and Ramdas Pophale) SiO2 
 PCOD8195306
Probable space group: P M M M
;
_chemical_formula_sum "Si O2"
_cell_formula_units_Z 52
_cell_length_a 8.831043
_cell_length_b 26.271457
_cell_length_c 12.811760
_cell_angle_alpha 90.000000
_cell_angle_beta 90.000000
_cell_angle_gamma 90.000000
_cell_volume 2972.384262
_symmetry_space_group_name_H-M "P M M M"
_symmetry_group_IT_number 47
_symmetry_cell_setting 'orthorhombic'
loop_
_space_group_symop_operation_xyz
x,y,z
-x,-y,z
x,-y,-z
-x,y,-z
-x,-y,-z
x,y,-z
-x,y,z
x,-y,z
loop_
_atom_site_type_symbol
_atom_site_label
_atom_site_fract_x
_atom_site_fract_y
_atom_site_fract_z
Si Si1 0.170639 0.500000 0.123957
Si Si2 0.179615 0.767294 0.385645
Si Si3 0.319917 0.881651 0.000000
Si Si4 0.179635 0.295290 0.188984
Si Si5 0.679872 0.765561 0.000000
Si Si6 0.679408 0.057407 0.199366
Si Si7 0.323618 0.396703 0.877288
Si Si8 0.175537 0.118682 0.379597
O O1 0.258998 0.549718 0.163954
O O2 0.000000 0.500000 0.168585
O O3 0.168663 0.500000 0.000000
O O4 0.242058 0.750813 0.500000
O O5 0.234981 0.727056 0.299827
O O6 0.236778 0.824119 0.357938
O O7 0.000000 0.769327 0.389959
O O8 0.255309 0.909593 0.102895
O O9 0.500000 0.883536 0.000000
O O10 0.262884 0.823585 0.000000
O O11 0.257005 0.261711 0.101274
O O12 0.235115 0.353130 0.184421
O O13 0.000000 0.293133 0.174890
O O14 0.500000 0.760811 0.000000
O O15 0.500000 0.057972 0.196663
O O16 0.731902 0.079881 0.309131
O O17 0.741043 0.000000 0.188243
O O18 0.500000 0.393994 0.850899
O O19 0.293676 0.389487 0.000000
O O20 0.202493 0.103909 0.500000
O O21 0.000000 0.114349 0.350030
#
# Coordination Sequence:
#
# PCOD8195306 Si02
#       8
#     4   8   4   8   4   8   8   8
#     4   9  17  29  47  69  96 131 174 217 246 282
#     4   8  16  32  52  73  96 125 162 203 246 290
#     4   9  19  35  52  68  91 127 164 195 236 291
#     4  11  20  30  49  74 100 129 164 205 243 287
#     4  11  21  32  47  69  99 130 158 195 244 295
#     4  10  20  34  52  72  94 122 158 199 240 287
#     4  10  19  31  46  67 101 140 171 201 243 293
#     4   9  18  34  54  73  96 125 156 194 244 298
#
# _framework density 17.494373
#
# number of rings (size 3 to 8) (size 9 to 14) (size 15 to 20)
#    0.000    2.385    0.769    3.462    0.000    3.385 
#    0.000    3.462    0.000    4.615    0.000    0.538 
#    0.000    4.308    0.000    0.000    0.000    0.000 
#
# Total GULP energy -644790.827151 kJ/mol
# GULP energy per Si atom -12399.823599 kJ/mol
# Density = 1.745455 g / cm^3
# Si number density = 17.494373 Si / 1000 Ang^3
#
#
#
# Elastic Constant Matrix: (Units=GPa)
#
#
# Indices 1 2 3 4 5 6 
#
# 1 50.0704 38.4688 28.7682 0.0000 0.0000 0.0000
# 2 38.4688 158.2676 71.2788 0.0000 0.0000 0.0000
# 3 28.7682 71.2788 100.2863 0.0000 0.0000 0.0000
# 4 0.0000 0.0000 0.0000 40.7089 0.0000 0.0000
# 5 0.0000 0.0000 0.0000 0.0000 13.7200 0.0000
# 6 0.0000 0.0000 0.0000 0.0000 0.0000 28.0307
#
#
#
# Elastic Compliance Matrix: (Units=1/GPa)
#
#
# Indices 1 2 3 4 5 6 
#
# 1 0.025773 -0.004316 -0.004325 0.000000 0.000000 0.000000
# 2 -0.004316 0.010016 -0.005881 0.000000 0.000000 0.000000
# 3 -0.004325 -0.005881 0.015392 0.000000 0.000000 0.000000
# 4 0.000000 0.000000 0.000000 0.024565 0.000000 0.000000
# 5 0.000000 0.000000 0.000000 0.000000 0.072886 0.000000
# 6 0.000000 0.000000 0.000000 0.000000 0.000000 0.035675
#
#
# Mechanical properties :
#
#
# Convention : Reuss Voigt Hill
#
# Bulk Modulus (GPa) = 45.17485 65.07287 55.12386
# Shear Modulus (GPa) = 22.65196 27.83250 25.24223
#
# Velocity S-wave (km/s) = 3.60226 3.99299 3.80264
# Velocity P-wave (km/s) = 6.57117 7.65087 7.13148
#
# Compressibility (1/GPa) = 0.02213621
#
# Stress axis : x y z
#
# Youngs Moduli (GPa) = 38.79969 99.83937 64.96883
#
# Poissons Ratio (x) = 0.43096 0.28102
# Poissons Ratio (y) = 0.16748 0.38206
# Poissons Ratio (z) = 0.16782 0.58713
#
# Static dielectric constant tensor:
#      x y z
#    x 3.083950 0.000000 0.000000 
#    y 0.000000 3.445900 0.000000 
#    z 0.000000 0.000000 1.872720 
# 
# 
# High freq. dielectric constant tensor:
#      x y z
#    x 1.661650 0.000000 0.000000 
#    y 0.000000 1.684040 0.000000 
#    z 0.000000 0.000000 1.658950 
# 
# From -- ./inp_files/13350.got.cif
#   From: 2010.03.12/outbox.cif.g09.slc.cpg/sg47_7_cif.got.tgz:13350.got - 2010.04.14 03:12:58.
