data_PCOD8195448
_publ_section_title
;
Structure prediction by ZEFSAII (Michael W. Deem and Ramdas Pophale) SiO2 
 PCOD8195448
Probable space group: P M M M
;
_chemical_formula_sum "Si O2"
_cell_formula_units_Z 52
_cell_length_a 8.646996
_cell_length_b 11.769894
_cell_length_c 27.774561
_cell_angle_alpha 90.000000
_cell_angle_beta 90.000000
_cell_angle_gamma 90.000000
_cell_volume 2826.734458
_symmetry_space_group_name_H-M "P M M M"
_symmetry_group_IT_number 47
_symmetry_cell_setting 'orthorhombic'
loop_
_space_group_symop_operation_xyz
x,y,z
-x,-y,z
x,-y,-z
-x,y,-z
-x,-y,-z
x,y,-z
-x,y,z
x,-y,z
loop_
_atom_site_type_symbol
_atom_site_label
_atom_site_fract_x
_atom_site_fract_y
_atom_site_fract_z
Si Si1 0.818668 0.632931 0.599369
Si Si2 0.326342 0.365416 0.500000
Si Si3 0.179170 0.265030 0.138119
Si Si4 0.821256 0.500000 0.745515
Si Si5 0.681189 0.709351 0.306686
Si Si6 0.324161 0.866732 0.054095
Si Si7 0.678570 0.500000 0.152702
Si Si8 0.817437 0.131146 0.767686
O O1 0.777040 0.500000 0.607152
O O2 0.765973 0.676177 0.546962
O O3 0.724712 0.711559 0.636979
O O4 0.000000 0.653700 0.605426
O O5 0.332904 0.500000 0.500000
O O6 0.500000 0.314929 0.500000
O O7 0.207694 0.190710 0.090994
O O8 0.253830 0.387072 0.128847
O O9 0.243733 0.202203 0.186012
O O10 0.000000 0.283745 0.145664
O O11 0.787243 0.389195 0.714970
O O12 0.710674 0.500000 0.790961
O O13 0.000000 0.500000 0.761720
O O14 0.500000 0.684775 0.299959
O O15 0.728051 0.825838 0.279944
O O16 0.500000 0.835662 0.068035
O O17 0.297342 0.000000 0.057142
O O18 0.287581 0.824052 0.000000
O O19 0.500000 0.500000 0.141988
O O20 0.000000 0.146519 0.760278
O O21 0.773964 0.000000 0.776049
#
# Coordination Sequence:
#
# PCOD8195448 Si02
#       8
#     8   4   8   4   8   8   4   8
#     4  10  19  31  49  72 104 144 183 223 270 326
#     4   9  17  29  45  69 104 139 178 225 270 323
#     4  11  22  37  59  85 114 147 182 225 274 327
#     4  12  22  36  54  76 108 146 184 224 267 323
#     4  12  23  34  53  80 109 144 185 228 273 322
#     4   9  19  37  60  85 114 148 186 230 278 325
#     4  12  24  38  57  83 111 147 186 223 267 326
#     4  10  22  39  57  78 109 147 182 221 273 328
#
# _framework density 18.395786999999999
#
# number of rings (size 3 to 8) (size 9 to 14) (size 15 to 20)
#    0.000    1.462    2.308    4.846    0.000    3.692 
#    0.000    1.154    0.000    2.308    0.000    0.538 
#    0.000    4.308    0.000    0.000    0.000    0.000 
#
# Total GULP energy -644928.921463 kJ/mol
# GULP energy per Si atom -12402.479259 kJ/mol
# Density = 1.835392 g / cm^3
# Si number density = 18.395787 Si / 1000 Ang^3
#
#
#
# Elastic Constant Matrix: (Units=GPa)
#
#
# Indices 1 2 3 4 5 6 
#
# 1 81.6189 36.2739 33.7284 0.0000 0.0000 0.0000
# 2 36.2739 79.7894 39.1176 0.0000 0.0000 0.0000
# 3 33.7284 39.1176 114.5806 0.0000 0.0000 0.0000
# 4 0.0000 0.0000 0.0000 28.5555 0.0000 0.0000
# 5 0.0000 0.0000 0.0000 0.0000 34.4568 0.0000
# 6 0.0000 0.0000 0.0000 0.0000 0.0000 31.9612
#
#
#
# Elastic Compliance Matrix: (Units=1/GPa)
#
#
# Indices 1 2 3 4 5 6 
#
# 1 0.016009 -0.005966 -0.002676 0.000000 0.000000 0.000000
# 2 -0.005966 0.017276 -0.004142 0.000000 0.000000 0.000000
# 3 -0.002676 -0.004142 0.010929 0.000000 0.000000 0.000000
# 4 0.000000 0.000000 0.000000 0.035020 0.000000 0.000000
# 5 0.000000 0.000000 0.000000 0.000000 0.029022 0.000000
# 6 0.000000 0.000000 0.000000 0.000000 0.000000 0.031288
#
#
# Mechanical properties :
#
#
# Convention : Reuss Voigt Hill
#
# Bulk Modulus (GPa) = 53.62827 54.91430 54.27129
# Shear Modulus (GPa) = 29.18395 30.11928 29.65162
#
# Velocity S-wave (km/s) = 3.98734 4.05074 4.01917
# Velocity P-wave (km/s) = 7.10030 7.19683 7.14873
#
# Compressibility (1/GPa) = 0.01864688
#
# Stress axis : x y z
#
# Youngs Moduli (GPa) = 62.46314 57.88388 91.49919
#
# Poissons Ratio (x) = 0.34536 0.24482
# Poissons Ratio (y) = 0.37268 0.37896
# Poissons Ratio (z) = 0.16713 0.23974
#
# Static dielectric constant tensor:
#      x y z
#    x 3.359560 0.000000 0.000000 
#    y 0.000000 3.207040 0.000000 
#    z 0.000000 0.000000 3.519330 
# 
# 
# High freq. dielectric constant tensor:
#      x y z
#    x 1.720120 0.000000 0.000000 
#    y 0.000000 1.682870 0.000000 
#    z 0.000000 0.000000 1.717700 
# 
# From -- ./inp_files/33297.got.cif
#   From: 2010.03.12/outbox.cif.g09.slc.cpg/sg47_17_cif.got.tgz:33297.got - 2010.04.14 03:12:58.
