data_PCOD8195945
_publ_section_title
;
Structure prediction by ZEFSAII (Michael W. Deem and Ramdas Pophale) SiO2 
 PCOD8195945
Probable space group: P M M M
;
_chemical_formula_sum "Si O2"
_cell_formula_units_Z 52
_cell_length_a 11.695992
_cell_length_b 28.804277
_cell_length_c 9.573709
_cell_angle_alpha 90.000000
_cell_angle_beta 90.000000
_cell_angle_gamma 90.000000
_cell_volume 3225.330800
_symmetry_space_group_name_H-M "P M M M"
_symmetry_group_IT_number 47
_symmetry_cell_setting 'orthorhombic'
loop_
_space_group_symop_operation_xyz
x,y,z
-x,-y,z
x,-y,-z
-x,y,-z
-x,-y,-z
x,y,-z
-x,y,z
x,-y,z
loop_
_atom_site_type_symbol
_atom_site_label
_atom_site_fract_x
_atom_site_fract_y
_atom_site_fract_z
Si Si1 0.636504 0.364376 0.341186
Si Si2 0.268929 0.906374 0.255979
Si Si3 0.635914 0.448332 0.156544
Si Si4 0.863535 0.944998 0.000000
Si Si5 0.124707 0.054347 0.500000
Si Si6 0.635262 0.278591 0.158754
Si Si7 0.366881 0.189324 0.337086
Si Si8 0.500000 0.945663 0.341934
O O1 0.683678 0.361031 0.500000
O O2 0.500000 0.363462 0.344053
O O3 0.683223 0.411620 0.269493
O O4 0.683947 0.321969 0.247328
O O5 0.194764 0.916567 0.122165
O O6 0.195342 0.930892 0.370046
O O7 0.285290 0.851981 0.285949
O O8 0.392369 0.930174 0.251105
O O9 0.500000 0.447193 0.157630
O O10 0.679127 0.500000 0.197461
O O11 0.678528 0.435359 0.000000
O O12 0.000000 0.938301 0.000000
O O13 0.833438 0.000000 0.000000
O O14 0.000000 0.078263 0.500000
O O15 0.108905 0.000000 0.500000
O O16 0.500000 0.282592 0.150229
O O17 0.670596 0.232559 0.242376
O O18 0.685298 0.278077 0.000000
O O19 0.345536 0.200937 0.500000
O O20 0.500000 0.176094 0.312980
O O21 0.500000 0.923085 0.500000
O O22 0.500000 0.000000 0.360112
#
# Coordination Sequence:
#
# PCOD8195945 Si02
#       8
#     8   8   8   4   4   8   8   4
#     4   9  15  22  32  48  68  96 134 177 224 273
#     4  12  22  37  57  79 105 133 160 198 244 289
#     4   8  13  20  29  41  61  90 127 174 227 277
#     4  11  26  45  59  75 103 136 169 203 236 277
#     4  11  22  37  59  81  99 130 173 203 230 279
#     4   9  17  27  41  57  79 110 144 177 217 277
#     4  10  19  33  49  71  98 122 146 183 236 290
#     4  11  20  33  55  83 109 129 155 193 240 293
#
# _framework density 16.122378000000001
#
# number of rings (size 3 to 8) (size 9 to 14) (size 15 to 20)
#    0.000    2.077    2.308    3.231    1.077    5.538 
#    0.000    2.308    0.000    0.000    0.000    0.000 
#    0.000    0.000    0.000    0.000    0.000    0.000 
#
# Total GULP energy -644445.142165 kJ/mol
# GULP energy per Si atom -12393.175811 kJ/mol
# Density = 1.608568 g / cm^3
# Si number density = 16.122378 Si / 1000 Ang^3
#
#
#
# Elastic Constant Matrix: (Units=GPa)
#
#
# Indices 1 2 3 4 5 6 
#
# 1 55.7186 19.0129 26.3620 0.0000 0.0000 0.0000
# 2 19.0129 109.4585 63.6229 0.0000 0.0000 0.0000
# 3 26.3620 63.6229 142.6295 0.0000 0.0000 0.0000
# 4 0.0000 0.0000 0.0000 34.5282 0.0000 0.0000
# 5 0.0000 0.0000 0.0000 0.0000 23.3438 0.0000
# 6 0.0000 0.0000 0.0000 0.0000 0.0000 9.5193
#
#
#
# Elastic Compliance Matrix: (Units=1/GPa)
#
#
# Indices 1 2 3 4 5 6 
#
# 1 0.019921 -0.001782 -0.002887 0.000000 0.000000 0.000000
# 2 -0.001782 0.012493 -0.005243 0.000000 0.000000 0.000000
# 3 -0.002887 -0.005243 0.009884 0.000000 0.000000 0.000000
# 4 0.000000 0.000000 0.000000 0.028962 0.000000 0.000000
# 5 0.000000 0.000000 0.000000 0.000000 0.042838 0.000000
# 6 0.000000 0.000000 0.000000 0.000000 0.000000 0.105050
#
#
# Mechanical properties :
#
#
# Convention : Reuss Voigt Hill
#
# Bulk Modulus (GPa) = 44.49805 58.42247 51.46026
# Shear Modulus (GPa) = 20.28688 26.73217 23.50952
#
# Velocity S-wave (km/s) = 3.55111 4.07637 3.82277
# Velocity P-wave (km/s) = 6.66888 7.64665 7.17444
#
# Compressibility (1/GPa) = 0.02247290
#
# Stress axis : x y z
#
# Youngs Moduli (GPa) = 50.19721 80.04334 101.17628
#
# Poissons Ratio (x) = 0.14266 0.29210
# Poissons Ratio (y) = 0.08946 0.53051
# Poissons Ratio (z) = 0.14492 0.41970
#
# Static dielectric constant tensor:
#      x y z
#    x 2.635990 0.000000 0.000000 
#    y 0.000000 3.258230 0.000000 
#    z 0.000000 0.000000 3.290960 
# 
# 
# High freq. dielectric constant tensor:
#      x y z
#    x 1.546710 0.000000 0.000000 
#    y 0.000000 1.629270 0.000000 
#    z 0.000000 0.000000 1.635990 
# 
# From -- ./inp_files/4858.got.cif
#   From: 2010.03.12/outbox.cif.g09.slc.cpg/sg47_3_cif.got.tgz:4858.got - 2010.04.14 03:12:58.
