data_PCOD8195894
_publ_section_title
;
Structure prediction by ZEFSAII (Michael W. Deem and Ramdas Pophale) SiO2 
 PCOD8195894
Probable space group: P M M M
;
_chemical_formula_sum "Si O2"
_cell_formula_units_Z 40
_cell_length_a 7.845649
_cell_length_b 27.499469
_cell_length_c 9.066599
_cell_angle_alpha 90.000000
_cell_angle_beta 90.000000
_cell_angle_gamma 90.000000
_cell_volume 1956.129446
_symmetry_space_group_name_H-M "P M M M"
_symmetry_group_IT_number 47
_symmetry_cell_setting 'orthorhombic'
loop_
_space_group_symop_operation_xyz
x,y,z
-x,-y,z
x,-y,-z
-x,y,-z
-x,-y,-z
x,y,-z
-x,y,z
x,-y,z
loop_
_atom_site_type_symbol
_atom_site_label
_atom_site_fract_x
_atom_site_fract_y
_atom_site_fract_z
Si Si1 0.203100 0.811081 0.833954
Si Si2 0.000000 0.554209 0.174991
Si Si3 0.299066 0.000000 0.832896
Si Si4 0.198762 0.285526 0.671925
Si Si5 0.309113 0.379712 0.169936
Si Si6 0.199013 0.904022 0.336333
O O1 0.267198 0.763052 0.750279
O O2 0.279428 0.858333 0.751070
O O3 0.000000 0.812957 0.834925
O O4 0.275290 0.810590 0.000000
O O5 0.829459 0.581706 0.230354
O O6 0.000000 0.500000 0.243417
O O7 0.000000 0.550861 0.000000
O O8 0.229842 0.952962 0.751886
O O9 0.500000 0.000000 0.828836
O O10 0.229803 0.000000 0.000000
O O11 0.236913 0.280370 0.500000
O O12 0.301201 0.330821 0.735888
O O13 0.000000 0.293726 0.704699
O O14 0.500000 0.401741 0.186383
O O15 0.268753 0.366889 0.000000
O O16 0.281178 0.907531 0.500000
O O17 0.000000 0.895102 0.352446
#
# Coordination Sequence:
#
# PCOD8195894 Si02
#       6
#     8   4   4   8   8   8
#     4   9  17  30  52  81 111 143 179 222 273 328
#     4   9  18  34  57  85 117 151 189 238 291 338
#     4  11  24  39  54  74 102 139 182 227 278 334
#     4  10  19  32  53  80 111 148 186 226 276 333
#     4  10  20  34  55  83 114 150 192 236 284 340
#     4  10  20  35  56  82 109 138 178 226 275 331
#
# _framework density 20.448544999999999
#
# number of rings (size 3 to 8) (size 9 to 14) (size 15 to 20)
#    0.000    2.200    1.000    2.400    0.000    7.200 
#    0.000    3.000    0.000    7.200    0.000    1.400 
#    0.000    0.000    0.000    0.000    0.000    0.000 
#
# Total GULP energy -496036.013009 kJ/mol
# GULP energy per Si atom -12400.900325 kJ/mol
# Density = 2.040200 g / cm^3
# Si number density = 20.448545 Si / 1000 Ang^3
#
#
#
# Elastic Constant Matrix: (Units=GPa)
#
#
# Indices 1 2 3 4 5 6 
#
# 1 68.9814 41.6501 29.3121 0.0000 0.0000 0.0000
# 2 41.6501 180.6677 70.3996 0.0000 0.0000 0.0000
# 3 29.3121 70.3996 139.9658 0.0000 0.0000 0.0000
# 4 0.0000 0.0000 0.0000 3.1972 0.0000 0.0000
# 5 0.0000 0.0000 0.0000 0.0000 13.6409 0.0000
# 6 0.0000 0.0000 0.0000 0.0000 0.0000 0.2541
#
#
#
# Elastic Compliance Matrix: (Units=1/GPa)
#
#
# Indices 1 2 3 4 5 6 
#
# 1 0.017283 -0.003201 -0.002009 0.000000 0.000000 0.000000
# 2 -0.003201 0.007477 -0.003090 0.000000 0.000000 0.000000
# 3 -0.002009 -0.003090 0.009120 0.000000 0.000000 0.000000
# 4 0.000000 0.000000 0.000000 0.312769 0.000000 0.000000
# 5 0.000000 0.000000 0.000000 0.000000 0.073309 0.000000
# 6 0.000000 0.000000 0.000000 0.000000 0.000000 3.935613
#
#
# Mechanical properties :
#
#
# Convention : Reuss Voigt Hill
#
# Bulk Modulus (GPa) = 57.87656 74.70430 66.29043
# Shear Modulus (GPa) = 1.14209 19.96866 10.55538
#
# Velocity S-wave (km/s) = 0.74815 3.12834 2.27445
# Velocity P-wave (km/s) = 5.39549 7.04704 6.27583
#
# Compressibility (1/GPa) = 0.01727815
#
# Stress axis : x y z
#
# Youngs Moduli (GPa) = 57.85871 133.73783 109.65131
#
# Poissons Ratio (x) = 0.42816 0.22032
# Poissons Ratio (y) = 0.18523 0.33887
# Poissons Ratio (z) = 0.11625 0.41331
#
# Static dielectric constant tensor:
#      x y z
#    x 3.485150 0.000000 0.000000 
#    y 0.000000 3.788500 0.000000 
#    z 0.000000 0.000000 3.807090 
# 
# 
# High freq. dielectric constant tensor:
#      x y z
#    x 1.779660 0.000000 0.000000 
#    y 0.000000 1.801570 0.000000 
#    z 0.000000 0.000000 1.796660 
# 
# From -- ./inp_files/1683.got.cif
#   From: 2010.03.12/outbox.cif.g09.slc.cpg/sg47_1_cif.got.tgz:1683.got - 2010.04.14 03:12:58.
