data_PCOD8195085
_publ_section_title
;
Structure prediction by ZEFSAII (Michael W. Deem and Ramdas Pophale) SiO2 
 PCOD8195085
Probable space group: P M M M
;
_chemical_formula_sum "Si O2"
_cell_formula_units_Z 64
_cell_length_a 9.092092
_cell_length_b 23.502354
_cell_length_c 18.869192
_cell_angle_alpha 90.000000
_cell_angle_beta 90.000000
_cell_angle_gamma 90.000000
_cell_volume 4032.073950
_symmetry_space_group_name_H-M "P M M M"
_symmetry_group_IT_number 47
_symmetry_cell_setting 'orthorhombic'
loop_
_space_group_symop_operation_xyz
x,y,z
-x,-y,z
x,-y,-z
-x,y,-z
-x,-y,-z
x,y,-z
-x,y,z
x,-y,z
loop_
_atom_site_type_symbol
_atom_site_label
_atom_site_fract_x
_atom_site_fract_y
_atom_site_fract_z
Si Si1 0.673511 0.436123 0.920364
Si Si2 0.328290 0.830500 0.793249
Si Si3 0.328072 0.242882 0.420260
Si Si4 0.827564 0.220442 0.918525
Si Si5 0.828811 0.730933 0.288866
Si Si6 0.668055 0.064072 0.300163
Si Si7 0.830783 0.124014 0.420005
Si Si8 0.168694 0.663375 0.847271
O O1 0.500000 0.431310 0.916463
O O2 0.723937 0.500000 0.900206
O O3 0.740198 0.392671 0.864287
O O4 0.727700 0.421455 0.000000
O O5 0.500000 0.815326 0.795207
O O6 0.261397 0.825482 0.872220
O O7 0.246730 0.787597 0.740721
O O8 0.298332 0.894221 0.765639
O O9 0.296809 0.264901 0.500000
O O10 0.500000 0.241662 0.403453
O O11 0.246209 0.284462 0.364379
O O12 0.265682 0.180055 0.409022
O O13 0.778646 0.283955 0.895972
O O14 0.000000 0.212666 0.903102
O O15 0.787290 0.210203 0.000000
O O16 0.804935 0.678538 0.235164
O O17 0.000000 0.743760 0.299431
O O18 0.500000 0.071866 0.325460
O O19 0.772691 0.075981 0.367003
O O20 0.698296 0.000000 0.273603
O O21 0.813553 0.100833 0.500000
O O22 0.000000 0.138677 0.403118
O O23 0.000000 0.649700 0.863176
#
# Coordination Sequence:
#
# PCOD8195085 Si02
#       8
#     8   8   8   8   8   8   8   8
#     4   9  18  31  45  64  94 131 167 200 231 263
#     4  10  19  31  48  68  89 114 147 185 227 278
#     4  10  19  30  46  68  93 121 153 187 225 273
#     4   9  18  32  49  69  94 120 145 183 233 278
#     4  10  19  31  47  67  94 123 152 189 232 275
#     4  10  21  35  49  65  87 116 150 189 230 274
#     4  10  20  32  47  67  90 117 149 185 224 270
#     4   9  18  30  45  68  95 123 156 192 227 266
#
# _framework density 15.872725000000001
#
# number of rings (size 3 to 8) (size 9 to 14) (size 15 to 20)
#    0.000    2.375    1.250    3.000    0.000    6.250 
#    0.000    1.875    0.000    0.375    0.000    2.625 
#    0.000    0.500    0.000    5.500    0.000    4.000 
#
# Total GULP energy -793574.161056 kJ/mol
# GULP energy per Si atom -12399.596266 kJ/mol
# Density = 1.583660 g / cm^3
# Si number density = 15.872725 Si / 1000 Ang^3
#
#
#
# Elastic Constant Matrix: (Units=GPa)
#
#
# Indices 1 2 3 4 5 6 
#
# 1 83.2969 42.0896 60.7190 0.0000 0.0000 0.0000
# 2 42.0896 83.3880 53.2285 0.0000 0.0000 0.0000
# 3 60.7190 53.2285 119.4216 0.0000 0.0000 0.0000
# 4 0.0000 0.0000 0.0000 22.4874 0.0000 0.0000
# 5 0.0000 0.0000 0.0000 0.0000 30.3088 0.0000
# 6 0.0000 0.0000 0.0000 0.0000 0.0000 11.1557
#
#
#
# Elastic Compliance Matrix: (Units=1/GPa)
#
#
# Indices 1 2 3 4 5 6 
#
# 1 0.020559 -0.005178 -0.008145 0.000000 0.000000 0.000000
# 2 -0.005178 0.018065 -0.005419 0.000000 0.000000 0.000000
# 3 -0.008145 -0.005419 0.014931 0.000000 0.000000 0.000000
# 4 0.000000 0.000000 0.000000 0.044469 0.000000 0.000000
# 5 0.000000 0.000000 0.000000 0.000000 0.032994 0.000000
# 6 0.000000 0.000000 0.000000 0.000000 0.000000 0.089640
#
#
# Mechanical properties :
#
#
# Convention : Reuss Voigt Hill
#
# Bulk Modulus (GPa) = 62.22822 66.46453 64.34637
# Shear Modulus (GPa) = 18.97543 21.46168 20.21855
#
# Velocity S-wave (km/s) = 3.46131 3.68109 3.57289
# Velocity P-wave (km/s) = 7.43397 7.74801 7.59261
#
# Compressibility (1/GPa) = 0.01606988
#
# Stress axis : x y z
#
# Youngs Moduli (GPa) = 48.64047 55.35634 66.97672
#
# Poissons Ratio (x) = 0.28662 0.54554
# Poissons Ratio (y) = 0.25185 0.36296
# Poissons Ratio (z) = 0.39619 0.29999
#
# Static dielectric constant tensor:
#      x y z
#    x 3.084880 0.000000 0.000000 
#    y 0.000000 2.768800 0.000000 
#    z 0.000000 0.000000 3.219060 
# 
# 
# High freq. dielectric constant tensor:
#      x y z
#    x 1.620640 0.000000 0.000000 
#    y 0.000000 1.571260 0.000000 
#    z 0.000000 0.000000 1.610030 
# 
# From -- ./inp_files/11970.got.cif
#   From: 2010.03.12/outbox.cif.g09.slc.cpg/sg47_6_cif.got.tgz:11970.got - 2010.04.14 03:12:58.
