data_PCOD8195068
_publ_section_title
;
Structure prediction by ZEFSAII (Michael W. Deem and Ramdas Pophale) SiO2 
 PCOD8195068
Probable space group: P M M M
;
_chemical_formula_sum "Si O2"
_cell_formula_units_Z 56
_cell_length_a 9.321407
_cell_length_b 29.152074
_cell_length_c 13.709200
_cell_angle_alpha 90.000000
_cell_angle_beta 90.000000
_cell_angle_gamma 90.000000
_cell_volume 3725.315342
_symmetry_space_group_name_H-M "P M M M"
_symmetry_group_IT_number 47
_symmetry_cell_setting 'orthorhombic'
loop_
_space_group_symop_operation_xyz
x,y,z
-x,-y,z
x,-y,-z
-x,y,-z
-x,-y,-z
x,y,-z
-x,y,z
x,-y,z
loop_
_atom_site_type_symbol
_atom_site_label
_atom_site_fract_x
_atom_site_fract_y
_atom_site_fract_z
Si Si1 0.339156 0.048551 0.884101
Si Si2 0.332673 0.766069 0.226554
Si Si3 0.831820 0.627646 0.724818
Si Si4 0.335891 0.446880 0.388124
Si Si5 0.832703 0.280915 0.611222
Si Si6 0.328114 0.853191 0.890222
Si Si7 0.666361 0.674711 0.887756
O O1 0.500000 0.046469 0.842367
O O2 0.268409 0.097086 0.850191
O O3 0.261385 0.000000 0.851883
O O4 0.344673 0.050929 0.000000
O O5 0.500000 0.769655 0.250207
O O6 0.251252 0.757464 0.327767
O O7 0.272074 0.813157 0.180507
O O8 0.300402 0.725854 0.149579
O O9 0.768398 0.581056 0.681962
O O10 0.795000 0.668545 0.650181
O O11 0.759974 0.637780 0.829098
O O12 0.000000 0.621363 0.740567
O O13 0.291918 0.437966 0.500000
O O14 0.500000 0.431532 0.370975
O O15 0.316760 0.500000 0.361711
O O16 0.780850 0.277946 0.500000
O O17 0.000000 0.270658 0.621765
O O18 0.500000 0.854147 0.891529
O O19 0.271957 0.843575 0.000000
O O20 0.500000 0.662527 0.872960
O O21 0.712168 0.671963 0.000000
#
# Coordination Sequence:
#
# PCOD8195068 Si02
#       7
#     8   8   8   8   8   8   8
#     4   7   9  13  22  39  66 100 132 156 183 226
#     4   9  16  25  39  60  81 102 133 169 201 233
#     4  10  19  30  46  67  88 110 137 168 201 237
#     4   9  18  32  49  69  92 115 137 163 198 241
#     4   9  18  31  43  56  79 109 135 160 195 239
#     4   8  12  18  30  49  75 105 132 160 194 230
#     4   9  17  29  44  61  83 112 143 171 199 235
#
# _framework density 15.032284000000001
#
# number of rings (size 3 to 8) (size 9 to 14) (size 15 to 20)
#    0.000    3.286    0.000    3.000    0.000    4.000 
#    0.000    0.714    0.000    1.714    0.000    3.000 
#    0.000    1.143    0.000   10.714    0.000    4.286 
#
# Total GULP energy -693927.625704 kJ/mol
# GULP energy per Si atom -12391.564745 kJ/mol
# Density = 1.499807 g / cm^3
# Si number density = 15.032284 Si / 1000 Ang^3
#
#
#
# Elastic Constant Matrix: (Units=GPa)
#
#
# Indices 1 2 3 4 5 6 
#
# 1 40.8088 37.7798 39.0388 0.0000 0.0000 0.0000
# 2 37.7798 104.7521 54.5354 0.0000 0.0000 0.0000
# 3 39.0388 54.5354 102.5662 0.0000 0.0000 0.0000
# 4 0.0000 0.0000 0.0000 19.9445 0.0000 0.0000
# 5 0.0000 0.0000 0.0000 0.0000 17.1120 0.0000
# 6 0.0000 0.0000 0.0000 0.0000 0.0000 9.5948
#
#
#
# Elastic Compliance Matrix: (Units=1/GPa)
#
#
# Indices 1 2 3 4 5 6 
#
# 1 0.045198 -0.010156 -0.011803 0.000000 0.000000 0.000000
# 2 -0.010156 0.015483 -0.004367 0.000000 0.000000 0.000000
# 3 -0.011803 -0.004367 0.016564 0.000000 0.000000 0.000000
# 4 0.000000 0.000000 0.000000 0.050139 0.000000 0.000000
# 5 0.000000 0.000000 0.000000 0.000000 0.058438 0.000000
# 6 0.000000 0.000000 0.000000 0.000000 0.000000 0.104223
#
#
# Mechanical properties :
#
#
# Convention : Reuss Voigt Hill
#
# Bulk Modulus (GPa) = 40.66222 56.75946 48.71084
# Shear Modulus (GPa) = 14.24928 17.11514 15.68221
#
# Velocity S-wave (km/s) = 3.08216 3.37791 3.23342
# Velocity P-wave (km/s) = 6.30674 7.28382 6.81282
#
# Compressibility (1/GPa) = 0.02459286
#
# Stress axis : x y z
#
# Youngs Moduli (GPa) = 22.12483 64.58874 60.37167
#
# Poissons Ratio (x) = 0.65598 0.71258
# Poissons Ratio (y) = 0.22470 0.26362
# Poissons Ratio (z) = 0.26114 0.28203
#
# Static dielectric constant tensor:
#      x y z
#    x 2.636370 0.000000 0.000000 
#    y 0.000000 3.152830 0.000000 
#    z 0.000000 0.000000 2.746210 
# 
# 
# High freq. dielectric constant tensor:
#      x y z
#    x 1.547270 0.000000 0.000000 
#    y 0.000000 1.578770 0.000000 
#    z 0.000000 0.000000 1.547980 
# 
# From -- ./inp_files/8123.got.cif
#   From: 2010.03.12/outbox.cif.g09.slc.cpg/sg47_5_cif.got.tgz:8123.got - 2010.04.14 03:12:58.
