data_PCOD8195383
_publ_section_title
;
Structure prediction by ZEFSAII (Michael W. Deem and Ramdas Pophale) SiO2 
 PCOD8195383
Probable space group: P M M M
;
_chemical_formula_sum "Si O2"
_cell_formula_units_Z 52
_cell_length_a 18.340066
_cell_length_b 9.140858
_cell_length_c 18.116323
_cell_angle_alpha 90.000000
_cell_angle_beta 90.000000
_cell_angle_gamma 90.000000
_cell_volume 3037.091748
_symmetry_space_group_name_H-M "P M M M"
_symmetry_group_IT_number 47
_symmetry_cell_setting 'orthorhombic'
loop_
_space_group_symop_operation_xyz
x,y,z
-x,-y,z
x,-y,-z
-x,y,-z
-x,-y,-z
x,y,-z
-x,y,z
x,-y,z
loop_
_atom_site_type_symbol
_atom_site_label
_atom_site_fract_x
_atom_site_fract_y
_atom_site_fract_z
Si Si1 0.293989 0.163198 0.358028
Si Si2 0.340137 0.669120 0.865121
Si Si3 0.216371 0.162245 0.201319
Si Si4 0.082724 0.828903 0.709855
Si Si5 0.417139 0.668863 0.710195
Si Si6 0.836574 0.667916 0.583590
Si Si7 0.584567 0.172961 0.000000
O O1 0.257682 0.157846 0.278436
O O2 0.372605 0.239845 0.350663
O O3 0.242236 0.255035 0.412027
O O4 0.304503 0.000000 0.390022
O O5 0.336684 0.500000 0.888123
O O6 0.257066 0.726028 0.853507
O O7 0.387202 0.695033 0.792154
O O8 0.377956 0.761596 0.928260
O O9 0.133800 0.215265 0.220146
O O10 0.216166 0.000000 0.165406
O O11 0.103751 0.741854 0.636177
O O12 0.000000 0.791469 0.731737
O O13 0.093909 0.000000 0.692140
O O14 0.500000 0.724101 0.708117
O O15 0.410545 0.500000 0.688453
O O16 0.865499 0.680851 0.500000
O O17 0.826932 0.500000 0.607847
O O18 0.500000 0.217591 0.000000
O O19 0.595227 0.000000 0.000000
#
# Coordination Sequence:
#
# PCOD8195383 Si02
#       7
#     8   8   8   8   8   8   4
#     4   9  17  29  46  66  87 115 153 195 234 274
#     4  10  19  31  48  69  94 125 160 193 225 269
#     4   8  15  29  47  67  92 121 154 190 227 269
#     4   9  18  32  50  73  99 125 154 190 231 274
#     4   9  17  29  46  68  93 120 150 188 235 281
#     4  10  20  32  46  65  91 124 158 190 229 280
#     4  11  23  35  47  67  98 133 164 195 233 274
#
# _framework density 17.121642999999999
#
# number of rings (size 3 to 8) (size 9 to 14) (size 15 to 20)
#    0.000    2.692    0.000    3.000    0.000    7.692 
#    0.000    1.538    0.000    0.462    0.000    3.769 
#    0.000    4.308    0.000    0.000    0.000    0.000 
#
# Total GULP energy -644690.524610 kJ/mol
# GULP energy per Si atom -12397.894704 kJ/mol
# Density = 1.708267 g / cm^3
# Si number density = 17.121643 Si / 1000 Ang^3
#
#
#
# Elastic Constant Matrix: (Units=GPa)
#
#
# Indices 1 2 3 4 5 6 
#
# 1 148.4643 59.1351 38.2361 0.0000 0.0000 0.0000
# 2 59.1351 95.6843 34.2412 0.0000 0.0000 0.0000
# 3 38.2361 34.2412 41.9677 0.0000 0.0000 0.0000
# 4 0.0000 0.0000 0.0000 24.8158 0.0000 0.0000
# 5 0.0000 0.0000 0.0000 0.0000 19.3322 0.0000
# 6 0.0000 0.0000 0.0000 0.0000 0.0000 25.8313
#
#
#
# Elastic Compliance Matrix: (Units=1/GPa)
#
#
# Indices 1 2 3 4 5 6 
#
# 1 0.009794 -0.004039 -0.005628 0.000000 0.000000 0.000000
# 2 -0.004039 0.016426 -0.009722 0.000000 0.000000 0.000000
# 3 -0.005628 -0.009722 0.036888 0.000000 0.000000 0.000000
# 4 0.000000 0.000000 0.000000 0.040297 0.000000 0.000000
# 5 0.000000 0.000000 0.000000 0.000000 0.051727 0.000000
# 6 0.000000 0.000000 0.000000 0.000000 0.000000 0.038713
#
#
# Mechanical properties :
#
#
# Convention : Reuss Voigt Hill
#
# Bulk Modulus (GPa) = 41.10181 61.03790 51.06985
# Shear Modulus (GPa) = 20.76996 24.29612 22.53304
#
# Velocity S-wave (km/s) = 3.48671 3.77109 3.63168
# Velocity P-wave (km/s) = 6.34566 7.39516 6.89042
#
# Compressibility (1/GPa) = 0.02432983
#
# Stress axis : x y z
#
# Youngs Moduli (GPa) = 102.10629 60.87766 27.10936
#
# Poissons Ratio (x) = 0.24588 0.15256
# Poissons Ratio (y) = 0.41239 0.26357
# Poissons Ratio (z) = 0.57462 0.59188
#
# Static dielectric constant tensor:
#      x y z
#    x 3.450190 0.000000 0.000000 
#    y 0.000000 3.372320 0.000000 
#    z 0.000000 0.000000 2.906130 
# 
# 
# High freq. dielectric constant tensor:
#      x y z
#    x 1.659560 0.000000 0.000000 
#    y 0.000000 1.671040 0.000000 
#    z 0.000000 0.000000 1.620660 
# 
# From -- ./inp_files/9533.got.cif
#   From: 2010.03.12/outbox.cif.g09.slc.cpg/sg47_5_cif.got.tgz:9533.got - 2010.04.14 03:12:58.
