data_PCOD8195938
_publ_section_title
;
Structure prediction by ZEFSAII (Michael W. Deem and Ramdas Pophale) SiO2 
 PCOD8195938
Probable space group: P M M M
;
_chemical_formula_sum "Si O2"
_cell_formula_units_Z 48
_cell_length_a 13.705896
_cell_length_b 17.090074
_cell_length_c 9.625538
_cell_angle_alpha 90.000000
_cell_angle_beta 90.000000
_cell_angle_gamma 90.000000
_cell_volume 2254.635746
_symmetry_space_group_name_H-M "P M M M"
_symmetry_group_IT_number 47
_symmetry_cell_setting 'orthorhombic'
loop_
_space_group_symop_operation_xyz
x,y,z
-x,-y,z
x,-y,-z
-x,y,-z
-x,-y,-z
x,y,-z
-x,y,z
x,-y,z
loop_
_atom_site_type_symbol
_atom_site_label
_atom_site_fract_x
_atom_site_fract_y
_atom_site_fract_z
Si Si1 0.109493 0.713514 0.656614
Si Si2 0.615852 0.913615 0.500000
Si Si3 0.695220 0.642353 0.660639
Si Si4 0.384326 0.500000 0.161486
Si Si5 0.116391 0.000000 0.341832
Si Si6 0.615477 0.808371 0.253892
Si Si7 0.617041 0.909742 0.000000
Si Si8 0.115441 0.141715 0.156881
O O1 0.112711 0.749616 0.500000
O O2 0.186465 0.642053 0.665919
O O3 0.143552 0.777072 0.769331
O O4 0.000000 0.682517 0.689024
O O5 0.500000 0.921084 0.500000
O O6 0.653994 0.864403 0.372644
O O7 0.662808 0.000000 0.500000
O O8 0.659124 0.632526 0.500000
O O9 0.655696 0.574856 0.758412
O O10 0.658280 0.722672 0.727278
O O11 0.500000 0.500000 0.169614
O O12 0.350043 0.500000 0.000000
O O13 0.156904 0.074023 0.256066
O O14 0.157423 0.000000 0.500000
O O15 0.000000 0.000000 0.347362
O O16 0.500000 0.799166 0.247360
O O17 0.657415 0.856963 0.124961
O O18 0.500000 0.913495 0.000000
O O19 0.656272 0.000000 0.000000
O O20 0.000000 0.133948 0.146793
O O21 0.159629 0.136762 0.000000
#
# Coordination Sequence:
#
# PCOD8195938 Si02
#       8
#     8   4   8   4   4   8   4   8
#     4   9  19  37  61  86 115 154 202 252 305 364
#     4   9  16  28  50  81 118 156 197 251 308 360
#     4  11  23  41  66  94 126 162 208 255 311 369
#     4  11  27  47  70 101 134 166 197 239 298 371
#     4   9  15  23  41  69 101 141 192 251 314 373
#     4  10  19  32  55  86 119 159 206 251 302 369
#     4   9  18  32  52  81 120 166 209 249 302 366
#     4   9  16  27  46  73 104 142 192 251 312 370
#
# _framework density 21.289470000000001
#
# number of rings (size 3 to 8) (size 9 to 14) (size 15 to 20)
#    0.000    2.333    0.833    2.000    1.167    7.000 
#    0.000    0.417    3.667    2.500    0.000    0.000 
#    0.000    0.000    0.000    0.000    0.000    0.000 
#
# Total GULP energy -594860.159618 kJ/mol
# GULP energy per Si atom -12392.919992 kJ/mol
# Density = 2.124101 g / cm^3
# Si number density = 21.289470 Si / 1000 Ang^3
#
#
#
# Elastic Constant Matrix: (Units=GPa)
#
#
# Indices 1 2 3 4 5 6 
#
# 1 54.3167 47.1761 44.2339 0.0000 0.0000 0.0000
# 2 47.1761 163.1781 92.4109 0.0000 0.0000 0.0000
# 3 44.2339 92.4109 199.5869 0.0000 0.0000 0.0000
# 4 0.0000 0.0000 0.0000 75.0762 0.0000 0.0000
# 5 0.0000 0.0000 0.0000 0.0000 20.2394 0.0000
# 6 0.0000 0.0000 0.0000 0.0000 0.0000 4.3948
#
#
#
# Elastic Compliance Matrix: (Units=1/GPa)
#
#
# Indices 1 2 3 4 5 6 
#
# 1 0.025911 -0.005745 -0.003082 0.000000 0.000000 0.000000
# 2 -0.005745 0.009580 -0.003162 0.000000 0.000000 0.000000
# 3 -0.003082 -0.003162 0.007158 0.000000 0.000000 0.000000
# 4 0.000000 0.000000 0.000000 0.013320 0.000000 0.000000
# 5 0.000000 0.000000 0.000000 0.000000 0.049409 0.000000
# 6 0.000000 0.000000 0.000000 0.000000 0.000000 0.227543
#
#
# Mechanical properties :
#
#
# Convention : Reuss Voigt Hill
#
# Bulk Modulus (GPa) = 53.56646 87.19149 70.37897
# Shear Modulus (GPa) = 13.76944 35.49280 24.63112
#
# Velocity S-wave (km/s) = 2.54593 4.08751 3.40511
# Velocity P-wave (km/s) = 5.81876 7.95745 6.97062
#
# Compressibility (1/GPa) = 0.01866840
#
# Stress axis : x y z
#
# Youngs Moduli (GPa) = 38.59389 104.38118 139.70939
#
# Poissons Ratio (x) = 0.59972 0.43063
# Poissons Ratio (y) = 0.22174 0.44182
# Poissons Ratio (z) = 0.11896 0.33010
#
# Static dielectric constant tensor:
#      x y z
#    x 3.817260 0.000000 0.000000 
#    y 0.000000 3.589870 0.000000 
#    z 0.000000 0.000000 4.191200 
# 
# 
# High freq. dielectric constant tensor:
#      x y z
#    x 1.844150 0.000000 0.000000 
#    y 0.000000 1.808070 0.000000 
#    z 0.000000 0.000000 1.849810 
# 
# From -- ./inp_files/6567.got.cif
#   From: 2010.03.12/outbox.cif.g09.slc.cpg/sg47_4_cif.got.tgz:6567.got - 2010.04.14 03:12:58.
