data_PCOD8195140
_publ_section_title
;
Structure prediction by ZEFSAII (Michael W. Deem and Ramdas Pophale) SiO2 
 PCOD8195140
Probable space group: P M M M
;
_chemical_formula_sum "Si O2"
_cell_formula_units_Z 36
_cell_length_a 21.092411
_cell_length_b 7.643580
_cell_length_c 13.329023
_cell_angle_alpha 90.000000
_cell_angle_beta 90.000000
_cell_angle_gamma 90.000000
_cell_volume 2148.925493
_symmetry_space_group_name_H-M "P M M M"
_symmetry_group_IT_number 47
_symmetry_cell_setting 'orthorhombic'
loop_
_space_group_symop_operation_xyz
x,y,z
-x,-y,z
x,-y,-z
-x,y,-z
-x,-y,-z
x,y,-z
-x,y,z
x,-y,z
loop_
_atom_site_type_symbol
_atom_site_label
_atom_site_fract_x
_atom_site_fract_y
_atom_site_fract_z
Si Si1 0.000000 0.308673 0.618951
Si Si2 0.343259 0.500000 0.612047
Si Si3 0.656497 0.199323 0.113254
Si Si4 0.425196 0.500000 0.197007
Si Si5 0.264311 0.803536 0.301435
Si Si6 0.863898 0.708604 0.386398
O O1 0.933241 0.214647 0.648299
O O2 0.000000 0.500000 0.669570
O O3 0.000000 0.330735 0.500000
O O4 0.371243 0.500000 0.500000
O O5 0.401879 0.500000 0.688095
O O6 0.299612 0.329081 0.624601
O O7 0.598622 0.326540 0.140495
O O8 0.716008 0.237836 0.186391
O O9 0.632160 0.000000 0.125398
O O10 0.679602 0.235832 0.000000
O O11 0.500000 0.500000 0.195694
O O12 0.188699 0.783460 0.311056
O O13 0.284840 0.000000 0.330746
O O14 0.848043 0.769860 0.500000
O O15 0.865710 0.500000 0.381594
#
# Coordination Sequence:
#
# PCOD8195140 Si02
#       6
#     4   4   8   4   8   8
#     4   7  12  22  37  57  84 122 158 186 223 270
#     4  10  20  34  49  67  96 128 155 185 222 266
#     4   9  19  35  52  71  96 122 149 188 237 280
#     4  10  21  35  52  75  98 120 152 188 221 268
#     4  10  19  30  47  70  93 120 157 196 231 271
#     4   9  15  25  41  62  91 124 156 189 227 271
#
# _framework density 16.752558000000001
#
# number of rings (size 3 to 8) (size 9 to 14) (size 15 to 20)
#    0.000    2.778    1.111    2.333    0.000    3.333 
#    0.000    1.667    0.000    2.000    0.000    7.000 
#    0.000    6.222    0.000    0.000    0.000    0.000 
#
# Total GULP energy -446115.293634 kJ/mol
# GULP energy per Si atom -12392.091490 kJ/mol
# Density = 1.671443 g / cm^3
# Si number density = 16.752558 Si / 1000 Ang^3
#
#
#
# Elastic Constant Matrix: (Units=GPa)
#
#
# Indices 1 2 3 4 5 6 
#
# 1 144.7991 40.3218 57.1384 0.0000 0.0000 0.0000
# 2 40.3218 81.4968 38.4825 0.0000 0.0000 0.0000
# 3 57.1384 38.4825 101.3533 0.0000 0.0000 0.0000
# 4 0.0000 0.0000 0.0000 13.8838 0.0000 0.0000
# 5 0.0000 0.0000 0.0000 0.0000 16.1027 0.0000
# 6 0.0000 0.0000 0.0000 0.0000 0.0000 7.9346
#
#
#
# Elastic Compliance Matrix: (Units=1/GPa)
#
#
# Indices 1 2 3 4 5 6 
#
# 1 0.009311 -0.002593 -0.004265 0.000000 0.000000 0.000000
# 2 -0.002593 0.015673 -0.004489 0.000000 0.000000 0.000000
# 3 -0.004265 -0.004489 0.013975 0.000000 0.000000 0.000000
# 4 0.000000 0.000000 0.000000 0.072026 0.000000 0.000000
# 5 0.000000 0.000000 0.000000 0.000000 0.062101 0.000000
# 6 0.000000 0.000000 0.000000 0.000000 0.000000 0.126031
#
#
# Mechanical properties :
#
#
# Convention : Reuss Voigt Hill
#
# Bulk Modulus (GPa) = 61.47844 66.61497 64.04670
# Shear Modulus (GPa) = 15.27964 20.36465 17.82215
#
# Velocity S-wave (km/s) = 3.02334 3.49035 3.26520
# Velocity P-wave (km/s) = 6.99750 7.48958 7.24772
#
# Compressibility (1/GPa) = 0.01626587
#
# Stress axis : x y z
#
# Youngs Moduli (GPa) = 107.39951 63.80375 71.55598
#
# Poissons Ratio (x) = 0.16545 0.30516
# Poissons Ratio (y) = 0.27849 0.32122
# Poissons Ratio (z) = 0.45801 0.28642
#
# Static dielectric constant tensor:
#      x y z
#    x 3.237870 0.000000 0.000000 
#    y 0.000000 3.251810 0.000000 
#    z 0.000000 0.000000 3.013230 
# 
# 
# High freq. dielectric constant tensor:
#      x y z
#    x 1.637320 0.000000 0.000000 
#    y 0.000000 1.652720 0.000000 
#    z 0.000000 0.000000 1.613320 
# 
# From -- ./inp_files/18879.got.cif
#   From: 2010.03.12/outbox.cif.g09.slc.cpg/sg47_10_cif.got.tgz:18879.got - 2010.04.14 03:12:58.
