data_PCOD8195349
_publ_section_title
;
Structure prediction by ZEFSAII (Michael W. Deem and Ramdas Pophale) SiO2 
 PCOD8195349
Probable space group: P M M M
;
_chemical_formula_sum "Si O2"
_cell_formula_units_Z 52
_cell_length_a 12.779244
_cell_length_b 24.623447
_cell_length_c 9.714043
_cell_angle_alpha 90.000000
_cell_angle_beta 90.000000
_cell_angle_gamma 90.000000
_cell_volume 3056.708559
_symmetry_space_group_name_H-M "P M M M"
_symmetry_group_IT_number 47
_symmetry_cell_setting 'orthorhombic'
loop_
_space_group_symop_operation_xyz
x,y,z
-x,-y,z
x,-y,-z
-x,y,-z
-x,-y,-z
x,y,-z
-x,y,z
x,-y,z
loop_
_atom_site_type_symbol
_atom_site_label
_atom_site_fract_x
_atom_site_fract_y
_atom_site_fract_z
Si Si1 0.387193 0.436169 0.000000
Si Si2 0.616759 0.563996 0.500000
Si Si3 0.306454 0.936965 0.157867
Si Si4 0.877543 0.341000 0.155471
Si Si5 0.123824 0.755410 0.343668
Si Si6 0.245667 0.563583 0.752797
Si Si7 0.120140 0.857001 0.841949
Si Si8 0.500000 0.935436 0.341680
O O1 0.324040 0.417940 0.869526
O O2 0.403081 0.500000 0.000000
O O3 0.500000 0.407140 0.000000
O O4 0.600965 0.500000 0.500000
O O5 0.500000 0.590602 0.500000
O O6 0.687979 0.582811 0.375769
O O7 0.196876 0.907149 0.187997
O O8 0.396858 0.914593 0.260173
O O9 0.284885 0.000000 0.186185
O O10 0.342996 0.927471 0.000000
O O11 0.828993 0.294906 0.255594
O O12 0.857165 0.400007 0.225378
O O13 0.000000 0.332915 0.145966
O O14 0.830748 0.336913 0.000000
O O15 0.169940 0.756117 0.500000
O O16 0.154791 0.809736 0.262178
O O17 0.000000 0.749588 0.351886
O O18 0.213502 0.500000 0.752149
O O19 0.000000 0.875223 0.814098
O O20 0.131324 0.836480 0.000000
O O21 0.500000 0.913849 0.500000
O O22 0.500000 0.000000 0.339594
#
# Coordination Sequence:
#
# PCOD8195349 Si02
#       8
#     4   4   8   8   8   8   8   4
#     4   9  16  28  47  69  93 119 154 196 232 275
#     4   9  18  32  49  69  95 125 156 192 234 281
#     4   9  17  29  47  73 103 135 167 200 241 288
#     4  10  20  33  49  70  97 128 159 194 235 281
#     4   9  18  32  50  70  91 121 165 206 237 278
#     4  10  19  31  47  72  98 124 157 190 235 289
#     4   9  17  30  49  74 102 130 161 199 243 290
#     4   9  17  29  45  67  97 133 175 213 240 277
#
# _framework density 17.011762999999998
#
# number of rings (size 3 to 8) (size 9 to 14) (size 15 to 20)
#    0.000    2.692    0.769    1.154    1.077    5.846 
#    0.000    2.308    0.000    1.385    4.000    4.308 
#    0.000    0.000    0.000    0.000    0.000    0.000 
#
# Total GULP energy -644345.363659 kJ/mol
# GULP energy per Si atom -12391.256993 kJ/mol
# Density = 1.697304 g / cm^3
# Si number density = 17.011763 Si / 1000 Ang^3
#
#
#
# Elastic Constant Matrix: (Units=GPa)
#
#
# Indices 1 2 3 4 5 6 
#
# 1 61.8825 38.0068 44.1396 0.0000 0.0000 0.0000
# 2 38.0068 79.6243 51.9571 0.0000 0.0000 0.0000
# 3 44.1396 51.9571 143.8357 0.0000 0.0000 0.0000
# 4 0.0000 0.0000 0.0000 21.6813 0.0000 0.0000
# 5 0.0000 0.0000 0.0000 0.0000 30.6189 0.0000
# 6 0.0000 0.0000 0.0000 0.0000 0.0000 7.4881
#
#
#
# Elastic Compliance Matrix: (Units=1/GPa)
#
#
# Indices 1 2 3 4 5 6 
#
# 1 0.024790 -0.008987 -0.004361 0.000000 0.000000 0.000000
# 2 -0.008987 0.019690 -0.004355 0.000000 0.000000 0.000000
# 3 -0.004361 -0.004355 0.009864 0.000000 0.000000 0.000000
# 4 0.000000 0.000000 0.000000 0.046123 0.000000 0.000000
# 5 0.000000 0.000000 0.000000 0.000000 0.032660 0.000000
# 6 0.000000 0.000000 0.000000 0.000000 0.000000 0.133546
#
#
# Mechanical properties :
#
#
# Convention : Reuss Voigt Hill
#
# Bulk Modulus (GPa) = 52.80341 61.50550 57.15446
# Shear Modulus (GPa) = 16.21320 22.04027 19.12674
#
# Velocity S-wave (km/s) = 3.09051 3.60334 3.35673
# Velocity P-wave (km/s) = 6.62131 7.31746 6.97807
#
# Compressibility (1/GPa) = 0.01893817
#
# Stress axis : x y z
#
# Youngs Moduli (GPa) = 40.33878 50.78622 101.38189
#
# Poissons Ratio (x) = 0.45643 0.44213
# Poissons Ratio (y) = 0.36253 0.44149
# Poissons Ratio (z) = 0.17592 0.22116
#
# Static dielectric constant tensor:
#      x y z
#    x 3.101410 0.000000 0.000000 
#    y 0.000000 2.938920 0.000000 
#    z 0.000000 0.000000 3.487350 
# 
# 
# High freq. dielectric constant tensor:
#      x y z
#    x 1.634820 0.000000 0.000000 
#    y 0.000000 1.625330 0.000000 
#    z 0.000000 0.000000 1.673340 
# 
# From -- ./inp_files/4643.got.cif
#   From: 2010.03.12/outbox.cif.g09.slc.cpg/sg47_3_cif.got.tgz:4643.got - 2010.04.14 03:12:58.
