data_PCOD8195778
_publ_section_title
;
Structure prediction by ZEFSAII (Michael W. Deem and Ramdas Pophale) SiO2 
 PCOD8195778
Probable space group: P M M M
;
_chemical_formula_sum "Si O2"
_cell_formula_units_Z 40
_cell_length_a 23.223917
_cell_length_b 11.617567
_cell_length_c 9.290873
_cell_angle_alpha 90.000000
_cell_angle_beta 90.000000
_cell_angle_gamma 90.000000
_cell_volume 2506.727815
_symmetry_space_group_name_H-M "P M M M"
_symmetry_group_IT_number 47
_symmetry_cell_setting 'orthorhombic'
loop_
_space_group_symop_operation_xyz
x,y,z
-x,-y,z
x,-y,-z
-x,y,-z
-x,-y,-z
x,y,-z
-x,y,z
x,-y,z
loop_
_atom_site_type_symbol
_atom_site_label
_atom_site_fract_x
_atom_site_fract_y
_atom_site_fract_z
Si Si1 0.329649 0.362996 0.338775
Si Si2 0.000000 0.373352 0.170262
Si Si3 0.781700 0.631784 0.167072
Si Si4 0.436468 0.636881 0.161608
Si Si5 0.067416 0.000000 0.671112
Si Si6 0.106306 0.777503 0.169364
O O1 0.326757 0.314015 0.500000
O O2 0.332499 0.500000 0.337960
O O3 0.273132 0.321821 0.254293
O O4 0.387009 0.311281 0.264203
O O5 0.943679 0.307194 0.222828
O O6 0.000000 0.500000 0.240633
O O7 0.000000 0.384418 0.000000
O O8 0.797687 0.500000 0.208576
O O9 0.834117 0.715070 0.206185
O O10 0.765829 0.638852 0.000000
O O11 0.500000 0.675823 0.216252
O O12 0.432930 0.500000 0.161589
O O13 0.426063 0.682744 0.000000
O O14 0.100606 0.108061 0.737665
O O15 0.074285 0.000000 0.500000
O O16 0.000000 0.000000 0.716245
O O17 0.100870 0.806512 0.000000
#
# Coordination Sequence:
#
# PCOD8195778 Si02
#       6
#     8   4   8   8   4   8
#     4   9  16  24  35  53  79 113 148 180 216 260
#     4   9  16  27  47  74  96 111 136 179 224 261
#     4   9  17  29  45  66  90 115 145 182 225 270
#     4   8  13  21  33  49  71 103 144 187 225 257
#     4  11  23  37  51  67  91 119 146 179 222 271
#     4  10  19  32  52  72  89 113 147 185 222 264
#
# _framework density 15.957058
#
# number of rings (size 3 to 8) (size 9 to 14) (size 15 to 20)
#    0.000    2.800    1.000    2.100    0.000    6.400 
#    0.000    2.000    0.000    2.400    0.000    0.000 
#    0.000    0.000    0.000    0.900    0.000   17.800 
#
# Total GULP energy -495867.695769 kJ/mol
# GULP energy per Si atom -12396.692394 kJ/mol
# Density = 1.592074 g / cm^3
# Si number density = 15.957058 Si / 1000 Ang^3
#
#
#
# Elastic Constant Matrix: (Units=GPa)
#
#
# Indices 1 2 3 4 5 6 
#
# 1 159.1265 46.9504 75.3894 0.0000 0.0000 0.0000
# 2 46.9504 71.9906 35.9421 0.0000 0.0000 0.0000
# 3 75.3894 35.9421 83.5848 0.0000 0.0000 0.0000
# 4 0.0000 0.0000 0.0000 10.4164 0.0000 0.0000
# 5 0.0000 0.0000 0.0000 0.0000 19.8750 0.0000
# 6 0.0000 0.0000 0.0000 0.0000 0.0000 16.9023
#
#
#
# Elastic Compliance Matrix: (Units=1/GPa)
#
#
# Indices 1 2 3 4 5 6 
#
# 1 0.011443 -0.002941 -0.009056 0.000000 0.000000 0.000000
# 2 -0.002941 0.018444 -0.005278 0.000000 0.000000 0.000000
# 3 -0.009056 -0.005278 0.022401 0.000000 0.000000 0.000000
# 4 0.000000 0.000000 0.000000 0.096002 0.000000 0.000000
# 5 0.000000 0.000000 0.000000 0.000000 0.050314 0.000000
# 6 0.000000 0.000000 0.000000 0.000000 0.000000 0.059163
#
#
# Mechanical properties :
#
#
# Convention : Reuss Voigt Hill
#
# Bulk Modulus (GPa) = 56.37778 70.14062 63.25920
# Shear Modulus (GPa) = 16.76550 19.86675 18.31613
#
# Velocity S-wave (km/s) = 3.24491 3.53230 3.39165
# Velocity P-wave (km/s) = 7.03185 7.79022 7.42073
#
# Compressibility (1/GPa) = 0.01773749
#
# Stress axis : x y z
#
# Youngs Moduli (GPa) = 87.39331 54.21777 44.63987
#
# Poissons Ratio (x) = 0.15947 0.40425
# Poissons Ratio (y) = 0.25705 0.23562
# Poissons Ratio (z) = 0.79142 0.28617
#
# Static dielectric constant tensor:
#      x y z
#    x 3.229200 0.000000 0.000000 
#    y 0.000000 2.648590 0.000000 
#    z 0.000000 0.000000 3.025740 
# 
# 
# High freq. dielectric constant tensor:
#      x y z
#    x 1.626050 0.000000 0.000000 
#    y 0.000000 1.554480 0.000000 
#    z 0.000000 0.000000 1.605640 
# 
# From -- ./inp_files/10724.got.cif
#   From: 2010.03.12/outbox.cif.g09.slc.cpg/sg47_6_cif.got.tgz:10724.got - 2010.04.14 03:12:58.
