data_PCOD8195690
_publ_section_title
;
Structure prediction by ZEFSAII (Michael W. Deem and Ramdas Pophale) SiO2 
 PCOD8195690
Probable space group: P M M M
;
_chemical_formula_sum "Si O2"
_cell_formula_units_Z 52
_cell_length_a 16.074401
_cell_length_b 21.012852
_cell_length_c 9.086332
_cell_angle_alpha 90.000000
_cell_angle_beta 90.000000
_cell_angle_gamma 90.000000
_cell_volume 3069.081357
_symmetry_space_group_name_H-M "P M M M"
_symmetry_group_IT_number 47
_symmetry_cell_setting 'orthorhombic'
loop_
_space_group_symop_operation_xyz
x,y,z
-x,-y,z
x,-y,-z
-x,y,-z
-x,-y,-z
x,y,-z
-x,y,z
x,-y,z
loop_
_atom_site_type_symbol
_atom_site_label
_atom_site_fract_x
_atom_site_fract_y
_atom_site_fract_z
Si Si1 0.836011 0.198763 0.330448
Si Si2 0.593952 0.000000 0.674304
Si Si3 0.000000 0.635841 0.825598
Si Si4 0.169166 0.573671 0.826937
Si Si5 0.669236 0.131908 0.327174
Si Si6 0.731706 0.677575 0.672631
Si Si7 0.596027 0.248709 0.831989
Si Si8 0.000000 0.219604 0.825869
O O1 0.862314 0.195330 0.500000
O O2 0.766403 0.145552 0.293124
O O3 0.799643 0.268180 0.290787
O O4 0.917468 0.184656 0.233561
O O5 0.645110 0.061588 0.728268
O O6 0.500000 0.000000 0.739662
O O7 0.588610 0.000000 0.500000
O O8 0.919483 0.598501 0.767141
O O9 0.000000 0.707931 0.765980
O O10 0.000000 0.636086 0.000000
O O11 0.178031 0.500000 0.787828
O O12 0.241078 0.610824 0.741626
O O13 0.178296 0.586390 0.000000
O O14 0.651814 0.141634 0.500000
O O15 0.610427 0.180228 0.240926
O O16 0.718140 0.670005 0.500000
O O17 0.644549 0.696452 0.745165
O O18 0.500000 0.266733 0.822496
O O19 0.627356 0.246183 0.000000
O O20 0.000000 0.215720 0.000000
#
# Coordination Sequence:
#
# PCOD8195690 Si02
#       8
#     8   4   4   8   8   8   8   4
#     4   9  18  31  46  68  98 129 162 204 249 289
#     4   9  16  28  51  80 107 134 164 199 239 291
#     4   9  17  29  46  71  98 128 166 204 240 287
#     4  10  19  32  50  71  99 133 165 199 243 296
#     4   9  18  32  51  76 104 135 167 199 241 293
#     4  10  20  33  50  71  97 129 164 204 248 295
#     4  10  20  33  51  75 101 128 161 203 248 294
#     4  11  19  28  49  72  93 126 168 210 248 289
#
# _framework density 16.943182
#
# number of rings (size 3 to 8) (size 9 to 14) (size 15 to 20)
#    0.000    2.385    1.538    2.769    0.000    5.538 
#    0.000    0.769    0.000    3.231    0.000    6.462 
#    0.000    0.000    0.000    0.000    0.000    0.000 
#
# Total GULP energy -644870.320955 kJ/mol
# GULP energy per Si atom -12401.352326 kJ/mol
# Density = 1.690462 g / cm^3
# Si number density = 16.943182 Si / 1000 Ang^3
#
#
#
# Elastic Constant Matrix: (Units=GPa)
#
#
# Indices 1 2 3 4 5 6 
#
# 1 114.9820 63.1866 51.7878 0.0000 0.0000 0.0000
# 2 63.1866 113.1916 38.6002 0.0000 0.0000 0.0000
# 3 51.7878 38.6002 66.8845 0.0000 0.0000 0.0000
# 4 0.0000 0.0000 0.0000 19.9378 0.0000 0.0000
# 5 0.0000 0.0000 0.0000 0.0000 26.4394 0.0000
# 6 0.0000 0.0000 0.0000 0.0000 0.0000 26.2527
#
#
#
# Elastic Compliance Matrix: (Units=1/GPa)
#
#
# Indices 1 2 3 4 5 6 
#
# 1 0.015952 -0.005843 -0.008980 0.000000 0.000000 0.000000
# 2 -0.005843 0.013139 -0.003059 0.000000 0.000000 0.000000
# 3 -0.008980 -0.003059 0.023669 0.000000 0.000000 0.000000
# 4 0.000000 0.000000 0.000000 0.050156 0.000000 0.000000
# 5 0.000000 0.000000 0.000000 0.000000 0.037822 0.000000
# 6 0.000000 0.000000 0.000000 0.000000 0.000000 0.038091
#
#
# Mechanical properties :
#
#
# Convention : Reuss Voigt Hill
#
# Bulk Modulus (GPa) = 58.82985 66.91194 62.87089
# Shear Modulus (GPa) = 22.70050 23.95820 23.32935
#
# Velocity S-wave (km/s) = 3.66430 3.76444 3.71471
# Velocity P-wave (km/s) = 7.25948 7.64672 7.45562
#
# Compressibility (1/GPa) = 0.01699817
#
# Stress axis : x y z
#
# Youngs Moduli (GPa) = 62.68708 76.10742 42.24872
#
# Poissons Ratio (x) = 0.44468 0.37938
# Poissons Ratio (y) = 0.36627 0.12924
# Poissons Ratio (z) = 0.56291 0.23281
#
# Static dielectric constant tensor:
#      x y z
#    x 3.156630 0.000000 0.000000 
#    y 0.000000 3.114460 0.000000 
#    z 0.000000 0.000000 3.057530 
# 
# 
# High freq. dielectric constant tensor:
#      x y z
#    x 1.653380 0.000000 0.000000 
#    y 0.000000 1.633520 0.000000 
#    z 0.000000 0.000000 1.645030 
# 
# From -- ./inp_files/7163.got.cif
#   From: 2010.03.12/outbox.cif.g09.slc.cpg/sg47_4_cif.got.tgz:7163.got - 2010.04.14 03:12:58.
