data_PCOD8195231
_publ_section_title
;
Structure prediction by ZEFSAII (Michael W. Deem and Ramdas Pophale) SiO2 
 PCOD8195231
Probable space group: P M M M
;
_chemical_formula_sum "Si O2"
_cell_formula_units_Z 44
_cell_length_a 31.562550
_cell_length_b 9.432968
_cell_length_c 7.780369
_cell_angle_alpha 90.000000
_cell_angle_beta 90.000000
_cell_angle_gamma 90.000000
_cell_volume 2316.437780
_symmetry_space_group_name_H-M "P M M M"
_symmetry_group_IT_number 47
_symmetry_cell_setting 'orthorhombic'
loop_
_space_group_symop_operation_xyz
x,y,z
-x,-y,z
x,-y,-z
-x,y,-z
-x,-y,-z
x,y,-z
-x,y,z
x,-y,z
loop_
_atom_site_type_symbol
_atom_site_label
_atom_site_fract_x
_atom_site_fract_y
_atom_site_fract_z
Si Si1 0.634804 0.661797 0.805647
Si Si2 0.000000 0.159064 0.296793
Si Si3 0.080810 0.336048 0.301843
Si Si4 0.545483 0.667234 0.697319
Si Si5 0.855224 0.663484 0.000000
Si Si6 0.230736 0.832378 0.000000
Si Si7 0.710579 0.838122 0.691048
O O1 0.635151 0.500000 0.737825
O O2 0.587028 0.726284 0.794511
O O3 0.667022 0.751174 0.691745
O O4 0.650663 0.671059 0.000000
O O5 0.958405 0.242372 0.235332
O O6 0.000000 0.152868 0.500000
O O7 0.000000 0.000000 0.218787
O O8 0.093550 0.300182 0.500000
O O9 0.067365 0.500000 0.286204
O O10 0.119247 0.300669 0.174195
O O11 0.550375 0.709999 0.500000
O O12 0.500000 0.728114 0.767493
O O13 0.544116 0.500000 0.721707
O O14 0.814362 0.759997 0.000000
O O15 0.841463 0.500000 0.000000
O O16 0.255844 0.780857 0.169934
O O17 0.223705 0.000000 0.000000
O O18 0.730483 0.823894 0.500000
O O19 0.699107 0.000000 0.735131
#
# Coordination Sequence:
#
# PCOD8195231 Si02
#       7
#     8   4   8   8   4   4   8
#     4  10  19  30  49  78 107 134 169 214 260 307
#     4   9  17  30  51  80 111 143 184 229 263 298
#     4   9  18  34  54  76 107 146 181 215 261 311
#     4   8  14  25  41  64  98 137 172 207 250 301
#     4  10  22  37  55  80 107 137 177 220 260 316
#     4  10  22  40  57  77 105 133 167 215 266 321
#     4  10  21  38  59  79 101 135 174 212 263 322
#
# _framework density 18.994683999999999
#
# number of rings (size 3 to 8) (size 9 to 14) (size 15 to 20)
#    0.000    2.636    0.909    1.364    0.000    5.091 
#    0.000    3.636    0.000    0.545    0.000    3.818 
#    0.000    0.000    0.000    0.000    0.000    0.000 
#
# Total GULP energy -545364.927663 kJ/mol
# GULP energy per Si atom -12394.657447 kJ/mol
# Density = 1.895145 g / cm^3
# Si number density = 18.994684 Si / 1000 Ang^3
#
#
#
# Elastic Constant Matrix: (Units=GPa)
#
#
# Indices 1 2 3 4 5 6 
#
# 1 149.4195 60.3428 60.6136 0.0000 0.0000 0.0000
# 2 60.3428 59.2903 30.2844 0.0000 0.0000 0.0000
# 3 60.6136 30.2844 99.0998 0.0000 0.0000 0.0000
# 4 0.0000 0.0000 0.0000 15.8338 0.0000 0.0000
# 5 0.0000 0.0000 0.0000 0.0000 26.3573 0.0000
# 6 0.0000 0.0000 0.0000 0.0000 0.0000 1.3373
#
#
#
# Elastic Compliance Matrix: (Units=1/GPa)
#
#
# Indices 1 2 3 4 5 6 
#
# 1 0.012921 -0.010799 -0.004603 0.000000 0.000000 0.000000
# 2 -0.010799 0.029012 -0.002261 0.000000 0.000000 0.000000
# 3 -0.004603 -0.002261 0.013597 0.000000 0.000000 0.000000
# 4 0.000000 0.000000 0.000000 0.063156 0.000000 0.000000
# 5 0.000000 0.000000 0.000000 0.000000 0.037940 0.000000
# 6 0.000000 0.000000 0.000000 0.000000 0.000000 0.747782
#
#
# Mechanical properties :
#
#
# Convention : Reuss Voigt Hill
#
# Bulk Modulus (GPa) = 49.49418 67.81011 58.65214
# Shear Modulus (GPa) = 5.28280 19.14361 12.21320
#
# Velocity S-wave (km/s) = 1.66950 3.17809 2.53846
# Velocity P-wave (km/s) = 5.46166 7.01741 6.28784
#
# Compressibility (1/GPa) = 0.02020440
#
# Stress axis : x y z
#
# Youngs Moduli (GPa) = 77.39307 34.46862 73.54605
#
# Poissons Ratio (x) = 0.37224 0.33852
# Poissons Ratio (y) = 0.83580 0.16625
# Poissons Ratio (z) = 0.35623 0.07792
#
# Static dielectric constant tensor:
#      x y z
#    x 3.417170 0.000000 0.000000 
#    y 0.000000 3.274800 0.000000 
#    z 0.000000 0.000000 3.556950 
# 
# 
# High freq. dielectric constant tensor:
#      x y z
#    x 1.736490 0.000000 0.000000 
#    y 0.000000 1.705110 0.000000 
#    z 0.000000 0.000000 1.742090 
# 
# From -- ./inp_files/13699.got.cif
#   From: 2010.03.12/outbox.cif.g09.slc.cpg/sg47_7_cif.got.tgz:13699.got - 2010.04.14 03:12:58.
