data_PCOD8195277
_publ_section_title
;
Structure prediction by ZEFSAII (Michael W. Deem and Ramdas Pophale) SiO2 
 PCOD8195277
Probable space group: P M M M
;
_chemical_formula_sum "Si O2"
_cell_formula_units_Z 52
_cell_length_a 29.965581
_cell_length_b 8.996687
_cell_length_c 12.507657
_cell_angle_alpha 90.000000
_cell_angle_beta 90.000000
_cell_angle_gamma 90.000000
_cell_volume 3371.951171
_symmetry_space_group_name_H-M "P M M M"
_symmetry_group_IT_number 47
_symmetry_cell_setting 'orthorhombic'
loop_
_space_group_symop_operation_xyz
x,y,z
-x,-y,z
x,-y,-z
-x,y,-z
-x,-y,-z
x,y,-z
-x,y,z
x,-y,z
loop_
_atom_site_type_symbol
_atom_site_label
_atom_site_fract_x
_atom_site_fract_y
_atom_site_fract_z
Si Si1 0.634942 0.166651 0.627661
Si Si2 0.451034 0.667179 0.627100
Si Si3 0.898748 0.675730 0.694061
Si Si4 0.052855 0.829909 0.500000
Si Si5 0.811075 0.172195 0.373999
Si Si6 0.948438 0.170015 0.876597
Si Si7 0.721880 0.666788 0.372929
O O1 0.634641 0.170110 0.500000
O O2 0.588466 0.231142 0.674141
O O3 0.676351 0.262038 0.672470
O O4 0.640238 0.000000 0.670606
O O5 0.448636 0.667750 0.500000
O O6 0.500000 0.726583 0.663780
O O7 0.443950 0.500000 0.669426
O O8 0.898611 0.500000 0.678233
O O9 0.929584 0.749317 0.604763
O O10 0.848639 0.736188 0.687630
O O11 0.918183 0.717847 0.809386
O O12 0.000000 0.822787 0.500000
O O13 0.070121 0.000000 0.500000
O O14 0.818050 0.196071 0.500000
O O15 0.763573 0.234670 0.334806
O O16 0.813853 0.000000 0.342654
O O17 0.000000 0.208989 0.856459
O O18 0.939117 0.000000 0.841640
O O19 0.935965 0.192861 0.000000
O O20 0.720050 0.664448 0.500000
O O21 0.726609 0.500000 0.327573
#
# Coordination Sequence:
#
# PCOD8195277 Si02
#       7
#     8   8   8   4   8   8   8
#     4   9  15  21  29  42  59  80 110 145 185 234
#     4   8  13  20  28  37  51  73 102 139 186 235
#     4  12  23  33  49  72  97 119 143 177 217 257
#     4  11  23  37  51  67  91 123 153 177 206 251
#     4  10  19  31  46  61  82 111 141 169 203 249
#     4   9  19  37  58  75  92 118 150 179 209 250
#     4   9  16  25  37  51  69  92 121 157 196 237
#
# _framework density 15.421339
#
# number of rings (size 3 to 8) (size 9 to 14) (size 15 to 20)
#    0.000    2.385    0.769    4.385    0.000    7.692 
#    0.000    2.308    0.000    0.000    0.000    0.000 
#    0.000    0.000    0.000    0.000    0.000    0.000 
#
# Total GULP energy -644734.934688 kJ/mol
# GULP energy per Si atom -12398.748744 kJ/mol
# Density = 1.538624 g / cm^3
# Si number density = 15.421339 Si / 1000 Ang^3
#
#
#
# Elastic Constant Matrix: (Units=GPa)
#
#
# Indices 1 2 3 4 5 6 
#
# 1 126.0135 69.2230 27.0527 0.0000 0.0000 0.0000
# 2 69.2230 132.2049 25.4874 0.0000 0.0000 0.0000
# 3 27.0527 25.4874 32.2252 0.0000 0.0000 0.0000
# 4 0.0000 0.0000 0.0000 11.3154 0.0000 0.0000
# 5 0.0000 0.0000 0.0000 0.0000 5.6811 0.0000
# 6 0.0000 0.0000 0.0000 0.0000 0.0000 32.7100
#
#
#
# Elastic Compliance Matrix: (Units=1/GPa)
#
#
# Indices 1 2 3 4 5 6 
#
# 1 0.012064 -0.005150 -0.006055 0.000000 0.000000 0.000000
# 2 -0.005150 0.011123 -0.004474 0.000000 0.000000 0.000000
# 3 -0.006055 -0.004474 0.039653 0.000000 0.000000 0.000000
# 4 0.000000 0.000000 0.000000 0.088375 0.000000 0.000000
# 5 0.000000 0.000000 0.000000 0.000000 0.176024 0.000000
# 6 0.000000 0.000000 0.000000 0.000000 0.000000 0.030572
#
#
# Mechanical properties :
#
#
# Convention : Reuss Voigt Hill
#
# Bulk Modulus (GPa) = 31.76314 59.32997 45.54655
# Shear Modulus (GPa) = 12.51052 21.18664 16.84858
#
# Velocity S-wave (km/s) = 2.85133 3.71057 3.30896
# Velocity P-wave (km/s) = 5.61086 7.54413 6.64815
#
# Compressibility (1/GPa) = 0.03148303
#
# Stress axis : x y z
#
# Youngs Moduli (GPa) = 82.88843 89.90405 25.21851
#
# Poissons Ratio (x) = 0.46297 0.15270
# Poissons Ratio (y) = 0.42685 0.11283
# Poissons Ratio (z) = 0.50189 0.40225
#
# Static dielectric constant tensor:
#      x y z
#    x 3.199310 0.000000 0.000000 
#    y 0.000000 3.119070 0.000000 
#    z 0.000000 0.000000 2.364030 
# 
# 
# High freq. dielectric constant tensor:
#      x y z
#    x 1.606960 0.000000 0.000000 
#    y 0.000000 1.605750 0.000000 
#    z 0.000000 0.000000 1.507610 
# 
# From -- ./inp_files/15655.got.cif
#   From: 2010.03.12/outbox.cif.g09.slc.cpg/sg47_8_cif.got.tgz:15655.got - 2010.04.14 03:12:58.
