data_PCOD8195665
_publ_section_title
;
Structure prediction by ZEFSAII (Michael W. Deem and Ramdas Pophale) SiO2 
 PCOD8195665
Probable space group: P M M M
;
_chemical_formula_sum "Si O2"
_cell_formula_units_Z 44
_cell_length_a 9.659236
_cell_length_b 31.645743
_cell_length_c 7.976104
_cell_angle_alpha 90.000000
_cell_angle_beta 90.000000
_cell_angle_gamma 90.000000
_cell_volume 2438.085222
_symmetry_space_group_name_H-M "P M M M"
_symmetry_group_IT_number 47
_symmetry_cell_setting 'orthorhombic'
loop_
_space_group_symop_operation_xyz
x,y,z
-x,-y,z
x,-y,-z
-x,y,-z
-x,-y,-z
x,y,-z
-x,y,z
x,-y,z
loop_
_atom_site_type_symbol
_atom_site_label
_atom_site_fract_x
_atom_site_fract_y
_atom_site_fract_z
Si Si1 0.164138 0.500000 0.688844
Si Si2 0.664543 0.047662 0.186126
Si Si3 0.665325 0.803731 0.500000
Si Si4 0.654368 0.662842 0.691168
Si Si5 0.664561 0.751191 0.185062
Si Si6 0.665323 0.899374 0.500000
Si Si7 0.158000 0.589476 0.192775
O O1 0.220001 0.500000 0.500000
O O2 0.218647 0.457731 0.780039
O O3 0.000000 0.500000 0.697454
O O4 0.500000 0.048363 0.192458
O O5 0.724139 0.077818 0.332404
O O6 0.717453 0.000000 0.219157
O O7 0.713607 0.062887 0.000000
O O8 0.500000 0.802662 0.500000
O O9 0.724752 0.781195 0.331820
O O10 0.720572 0.851570 0.500000
O O11 0.647231 0.677687 0.500000
O O12 0.500000 0.650878 0.755769
O O13 0.715686 0.702804 0.792707
O O14 0.751969 0.622420 0.704143
O O15 0.500000 0.751422 0.199016
O O16 0.712454 0.767140 0.000000
O O17 0.500000 0.900747 0.500000
O O18 0.000000 0.592004 0.258008
O O19 0.168167 0.601713 0.000000
#
# Coordination Sequence:
#
# PCOD8195665 Si02
#       7
#     4   8   4   8   8   4   8
#     4   9  17  31  50  69  92 123 152 178 218 269
#     4   8  13  20  28  38  54  79 113 152 197 250
#     4   9  16  25  34  51  73  94 126 165 209 266
#     4  10  19  32  50  70  92 118 152 190 225 270
#     4   9  16  27  42  57  77 105 135 171 215 262
#     4   9  15  20  29  42  60  83 112 154 202 252
#     4  10  20  33  50  73  98 122 150 184 222 268
#
# _framework density 18.046949000000001
#
# number of rings (size 3 to 8) (size 9 to 14) (size 15 to 20)
#    0.000    2.818    0.909    2.182    0.000    5.091 
#    0.000    4.091    0.000    2.727    0.000    0.000 
#    0.000    0.000    0.000    0.000    0.000    0.000 
#
# Total GULP energy -545338.348920 kJ/mol
# GULP energy per Si atom -12394.053385 kJ/mol
# Density = 1.800587 g / cm^3
# Si number density = 18.046949 Si / 1000 Ang^3
#
#
#
# Elastic Constant Matrix: (Units=GPa)
#
#
# Indices 1 2 3 4 5 6 
#
# 1 19.6921 21.9652 13.6230 0.0000 0.0000 0.0000
# 2 21.9652 138.8043 73.6234 0.0000 0.0000 0.0000
# 3 13.6230 73.6234 134.5893 0.0000 0.0000 0.0000
# 4 0.0000 0.0000 0.0000 26.6687 0.0000 0.0000
# 5 0.0000 0.0000 0.0000 0.0000 10.1263 0.0000
# 6 0.0000 0.0000 0.0000 0.0000 0.0000 -1.5840
#
#
#
# Elastic Compliance Matrix: (Units=1/GPa)
#
#
# Indices 1 2 3 4 5 6 
#
# 1 0.061822 -0.009106 -0.001276 0.000000 0.000000 0.000000
# 2 -0.009106 0.011490 -0.005364 0.000000 0.000000 0.000000
# 3 -0.001276 -0.005364 0.010493 0.000000 0.000000 0.000000
# 4 0.000000 0.000000 0.000000 0.037497 0.000000 0.000000
# 5 0.000000 0.000000 0.000000 0.000000 0.098753 0.000000
# 6 0.000000 0.000000 0.000000 0.000000 0.000000 -0.631314
#
#
# Mechanical properties :
#
#
# Convention : Reuss Voigt Hill
#
# Bulk Modulus (GPa) = 19.11563 56.83432 37.97497
# Shear Modulus (GPa) = -13.79963 19.30047 2.75042
#
# Velocity S-wave (km/s) = -2.76823 3.27381 1.23586
# Velocity P-wave (km/s) = 0.63061 6.77136 4.80879
#
# Compressibility (1/GPa) = 0.05231322
#
# Stress axis : x y z
#
# Youngs Moduli (GPa) = 16.17550 87.02893 95.29864
#
# Poissons Ratio (x) = 0.79250 0.12163
# Poissons Ratio (y) = 0.14730 0.51116
# Poissons Ratio (z) = 0.02064 0.46681
#
# Static dielectric constant tensor:
#      x y z
#    x 2.585580 0.000000 0.000000 
#    y 0.000000 3.438710 0.000000 
#    z 0.000000 0.000000 3.615490 
# 
# 
# High freq. dielectric constant tensor:
#      x y z
#    x 1.606940 0.000000 0.000000 
#    y 0.000000 1.701900 0.000000 
#    z 0.000000 0.000000 1.718780 
# 
# From -- ./inp_files/2334.got.cif
#   From: 2010.03.12/outbox.cif.g09.slc.cpg/sg47_2_cif.got.tgz:2334.got - 2010.04.14 03:12:58.
