data_PCOD8195547
_publ_section_title
;
Structure prediction by ZEFSAII (Michael W. Deem and Ramdas Pophale) SiO2 
 PCOD8195547
Probable space group: P M M M
;
_chemical_formula_sum "Si O2"
_cell_formula_units_Z 52
_cell_length_a 9.262632
_cell_length_b 23.571402
_cell_length_c 13.652848
_cell_angle_alpha 90.000000
_cell_angle_beta 90.000000
_cell_angle_gamma 90.000000
_cell_volume 2980.870299
_symmetry_space_group_name_H-M "P M M M"
_symmetry_group_IT_number 47
_symmetry_cell_setting 'orthorhombic'
loop_
_space_group_symop_operation_xyz
x,y,z
-x,-y,z
x,-y,-z
-x,y,-z
-x,-y,-z
x,y,-z
-x,y,z
x,-y,z
loop_
_atom_site_type_symbol
_atom_site_label
_atom_site_fract_x
_atom_site_fract_y
_atom_site_fract_z
Si Si1 0.167882 0.276524 0.887547
Si Si2 0.663473 0.230598 0.613218
Si Si3 0.668543 0.064934 0.500000
Si Si4 0.833933 0.565788 0.388634
Si Si5 0.328869 0.065368 0.713520
Si Si6 0.832052 0.833061 0.227172
Si Si7 0.665663 0.657445 0.725544
O O1 0.203838 0.211148 0.859671
O O2 0.259705 0.320706 0.824658
O O3 0.000000 0.288731 0.867433
O O4 0.209923 0.285482 0.000000
O O5 0.697799 0.221402 0.500000
O O6 0.500000 0.210685 0.638595
O O7 0.778296 0.193978 0.671794
O O8 0.681900 0.296580 0.639377
O O9 0.500000 0.074291 0.500000
O O10 0.724070 0.088397 0.395047
O O11 0.710114 0.000000 0.500000
O O12 0.783115 0.577764 0.500000
O O13 0.813886 0.500000 0.363298
O O14 0.738591 0.600023 0.311473
O O15 0.000000 0.584034 0.376508
O O16 0.500000 0.070405 0.725073
O O17 0.250595 0.107003 0.791074
O O18 0.281671 0.000000 0.730991
O O19 0.000000 0.846418 0.234511
O O20 0.500000 0.644661 0.750565
#
# Coordination Sequence:
#
# PCOD8195547 Si02
#       7
#     8   8   4   8   8   8   8
#     4   9  19  37  57  73  93 126 165 203 250 309
#     4   9  18  31  45  63  93 132 164 189 227 287
#     4   7  12  24  41  59  79 113 159 189 206 251
#     4   9  18  32  50  74 107 148 186 211 234 275
#     4   9  17  30  47  65  89 125 163 192 227 284
#     4  10  20  31  46  71  96 117 151 201 248 286
#     4  10  19  31  50  77 104 129 164 210 257 297
#
# _framework density 17.444569000000001
#
# number of rings (size 3 to 8) (size 9 to 14) (size 15 to 20)
#    0.000    2.846    0.000    2.769    1.077    3.385 
#    0.000    0.769    0.000    2.308    0.000    6.462 
#    0.000    0.000    0.000    0.000    0.000    0.000 
#
# Total GULP energy -644472.330672 kJ/mol
# GULP energy per Si atom -12393.698667 kJ/mol
# Density = 1.740486 g / cm^3
# Si number density = 17.444569 Si / 1000 Ang^3
#
#
#
# Elastic Constant Matrix: (Units=GPa)
#
#
# Indices 1 2 3 4 5 6 
#
# 1 81.0444 54.9375 47.5634 0.0000 0.0000 0.0000
# 2 54.9375 94.4217 42.2677 0.0000 0.0000 0.0000
# 3 47.5634 42.2677 78.5317 0.0000 0.0000 0.0000
# 4 0.0000 0.0000 0.0000 20.5007 0.0000 0.0000
# 5 0.0000 0.0000 0.0000 0.0000 20.2726 0.0000
# 6 0.0000 0.0000 0.0000 0.0000 0.0000 33.9082
#
#
#
# Elastic Compliance Matrix: (Units=1/GPa)
#
#
# Indices 1 2 3 4 5 6 
#
# 1 0.024858 -0.010175 -0.009579 0.000000 0.000000 0.000000
# 2 -0.010175 0.018117 -0.003589 0.000000 0.000000 0.000000
# 3 -0.009579 -0.003589 0.020467 0.000000 0.000000 0.000000
# 4 0.000000 0.000000 0.000000 0.048779 0.000000 0.000000
# 5 0.000000 0.000000 0.000000 0.000000 0.049328 0.000000
# 6 0.000000 0.000000 0.000000 0.000000 0.000000 0.029491
#
#
# Mechanical properties :
#
#
# Convention : Reuss Voigt Hill
#
# Bulk Modulus (GPa) = 59.67719 60.39278 60.03499
# Shear Modulus (GPa) = 20.54978 22.21822 21.38400
#
# Velocity S-wave (km/s) = 3.43593 3.57269 3.50498
# Velocity P-wave (km/s) = 7.07281 7.19123 7.13227
#
# Compressibility (1/GPa) = 0.01675682
#
# Stress axis : x y z
#
# Youngs Moduli (GPa) = 40.22832 55.19533 48.85970
#
# Poissons Ratio (x) = 0.56163 0.46803
# Poissons Ratio (y) = 0.40933 0.17534
# Poissons Ratio (z) = 0.38535 0.19807
#
# Static dielectric constant tensor:
#      x y z
#    x 3.171240 0.000000 0.000000 
#    y 0.000000 3.237710 0.000000 
#    z 0.000000 0.000000 3.107260 
# 
# 
# High freq. dielectric constant tensor:
#      x y z
#    x 1.665740 0.000000 0.000000 
#    y 0.000000 1.675720 0.000000 
#    z 0.000000 0.000000 1.645510 
# 
# From -- ./inp_files/21808.got.cif
#   From: 2010.03.12/outbox.cif.g09.slc.cpg/sg47_11_cif.got.tgz:21808.got - 2010.04.14 03:12:58.
