data_PCOD8195757
_publ_section_title
;
Structure prediction by ZEFSAII (Michael W. Deem and Ramdas Pophale) SiO2 
 PCOD8195757
Probable space group: P M M M
;
_chemical_formula_sum "Si O2"
_cell_formula_units_Z 52
_cell_length_a 18.357383
_cell_length_b 7.885899
_cell_length_c 18.769404
_cell_angle_alpha 90.000000
_cell_angle_beta 90.000000
_cell_angle_gamma 90.000000
_cell_volume 2717.142789
_symmetry_space_group_name_H-M "P M M M"
_symmetry_group_IT_number 47
_symmetry_cell_setting 'orthorhombic'
loop_
_space_group_symop_operation_xyz
x,y,z
-x,-y,z
x,-y,-z
-x,y,-z
-x,-y,-z
x,y,-z
-x,y,z
x,-y,z
loop_
_atom_site_type_symbol
_atom_site_label
_atom_site_fract_x
_atom_site_fract_y
_atom_site_fract_z
Si Si1 0.579326 0.196248 0.356157
Si Si2 0.651818 0.298756 0.781076
Si Si3 0.086342 0.500000 0.919788
Si Si4 0.272462 0.798898 0.579714
Si Si5 0.802253 0.303548 0.716686
Si Si6 0.581744 0.298446 0.922402
Si Si7 0.083929 0.809100 0.821719
O O1 0.500000 0.277480 0.376389
O O2 0.592266 0.221430 0.272178
O O3 0.647657 0.277658 0.399266
O O4 0.575667 0.000000 0.375129
O O5 0.646934 0.500000 0.775952
O O6 0.731965 0.235120 0.759639
O O7 0.634460 0.229552 0.860294
O O8 0.113170 0.670391 0.878927
O O9 0.000000 0.500000 0.924757
O O10 0.119445 0.500000 0.000000
O O11 0.253013 0.738291 0.500000
O O12 0.209859 0.730605 0.632623
O O13 0.274893 0.000000 0.585537
O O14 0.815771 0.500000 0.729986
O O15 0.872022 0.205296 0.747528
O O16 0.500000 0.230348 0.909584
O O17 0.580827 0.500000 0.920504
O O18 0.610131 0.235662 0.000000
O O19 0.000000 0.771751 0.803320
O O20 0.093156 0.000000 0.852831
#
# Coordination Sequence:
#
# PCOD8195757 Si02
#       7
#     8   8   4   8   8   8   8
#     4   9  17  28  43  65  92 124 163 209 263 318
#     4   9  17  28  44  65  91 121 163 207 254 309
#     4   9  18  34  56  84 117 147 178 219 263 309
#     4   9  18  32  49  70  97 132 173 217 269 327
#     4  10  19  32  51  74 104 135 172 216 266 319
#     4   8  13  22  38  60  85 115 155 203 249 291
#     4  10  20  35  58  85 112 146 185 223 266 316
#
# _framework density 19.13775
#
# number of rings (size 3 to 8) (size 9 to 14) (size 15 to 20)
#    0.000    2.846    0.769    1.385    0.000    2.462 
#    0.000    3.846    0.000    0.923    0.000    9.692 
#    0.000    0.000    0.000    0.000    0.000    0.000 
#
# Total GULP energy -644441.854425 kJ/mol
# GULP energy per Si atom -12393.112585 kJ/mol
# Density = 1.909419 g / cm^3
# Si number density = 19.137750 Si / 1000 Ang^3
#
#
#
# Elastic Constant Matrix: (Units=GPa)
#
#
# Indices 1 2 3 4 5 6 
#
# 1 71.8690 24.4800 50.0696 0.0000 0.0000 0.0000
# 2 24.4800 56.0613 26.1292 0.0000 0.0000 0.0000
# 3 50.0696 26.1292 148.7459 0.0000 0.0000 0.0000
# 4 0.0000 0.0000 0.0000 21.9425 0.0000 0.0000
# 5 0.0000 0.0000 0.0000 0.0000 22.5983 0.0000
# 6 0.0000 0.0000 0.0000 0.0000 0.0000 15.6109
#
#
#
# Elastic Compliance Matrix: (Units=1/GPa)
#
#
# Indices 1 2 3 4 5 6 
#
# 1 0.019906 -0.006066 -0.005635 0.000000 0.000000 0.000000
# 2 -0.006066 0.021277 -0.001696 0.000000 0.000000 0.000000
# 3 -0.005635 -0.001696 0.008918 0.000000 0.000000 0.000000
# 4 0.000000 0.000000 0.000000 0.045574 0.000000 0.000000
# 5 0.000000 0.000000 0.000000 0.000000 0.044251 0.000000
# 6 0.000000 0.000000 0.000000 0.000000 0.000000 0.064058
#
#
# Mechanical properties :
#
#
# Convention : Reuss Voigt Hill
#
# Bulk Modulus (GPa) = 42.90536 53.11488 48.01012
# Shear Modulus (GPa) = 20.96036 23.76349 22.36192
#
# Velocity S-wave (km/s) = 3.31303 3.52761 3.42200
# Velocity P-wave (km/s) = 6.09120 6.66380 6.38393
#
# Compressibility (1/GPa) = 0.02330711
#
# Stress axis : x y z
#
# Youngs Moduli (GPa) = 50.23551 46.99966 112.13796
#
# Poissons Ratio (x) = 0.28510 0.63191
# Poissons Ratio (y) = 0.30473 0.19015
# Poissons Ratio (z) = 0.28308 0.07970
#
# Static dielectric constant tensor:
#      x y z
#    x 3.433210 0.000000 0.000000 
#    y 0.000000 3.314850 0.000000 
#    z 0.000000 0.000000 3.717920 
# 
# 
# High freq. dielectric constant tensor:
#      x y z
#    x 1.717770 0.000000 0.000000 
#    y 0.000000 1.729150 0.000000 
#    z 0.000000 0.000000 1.738230 
# 
# From -- ./inp_files/26777.got.cif
#   From: 2010.03.12/outbox.cif.g09.slc.cpg/sg47_14_cif.got.tgz:26777.got - 2010.04.14 03:12:58.
