data_PCOD8195541
_publ_section_title
;
Structure prediction by ZEFSAII (Michael W. Deem and Ramdas Pophale) SiO2 
 PCOD8195541
Probable space group: P M M M
;
_chemical_formula_sum "Si O2"
_cell_formula_units_Z 52
_cell_length_a 9.395992
_cell_length_b 23.091466
_cell_length_c 14.269985
_cell_angle_alpha 90.000000
_cell_angle_beta 90.000000
_cell_angle_gamma 90.000000
_cell_volume 3096.119115
_symmetry_space_group_name_H-M "P M M M"
_symmetry_group_IT_number 47
_symmetry_cell_setting 'orthorhombic'
loop_
_space_group_symop_operation_xyz
x,y,z
-x,-y,z
x,-y,-z
-x,y,-z
-x,-y,-z
x,y,-z
-x,y,z
x,-y,z
loop_
_atom_site_type_symbol
_atom_site_label
_atom_site_fract_x
_atom_site_fract_y
_atom_site_fract_z
Si Si1 0.167229 0.065639 0.705011
Si Si2 0.664820 0.164748 0.608210
Si Si3 0.168630 0.112897 0.101177
Si Si4 0.332668 0.722854 0.277650
Si Si5 0.165085 0.244694 0.105743
Si Si6 0.838910 0.500000 0.388488
Si Si7 0.664441 0.609817 0.390878
O O1 0.246871 0.107753 0.634030
O O2 0.223933 0.074819 0.811745
O O3 0.000000 0.079142 0.699297
O O4 0.200818 0.000000 0.675069
O O5 0.690856 0.179796 0.500000
O O6 0.500000 0.151804 0.628264
O O7 0.718805 0.219475 0.668242
O O8 0.218705 0.178748 0.115706
O O9 0.000000 0.110961 0.096876
O O10 0.227582 0.089863 0.000000
O O11 0.500000 0.724421 0.260863
O O12 0.255669 0.716999 0.177635
O O13 0.287361 0.667646 0.338259
O O14 0.000000 0.249904 0.132259
O O15 0.192020 0.267114 0.000000
O O16 0.834860 0.500000 0.500000
O O17 0.758221 0.556945 0.351163
O O18 0.000000 0.500000 0.350181
O O19 0.692915 0.620658 0.500000
O O20 0.500000 0.594683 0.372327
#
# Coordination Sequence:
#
# PCOD8195541 Si02
#       7
#     8   8   8   8   8   4   8
#     4  10  20  33  50  71  92 117 155 200 241 285
#     4  10  21  36  51  67  91 124 159 196 240 287
#     4   8  14  27  47  69  92 117 146 184 234 290
#     4  10  19  31  50  75  98 123 160 203 239 277
#     4   9  17  30  49  71  96 126 156 189 236 293
#     4   9  17  29  45  69 102 135 168 203 235 272
#     4   9  17  30  48  70  99 135 169 199 235 279
#
# _framework density 16.795218999999999
#
# number of rings (size 3 to 8) (size 9 to 14) (size 15 to 20)
#    0.000    2.692    1.538    1.615    0.000    4.923 
#    0.000    3.077    0.000    3.231    0.000    1.615 
#    0.000    4.308    0.000    0.000    0.000    0.000 
#
# Total GULP energy -644690.009278 kJ/mol
# GULP energy per Si atom -12397.884794 kJ/mol
# Density = 1.675699 g / cm^3
# Si number density = 16.795219 Si / 1000 Ang^3
#
#
#
# Elastic Constant Matrix: (Units=GPa)
#
#
# Indices 1 2 3 4 5 6 
#
# 1 51.8513 50.2891 37.5616 0.0000 0.0000 0.0000
# 2 50.2891 110.0784 46.2628 0.0000 0.0000 0.0000
# 3 37.5616 46.2628 83.4882 0.0000 0.0000 0.0000
# 4 0.0000 0.0000 0.0000 16.8958 0.0000 0.0000
# 5 0.0000 0.0000 0.0000 0.0000 26.6197 0.0000
# 6 0.0000 0.0000 0.0000 0.0000 0.0000 23.8675
#
#
#
# Elastic Compliance Matrix: (Units=1/GPa)
#
#
# Indices 1 2 3 4 5 6 
#
# 1 0.040545 -0.014153 -0.010399 0.000000 0.000000 0.000000
# 2 -0.014153 0.016782 -0.002932 0.000000 0.000000 0.000000
# 3 -0.010399 -0.002932 0.018281 0.000000 0.000000 0.000000
# 4 0.000000 0.000000 0.000000 0.059186 0.000000 0.000000
# 5 0.000000 0.000000 0.000000 0.000000 0.037566 0.000000
# 6 0.000000 0.000000 0.000000 0.000000 0.000000 0.041898
#
#
# Mechanical properties :
#
#
# Convention : Reuss Voigt Hill
#
# Bulk Modulus (GPa) = 48.44748 57.07166 52.75957
# Shear Modulus (GPa) = 18.10887 20.89688 19.50287
#
# Velocity S-wave (km/s) = 3.28718 3.53117 3.41136
# Velocity P-wave (km/s) = 6.58149 7.11900 6.85552
#
# Compressibility (1/GPa) = 0.02064091
#
# Stress axis : x y z
#
# Youngs Moduli (GPa) = 24.66371 59.58645 54.70109
#
# Poissons Ratio (x) = 0.84330 0.56885
# Poissons Ratio (y) = 0.34906 0.16039
# Poissons Ratio (z) = 0.25648 0.17472
#
# Static dielectric constant tensor:
#      x y z
#    x 2.961440 0.000000 0.000000 
#    y 0.000000 3.085170 0.000000 
#    z 0.000000 0.000000 3.264820 
# 
# 
# High freq. dielectric constant tensor:
#      x y z
#    x 1.628090 0.000000 0.000000 
#    y 0.000000 1.633410 0.000000 
#    z 0.000000 0.000000 1.641090 
# 
# From -- ./inp_files/7012.got.cif
#   From: 2010.03.12/outbox.cif.g09.slc.cpg/sg47_4_cif.got.tgz:7012.got - 2010.04.14 03:12:58.
