data_PCOD8195431
_publ_section_title
;
Structure prediction by ZEFSAII (Michael W. Deem and Ramdas Pophale) SiO2 
 PCOD8195431
Probable space group: P M M M
;
_chemical_formula_sum "Si O2"
_cell_formula_units_Z 52
_cell_length_a 12.707353
_cell_length_b 9.099084
_cell_length_c 27.858509
_cell_angle_alpha 90.000000
_cell_angle_beta 90.000000
_cell_angle_gamma 90.000000
_cell_volume 3221.147691
_symmetry_space_group_name_H-M "P M M M"
_symmetry_group_IT_number 47
_symmetry_cell_setting 'orthorhombic'
loop_
_space_group_symop_operation_xyz
x,y,z
-x,-y,z
x,-y,-z
-x,y,-z
-x,-y,-z
x,y,-z
-x,y,z
x,-y,z
loop_
_atom_site_type_symbol
_atom_site_label
_atom_site_fract_x
_atom_site_fract_y
_atom_site_fract_z
Si Si1 0.226782 0.825291 0.874264
Si Si2 0.000000 0.335333 0.218608
Si Si3 0.378589 0.672301 0.311470
Si Si4 0.625616 0.333959 0.500000
Si Si5 0.230222 0.331213 0.773195
Si Si6 0.625127 0.834522 0.593116
Si Si7 0.000000 0.170708 0.875905
Si Si8 0.622325 0.667509 0.945033
O O1 0.248099 0.757542 0.822096
O O2 0.112450 0.769327 0.895736
O O3 0.315045 0.777234 0.911261
O O4 0.228733 0.000000 0.868740
O O5 0.109877 0.316654 0.247596
O O6 0.000000 0.206568 0.180095
O O7 0.000000 0.500000 0.195035
O O8 0.500000 0.710213 0.300510
O O9 0.362554 0.500000 0.320278
O O10 0.309505 0.730338 0.266921
O O11 0.336725 0.754611 0.358638
O O12 0.668549 0.500000 0.500000
O O13 0.500000 0.332988 0.500000
O O14 0.669966 0.251743 0.452969
O O15 0.257837 0.500000 0.784546
O O16 0.500000 0.834575 0.591073
O O17 0.669527 0.000000 0.592416
O O18 0.000000 0.000000 0.884474
O O19 0.500000 0.690256 0.934248
O O20 0.655249 0.500000 0.934144
O O21 0.647700 0.707222 0.000000
#
# Coordination Sequence:
#
# PCOD8195431 Si02
#       8
#     8   4   8   4   8   8   4   8
#     4  10  19  31  49  71  93 117 146 180 218 262
#     4   8  14  26  44  63  81 107 147 187 216 245
#     4   9  17  28  40  56  82 115 145 172 209 256
#     4   9  15  23  37  55  75 104 143 180 211 249
#     4   9  17  29  45  64  87 116 148 181 216 256
#     4   9  16  25  37  54  78 108 141 177 214 250
#     4   8  16  30  45  65  94 121 141 169 216 265
#     4   9  19  36  54  69  88 116 148 182 220 260
#
# _framework density 16.143312999999999
#
# number of rings (size 3 to 8) (size 9 to 14) (size 15 to 20)
#    0.000    3.000    0.000    1.615    0.000    5.231 
#    0.000    2.692    0.000    2.308    0.000    0.000 
#    0.000    0.615    0.000    7.231    0.000    3.538 
#
# Total GULP energy -644306.739548 kJ/mol
# GULP energy per Si atom -12390.514222 kJ/mol
# Density = 1.610657 g / cm^3
# Si number density = 16.143313 Si / 1000 Ang^3
#
#
#
# Elastic Constant Matrix: (Units=GPa)
#
#
# Indices 1 2 3 4 5 6 
#
# 1 71.3206 30.5855 58.7528 0.0000 0.0000 0.0000
# 2 30.5855 64.1986 50.5607 0.0000 0.0000 0.0000
# 3 58.7528 50.5607 109.6748 0.0000 0.0000 0.0000
# 4 0.0000 0.0000 0.0000 15.6470 0.0000 0.0000
# 5 0.0000 0.0000 0.0000 0.0000 0.4899 0.0000
# 6 0.0000 0.0000 0.0000 0.0000 0.0000 15.9705
#
#
#
# Elastic Compliance Matrix: (Units=1/GPa)
#
#
# Indices 1 2 3 4 5 6 
#
# 1 0.025286 -0.002164 -0.012548 0.000000 0.000000 0.000000
# 2 -0.002164 0.024641 -0.010200 0.000000 0.000000 0.000000
# 3 -0.012548 -0.010200 0.020542 0.000000 0.000000 0.000000
# 4 0.000000 0.000000 0.000000 0.063910 0.000000 0.000000
# 5 0.000000 0.000000 0.000000 0.000000 2.041122 0.000000
# 6 0.000000 0.000000 0.000000 0.000000 0.000000 0.062615
#
#
# Mechanical properties :
#
#
# Convention : Reuss Voigt Hill
#
# Bulk Modulus (GPa) = 48.43967 58.33244 53.38606
# Shear Modulus (GPa) = 2.17882 13.44116 7.80999
#
# Velocity S-wave (km/s) = 1.16301 2.88864 2.20191
# Velocity P-wave (km/s) = 5.64576 6.88028 6.29336
#
# Compressibility (1/GPa) = 0.02064424
#
# Stress axis : x y z
#
# Youngs Moduli (GPa) = 39.54712 40.58239 48.68026
#
# Poissons Ratio (x) = 0.08784 0.61084
# Poissons Ratio (y) = 0.08560 0.49655
# Poissons Ratio (z) = 0.49624 0.41395
#
# Static dielectric constant tensor:
#      x y z
#    x 3.107790 0.000000 0.000000 
#    y 0.000000 3.098050 0.000000 
#    z 0.000000 0.000000 2.940710 
# 
# 
# High freq. dielectric constant tensor:
#      x y z
#    x 1.597440 0.000000 0.000000 
#    y 0.000000 1.625230 0.000000 
#    z 0.000000 0.000000 1.603070 
# 
# From -- ./inp_files/34570.got.cif
#   From: 2010.03.12/outbox.cif.g09.slc.cpg/sg47_18_cif.got.tgz:34570.got - 2010.04.14 03:12:58.
