data_PCOD8195001
_publ_section_title
;
Structure prediction by ZEFSAII (Michael W. Deem and Ramdas Pophale) SiO2 
 PCOD8195001
Probable space group: P M M M
;
_chemical_formula_sum "Si O2"
_cell_formula_units_Z 48
_cell_length_a 13.742033
_cell_length_b 24.184996
_cell_length_c 9.245520
_cell_angle_alpha 90.000000
_cell_angle_beta 90.000000
_cell_angle_gamma 90.000000
_cell_volume 3072.757939
_symmetry_space_group_name_H-M "P M M M"
_symmetry_group_IT_number 47
_symmetry_cell_setting 'orthorhombic'
loop_
_space_group_symop_operation_xyz
x,y,z
-x,-y,z
x,-y,-z
-x,y,-z
-x,-y,-z
x,y,-z
-x,y,z
x,-y,z
loop_
_atom_site_type_symbol
_atom_site_label
_atom_site_fract_x
_atom_site_fract_y
_atom_site_fract_z
Si Si1 0.109857 0.870748 0.166674
Si Si2 0.388904 0.829647 0.829112
Si Si3 0.889315 0.334444 0.669176
Si Si4 0.216645 0.777027 0.328794
Si Si5 0.884401 0.439561 0.836929
Si Si6 0.709108 0.939812 0.168719
O O1 0.137503 0.819826 0.268672
O O2 0.179376 0.922678 0.201048
O O3 0.000000 0.889367 0.199572
O O4 0.123230 0.851999 0.000000
O O5 0.500000 0.816488 0.790307
O O6 0.321548 0.785823 0.745767
O O7 0.362807 0.891762 0.773363
O O8 0.368441 0.824811 0.000000
O O9 0.888758 0.344267 0.500000
O O10 0.820845 0.283631 0.713458
O O11 0.843524 0.389678 0.739848
O O12 0.000000 0.322979 0.722869
O O13 0.226268 0.784892 0.500000
O O14 0.847234 0.500000 0.781758
O O15 0.000000 0.439056 0.829983
O O16 0.848070 0.429933 0.000000
O O17 0.688732 0.000000 0.242295
O O18 0.690921 0.946248 0.000000
#
# Coordination Sequence:
#
# PCOD8195001 Si02
#       6
#     8   8   8   8   8   8
#     4   9  17  28  42  61  85 113 143 173 207 247
#     4   9  18  32  48  65  84 105 132 170 216 263
#     4   9  17  27  39  58  84 114 146 176 205 237
#     4  10  19  30  44  62  85 111 142 178 212 251
#     4   8  14  24  37  55  81 113 147 178 205 234
#     4   8  14  25  42  65  88 106 130 168 211 253
#
# _framework density 15.621146
#
# number of rings (size 3 to 8) (size 9 to 14) (size 15 to 20)
#    0.000    3.167    0.000    2.500    0.000    3.667 
#    0.000    6.667    0.000    8.000    0.000    9.333 
#    0.000    0.667    0.000    7.333    0.000    5.667 
#
# Total GULP energy -594856.917586 kJ/mol
# GULP energy per Si atom -12392.852450 kJ/mol
# Density = 1.558559 g / cm^3
# Si number density = 15.621146 Si / 1000 Ang^3
#
#
#
# Elastic Constant Matrix: (Units=GPa)
#
#
# Indices 1 2 3 4 5 6 
#
# 1 84.1427 41.3585 27.6219 0.0000 0.0000 0.0000
# 2 41.3585 133.0166 45.3043 0.0000 0.0000 0.0000
# 3 27.6219 45.3043 41.6394 0.0000 0.0000 0.0000
# 4 0.0000 0.0000 0.0000 13.6428 0.0000 0.0000
# 5 0.0000 0.0000 0.0000 0.0000 17.6825 0.0000
# 6 0.0000 0.0000 0.0000 0.0000 0.0000 13.6816
#
#
#
# Elastic Compliance Matrix: (Units=1/GPa)
#
#
# Indices 1 2 3 4 5 6 
#
# 1 0.015554 -0.002100 -0.008033 0.000000 0.000000 0.000000
# 2 -0.002100 0.012227 -0.011910 0.000000 0.000000 0.000000
# 3 -0.008033 -0.011910 0.042303 0.000000 0.000000 0.000000
# 4 0.000000 0.000000 0.000000 0.073299 0.000000 0.000000
# 5 0.000000 0.000000 0.000000 0.000000 0.056553 0.000000
# 6 0.000000 0.000000 0.000000 0.000000 0.000000 0.073091
#
#
# Mechanical properties :
#
#
# Convention : Reuss Voigt Hill
#
# Bulk Modulus (GPa) = 38.46515 54.15201 46.30858
# Shear Modulus (GPa) = 15.34779 18.63564 16.99172
#
# Velocity S-wave (km/s) = 3.13789 3.45769 3.30167
# Velocity P-wave (km/s) = 6.14863 7.11913 6.65160
#
# Compressibility (1/GPa) = 0.02599756
#
# Stress axis : x y z
#
# Youngs Moduli (GPa) = 64.29287 81.78307 23.63900
#
# Poissons Ratio (x) = 0.17177 0.18988
# Poissons Ratio (y) = 0.13503 0.28155
# Poissons Ratio (z) = 0.51644 0.97407
#
# Static dielectric constant tensor:
#      x y z
#    x 2.811250 0.000000 0.000000 
#    y 0.000000 3.257690 0.000000 
#    z 0.000000 0.000000 2.846530 
# 
# 
# High freq. dielectric constant tensor:
#      x y z
#    x 1.568960 0.000000 0.000000 
#    y 0.000000 1.598330 0.000000 
#    z 0.000000 0.000000 1.582430 
# 
# From -- ./inp_files/7465.got.cif
#   From: 2010.03.12/outbox.cif.g09.slc.cpg/sg47_4_cif.got.tgz:7465.got - 2010.04.14 03:12:58.
