data_PCOD8195455
_publ_section_title
;
Structure prediction by ZEFSAII (Michael W. Deem and Ramdas Pophale) SiO2 
 PCOD8195455
Probable space group: P M M M
;
_chemical_formula_sum "Si O2"
_cell_formula_units_Z 64
_cell_length_a 18.804831
_cell_length_b 9.849862
_cell_length_c 19.292678
_cell_angle_alpha 90.000000
_cell_angle_beta 90.000000
_cell_angle_gamma 90.000000
_cell_volume 3573.486095
_symmetry_space_group_name_H-M "P M M M"
_symmetry_group_IT_number 47
_symmetry_cell_setting 'orthorhombic'
loop_
_space_group_symop_operation_xyz
x,y,z
-x,-y,z
x,-y,-z
-x,y,-z
-x,-y,-z
x,y,-z
-x,y,z
x,-y,z
loop_
_atom_site_type_symbol
_atom_site_label
_atom_site_fract_x
_atom_site_fract_y
_atom_site_fract_z
Si Si1 0.192491 0.344028 0.920890
Si Si2 0.582955 0.354275 0.424476
Si Si3 0.081620 0.157233 0.676441
Si Si4 0.794278 0.159885 0.578224
Si Si5 0.661340 0.160022 0.334201
Si Si6 0.579437 0.840472 0.798285
Si Si7 0.918316 0.655843 0.803817
Si Si8 0.323903 0.156930 0.920931
O O1 0.216463 0.500000 0.911481
O O2 0.126203 0.307908 0.872148
O O3 0.257395 0.248465 0.898990
O O4 0.168989 0.315338 0.000000
O O5 0.618390 0.334414 0.500000
O O6 0.500000 0.360738 0.433065
O O7 0.609784 0.500000 0.393124
O O8 0.599397 0.224268 0.379189
O O9 0.128490 0.196741 0.609407
O O10 0.106531 0.247908 0.741193
O O11 0.000000 0.186928 0.656565
O O12 0.093356 0.000000 0.697057
O O13 0.786972 0.222300 0.500000
O O14 0.736005 0.215790 0.634082
O O15 0.784766 0.000000 0.572130
O O16 0.640847 0.207651 0.256155
O O17 0.658059 0.000000 0.341320
O O18 0.500000 0.775103 0.787526
O O19 0.608440 0.801619 0.874288
O O20 0.570483 0.000000 0.790560
O O21 0.906614 0.500000 0.780873
O O22 0.000000 0.684291 0.822893
O O23 0.302442 0.000000 0.908829
O O24 0.346422 0.184288 0.000000
#
# Coordination Sequence:
#
# PCOD8195455 Si02
#       8
#     8   8   8   8   8   8   8   8
#     4   9  18  32  50  73 102 135 169 205 244 288
#     4   9  18  32  48  66  92 126 158 191 237 289
#     4   9  18  32  51  74  98 129 167 205 247 292
#     4   9  18  31  48  73 101 128 162 204 247 291
#     4  10  19  31  49  72  96 124 159 201 244 288
#     4   9  18  31  48  73 101 128 162 204 247 291
#     4   9  18  32  50  73 102 135 169 205 244 288
#     4   9  18  32  51  74  98 129 167 205 247 292
#
# _framework density 17.909682
#
# number of rings (size 3 to 8) (size 9 to 14) (size 15 to 20)
#    0.000    2.875    0.000    1.125    1.750    2.750 
#    0.000    5.625    0.000    2.250    0.000    7.000 
#    0.000    0.000    0.000    0.000    0.000    0.000 
#
# Total GULP energy -793028.946173 kJ/mol
# GULP energy per Si atom -12391.077284 kJ/mol
# Density = 1.786892 g / cm^3
# Si number density = 17.909682 Si / 1000 Ang^3
#
#
#
# Elastic Constant Matrix: (Units=GPa)
#
#
# Indices 1 2 3 4 5 6 
#
# 1 102.7659 30.5456 77.5677 0.0000 0.0000 0.0000
# 2 30.5456 33.4913 32.5981 0.0000 0.0000 0.0000
# 3 77.5677 32.5981 122.0574 0.0000 0.0000 0.0000
# 4 0.0000 0.0000 0.0000 18.4709 0.0000 0.0000
# 5 0.0000 0.0000 0.0000 0.0000 31.4854 0.0000
# 6 0.0000 0.0000 0.0000 0.0000 0.0000 19.7365
#
#
#
# Elastic Compliance Matrix: (Units=1/GPa)
#
#
# Indices 1 2 3 4 5 6 
#
# 1 0.020172 -0.008000 -0.010683 0.000000 0.000000 0.000000
# 2 -0.008000 0.043519 -0.006539 0.000000 0.000000 0.000000
# 3 -0.010683 -0.006539 0.016728 0.000000 0.000000 0.000000
# 4 0.000000 0.000000 0.000000 0.054139 0.000000 0.000000
# 5 0.000000 0.000000 0.000000 0.000000 0.031761 0.000000
# 6 0.000000 0.000000 0.000000 0.000000 0.000000 0.050668
#
#
# Mechanical properties :
#
#
# Convention : Reuss Voigt Hill
#
# Bulk Modulus (GPa) = 33.35969 59.97082 46.66525
# Shear Modulus (GPa) = 18.02307 21.77878 19.90092
#
# Velocity S-wave (km/s) = 3.17571 3.49095 3.33706
# Velocity P-wave (km/s) = 5.66692 7.05739 6.40003
#
# Compressibility (1/GPa) = 0.02997630
#
# Stress axis : x y z
#
# Youngs Moduli (GPa) = 49.57325 22.97841 59.77939
#
# Poissons Ratio (x) = 0.18383 0.63862
# Poissons Ratio (y) = 0.39658 0.39088
# Poissons Ratio (z) = 0.52959 0.15025
#
# Static dielectric constant tensor:
#      x y z
#    x 3.349790 0.000000 0.000000 
#    y 0.000000 3.186840 0.000000 
#    z 0.000000 0.000000 3.458800 
# 
# 
# High freq. dielectric constant tensor:
#      x y z
#    x 1.689160 0.000000 0.000000 
#    y 0.000000 1.666310 0.000000 
#    z 0.000000 0.000000 1.696070 
# 
# From -- ./inp_files/28795.got.cif
#   From: 2010.03.12/outbox.cif.g09.slc.cpg/sg47_15_cif.got.tgz:28795.got - 2010.04.14 03:12:58.
