data_PCOD8195334
_publ_section_title
;
Structure prediction by ZEFSAII (Michael W. Deem and Ramdas Pophale) SiO2 
 PCOD8195334
Probable space group: P M M M
;
_chemical_formula_sum "Si O2"
_cell_formula_units_Z 42
_cell_length_a 11.723908
_cell_length_b 9.896687
_cell_length_c 21.969523
_cell_angle_alpha 90.000000
_cell_angle_beta 90.000000
_cell_angle_gamma 90.000000
_cell_volume 2549.076473
_symmetry_space_group_name_H-M "P M M M"
_symmetry_group_IT_number 47
_symmetry_cell_setting 'orthorhombic'
loop_
_space_group_symop_operation_xyz
x,y,z
-x,-y,z
x,-y,-z
-x,y,-z
-x,-y,-z
x,y,-z
-x,y,z
x,-y,z
loop_
_atom_site_type_symbol
_atom_site_label
_atom_site_fract_x
_atom_site_fract_y
_atom_site_fract_z
Si Si1 0.276473 0.157839 0.803062
Si Si2 0.251299 0.346725 0.000000
Si Si3 0.866460 0.343679 0.120351
Si Si4 0.631553 0.846133 0.671628
Si Si5 0.635474 0.348321 0.432619
Si Si6 0.500000 0.847563 0.132568
Si Si7 0.500000 0.752137 0.000000
O O1 0.169699 0.249803 0.822884
O O2 0.294141 0.179251 0.731509
O O3 0.385938 0.218261 0.839605
O O4 0.254023 0.000000 0.818507
O O5 0.197792 0.282001 0.939072
O O6 0.388089 0.340406 0.000000
O O7 0.209862 0.500000 0.000000
O O8 0.832590 0.500000 0.133088
O O9 0.000000 0.329134 0.109601
O O10 0.500000 0.810027 0.686282
O O11 0.683928 0.753736 0.618018
O O12 0.641777 0.000000 0.649517
O O13 0.681306 0.308555 0.500000
O O14 0.500000 0.339483 0.433129
O O15 0.675148 0.500000 0.416132
O O16 0.500000 0.000000 0.156835
O O17 0.500000 0.845190 0.059582
#
# Coordination Sequence:
#
# PCOD8195334 Si02
#       7
#     8   4   8   8   8   4   2
#     4  10  19  33  50  69  95 124 156 195 239 284
#     4  10  20  33  50  71  94 120 151 193 241 288
#     4  10  21  37  53  68  90 122 158 196 240 286
#     4   9  16  26  42  63  90 123 156 189 229 275
#     4   8  14  24  37  56  87 125 160 192 224 260
#     4  10  19  31  47  68  96 126 152 188 242 292
#     4  12  18  30  52  72  94 122 156 192 238 290
#
# _framework density 16.476555999999999
#
# number of rings (size 3 to 8) (size 9 to 14) (size 15 to 20)
#    0.000    2.476    2.857    1.143    0.000    2.667 
#    0.000    2.857    0.000    1.143    0.000    0.000 
#    0.000    0.762    0.000    8.381    0.000    6.476 
#
# Total GULP energy -520661.749246 kJ/mol
# GULP energy per Si atom -12396.708315 kJ/mol
# Density = 1.643905 g / cm^3
# Si number density = 16.476556 Si / 1000 Ang^3
#
#
#
# Elastic Constant Matrix: (Units=GPa)
#
#
# Indices 1 2 3 4 5 6 
#
# 1 63.1993 30.6708 32.3194 0.0000 0.0000 0.0000
# 2 30.6708 75.0690 61.0388 0.0000 0.0000 0.0000
# 3 32.3194 61.0388 117.2341 0.0000 0.0000 0.0000
# 4 0.0000 0.0000 0.0000 30.7617 0.0000 0.0000
# 5 0.0000 0.0000 0.0000 0.0000 9.3708 0.0000
# 6 0.0000 0.0000 0.0000 0.0000 0.0000 20.3608
#
#
#
# Elastic Compliance Matrix: (Units=1/GPa)
#
#
# Indices 1 2 3 4 5 6 
#
# 1 0.020055 -0.006414 -0.002190 0.000000 0.000000 0.000000
# 2 -0.006414 0.025152 -0.011327 0.000000 0.000000 0.000000
# 3 -0.002190 -0.011327 0.015031 0.000000 0.000000 0.000000
# 4 0.000000 0.000000 0.000000 0.032508 0.000000 0.000000
# 5 0.000000 0.000000 0.000000 0.000000 0.106715 0.000000
# 6 0.000000 0.000000 0.000000 0.000000 0.000000 0.049114
#
#
# Mechanical properties :
#
#
# Convention : Reuss Voigt Hill
#
# Bulk Modulus (GPa) = 49.07443 55.95117 52.51280
# Shear Modulus (GPa) = 16.93603 20.86354 18.89979
#
# Velocity S-wave (km/s) = 3.20955 3.56231 3.39052
# Velocity P-wave (km/s) = 6.60182 7.13806 6.87517
#
# Compressibility (1/GPa) = 0.02037721
#
# Stress axis : x y z
#
# Youngs Moduli (GPa) = 49.86231 39.75863 66.52804
#
# Poissons Ratio (x) = 0.25499 0.14567
# Poissons Ratio (y) = 0.31979 0.75359
# Poissons Ratio (z) = 0.10918 0.45036
#
# Static dielectric constant tensor:
#      x y z
#    x 2.748860 0.000000 0.000000 
#    y 0.000000 3.029830 0.000000 
#    z 0.000000 0.000000 3.254030 
# 
# 
# High freq. dielectric constant tensor:
#      x y z
#    x 1.591520 0.000000 0.000000 
#    y 0.000000 1.624070 0.000000 
#    z 0.000000 0.000000 1.638750 
# 
# From -- ./inp_files/27426.got.cif
#   From: 2010.03.12/outbox.cif.g09.slc.cpg/sg47_14_cif.got.tgz:27426.got - 2010.04.14 03:12:58.
