data_PCOD8195362
_publ_section_title
;
Structure prediction by ZEFSAII (Michael W. Deem and Ramdas Pophale) SiO2 
 PCOD8195362
Probable space group: P M M M
;
_chemical_formula_sum "Si O2"
_cell_formula_units_Z 64
_cell_length_a 9.851213
_cell_length_b 14.248762
_cell_length_c 30.643920
_cell_angle_alpha 90.000000
_cell_angle_beta 90.000000
_cell_angle_gamma 90.000000
_cell_volume 4301.413182
_symmetry_space_group_name_H-M "P M M M"
_symmetry_group_IT_number 47
_symmetry_cell_setting 'orthorhombic'
loop_
_space_group_symop_operation_xyz
x,y,z
-x,-y,z
x,-y,-z
-x,y,-z
-x,-y,-z
x,y,-z
-x,y,z
x,-y,z
loop_
_atom_site_type_symbol
_atom_site_label
_atom_site_fract_x
_atom_site_fract_y
_atom_site_fract_z
Si Si1 0.150127 0.111531 0.621432
Si Si2 0.156367 0.204801 0.950504
Si Si3 0.651800 0.888385 0.451615
Si Si4 0.346325 0.604118 0.828645
Si Si5 0.344578 0.794384 0.789045
Si Si6 0.656344 0.109604 0.879639
Si Si7 0.154623 0.395814 0.909064
Si Si8 0.841608 0.108497 0.719453
O O1 0.250984 0.155601 0.585401
O O2 0.196508 0.139280 0.670174
O O3 0.000000 0.151620 0.611950
O O4 0.146621 0.000000 0.617906
O O5 0.251283 0.144985 0.919057
O O6 0.181128 0.316774 0.945438
O O7 0.000000 0.179937 0.939908
O O8 0.192877 0.177659 0.000000
O O9 0.701548 0.857618 0.500000
O O10 0.500000 0.850576 0.443238
O O11 0.652503 0.000000 0.448430
O O12 0.500000 0.610727 0.846686
O O13 0.316551 0.500000 0.809431
O O14 0.325223 0.681679 0.791129
O O15 0.248577 0.627925 0.868343
O O16 0.500000 0.821924 0.778153
O O17 0.300573 0.839017 0.835132
O O18 0.247685 0.829457 0.751241
O O19 0.500000 0.131670 0.891185
O O20 0.681363 0.000000 0.872713
O O21 0.187337 0.500000 0.928153
O O22 0.000000 0.391632 0.892344
O O23 0.000000 0.126611 0.728567
O O24 0.805634 0.000000 0.727196
#
# Coordination Sequence:
#
# PCOD8195362 Si02
#       8
#     8   8   8   8   8   8   8   8
#     4   8  14  24  35  48  70 100 135 174 212 249
#     4  10  21  35  50  69  91 113 138 167 199 240
#     4   8  13  20  30  46  68  95 131 175 218 255
#     4   9  17  30  49  70  90 110 131 160 200 243
#     4  10  19  31  48  68  87 107 135 170 205 246
#     4  10  21  36  51  67  87 110 139 175 209 241
#     4   9  17  30  49  71  92 112 133 159 195 239
#     4   9  18  30  42  59  84 113 144 178 215 251
#
# _framework density 14.878831
#
# number of rings (size 3 to 8) (size 9 to 14) (size 15 to 20)
#    0.000    2.875    1.250    1.500    0.000    3.500 
#    0.000    5.000    0.000    0.000    0.000    2.625 
#    0.000    0.000    0.000    0.000    0.000    0.625 
#
# Total GULP energy -793288.497006 kJ/mol
# GULP energy per Si atom -12395.132766 kJ/mol
# Density = 1.484497 g / cm^3
# Si number density = 14.878831 Si / 1000 Ang^3
#
#
#
# Elastic Constant Matrix: (Units=GPa)
#
#
# Indices 1 2 3 4 5 6 
#
# 1 73.8082 32.1383 66.1267 0.0000 0.0000 0.0000
# 2 32.1383 59.1390 38.5556 0.0000 0.0000 0.0000
# 3 66.1267 38.5556 111.6433 0.0000 0.0000 0.0000
# 4 0.0000 0.0000 0.0000 5.7557 0.0000 0.0000
# 5 0.0000 0.0000 0.0000 0.0000 18.3110 0.0000
# 6 0.0000 0.0000 0.0000 0.0000 0.0000 18.7613
#
#
#
# Elastic Compliance Matrix: (Units=1/GPa)
#
#
# Indices 1 2 3 4 5 6 
#
# 1 0.030532 -0.006198 -0.015944 0.000000 0.000000 0.000000
# 2 -0.006198 0.023081 -0.004300 0.000000 0.000000 0.000000
# 3 -0.015944 -0.004300 0.019886 0.000000 0.000000 0.000000
# 4 0.000000 0.000000 0.000000 0.173741 0.000000 0.000000
# 5 0.000000 0.000000 0.000000 0.000000 0.054612 0.000000
# 6 0.000000 0.000000 0.000000 0.000000 0.000000 0.053301
#
#
# Mechanical properties :
#
#
# Convention : Reuss Voigt Hill
#
# Bulk Modulus (GPa) = 48.50739 57.58132 53.04435
# Shear Modulus (GPa) = 12.05091 15.75025 13.90058
#
# Velocity S-wave (km/s) = 2.84903 3.25709 3.05987
# Velocity P-wave (km/s) = 6.59507 7.27524 6.94349
#
# Compressibility (1/GPa) = 0.02061542
#
# Stress axis : x y z
#
# Youngs Moduli (GPa) = 32.75296 43.32632 50.28764
#
# Poissons Ratio (x) = 0.26852 0.80177
# Poissons Ratio (y) = 0.20299 0.21624
# Poissons Ratio (z) = 0.52220 0.18630
#
# Static dielectric constant tensor:
#      x y z
#    x 3.041960 0.000000 0.000000 
#    y 0.000000 2.763230 0.000000 
#    z 0.000000 0.000000 2.831170 
# 
# 
# High freq. dielectric constant tensor:
#      x y z
#    x 1.577640 0.000000 0.000000 
#    y 0.000000 1.538540 0.000000 
#    z 0.000000 0.000000 1.553200 
# 
# From -- ./inp_files/34411.got.cif
#   From: 2010.03.12/outbox.cif.g09.slc.cpg/sg47_18_cif.got.tgz:34411.got - 2010.04.14 03:12:58.
