data_PCOD8195741
_publ_section_title
;
Structure prediction by ZEFSAII (Michael W. Deem and Ramdas Pophale) SiO2 
 PCOD8195741
Probable space group: P M M M
;
_chemical_formula_sum "Si O2"
_cell_formula_units_Z 48
_cell_length_a 9.391165
_cell_length_b 8.164205
_cell_length_c 32.334714
_cell_angle_alpha 90.000000
_cell_angle_beta 90.000000
_cell_angle_gamma 90.000000
_cell_volume 2479.147670
_symmetry_space_group_name_H-M "P M M M"
_symmetry_group_IT_number 47
_symmetry_cell_setting 'orthorhombic'
loop_
_space_group_symop_operation_xyz
x,y,z
-x,-y,z
x,-y,-z
-x,y,-z
-x,-y,-z
x,y,-z
-x,y,z
x,-y,z
loop_
_atom_site_type_symbol
_atom_site_label
_atom_site_fract_x
_atom_site_fract_y
_atom_site_fract_z
Si Si1 0.834971 0.807805 0.258458
Si Si2 0.662564 0.192492 0.662435
Si Si3 0.660441 0.311570 0.817579
Si Si4 0.331228 0.818018 0.904680
Si Si5 0.669670 0.500000 0.047175
Si Si6 0.659396 0.310146 0.425609
Si Si7 0.844879 0.810999 0.500000
O O1 0.759950 0.743601 0.300144
O O2 0.767218 0.715630 0.219901
O O3 0.000000 0.762058 0.261120
O O4 0.809226 0.000000 0.252798
O O5 0.500000 0.243238 0.672083
O O6 0.717738 0.277308 0.620491
O O7 0.678526 0.000000 0.656461
O O8 0.500000 0.259729 0.804366
O O9 0.662926 0.500000 0.831292
O O10 0.712631 0.206840 0.856877
O O11 0.500000 0.813177 0.908833
O O12 0.268397 0.667523 0.931993
O O13 0.275590 0.000000 0.918738
O O14 0.500000 0.500000 0.050898
O O15 0.721118 0.500000 0.000000
O O16 0.500000 0.235185 0.429629
O O17 0.655390 0.500000 0.435163
O O18 0.760778 0.229547 0.458714
O O19 0.000000 0.721851 0.500000
O O20 0.873028 0.000000 0.500000
#
# Coordination Sequence:
#
# PCOD8195741 Si02
#       7
#     8   8   8   8   4   8   4
#     4  10  21  35  51  75 107 139 173 216 265 318
#     4   9  18  34  55  77 104 141 182 219 258 310
#     4  10  19  32  51  73  99 134 179 227 268 314
#     4   9  16  27  44  66  95 133 176 220 268 321
#     4   9  16  26  40  64 101 137 173 219 269 326
#     4  10  21  37  58  83 109 136 170 214 261 310
#     4  11  24  39  56  80 108 139 176 215 258 310
#
# _framework density 19.361492999999999
#
# number of rings (size 3 to 8) (size 9 to 14) (size 15 to 20)
#    0.000    2.333    0.833    2.000    0.000    6.333 
#    0.000    5.000    0.000    0.000    0.000    0.000 
#    0.000    1.333    0.000    3.500    0.000    3.333 
#
# Total GULP energy -595119.169100 kJ/mol
# GULP energy per Si atom -12398.316023 kJ/mol
# Density = 1.931743 g / cm^3
# Si number density = 19.361493 Si / 1000 Ang^3
#
#
#
# Elastic Constant Matrix: (Units=GPa)
#
#
# Indices 1 2 3 4 5 6 
#
# 1 74.6113 28.4441 55.9717 0.0000 0.0000 0.0000
# 2 28.4441 91.4737 55.6000 0.0000 0.0000 0.0000
# 3 55.9717 55.6000 135.4884 0.0000 0.0000 0.0000
# 4 0.0000 0.0000 0.0000 30.8676 0.0000 0.0000
# 5 0.0000 0.0000 0.0000 0.0000 -2.5927 0.0000
# 6 0.0000 0.0000 0.0000 0.0000 0.0000 14.4215
#
#
#
# Elastic Compliance Matrix: (Units=1/GPa)
#
#
# Indices 1 2 3 4 5 6 
#
# 1 0.019588 -0.001562 -0.007451 0.000000 0.000000 0.000000
# 2 -0.001562 0.014690 -0.005383 0.000000 0.000000 0.000000
# 3 -0.007451 -0.005383 0.012668 0.000000 0.000000 0.000000
# 4 0.000000 0.000000 0.000000 0.032396 0.000000 0.000000
# 5 0.000000 0.000000 0.000000 0.000000 -0.385700 0.000000
# 6 0.000000 0.000000 0.000000 0.000000 0.000000 0.069341
#
#
# Mechanical properties :
#
#
# Convention : Reuss Voigt Hill
#
# Bulk Modulus (GPa) = 55.08571 64.62279 59.85425
# Shear Modulus (GPa) = -24.73104 19.30978 -2.71063
#
# Velocity S-wave (km/s) = -3.57785 3.16148 -1.18450
# Velocity P-wave (km/s) = 3.38303 6.83930 5.39541
#
# Compressibility (1/GPa) = 0.01815353
#
# Stress axis : x y z
#
# Youngs Moduli (GPa) = 51.05214 68.07507 78.94076
#
# Poissons Ratio (x) = 0.10634 0.58818
# Poissons Ratio (y) = 0.07975 0.42493
# Poissons Ratio (z) = 0.38039 0.36644
#
# Static dielectric constant tensor:
#      x y z
#    x 3.328280 0.000000 0.000000 
#    y 0.000000 3.639650 0.000000 
#    z 0.000000 0.000000 3.530600 
# 
# 
# High freq. dielectric constant tensor:
#      x y z
#    x 1.713270 0.000000 0.000000 
#    y 0.000000 1.758520 0.000000 
#    z 0.000000 0.000000 1.759110 
# 
# From -- ./inp_files/34125.got.cif
#   From: 2010.03.12/outbox.cif.g09.slc.cpg/sg47_18_cif.got.tgz:34125.got - 2010.04.14 03:12:58.
