data_PCOD8195135
_publ_section_title
;
Structure prediction by ZEFSAII (Michael W. Deem and Ramdas Pophale) SiO2 
 PCOD8195135
Probable space group: P M M M
;
_chemical_formula_sum "Si O2"
_cell_formula_units_Z 64
_cell_length_a 14.107152
_cell_length_b 9.396553
_cell_length_c 29.067085
_cell_angle_alpha 90.000000
_cell_angle_beta 90.000000
_cell_angle_gamma 90.000000
_cell_volume 3853.092136
_symmetry_space_group_name_H-M "P M M M"
_symmetry_group_IT_number 47
_symmetry_cell_setting 'orthorhombic'
loop_
_space_group_symop_operation_xyz
x,y,z
-x,-y,z
x,-y,-z
-x,y,-z
-x,-y,-z
x,y,-z
-x,y,z
x,-y,z
loop_
_atom_site_type_symbol
_atom_site_label
_atom_site_fract_x
_atom_site_fract_y
_atom_site_fract_z
Si Si1 0.103205 0.168128 0.634094
Si Si2 0.774761 0.168081 0.551619
Si Si3 0.206418 0.667963 0.184368
Si Si4 0.391716 0.334370 0.869946
Si Si5 0.708651 0.834899 0.947912
Si Si6 0.602518 0.655185 0.445750
Si Si7 0.892455 0.836841 0.106371
Si Si8 0.111529 0.165971 0.263591
O O1 0.157151 0.234110 0.590353
O O2 0.146053 0.201707 0.684382
O O3 0.000000 0.237432 0.631888
O O4 0.097256 0.000000 0.627961
O O5 0.801021 0.224094 0.500000
O O6 0.672408 0.219540 0.568507
O O7 0.775224 0.000000 0.551701
O O8 0.189861 0.500000 0.187496
O O9 0.315933 0.703634 0.170404
O O10 0.132818 0.732423 0.147917
O O11 0.181283 0.739292 0.232808
O O12 0.500000 0.294621 0.854984
O O13 0.384386 0.500000 0.882000
O O14 0.363935 0.250450 0.915953
O O15 0.818905 0.807781 0.934957
O O16 0.683063 0.000000 0.942633
O O17 0.694415 0.782251 0.000000
O O18 0.592444 0.650982 0.500000
O O19 0.500000 0.688817 0.423605
O O20 0.638651 0.500000 0.428474
O O21 0.000000 0.805515 0.089538
O O22 0.883588 0.000000 0.123704
O O23 0.000000 0.203918 0.256765
O O24 0.126923 0.000000 0.252189
#
# Coordination Sequence:
#
# PCOD8195135 Si02
#       8
#     8   8   8   8   8   8   8   8
#     4   8  15  28  44  63  89 120 150 177 209 255
#     4   9  16  25  41  66  90 113 146 187 224 253
#     4  10  19  30  47  70  91 110 139 184 230 265
#     4   9  19  35  51  66  87 117 150 182 221 270
#     4   9  18  31  46  67  94 121 152 190 224 252
#     4   8  14  25  40  57  79 109 142 174 212 258
#     4   9  17  29  45  65  91 123 153 178 212 264
#     4   9  17  30  48  67  89 119 148 172 208 263
#
# _framework density 16.610036000000001
#
# number of rings (size 3 to 8) (size 9 to 14) (size 15 to 20)
#    0.000    3.125    0.000    1.875    0.000    4.000 
#    0.000    5.625    0.000    1.875    0.000    8.750 
#    0.000    0.000    0.000    0.000    0.000    0.000 
#
# Total GULP energy -792956.849984 kJ/mol
# GULP energy per Si atom -12389.950781 kJ/mol
# Density = 1.657223 g / cm^3
# Si number density = 16.610036 Si / 1000 Ang^3
#
#
#
# Elastic Constant Matrix: (Units=GPa)
#
#
# Indices 1 2 3 4 5 6 
#
# 1 105.3580 36.8833 58.4796 0.0000 0.0000 0.0000
# 2 36.8833 44.2631 42.8469 0.0000 0.0000 0.0000
# 3 58.4796 42.8469 111.2993 0.0000 0.0000 0.0000
# 4 0.0000 0.0000 0.0000 10.6010 0.0000 0.0000
# 5 0.0000 0.0000 0.0000 0.0000 18.1715 0.0000
# 6 0.0000 0.0000 0.0000 0.0000 0.0000 8.1939
#
#
#
# Elastic Compliance Matrix: (Units=1/GPa)
#
#
# Indices 1 2 3 4 5 6 
#
# 1 0.014882 -0.007702 -0.004855 0.000000 0.000000 0.000000
# 2 -0.007702 0.039998 -0.011351 0.000000 0.000000 0.000000
# 3 -0.004855 -0.011351 0.015905 0.000000 0.000000 0.000000
# 4 0.000000 0.000000 0.000000 0.094331 0.000000 0.000000
# 5 0.000000 0.000000 0.000000 0.000000 0.055031 0.000000
# 6 0.000000 0.000000 0.000000 0.000000 0.000000 0.122042
#
#
# Mechanical properties :
#
#
# Convention : Reuss Voigt Hill
#
# Bulk Modulus (GPa) = 43.53432 59.70442 51.61937
# Shear Modulus (GPa) = 12.57351 15.57399 14.07375
#
# Velocity S-wave (km/s) = 2.75432 3.06539 2.91401
# Velocity P-wave (km/s) = 6.03171 6.96790 6.51664
#
# Compressibility (1/GPa) = 0.02297038
#
# Stress axis : x y z
#
# Youngs Moduli (GPa) = 67.19446 25.00125 62.87157
#
# Poissons Ratio (x) = 0.19255 0.30521
# Poissons Ratio (y) = 0.51751 0.71368
# Poissons Ratio (z) = 0.32620 0.28380
#
# Static dielectric constant tensor:
#      x y z
#    x 3.416100 0.000000 0.000000 
#    y 0.000000 3.022090 0.000000 
#    z 0.000000 0.000000 3.132970 
# 
# 
# High freq. dielectric constant tensor:
#      x y z
#    x 1.635470 0.000000 0.000000 
#    y 0.000000 1.626260 0.000000 
#    z 0.000000 0.000000 1.622250 
# 
# From -- ./inp_files/34661.got.cif
#   From: 2010.03.12/outbox.cif.g09.slc.cpg/sg47_18_cif.got.tgz:34661.got - 2010.04.14 03:12:58.
