data_PCOD8195508
_publ_section_title
;
Structure prediction by ZEFSAII (Michael W. Deem and Ramdas Pophale) SiO2 
 PCOD8195508
Probable space group: P M M M
;
_chemical_formula_sum "Si O2"
_cell_formula_units_Z 56
_cell_length_a 18.331509
_cell_length_b 19.894075
_cell_length_c 9.120151
_cell_angle_alpha 90.000000
_cell_angle_beta 90.000000
_cell_angle_gamma 90.000000
_cell_volume 3326.013412
_symmetry_space_group_name_H-M "P M M M"
_symmetry_group_IT_number 47
_symmetry_cell_setting 'orthorhombic'
loop_
_space_group_symop_operation_xyz
x,y,z
-x,-y,z
x,-y,-z
-x,y,-z
-x,-y,-z
x,y,-z
-x,y,z
x,-y,z
loop_
_atom_site_type_symbol
_atom_site_label
_atom_site_fract_x
_atom_site_fract_y
_atom_site_fract_z
Si Si1 0.669251 0.624908 0.336269
Si Si2 0.284376 0.500000 0.171567
Si Si3 0.417644 0.920702 0.668042
Si Si4 0.305359 0.830229 0.834569
Si Si5 0.877870 0.500000 0.173946
Si Si6 0.916958 0.647898 0.830515
Si Si7 0.795911 0.267431 0.669271
Si Si8 0.420715 0.714085 0.159596
O O1 0.662188 0.597189 0.500000
O O2 0.673721 0.564787 0.224005
O O3 0.737298 0.673843 0.317481
O O4 0.595674 0.662775 0.290599
O O5 0.203448 0.500000 0.237574
O O6 0.280112 0.500000 0.000000
O O7 0.409838 0.897013 0.500000
O O8 0.500000 0.900080 0.724100
O O9 0.348392 0.890885 0.756085
O O10 0.409638 0.000000 0.681654
O O11 0.234049 0.800915 0.748273
O O12 0.363930 0.772727 0.840673
O O13 0.281590 0.851560 0.000000
O O14 0.912805 0.429514 0.230864
O O15 0.884078 0.500000 0.000000
O O16 0.868675 0.702418 0.743455
O O17 0.000000 0.672223 0.814158
O O18 0.891128 0.648819 0.000000
O O19 0.812202 0.249386 0.500000
O O20 0.500000 0.745171 0.189967
O O21 0.417838 0.677868 0.000000
#
# Coordination Sequence:
#
# PCOD8195508 Si02
#       8
#     8   4   8   8   4   8   8   8
#     4  10  20  32  46  65  87 112 146 190 236 282
#     4  11  19  30  50  66  82 113 150 187 232 287
#     4   9  18  32  49  72 106 144 174 200 237 285
#     4  10  19  31  50  73  97 126 165 205 239 277
#     4   9  17  29  48  70  92 120 155 192 237 295
#     4  10  19  32  50  72  98 126 159 199 242 291
#     4  10  20  33  48  67  94 126 160 196 239 289
#     4   9  18  32  48  66  88 114 148 191 238 284
#
# _framework density 16.836973
#
# number of rings (size 3 to 8) (size 9 to 14) (size 15 to 20)
#    0.000    2.286    1.429    2.571    0.000    4.286 
#    0.000    1.429    0.000    3.000    0.000    0.000 
#    0.000    0.571    0.000    6.000    0.000    2.571 
#
# Total GULP energy -693812.097067 kJ/mol
# GULP energy per Si atom -12389.501733 kJ/mol
# Density = 1.679865 g / cm^3
# Si number density = 16.836973 Si / 1000 Ang^3
#
#
#
# Elastic Constant Matrix: (Units=GPa)
#
#
# Indices 1 2 3 4 5 6 
#
# 1 72.4814 28.7172 35.0648 0.0000 0.0000 0.0000
# 2 28.7172 53.1599 34.6626 0.0000 0.0000 0.0000
# 3 35.0648 34.6626 85.7413 0.0000 0.0000 0.0000
# 4 0.0000 0.0000 0.0000 26.5418 0.0000 0.0000
# 5 0.0000 0.0000 0.0000 0.0000 23.7673 0.0000
# 6 0.0000 0.0000 0.0000 0.0000 0.0000 38.2301
#
#
#
# Elastic Compliance Matrix: (Units=1/GPa)
#
#
# Indices 1 2 3 4 5 6 
#
# 1 0.018961 -0.007043 -0.004907 0.000000 0.000000 0.000000
# 2 -0.007043 0.028161 -0.008504 0.000000 0.000000 0.000000
# 3 -0.004907 -0.008504 0.017108 0.000000 0.000000 0.000000
# 4 0.000000 0.000000 0.000000 0.037676 0.000000 0.000000
# 5 0.000000 0.000000 0.000000 0.000000 0.042075 0.000000
# 6 0.000000 0.000000 0.000000 0.000000 0.000000 0.026157
#
#
# Mechanical properties :
#
#
# Convention : Reuss Voigt Hill
#
# Bulk Modulus (GPa) = 42.87988 45.36352 44.12170
# Shear Modulus (GPa) = 22.84973 25.23704 24.04338
#
# Velocity S-wave (km/s) = 3.68790 3.87577 3.78300
# Velocity P-wave (km/s) = 6.60736 6.85785 6.73377
#
# Compressibility (1/GPa) = 0.02332096
#
# Stress axis : x y z
#
# Youngs Moduli (GPa) = 52.73963 35.50998 58.45316
#
# Poissons Ratio (x) = 0.25011 0.28683
# Poissons Ratio (y) = 0.37146 0.49710
# Poissons Ratio (z) = 0.25879 0.30198
#
# Static dielectric constant tensor:
#      x y z
#    x 1.513940 0.000000 0.000000 
#    y 0.000000 2.957010 0.000000 
#    z 0.000000 0.000000 3.389210 
# 
# 
# High freq. dielectric constant tensor:
#      x y z
#    x 1.632080 0.000000 0.000000 
#    y 0.000000 1.621280 0.000000 
#    z 0.000000 0.000000 1.651050 
# 
# From -- ./inp_files/11770.got.cif
#   From: 2010.03.12/outbox.cif.g09.slc.cpg/sg47_6_cif.got.tgz:11770.got - 2010.04.14 03:12:58.
