data_PCOD8195098
_publ_section_title
;
Structure prediction by ZEFSAII (Michael W. Deem and Ramdas Pophale) SiO2 
 PCOD8195098
Probable space group: P M M M
;
_chemical_formula_sum "Si O2"
_cell_formula_units_Z 52
_cell_length_a 18.864309
_cell_length_b 8.815197
_cell_length_c 18.409777
_cell_angle_alpha 90.000000
_cell_angle_beta 90.000000
_cell_angle_gamma 90.000000
_cell_volume 3061.409685
_symmetry_space_group_name_H-M "P M M M"
_symmetry_group_IT_number 47
_symmetry_cell_setting 'orthorhombic'
loop_
_space_group_symop_operation_xyz
x,y,z
-x,-y,z
x,-y,-z
-x,y,-z
-x,-y,-z
x,y,-z
-x,y,z
x,-y,z
loop_
_atom_site_type_symbol
_atom_site_label
_atom_site_fract_x
_atom_site_fract_y
_atom_site_fract_z
Si Si1 0.500000 0.179507 0.916054
Si Si2 0.144035 0.667860 0.202702
Si Si3 0.794830 0.681251 0.418092
Si Si4 0.289614 0.665771 0.288820
Si Si5 0.775486 0.174112 0.916468
Si Si6 0.080723 0.825472 0.333775
Si Si7 0.640206 0.318043 0.850291
O O1 0.567738 0.247616 0.876880
O O2 0.500000 0.000000 0.907866
O O3 0.500000 0.228985 0.000000
O O4 0.114868 0.500000 0.183712
O O5 0.216978 0.652533 0.245271
O O6 0.158165 0.760521 0.128831
O O7 0.087994 0.753939 0.253570
O O8 0.778325 0.733281 0.500000
O O9 0.798248 0.500000 0.410653
O O10 0.731053 0.746655 0.365619
O O11 0.870713 0.744729 0.393877
O O12 0.320108 0.500000 0.307559
O O13 0.345340 0.743792 0.233001
O O14 0.703075 0.265746 0.902975
O O15 0.762167 0.000000 0.894480
O O16 0.796703 0.190829 0.000000
O O17 0.000000 0.806252 0.359832
O O18 0.103460 0.000000 0.328895
O O19 0.636895 0.500000 0.851303
#
# Coordination Sequence:
#
# PCOD8195098 Si02
#       7
#     4   8   8   8   8   8   8
#     4  11  23  35  45  63  96 131 160 196 243 289
#     4   9  17  30  48  67  87 115 155 199 235 273
#     4   9  17  30  49  72  97 124 154 190 232 278
#     4   7  13  27  45  66  89 113 147 190 230 266
#     4  10  19  30  46  69  96 123 151 188 236 284
#     4  10  20  32  46  65  92 126 158 189 232 286
#     4  10  19  31  48  68  92 125 163 198 230 273
#
# _framework density 16.98564
#
# number of rings (size 3 to 8) (size 9 to 14) (size 15 to 20)
#    0.000    2.692    0.000    4.385    0.000    5.538 
#    0.000    2.308    0.000    0.462    0.000    3.769 
#    0.000    4.308    0.000    0.000    0.000    0.000 
#
# Total GULP energy -644306.917456 kJ/mol
# GULP energy per Si atom -12390.517643 kJ/mol
# Density = 1.694698 g / cm^3
# Si number density = 16.985640 Si / 1000 Ang^3
#
#
#
# Elastic Constant Matrix: (Units=GPa)
#
#
# Indices 1 2 3 4 5 6 
#
# 1 52.5477 23.9529 50.9117 0.0000 0.0000 0.0000
# 2 23.9529 70.1958 44.0995 0.0000 0.0000 0.0000
# 3 50.9117 44.0995 143.2530 0.0000 0.0000 0.0000
# 4 0.0000 0.0000 0.0000 21.8014 0.0000 0.0000
# 5 0.0000 0.0000 0.0000 0.0000 23.0539 0.0000
# 6 0.0000 0.0000 0.0000 0.0000 0.0000 21.9597
#
#
#
# Elastic Compliance Matrix: (Units=1/GPa)
#
#
# Indices 1 2 3 4 5 6 
#
# 1 0.030082 -0.004399 -0.009337 0.000000 0.000000 0.000000
# 2 -0.004399 0.018305 -0.004072 0.000000 0.000000 0.000000
# 3 -0.009337 -0.004072 0.011552 0.000000 0.000000 0.000000
# 4 0.000000 0.000000 0.000000 0.045869 0.000000 0.000000
# 5 0.000000 0.000000 0.000000 0.000000 0.043377 0.000000
# 6 0.000000 0.000000 0.000000 0.000000 0.000000 0.045538
#
#
# Mechanical properties :
#
#
# Convention : Reuss Voigt Hill
#
# Bulk Modulus (GPa) = 41.11165 55.99163 48.55164
# Shear Modulus (GPa) = 20.96922 23.16516 22.06719
#
# Velocity S-wave (km/s) = 3.51739 3.69698 3.60831
# Velocity P-wave (km/s) = 6.38376 7.15956 6.78276
#
# Compressibility (1/GPa) = 0.02432401
#
# Stress axis : x y z
#
# Youngs Moduli (GPa) = 33.24295 54.63018 86.56283
#
# Poissons Ratio (x) = 0.24032 0.80821
# Poissons Ratio (y) = 0.14624 0.35245
# Poissons Ratio (z) = 0.31038 0.22243
#
# Static dielectric constant tensor:
#      x y z
#    x 2.975140 0.000000 0.000000 
#    y 0.000000 3.237980 0.000000 
#    z 0.000000 0.000000 3.539800 
# 
# 
# High freq. dielectric constant tensor:
#      x y z
#    x 1.618590 0.000000 0.000000 
#    y 0.000000 1.654270 0.000000 
#    z 0.000000 0.000000 1.656730 
# 
# From -- ./inp_files/28515.got.cif
#   From: 2010.03.12/outbox.cif.g09.slc.cpg/sg47_15_cif.got.tgz:28515.got - 2010.04.14 03:12:58.
