data_PCOD8195183
_publ_section_title
;
Structure prediction by ZEFSAII (Michael W. Deem and Ramdas Pophale) SiO2 
 PCOD8195183
Probable space group: P M M M
;
_chemical_formula_sum "Si O2"
_cell_formula_units_Z 64
_cell_length_a 9.230434
_cell_length_b 19.822752
_cell_length_c 19.572345
_cell_angle_alpha 90.000000
_cell_angle_beta 90.000000
_cell_angle_gamma 90.000000
_cell_volume 3581.202932
_symmetry_space_group_name_H-M "P M M M"
_symmetry_group_IT_number 47
_symmetry_cell_setting 'orthorhombic'
loop_
_space_group_symop_operation_xyz
x,y,z
-x,-y,z
x,-y,-z
-x,y,-z
-x,-y,-z
x,y,-z
-x,y,z
x,-y,z
loop_
_atom_site_type_symbol
_atom_site_label
_atom_site_fract_x
_atom_site_fract_y
_atom_site_fract_z
Si Si1 0.167483 0.423588 0.677764
Si Si2 0.829382 0.311580 0.212906
Si Si3 0.337055 0.309633 0.924189
Si Si4 0.657077 0.150801 0.924534
Si Si5 0.839726 0.925671 0.824248
Si Si6 0.329332 0.072658 0.311624
Si Si7 0.329933 0.335794 0.577374
Si Si8 0.671170 0.778617 0.681690
O O1 0.210860 0.500000 0.696150
O O2 0.206739 0.377457 0.742406
O O3 0.255309 0.400595 0.611008
O O4 0.000000 0.417150 0.658779
O O5 0.769470 0.330103 0.137626
O O6 0.752576 0.246547 0.249032
O O7 0.000000 0.296644 0.208269
O O8 0.500000 0.336594 0.909079
O O9 0.338318 0.230171 0.927643
O O10 0.286284 0.336614 0.000000
O O11 0.500000 0.127538 0.894639
O O12 0.792574 0.126918 0.880984
O O13 0.675040 0.120400 0.000000
O O14 0.722650 0.923860 0.765267
O O15 0.000000 0.905785 0.797228
O O16 0.842672 0.000000 0.857177
O O17 0.500000 0.069315 0.313610
O O18 0.280210 0.145284 0.342742
O O19 0.271367 0.000000 0.344369
O O20 0.274850 0.327307 0.500000
O O21 0.500000 0.347866 0.580251
O O22 0.285181 0.268442 0.618354
O O23 0.500000 0.776101 0.697742
#
# Coordination Sequence:
#
# PCOD8195183 Si02
#       8
#     8   8   8   8   8   8   8   8
#     4   9  19  35  52  72 101 134 163 191 227 272
#     4  10  19  30  48  73  96 120 156 199 237 278
#     4   9  18  32  48  66  90 119 150 188 236 285
#     4   9  18  31  44  57  75 104 142 179 218 271
#     4  10  20  30  39  55  80 107 136 177 231 282
#     4   9  17  29  45  63  83 112 152 192 227 271
#     4   9  18  32  50  74 103 132 161 193 230 273
#     4   9  17  30  48  68  93 126 159 193 237 284
#
# _framework density 17.871089000000001
#
# number of rings (size 3 to 8) (size 9 to 14) (size 15 to 20)
#    0.000    2.750    0.000    2.250    0.000    6.750 
#    0.000    3.750    0.000    0.750    0.000    5.250 
#    0.000    0.000    0.000    9.375    0.000    9.750 
#
# Total GULP energy -792850.314599 kJ/mol
# GULP energy per Si atom -12388.286166 kJ/mol
# Density = 1.783041 g / cm^3
# Si number density = 17.871089 Si / 1000 Ang^3
#
#
#
# Elastic Constant Matrix: (Units=GPa)
#
#
# Indices 1 2 3 4 5 6 
#
# 1 32.9897 26.1949 32.7328 0.0000 0.0000 0.0000
# 2 26.1949 100.3222 30.7291 0.0000 0.0000 0.0000
# 3 32.7328 30.7291 97.3337 0.0000 0.0000 0.0000
# 4 0.0000 0.0000 0.0000 9.2022 0.0000 0.0000
# 5 0.0000 0.0000 0.0000 0.0000 19.9024 0.0000
# 6 0.0000 0.0000 0.0000 0.0000 0.0000 22.0548
#
#
#
# Elastic Compliance Matrix: (Units=1/GPa)
#
#
# Indices 1 2 3 4 5 6 
#
# 1 0.052068 -0.009113 -0.014633 0.000000 0.000000 0.000000
# 2 -0.009113 0.012630 -0.000923 0.000000 0.000000 0.000000
# 3 -0.014633 -0.000923 0.015486 0.000000 0.000000 0.000000
# 4 0.000000 0.000000 0.000000 0.108670 0.000000 0.000000
# 5 0.000000 0.000000 0.000000 0.000000 0.050245 0.000000
# 6 0.000000 0.000000 0.000000 0.000000 0.000000 0.045342
#
#
# Mechanical properties :
#
#
# Convention : Reuss Voigt Hill
#
# Bulk Modulus (GPa) = 32.41884 45.55103 38.98493
# Shear Modulus (GPa) = 14.53233 19.63113 17.08173
#
# Velocity S-wave (km/s) = 2.85472 3.31794 3.09500
# Velocity P-wave (km/s) = 5.38940 6.34210 5.88506
#
# Compressibility (1/GPa) = 0.03084626
#
# Stress axis : x y z
#
# Youngs Moduli (GPa) = 19.20580 79.17654 64.57345
#
# Poissons Ratio (x) = 0.72154 0.94490
# Poissons Ratio (y) = 0.17502 0.05958
# Poissons Ratio (z) = 0.28104 0.07306
#
# Static dielectric constant tensor:
#      x y z
#    x 3.375880 0.000000 0.000000 
#    y 0.000000 3.533750 0.000000 
#    z 0.000000 0.000000 3.295700 
# 
# 
# High freq. dielectric constant tensor:
#      x y z
#    x 1.688150 0.000000 0.000000 
#    y 0.000000 1.684090 0.000000 
#    z 0.000000 0.000000 1.668530 
# 
# From -- ./inp_files/9932.got.cif
#   From: 2010.03.12/outbox.cif.g09.slc.cpg/sg47_5_cif.got.tgz:9932.got - 2010.04.14 03:12:58.
