data_PCOD8195370
_publ_section_title
;
Structure prediction by ZEFSAII (Michael W. Deem and Ramdas Pophale) SiO2 
 PCOD8195370
Probable space group: P M M M
;
_chemical_formula_sum "Si O2"
_cell_formula_units_Z 52
_cell_length_a 18.581936
_cell_length_b 18.803360
_cell_length_c 7.916898
_cell_angle_alpha 90.000000
_cell_angle_beta 90.000000
_cell_angle_gamma 90.000000
_cell_volume 2766.186583
_symmetry_space_group_name_H-M "P M M M"
_symmetry_group_IT_number 47
_symmetry_cell_setting 'orthorhombic'
loop_
_space_group_symop_operation_xyz
x,y,z
-x,-y,z
x,-y,-z
-x,y,-z
-x,-y,-z
x,y,-z
-x,y,z
x,-y,z
loop_
_atom_site_type_symbol
_atom_site_label
_atom_site_fract_x
_atom_site_fract_y
_atom_site_fract_z
Si Si1 0.915195 0.079389 0.000000
Si Si2 0.348512 0.782724 0.693148
Si Si3 0.722141 0.577580 0.694912
Si Si4 0.580087 0.351572 0.193061
Si Si5 0.418730 0.079200 0.198934
Si Si6 0.795196 0.714874 0.301513
Si Si7 0.083603 0.818597 0.696751
O O1 0.892036 0.119365 0.173602
O O2 0.000000 0.072456 0.000000
O O3 0.880705 0.000000 0.000000
O O4 0.355591 0.759451 0.500000
O O5 0.403540 0.732911 0.795705
O O6 0.365632 0.865509 0.713691
O O7 0.266891 0.769870 0.757095
O O8 0.740689 0.569268 0.500000
O O9 0.732455 0.500000 0.782945
O O10 0.639470 0.603057 0.707830
O O11 0.776513 0.636680 0.777597
O O12 0.500000 0.366199 0.266843
O O13 0.582866 0.375437 0.000000
O O14 0.500000 0.092725 0.261849
O O15 0.394058 0.000000 0.251839
O O16 0.414390 0.088584 0.000000
O O17 0.792860 0.705195 0.500000
O O18 0.872277 0.747556 0.249156
O O19 0.099731 0.840637 0.500000
O O20 0.000000 0.799832 0.720078
#
# Coordination Sequence:
#
# PCOD8195370 Si02
#       7
#     4   8   8   8   8   8   8
#     4   9  18  32  50  78 111 135 168 213 249 297
#     4  10  19  31  48  68  92 121 157 205 251 293
#     4   9  18  33  52  72  97 129 161 200 251 300
#     4  10  20  32  46  66  94 126 160 202 248 295
#     4   9  18  32  47  63  88 122 158 199 246 294
#     4   8  16  32  50  71  98 126 160 200 244 296
#     4   9  17  32  55  78 104 141 177 211 254 300
#
# _framework density 18.798441
#
# number of rings (size 3 to 8) (size 9 to 14) (size 15 to 20)
#    0.000    2.846    0.000    2.769    0.000    4.615 
#    6.923    4.615    0.000    3.231    0.000    3.231 
#    0.000    1.846    0.000    0.154    0.000    0.000 
#
# Total GULP energy -644304.280345 kJ/mol
# GULP energy per Si atom -12390.466930 kJ/mol
# Density = 1.875566 g / cm^3
# Si number density = 18.798441 Si / 1000 Ang^3
#
#
#
# Elastic Constant Matrix: (Units=GPa)
#
#
# Indices 1 2 3 4 5 6 
#
# 1 86.4543 68.2757 22.6266 0.0000 0.0000 0.0000
# 2 68.2757 167.3376 27.8651 0.0000 0.0000 0.0000
# 3 22.6266 27.8651 49.0179 0.0000 0.0000 0.0000
# 4 0.0000 0.0000 0.0000 17.0037 0.0000 0.0000
# 5 0.0000 0.0000 0.0000 0.0000 7.4604 0.0000
# 6 0.0000 0.0000 0.0000 0.0000 0.0000 21.1186
#
#
#
# Elastic Compliance Matrix: (Units=1/GPa)
#
#
# Indices 1 2 3 4 5 6 
#
# 1 0.017940 -0.006562 -0.004551 0.000000 0.000000 0.000000
# 2 -0.006562 0.009001 -0.002088 0.000000 0.000000 0.000000
# 3 -0.004551 -0.002088 0.023688 0.000000 0.000000 0.000000
# 4 0.000000 0.000000 0.000000 0.058811 0.000000 0.000000
# 5 0.000000 0.000000 0.000000 0.000000 0.134041 0.000000
# 6 0.000000 0.000000 0.000000 0.000000 0.000000 0.047352
#
#
# Mechanical properties :
#
#
# Convention : Reuss Voigt Hill
#
# Bulk Modulus (GPa) = 41.27444 60.03829 50.65637
# Shear Modulus (GPa) = 15.36995 21.38602 18.37798
#
# Velocity S-wave (km/s) = 2.86250 3.37656 3.13010
# Velocity P-wave (km/s) = 5.73840 6.87087 6.33001
#
# Compressibility (1/GPa) = 0.02422807
#
# Stress axis : x y z
#
# Youngs Moduli (GPa) = 55.74135 111.09939 42.21516
#
# Poissons Ratio (x) = 0.72903 0.19211
# Poissons Ratio (y) = 0.36577 0.08814
# Poissons Ratio (z) = 0.25367 0.23195
#
# Static dielectric constant tensor:
#      x y z
#    x 3.407690 0.000000 0.000000 
#    y 0.000000 3.831350 0.000000 
#    z 0.000000 0.000000 3.299920 
# 
# 
# High freq. dielectric constant tensor:
#      x y z
#    x 1.703640 0.000000 0.000000 
#    y 0.000000 1.727520 0.000000 
#    z 0.000000 0.000000 1.718680 
# 
# From -- ./inp_files/9581.got.cif
#   From: 2010.03.12/outbox.cif.g09.slc.cpg/sg47_5_cif.got.tgz:9581.got - 2010.04.14 03:12:58.
