data_PCOD8195089
_publ_section_title
;
Structure prediction by ZEFSAII (Michael W. Deem and Ramdas Pophale) SiO2 
 PCOD8195089
Probable space group: P M M M
;
_chemical_formula_sum "Si O2"
_cell_formula_units_Z 44
_cell_length_a 9.114119
_cell_length_b 30.122118
_cell_length_c 9.369940
_cell_angle_alpha 90.000000
_cell_angle_beta 90.000000
_cell_angle_gamma 90.000000
_cell_volume 2572.391170
_symmetry_space_group_name_H-M "P M M M"
_symmetry_group_IT_number 47
_symmetry_cell_setting 'orthorhombic'
loop_
_space_group_symop_operation_xyz
x,y,z
-x,-y,z
x,-y,-z
-x,y,-z
-x,-y,-z
x,y,-z
-x,y,z
x,-y,z
loop_
_atom_site_type_symbol
_atom_site_label
_atom_site_fract_x
_atom_site_fract_y
_atom_site_fract_z
Si Si1 0.664910 0.451148 0.669702
Si Si2 0.333510 0.878852 0.157283
Si Si3 0.173248 0.948519 0.000000
Si Si4 0.164791 0.366658 0.329596
Si Si5 0.832707 0.193680 0.669309
Si Si6 0.665467 0.719255 0.330064
O O1 0.665227 0.448926 0.500000
O O2 0.500000 0.443175 0.726001
O O3 0.721061 0.500000 0.719349
O O4 0.768501 0.412551 0.732043
O O5 0.500000 0.887613 0.209685
O O6 0.251504 0.848640 0.270781
O O7 0.334113 0.855638 0.000000
O O8 0.245926 0.925761 0.141196
O O9 0.000000 0.940135 0.000000
O O10 0.213400 0.000000 0.000000
O O11 0.166940 0.366921 0.500000
O O12 0.258616 0.325312 0.270703
O O13 0.000000 0.362023 0.271633
O O14 0.825203 0.190996 0.500000
O O15 0.755260 0.238327 0.726109
O O16 0.000000 0.193785 0.723691
O O17 0.665203 0.718517 0.500000
O O18 0.500000 0.721779 0.270577
#
# Coordination Sequence:
#
# PCOD8195089 Si02
#       6
#     8   8   4   8   8   8
#     4   8  13  20  28  37  51  75 110 153 201 251
#     4   9  19  32  49  73  98 126 158 191 227 271
#     4   9  17  31  53  77  99 125 157 193 230 267
#     4   9  15  21  29  42  61  85 118 161 206 253
#     4  10  19  30  46  68  94 123 155 192 233 274
#     4   9  16  25  37  52  73 103 137 173 214 261
#
# _framework density 17.104707000000001
#
# number of rings (size 3 to 8) (size 9 to 14) (size 15 to 20)
#    0.545    2.455    0.000    2.727    0.000    6.545 
#    0.000    1.818    0.000    0.545    0.000    3.818 
#    0.000    0.000    0.000    0.000    0.000    0.909 
#
# Total GULP energy -545274.575732 kJ/mol
# GULP energy per Si atom -12392.603994 kJ/mol
# Density = 1.706578 g / cm^3
# Si number density = 17.104707 Si / 1000 Ang^3
#
#
#
# Elastic Constant Matrix: (Units=GPa)
#
#
# Indices 1 2 3 4 5 6 
#
# 1 166.0988 92.7689 14.5223 0.0000 0.0000 0.0000
# 2 92.7689 161.4310 15.0566 0.0000 0.0000 0.0000
# 3 14.5223 15.0566 7.4843 0.0000 0.0000 0.0000
# 4 0.0000 0.0000 0.0000 0.6313 0.0000 0.0000
# 5 0.0000 0.0000 0.0000 0.0000 14.6097 0.0000
# 6 0.0000 0.0000 0.0000 0.0000 0.0000 37.2414
#
#
#
# Elastic Compliance Matrix: (Units=1/GPa)
#
#
# Indices 1 2 3 4 5 6 
#
# 1 0.009335 -0.004524 -0.009013 0.000000 0.000000 0.000000
# 2 -0.004524 0.009818 -0.010973 0.000000 0.000000 0.000000
# 3 -0.009013 -0.010973 0.173175 0.000000 0.000000 0.000000
# 4 0.000000 0.000000 0.000000 1.584005 0.000000 0.000000
# 5 0.000000 0.000000 0.000000 0.000000 0.068448 0.000000
# 6 0.000000 0.000000 0.000000 0.000000 0.000000 0.026852
#
#
# Mechanical properties :
#
#
# Convention : Reuss Voigt Hill
#
# Bulk Modulus (GPa) = 6.97793 64.41221 35.69507
# Shear Modulus (GPa) = 2.54011 24.67422 13.60716
#
# Velocity S-wave (km/s) = 1.21994 3.80220 2.82356
# Velocity P-wave (km/s) = 2.46429 7.55083 5.61639
#
# Compressibility (1/GPa) = 0.14330904
#
# Stress axis : x y z
#
# Youngs Moduli (GPa) = 107.12074 101.85529 5.77452
#
# Poissons Ratio (x) = 0.46080 0.05204
# Poissons Ratio (y) = 0.48462 0.06336
# Poissons Ratio (z) = 0.96543 1.11763
#
# Static dielectric constant tensor:
#      x y z
#    x 3.433110 0.000000 0.000000 
#    y 0.000000 3.289970 0.000000 
#    z 0.000000 0.000000 2.480840 
# 
# 
# High freq. dielectric constant tensor:
#      x y z
#    x 1.678850 0.000000 0.000000 
#    y 0.000000 1.665570 0.000000 
#    z 0.000000 0.000000 1.577370 
# 
# From -- ./inp_files/15607.got.cif
#   From: 2010.03.12/outbox.cif.g09.slc.cpg/sg47_8_cif.got.tgz:15607.got - 2010.04.14 03:12:58.
