data_PCOD8195186
_publ_section_title
;
Structure prediction by ZEFSAII (Michael W. Deem and Ramdas Pophale) SiO2 
 PCOD8195186
Probable space group: P M M M
;
_chemical_formula_sum "Si O2"
_cell_formula_units_Z 56
_cell_length_a 9.571419
_cell_length_b 14.515898
_cell_length_c 23.239068
_cell_angle_alpha 90.000000
_cell_angle_beta 90.000000
_cell_angle_gamma 90.000000
_cell_volume 3228.783632
_symmetry_space_group_name_H-M "P M M M"
_symmetry_group_IT_number 47
_symmetry_cell_setting 'orthorhombic'
loop_
_space_group_symop_operation_xyz
x,y,z
-x,-y,z
x,-y,-z
-x,y,-z
-x,-y,-z
x,y,-z
-x,y,z
x,-y,z
loop_
_atom_site_type_symbol
_atom_site_label
_atom_site_fract_x
_atom_site_fract_y
_atom_site_fract_z
Si Si1 0.838127 0.781112 0.152733
Si Si2 0.338630 0.895882 0.932806
Si Si3 0.661356 0.103140 0.372232
Si Si4 0.838323 0.604502 0.218786
Si Si5 0.663530 0.720396 0.437236
Si Si6 0.839840 0.893705 0.735910
Si Si7 0.661075 0.607255 0.670309
O O1 0.749536 0.817792 0.099374
O O2 0.807087 0.672843 0.165209
O O3 0.791901 0.836774 0.209002
O O4 0.000000 0.797702 0.138093
O O5 0.500000 0.882743 0.916525
O O6 0.290870 0.000000 0.916043
O O7 0.314464 0.879835 0.000000
O O8 0.500000 0.106345 0.354157
O O9 0.692265 0.171630 0.424922
O O10 0.747210 0.138660 0.317503
O O11 0.706595 0.000000 0.390861
O O12 0.800914 0.500000 0.199713
O O13 0.748247 0.635954 0.273613
O O14 0.000000 0.612962 0.237013
O O15 0.730283 0.696938 0.500000
O O16 0.500000 0.699985 0.440233
O O17 0.725639 0.658446 0.385669
O O18 0.000000 0.873604 0.720052
O O19 0.813552 0.000000 0.750380
O O20 0.500000 0.635712 0.681022
O O21 0.676282 0.500000 0.657698
#
# Coordination Sequence:
#
# PCOD8195186 Si02
#       7
#     8   8   8   8   8   8   8
#     4  10  19  30  48  73  97 124 160 197 231 271
#     4   9  19  35  52  72 101 134 163 191 227 270
#     4   9  17  28  42  60  81 108 144 181 217 265
#     4   9  18  32  49  70  97 126 154 189 236 284
#     4   9  17  28  42  61  84 109 140 182 228 269
#     4   9  17  28  42  63  91 117 141 177 227 276
#     4   9  17  29  46  67  88 112 146 186 228 278
#
# _framework density 17.343993000000001
#
# number of rings (size 3 to 8) (size 9 to 14) (size 15 to 20)
#    0.000    2.857    0.000    1.714    0.000    2.857 
#    0.000    5.000    0.000    2.143    0.000    7.000 
#    0.000    0.000    0.000    0.000    0.000    0.000 
#
# Total GULP energy -694231.429307 kJ/mol
# GULP energy per Si atom -12396.989809 kJ/mol
# Density = 1.730452 g / cm^3
# Si number density = 17.343993 Si / 1000 Ang^3
#
#
#
# Elastic Constant Matrix: (Units=GPa)
#
#
# Indices 1 2 3 4 5 6 
#
# 1 48.5112 33.0791 44.2307 0.0000 0.0000 0.0000
# 2 33.0791 86.8977 56.1640 0.0000 0.0000 0.0000
# 3 44.2307 56.1640 90.7781 0.0000 0.0000 0.0000
# 4 0.0000 0.0000 0.0000 25.9971 0.0000 0.0000
# 5 0.0000 0.0000 0.0000 0.0000 6.2490 0.0000
# 6 0.0000 0.0000 0.0000 0.0000 0.0000 20.0872
#
#
#
# Elastic Compliance Matrix: (Units=1/GPa)
#
#
# Indices 1 2 3 4 5 6 
#
# 1 0.037974 -0.004161 -0.015928 0.000000 0.000000 0.000000
# 2 -0.004161 0.019632 -0.010119 0.000000 0.000000 0.000000
# 3 -0.015928 -0.010119 0.025037 0.000000 0.000000 0.000000
# 4 0.000000 0.000000 0.000000 0.038466 0.000000 0.000000
# 5 0.000000 0.000000 0.000000 0.000000 0.160025 0.000000
# 6 0.000000 0.000000 0.000000 0.000000 0.000000 0.049783
#
#
# Mechanical properties :
#
#
# Convention : Reuss Voigt Hill
#
# Bulk Modulus (GPa) = 44.98963 54.79271 49.89117
# Shear Modulus (GPa) = 12.53949 16.64754 14.59351
#
# Velocity S-wave (km/s) = 2.69176 3.10150 2.90386
# Velocity P-wave (km/s) = 5.97132 6.66979 6.33019
#
# Compressibility (1/GPa) = 0.02222734
#
# Stress axis : x y z
#
# Youngs Moduli (GPa) = 26.33415 50.93842 39.94073
#
# Poissons Ratio (x) = 0.21193 0.63618
# Poissons Ratio (y) = 0.10956 0.40415
# Poissons Ratio (z) = 0.41945 0.51543
#
# Static dielectric constant tensor:
#      x y z
#    x 3.104440 0.000000 0.000000 
#    y 0.000000 3.412400 0.000000 
#    z 0.000000 0.000000 3.127940 
# 
# 
# High freq. dielectric constant tensor:
#      x y z
#    x 1.649580 0.000000 0.000000 
#    y 0.000000 1.678580 0.000000 
#    z 0.000000 0.000000 1.651310 
# 
# From -- ./inp_files/11218.got.cif
#   From: 2010.03.12/outbox.cif.g09.slc.cpg/sg47_6_cif.got.tgz:11218.got - 2010.04.14 03:12:58.
