data_PCOD8195670
_publ_section_title
;
Structure prediction by ZEFSAII (Michael W. Deem and Ramdas Pophale) SiO2 
 PCOD8195670
Probable space group: P M M M
;
_chemical_formula_sum "Si O2"
_cell_formula_units_Z 52
_cell_length_a 18.349773
_cell_length_b 18.217642
_cell_length_c 9.122472
_cell_angle_alpha 90.000000
_cell_angle_beta 90.000000
_cell_angle_gamma 90.000000
_cell_volume 3049.547473
_symmetry_space_group_name_H-M "P M M M"
_symmetry_group_IT_number 47
_symmetry_cell_setting 'orthorhombic'
loop_
_space_group_symop_operation_xyz
x,y,z
-x,-y,z
x,-y,-z
-x,y,-z
-x,-y,-z
x,y,-z
-x,y,z
x,-y,z
loop_
_atom_site_type_symbol
_atom_site_label
_atom_site_fract_x
_atom_site_fract_y
_atom_site_fract_z
Si Si1 0.866190 0.663082 0.671268
Si Si2 0.000000 0.586218 0.172559
Si Si3 0.580719 0.833168 0.331205
Si Si4 0.723792 0.916059 0.327652
Si Si5 0.645423 0.706382 0.835961
Si Si6 0.202721 0.790400 0.166157
Si Si7 0.714752 0.582975 0.669308
O O1 0.884908 0.671994 0.500000
O O2 0.929727 0.621578 0.754524
O O3 0.856355 0.743979 0.741677
O O4 0.794761 0.614690 0.696719
O O5 0.000000 0.500000 0.205756
O O6 0.000000 0.602620 0.000000
O O7 0.592724 0.813024 0.500000
O O8 0.500000 0.866834 0.303746
O O9 0.641813 0.891730 0.281456
O O10 0.586317 0.756985 0.243869
O O11 0.735918 0.904862 0.500000
O O12 0.784802 0.869150 0.242637
O O13 0.733686 0.000000 0.280169
O O14 0.722072 0.747277 0.831792
O O15 0.653540 0.628328 0.756228
O O16 0.618302 0.691925 0.000000
O O17 0.174646 0.801949 0.000000
O O18 0.693833 0.587375 0.500000
O O19 0.713478 0.500000 0.728005
#
# Coordination Sequence:
#
# PCOD8195670 Si02
#       7
#     8   4   8   8   8   8   8
#     4  10  19  32  50  70  94 126 163 197 230 273
#     4  11  23  35  47  69 104 139 166 195 233 275
#     4   9  17  29  45  64  88 121 156 187 225 276
#     4   9  17  29  46  70  98 124 153 192 234 275
#     4   9  17  28  43  63  86 114 149 189 230 273
#     4   9  17  30  47  67  92 122 157 194 233 277
#     4   9  17  29  46  67  89 114 147 189 234 276
#
# _framework density 17.051708999999999
#
# number of rings (size 3 to 8) (size 9 to 14) (size 15 to 20)
#    0.000    2.692    0.000    2.077    0.000    6.769 
#    0.000    1.538    0.000    0.462    0.000    8.077 
#    0.000    4.308    0.000    0.000    0.000    0.000 
#
# Total GULP energy -644733.496250 kJ/mol
# GULP energy per Si atom -12398.721082 kJ/mol
# Density = 1.701290 g / cm^3
# Si number density = 17.051709 Si / 1000 Ang^3
#
#
#
# Elastic Constant Matrix: (Units=GPa)
#
#
# Indices 1 2 3 4 5 6 
#
# 1 44.1950 38.7921 35.2631 0.0000 0.0000 0.0000
# 2 38.7921 143.1827 66.1032 0.0000 0.0000 0.0000
# 3 35.2631 66.1032 96.4390 0.0000 0.0000 0.0000
# 4 0.0000 0.0000 0.0000 24.9820 0.0000 0.0000
# 5 0.0000 0.0000 0.0000 0.0000 20.3185 0.0000
# 6 0.0000 0.0000 0.0000 0.0000 0.0000 21.6308
#
#
#
# Elastic Compliance Matrix: (Units=1/GPa)
#
#
# Indices 1 2 3 4 5 6 
#
# 1 0.034345 -0.005131 -0.009041 0.000000 0.000000 0.000000
# 2 -0.005131 0.010984 -0.005653 0.000000 0.000000 0.000000
# 3 -0.009041 -0.005653 0.017550 0.000000 0.000000 0.000000
# 4 0.000000 0.000000 0.000000 0.040029 0.000000 0.000000
# 5 0.000000 0.000000 0.000000 0.000000 0.049216 0.000000
# 6 0.000000 0.000000 0.000000 0.000000 0.000000 0.046230
#
#
# Mechanical properties :
#
#
# Convention : Reuss Voigt Hill
#
# Bulk Modulus (GPa) = 43.05030 62.68151 52.86590
# Shear Modulus (GPa) = 20.34621 22.96348 21.65485
#
# Velocity S-wave (km/s) = 3.45803 3.67372 3.56750
# Velocity P-wave (km/s) = 6.42228 7.40503 6.93109
#
# Compressibility (1/GPa) = 0.02322864
#
# Stress axis : x y z
#
# Youngs Moduli (GPa) = 29.11670 91.04296 56.98079
#
# Poissons Ratio (x) = 0.46712 0.51518
# Poissons Ratio (y) = 0.14939 0.32209
# Poissons Ratio (z) = 0.26325 0.51464
#
# Static dielectric constant tensor:
#      x y z
#    x 2.996760 0.000000 0.000000 
#    y 0.000000 3.240900 0.000000 
#    z 0.000000 0.000000 3.325170 
# 
# 
# High freq. dielectric constant tensor:
#      x y z
#    x 1.623450 0.000000 0.000000 
#    y 0.000000 1.651990 0.000000 
#    z 0.000000 0.000000 1.665990 
# 
# From -- ./inp_files/9505.got.cif
#   From: 2010.03.12/outbox.cif.g09.slc.cpg/sg47_5_cif.got.tgz:9505.got - 2010.04.14 03:12:58.
