data_PCOD8195835
_publ_section_title
;
Structure prediction by ZEFSAII (Michael W. Deem and Ramdas Pophale) SiO2 
 PCOD8195835
Probable space group: P M M M
;
_chemical_formula_sum "Si O2"
_cell_formula_units_Z 40
_cell_length_a 9.174512
_cell_length_b 23.983934
_cell_length_c 9.753290
_cell_angle_alpha 90.000000
_cell_angle_beta 90.000000
_cell_angle_gamma 90.000000
_cell_volume 2146.122615
_symmetry_space_group_name_H-M "P M M M"
_symmetry_group_IT_number 47
_symmetry_cell_setting 'orthorhombic'
loop_
_space_group_symop_operation_xyz
x,y,z
-x,-y,z
x,-y,-z
-x,y,-z
-x,-y,-z
x,y,-z
-x,y,z
x,-y,z
loop_
_atom_site_type_symbol
_atom_site_label
_atom_site_fract_x
_atom_site_fract_y
_atom_site_fract_z
Si Si1 0.172830 0.438702 0.500000
Si Si2 0.827052 0.436922 0.000000
Si Si3 0.831394 0.934809 0.345608
Si Si4 0.328080 0.850123 0.158244
Si Si5 0.827253 0.635089 0.746673
Si Si6 0.328213 0.255073 0.340996
O O1 0.243967 0.500000 0.500000
O O2 0.229059 0.404252 0.627249
O O3 0.000000 0.444354 0.500000
O O4 0.771799 0.399898 0.875107
O O5 0.760982 0.500000 0.000000
O O6 0.000000 0.442729 0.000000
O O7 0.779789 0.917868 0.500000
O O8 0.741221 0.904385 0.227337
O O9 0.000000 0.919191 0.328018
O O10 0.805927 0.000000 0.323544
O O11 0.500000 0.857727 0.161262
O O12 0.279632 0.798078 0.251953
O O13 0.274485 0.843006 0.000000
O O14 0.749873 0.694132 0.734635
O O15 0.000000 0.645353 0.746267
O O16 0.277128 0.248563 0.500000
O O17 0.500000 0.264551 0.334248
#
# Coordination Sequence:
#
# PCOD8195835 Si02
#       6
#     4   4   8   8   8   8
#     4   9  16  28  49  75 101 129 166 213 260 309
#     4   9  18  32  51  77 107 135 166 211 264 317
#     4   9  19  37  60  86 116 149 184 223 269 319
#     4  10  22  38  56  81 111 146 188 229 271 321
#     4  10  19  32  52  78 103 132 173 216 261 317
#     4  10  21  37  55  75 104 141 179 222 271 318
#
# _framework density 18.638263999999999
#
# number of rings (size 3 to 8) (size 9 to 14) (size 15 to 20)
#    0.000    2.400    1.000    1.800    1.400    5.600 
#    0.000    3.000    0.000    3.600    0.000    0.000 
#    0.000    0.000    0.000    0.000    0.000    0.000 
#
# Total GULP energy -495824.324017 kJ/mol
# GULP energy per Si atom -12395.608100 kJ/mol
# Density = 1.859584 g / cm^3
# Si number density = 18.638264 Si / 1000 Ang^3
#
#
#
# Elastic Constant Matrix: (Units=GPa)
#
#
# Indices 1 2 3 4 5 6 
#
# 1 20.5272 32.8420 29.0755 0.0000 0.0000 0.0000
# 2 32.8420 122.7783 79.0118 0.0000 0.0000 0.0000
# 3 29.0755 79.0118 172.7641 0.0000 0.0000 0.0000
# 4 0.0000 0.0000 0.0000 69.1880 0.0000 0.0000
# 5 0.0000 0.0000 0.0000 0.0000 27.3251 0.0000
# 6 0.0000 0.0000 0.0000 0.0000 0.0000 -268.6895
#
#
#
# Elastic Compliance Matrix: (Units=1/GPa)
#
#
# Indices 1 2 3 4 5 6 
#
# 1 0.089086 -0.020096 -0.005802 0.000000 0.000000 0.000000
# 2 -0.020096 0.016075 -0.003970 0.000000 0.000000 0.000000
# 3 -0.005802 -0.003970 0.008580 0.000000 0.000000 0.000000
# 4 0.000000 0.000000 0.000000 0.014453 0.000000 0.000000
# 5 0.000000 0.000000 0.000000 0.000000 0.036596 0.000000
# 6 0.000000 0.000000 0.000000 0.000000 0.000000 -0.003722
#
#
# Mechanical properties :
#
#
# Convention : Reuss Voigt Hill
#
# Bulk Modulus (GPa) = 18.51655 66.43649 42.47652
# Shear Modulus (GPa) = 20.93753 -22.75927 -0.91087
#
# Velocity S-wave (km/s) = 3.35530 -3.49822 -0.69984
# Velocity P-wave (km/s) = 4.99669 4.40521 4.71024
#
# Compressibility (1/GPa) = 0.05400573
#
# Stress axis : x y z
#
# Youngs Moduli (GPa) = 11.22512 62.20956 116.54774
#
# Poissons Ratio (x) = 1.25014 0.67624
# Poissons Ratio (y) = 0.22558 0.46264
# Poissons Ratio (z) = 0.06513 0.24694
#
# Static dielectric constant tensor:
#      x y z
#    x 3.061210 0.000000 0.000000 
#    y 0.000000 3.507830 0.000000 
#    z 0.000000 0.000000 3.695530 
# 
# 
# High freq. dielectric constant tensor:
#      x y z
#    x 1.687940 0.000000 0.000000 
#    y 0.000000 1.735860 0.000000 
#    z 0.000000 0.000000 1.738900 
# 
# From -- ./inp_files/1721.got.cif
#   From: 2010.03.12/outbox.cif.g09.slc.cpg/sg47_1_cif.got.tgz:1721.got - 2010.04.14 03:12:58.
