data_PCOD8195783
_publ_section_title
;
Structure prediction by ZEFSAII (Michael W. Deem and Ramdas Pophale) SiO2 
 PCOD8195783
Probable space group: P M M M
;
_chemical_formula_sum "Si O2"
_cell_formula_units_Z 64
_cell_length_a 20.392534
_cell_length_b 17.934839
_cell_length_c 8.969100
_cell_angle_alpha 90.000000
_cell_angle_beta 90.000000
_cell_angle_gamma 90.000000
_cell_volume 3280.330059
_symmetry_space_group_name_H-M "P M M M"
_symmetry_group_IT_number 47
_symmetry_cell_setting 'orthorhombic'
loop_
_space_group_symop_operation_xyz
x,y,z
-x,-y,z
x,-y,-z
-x,y,-z
-x,-y,-z
x,y,-z
-x,y,z
x,-y,z
loop_
_atom_site_type_symbol
_atom_site_label
_atom_site_fract_x
_atom_site_fract_y
_atom_site_fract_z
Si Si1 0.206387 0.709361 0.328377
Si Si2 0.369019 0.916870 0.169548
Si Si3 0.302369 0.416753 0.327686
Si Si4 0.109626 0.916687 0.825556
Si Si5 0.760236 0.875996 0.672078
Si Si6 0.928353 0.229688 0.674048
Si Si7 0.575783 0.640683 0.176300
Si Si8 0.425421 0.212602 0.337196
O O1 0.198111 0.688480 0.500000
O O2 0.248995 0.641646 0.256655
O O3 0.244705 0.786820 0.303542
O O4 0.131800 0.719716 0.260811
O O5 0.305806 0.912896 0.272808
O O6 0.422127 0.861728 0.239044
O O7 0.398346 0.000000 0.175980
O O8 0.352350 0.893957 0.000000
O O9 0.316573 0.396432 0.500000
O O10 0.272754 0.500000 0.312377
O O11 0.372231 0.418171 0.241277
O O12 0.183900 0.912993 0.770450
O O13 0.067950 0.852527 0.745465
O O14 0.081770 0.000000 0.791215
O O15 0.107414 0.900520 0.000000
O O16 0.773050 0.895403 0.500000
O O17 0.914192 0.216847 0.500000
O O18 0.000000 0.267767 0.700836
O O19 0.500000 0.621579 0.221453
O O20 0.602750 0.718384 0.243973
O O21 0.581399 0.644282 0.000000
O O22 0.389542 0.205072 0.500000
O O23 0.500000 0.230157 0.368597
#
# Coordination Sequence:
#
# PCOD8195783 Si02
#       8
#     8   8   8   8   8   8   8   8
#     4   8  16  32  52  75 102 131 168 214 260 307
#     4  11  23  35  48  70 101 135 172 218 271 322
#     4  10  20  34  55  82 111 143 176 212 257 312
#     4  10  20  32  46  68 102 138 168 208 266 323
#     4  10  19  32  52  73  95 130 176 221 262 309
#     4   9  18  33  53  74  97 133 180 224 265 314
#     4  10  21  37  57  80 108 142 176 213 261 317
#     4  10  21  37  56  75  96 127 171 220 265 314
#
# _framework density 19.510231999999998
#
# number of rings (size 3 to 8) (size 9 to 14) (size 15 to 20)
#    0.000    2.250    0.000    3.750    0.000    7.250 
#    0.000    6.250    0.000    0.375    0.000    2.625 
#    0.000    0.000    0.000    5.625    0.000    6.250 
#
# Total GULP energy -793122.035333 kJ/mol
# GULP energy per Si atom -12392.531802 kJ/mol
# Density = 1.946583 g / cm^3
# Si number density = 19.510232 Si / 1000 Ang^3
#
#
#
# Elastic Constant Matrix: (Units=GPa)
#
#
# Indices 1 2 3 4 5 6 
#
# 1 83.4532 38.6905 27.9554 0.0000 0.0000 0.0000
# 2 38.6905 94.4491 35.0190 0.0000 0.0000 0.0000
# 3 27.9554 35.0190 58.7211 0.0000 0.0000 0.0000
# 4 0.0000 0.0000 0.0000 20.0026 0.0000 0.0000
# 5 0.0000 0.0000 0.0000 0.0000 18.8020 0.0000
# 6 0.0000 0.0000 0.0000 0.0000 0.0000 8.8291
#
#
#
# Elastic Compliance Matrix: (Units=1/GPa)
#
#
# Indices 1 2 3 4 5 6 
#
# 1 0.015735 -0.004710 -0.004682 0.000000 0.000000 0.000000
# 2 -0.004710 0.015003 -0.006705 0.000000 0.000000 0.000000
# 3 -0.004682 -0.006705 0.023257 0.000000 0.000000 0.000000
# 4 0.000000 0.000000 0.000000 0.049993 0.000000 0.000000
# 5 0.000000 0.000000 0.000000 0.000000 0.053186 0.000000
# 6 0.000000 0.000000 0.000000 0.000000 0.000000 0.113262
#
#
# Mechanical properties :
#
#
# Convention : Reuss Voigt Hill
#
# Bulk Modulus (GPa) = 45.86891 48.88368 47.37630
# Shear Modulus (GPa) = 16.13436 18.52398 17.32917
#
# Velocity S-wave (km/s) = 2.87883 3.08466 2.98352
# Velocity P-wave (km/s) = 5.88315 6.14789 6.01698
#
# Compressibility (1/GPa) = 0.02180126
#
# Stress axis : x y z
#
# Youngs Moduli (GPa) = 63.55388 66.65317 42.99708
#
# Poissons Ratio (x) = 0.31391 0.20132
# Poissons Ratio (y) = 0.29931 0.28830
# Poissons Ratio (z) = 0.29757 0.44692
#
# Static dielectric constant tensor:
#      x y z
#    x 3.646650 0.000000 0.000000 
#    y 0.000000 3.539620 0.000000 
#    z 0.000000 0.000000 3.525750 
# 
# 
# High freq. dielectric constant tensor:
#      x y z
#    x 1.755460 0.000000 0.000000 
#    y 0.000000 1.741970 0.000000 
#    z 0.000000 0.000000 1.750620 
# 
# From -- ./inp_files/11631.got.cif
#   From: 2010.03.12/outbox.cif.g09.slc.cpg/sg47_6_cif.got.tgz:11631.got - 2010.04.14 03:12:58.
