data_PCOD8195481
_publ_section_title
;
Structure prediction by ZEFSAII (Michael W. Deem and Ramdas Pophale) SiO2 
 PCOD8195481
Probable space group: P M M M
;
_chemical_formula_sum "Si O2"
_cell_formula_units_Z 44
_cell_length_a 14.702559
_cell_length_b 17.571790
_cell_length_c 9.306487
_cell_angle_alpha 90.000000
_cell_angle_beta 90.000000
_cell_angle_gamma 90.000000
_cell_volume 2404.333515
_symmetry_space_group_name_H-M "P M M M"
_symmetry_group_IT_number 47
_symmetry_cell_setting 'orthorhombic'
loop_
_space_group_symop_operation_xyz
x,y,z
-x,-y,z
x,-y,-z
-x,y,-z
-x,-y,-z
x,y,-z
-x,y,z
x,-y,z
loop_
_atom_site_type_symbol
_atom_site_label
_atom_site_fract_x
_atom_site_fract_y
_atom_site_fract_z
Si Si1 0.000000 0.413845 0.154597
Si Si2 0.659051 0.698543 0.665317
Si Si3 0.099042 0.814761 0.163461
Si Si4 0.863307 0.332329 0.664346
Si Si5 0.298031 0.149668 0.167956
Si Si6 0.500000 0.587407 0.670540
Si Si7 0.602770 0.000000 0.171000
O O1 0.090450 0.398715 0.245947
O O2 0.000000 0.500000 0.114782
O O3 0.000000 0.369326 0.000000
O O4 0.638112 0.719943 0.500000
O O5 0.755905 0.658287 0.681655
O O6 0.658997 0.776755 0.754851
O O7 0.587140 0.636272 0.723918
O O8 0.098347 0.745867 0.273454
O O9 0.189632 0.864028 0.197549
O O10 0.000000 0.857600 0.182040
O O11 0.107642 0.784672 0.000000
O O12 0.893756 0.337380 0.500000
O O13 0.347312 0.075127 0.230571
O O14 0.317933 0.160421 0.000000
O O15 0.500000 0.500000 0.732936
O O16 0.500000 0.581255 0.500000
O O17 0.500000 0.000000 0.228452
O O18 0.606729 0.000000 0.000000
#
# Coordination Sequence:
#
# PCOD8195481 Si02
#       7
#     4   8   8   8   8   4   4
#     4  11  23  35  47  67  99 136 169 206 257 311
#     4   9  19  34  54  79 104 132 171 215 258 311
#     4   9  16  28  48  71  97 129 165 204 252 303
#     4  10  19  31  49  73  98 127 168 213 252 297
#     4   9  18  32  51  75 102 137 176 213 254 305
#     4   9  18  34  55  76 101 134 168 209 265 319
#     4   9  18  32  50  74 106 139 175 217 261 305
#
# _framework density 18.300288999999999
#
# number of rings (size 3 to 8) (size 9 to 14) (size 15 to 20)
#    0.000    2.636    0.909    0.818    1.273    2.182 
#    0.000    2.727    0.000    4.364    0.000    0.000 
#    0.000    5.818    0.000    0.000    0.000    0.000 
#
# Total GULP energy -545162.085848 kJ/mol
# GULP energy per Si atom -12390.047406 kJ/mol
# Density = 1.825864 g / cm^3
# Si number density = 18.300289 Si / 1000 Ang^3
#
#
#
# Elastic Constant Matrix: (Units=GPa)
#
#
# Indices 1 2 3 4 5 6 
#
# 1 158.1297 76.9640 39.5822 0.0000 0.0000 0.0000
# 2 76.9640 118.6995 39.3807 0.0000 0.0000 0.0000
# 3 39.5822 39.3807 79.4860 0.0000 0.0000 0.0000
# 4 0.0000 0.0000 0.0000 2.9239 0.0000 0.0000
# 5 0.0000 0.0000 0.0000 0.0000 19.2458 0.0000
# 6 0.0000 0.0000 0.0000 0.0000 0.0000 31.6321
#
#
#
# Elastic Compliance Matrix: (Units=1/GPa)
#
#
# Indices 1 2 3 4 5 6 
#
# 1 0.009501 -0.005494 -0.002009 0.000000 0.000000 0.000000
# 2 -0.005494 0.013258 -0.003833 0.000000 0.000000 0.000000
# 3 -0.002009 -0.003833 0.015481 0.000000 0.000000 0.000000
# 4 0.000000 0.000000 0.000000 0.342012 0.000000 0.000000
# 5 0.000000 0.000000 0.000000 0.000000 0.051959 0.000000
# 6 0.000000 0.000000 0.000000 0.000000 0.000000 0.031613
#
#
# Mechanical properties :
#
#
# Convention : Reuss Voigt Hill
#
# Bulk Modulus (GPa) = 64.23630 74.24101 69.23865
# Shear Modulus (GPa) = 10.16910 24.11957 17.14434
#
# Velocity S-wave (km/s) = 2.35984 3.63435 3.06410
# Velocity P-wave (km/s) = 6.52707 7.63332 7.10177
#
# Compressibility (1/GPa) = 0.01556752
#
# Stress axis : x y z
#
# Youngs Moduli (GPa) = 105.25563 75.42457 64.59726
#
# Poissons Ratio (x) = 0.41435 0.12980
# Poissons Ratio (y) = 0.57822 0.24761
# Poissons Ratio (z) = 0.21150 0.28911
#
# Static dielectric constant tensor:
#      x y z
#    x 4.161620 0.000000 0.000000 
#    y 0.000000 3.203610 0.000000 
#    z 0.000000 0.000000 3.314620 
# 
# 
# High freq. dielectric constant tensor:
#      x y z
#    x 1.728740 0.000000 0.000000 
#    y 0.000000 1.680710 0.000000 
#    z 0.000000 0.000000 1.692750 
# 
# From -- ./inp_files/6263.got.cif
#   From: 2010.03.12/outbox.cif.g09.slc.cpg/sg47_4_cif.got.tgz:6263.got - 2010.04.14 03:12:58.
