data_PCOD8195959
_publ_section_title
;
Structure prediction by ZEFSAII (Michael W. Deem and Ramdas Pophale) SiO2 
 PCOD8195959
Probable space group: P M M M
;
_chemical_formula_sum "Si O2"
_cell_formula_units_Z 40
_cell_length_a 23.226299
_cell_length_b 9.346952
_cell_length_c 11.619029
_cell_angle_alpha 90.000000
_cell_angle_beta 90.000000
_cell_angle_gamma 90.000000
_cell_volume 2522.434285
_symmetry_space_group_name_H-M "P M M M"
_symmetry_group_IT_number 47
_symmetry_cell_setting 'orthorhombic'
loop_
_space_group_symop_operation_xyz
x,y,z
-x,-y,z
x,-y,-z
-x,y,-z
-x,-y,-z
x,y,-z
-x,y,z
x,-y,z
loop_
_atom_site_type_symbol
_atom_site_label
_atom_site_fract_x
_atom_site_fract_y
_atom_site_fract_z
Si Si1 0.830090 0.839253 0.137148
Si Si2 0.719931 0.334375 0.132571
Si Si3 0.063616 0.660638 0.136871
Si Si4 0.602086 0.668364 0.252814
Si Si5 0.500000 0.835957 0.136017
Si Si6 0.564150 0.331506 0.500000
O O1 0.773677 0.755764 0.180146
O O2 0.887429 0.764424 0.188236
O O3 0.827752 0.000000 0.185185
O O4 0.832125 0.836977 0.000000
O O5 0.736015 0.500000 0.146579
O O6 0.665199 0.291384 0.208460
O O7 0.706036 0.297585 0.000000
O O8 0.074845 0.500000 0.182255
O O9 0.000000 0.713280 0.176455
O O10 0.066848 0.660976 0.000000
O O11 0.589113 0.500000 0.236511
O O12 0.556400 0.756526 0.180328
O O13 0.598474 0.716586 0.386182
O O14 0.500000 0.000000 0.179007
O O15 0.500000 0.827889 0.000000
O O16 0.557498 0.500000 0.500000
O O17 0.500000 0.262881 0.500000
#
# Coordination Sequence:
#
# PCOD8195959 Si02
#       6
#     8   8   8   8   4   4
#     4   9  16  24  35  52  76 107 139 173 213 252
#     4   9  17  28  42  60  81 108 143 177 208 250
#     4   8  13  21  33  49  71 102 140 178 210 241
#     4  10  19  33  52  69  86 112 145 178 215 262
#     4  11  23  34  45  66  94 117 138 173 218 257
#     4   9  16  30  52  74  90 106 135 180 223 258
#
# _framework density 15.857697
#
# number of rings (size 3 to 8) (size 9 to 14) (size 15 to 20)
#    0.000    2.800    1.000    2.100    0.000    5.200 
#    0.000    5.000    0.000    0.000    0.000    0.000 
#    0.000    0.000    0.000    0.900    0.000   21.000 
#
# Total GULP energy -495866.631037 kJ/mol
# GULP energy per Si atom -12396.665776 kJ/mol
# Density = 1.582160 g / cm^3
# Si number density = 15.857697 Si / 1000 Ang^3
#
#
#
# Elastic Constant Matrix: (Units=GPa)
#
#
# Indices 1 2 3 4 5 6 
#
# 1 165.7106 80.4573 45.7103 0.0000 0.0000 0.0000
# 2 80.4573 90.7580 26.5252 0.0000 0.0000 0.0000
# 3 45.7103 26.5252 52.5610 0.0000 0.0000 0.0000
# 4 0.0000 0.0000 0.0000 8.5930 0.0000 0.0000
# 5 0.0000 0.0000 0.0000 0.0000 -1.9096 0.0000
# 6 0.0000 0.0000 0.0000 0.0000 0.0000 13.3944
#
#
#
# Elastic Compliance Matrix: (Units=1/GPa)
#
#
# Indices 1 2 3 4 5 6 
#
# 1 0.011992 -0.008895 -0.005940 0.000000 0.000000 0.000000
# 2 -0.008895 0.019522 -0.002117 0.000000 0.000000 0.000000
# 3 -0.005940 -0.002117 0.025259 0.000000 0.000000 0.000000
# 4 0.000000 0.000000 0.000000 0.116374 0.000000 0.000000
# 5 0.000000 0.000000 0.000000 0.000000 -0.523661 0.000000
# 6 0.000000 0.000000 0.000000 0.000000 0.000000 0.074658
#
#
# Mechanical properties :
#
#
# Convention : Reuss Voigt Hill
#
# Bulk Modulus (GPa) = 43.72395 68.26836 55.99616
# Shear Modulus (GPa) = -21.33755 14.43799 -3.44978
#
# Velocity S-wave (km/s) = -3.67217 3.02068 -1.47654
# Velocity P-wave (km/s) = 3.10689 7.43707 5.69925
#
# Compressibility (1/GPa) = 0.02287076
#
# Stress axis : x y z
#
# Youngs Moduli (GPa) = 83.39051 51.22403 39.58910
#
# Poissons Ratio (x) = 0.45562 0.23516
# Poissons Ratio (y) = 0.74173 0.08379
# Poissons Ratio (z) = 0.49534 0.10842
#
# Static dielectric constant tensor:
#      x y z
#    x 3.246730 0.000000 0.000000 
#    y 0.000000 3.073920 0.000000 
#    z 0.000000 0.000000 2.689340 
# 
# 
# High freq. dielectric constant tensor:
#      x y z
#    x 1.621260 0.000000 0.000000 
#    y 0.000000 1.603890 0.000000 
#    z 0.000000 0.000000 1.549330 
# 
# From -- ./inp_files/18930.got.cif
#   From: 2010.03.12/outbox.cif.g09.slc.cpg/sg47_10_cif.got.tgz:18930.got - 2010.04.14 03:12:58.
