data_PCOD8195335
_publ_section_title
;
Structure prediction by ZEFSAII (Michael W. Deem and Ramdas Pophale) SiO2 
 PCOD8195335
Probable space group: P M M M
;
_chemical_formula_sum "Si O2"
_cell_formula_units_Z 52
_cell_length_a 17.779391
_cell_length_b 17.850113
_cell_length_c 9.067390
_cell_angle_alpha 90.000000
_cell_angle_beta 90.000000
_cell_angle_gamma 90.000000
_cell_volume 2877.664415
_symmetry_space_group_name_H-M "P M M M"
_symmetry_group_IT_number 47
_symmetry_cell_setting 'orthorhombic'
loop_
_space_group_symop_operation_xyz
x,y,z
-x,-y,z
x,-y,-z
-x,y,-z
-x,-y,-z
x,y,-z
-x,y,z
x,-y,z
loop_
_atom_site_type_symbol
_atom_site_label
_atom_site_fract_x
_atom_site_fract_y
_atom_site_fract_z
Si Si1 0.723846 0.798836 0.326810
Si Si2 0.789035 0.339591 0.167483
Si Si3 0.584733 0.739320 0.826311
Si Si4 0.849935 0.086151 0.672538
Si Si5 0.000000 0.088985 0.168042
Si Si6 0.915537 0.587052 0.664359
Si Si7 0.639047 0.418499 0.169108
O O1 0.709446 0.797735 0.500000
O O2 0.769852 0.726582 0.278450
O O3 0.641924 0.798328 0.248279
O O4 0.773952 0.870473 0.279690
O O5 0.869823 0.370281 0.210848
O O6 0.728357 0.406003 0.184598
O O7 0.790553 0.309417 0.000000
O O8 0.500000 0.765555 0.791879
O O9 0.596515 0.654261 0.762467
O O10 0.602382 0.738723 0.000000
O O11 0.865510 0.096271 0.500000
O O12 0.923834 0.119230 0.754420
O O13 0.836284 0.000000 0.715821
O O14 0.000000 0.000000 0.181070
O O15 0.000000 0.116889 0.000000
O O16 0.882768 0.601842 0.500000
O O17 0.913759 0.500000 0.701054
O O18 0.000000 0.617865 0.672907
O O19 0.619278 0.500000 0.243874
O O20 0.614438 0.424015 0.000000
#
# Coordination Sequence:
#
# PCOD8195335 Si02
#       7
#     8   8   8   8   4   8   8
#     4  10  20  34  53  75  98 129 167 205 250 302
#     4  10  19  31  47  68  96 127 163 205 249 299
#     4   9  18  32  50  73 102 134 165 203 252 303
#     4   9  18  34  55  77 102 133 169 207 248 298
#     4   9  17  29  49  79 109 133 158 191 236 291
#     4   9  18  32  48  66  91 125 165 210 257 300
#     4   8  14  25  43  68  94 120 154 197 242 287
#
# _framework density 18.070209999999999
#
# number of rings (size 3 to 8) (size 9 to 14) (size 15 to 20)
#    0.000    2.846    0.000    3.000    0.000    4.000 
#    1.385    2.308    0.000    4.615    0.000    7.538 
#    0.000    0.000    0.000    0.000    0.000    0.000 
#
# Total GULP energy -644454.517590 kJ/mol
# GULP energy per Si atom -12393.356108 kJ/mol
# Density = 1.802908 g / cm^3
# Si number density = 18.070210 Si / 1000 Ang^3
#
#
#
# Elastic Constant Matrix: (Units=GPa)
#
#
# Indices 1 2 3 4 5 6 
#
# 1 140.4815 50.8646 53.6166 0.0000 0.0000 0.0000
# 2 50.8646 60.7111 28.2922 0.0000 0.0000 0.0000
# 3 53.6166 28.2922 55.0516 0.0000 0.0000 0.0000
# 4 0.0000 0.0000 0.0000 19.8066 0.0000 0.0000
# 5 0.0000 0.0000 0.0000 0.0000 30.6583 0.0000
# 6 0.0000 0.0000 0.0000 0.0000 0.0000 22.5193
#
#
#
# Elastic Compliance Matrix: (Units=1/GPa)
#
#
# Indices 1 2 3 4 5 6 
#
# 1 0.013073 -0.006600 -0.009340 0.000000 0.000000 0.000000
# 2 -0.006600 0.024991 -0.006415 0.000000 0.000000 0.000000
# 3 -0.009340 -0.006415 0.030559 0.000000 0.000000 0.000000
# 4 0.000000 0.000000 0.000000 0.050488 0.000000 0.000000
# 5 0.000000 0.000000 0.000000 0.000000 0.032618 0.000000
# 6 0.000000 0.000000 0.000000 0.000000 0.000000 0.044406
#
#
# Mechanical properties :
#
#
# Convention : Reuss Voigt Hill
#
# Bulk Modulus (GPa) = 41.82173 57.97675 49.89924
# Shear Modulus (GPa) = 20.09522 22.82823 21.46173
#
# Velocity S-wave (km/s) = 3.33838 3.55816 3.45002
# Velocity P-wave (km/s) = 6.16879 7.00246 6.59880
#
# Compressibility (1/GPa) = 0.02391101
#
# Stress axis : x y z
#
# Youngs Moduli (GPa) = 76.49427 40.01502 32.72408
#
# Poissons Ratio (x) = 0.26410 0.30565
# Poissons Ratio (y) = 0.50486 0.20993
# Poissons Ratio (z) = 0.71448 0.25671
#
# Static dielectric constant tensor:
#      x y z
#    x 3.417130 0.000000 0.000000 
#    y 0.000000 3.214840 0.000000 
#    z 0.000000 0.000000 3.180390 
# 
# 
# High freq. dielectric constant tensor:
#      x y z
#    x 1.701150 0.000000 0.000000 
#    y 0.000000 1.672640 0.000000 
#    z 0.000000 0.000000 1.682810 
# 
# From -- ./inp_files/9553.got.cif
#   From: 2010.03.12/outbox.cif.g09.slc.cpg/sg47_5_cif.got.tgz:9553.got - 2010.04.14 03:12:58.
