data_PCOD8195927
_publ_section_title
;
Structure prediction by ZEFSAII (Michael W. Deem and Ramdas Pophale) SiO2 
 PCOD8195927
Probable space group: P M M M
;
_chemical_formula_sum "Si O2"
_cell_formula_units_Z 56
_cell_length_a 22.218110
_cell_length_b 9.777035
_cell_length_c 13.732178
_cell_angle_alpha 90.000000
_cell_angle_beta 90.000000
_cell_angle_gamma 90.000000
_cell_volume 2983.003114
_symmetry_space_group_name_H-M "P M M M"
_symmetry_group_IT_number 47
_symmetry_cell_setting 'orthorhombic'
loop_
_space_group_symop_operation_xyz
x,y,z
-x,-y,z
x,-y,-z
-x,y,-z
-x,-y,-z
x,y,-z
-x,y,z
x,-y,z
loop_
_atom_site_type_symbol
_atom_site_label
_atom_site_fract_x
_atom_site_fract_y
_atom_site_fract_z
Si Si1 0.932228 0.657701 0.254132
Si Si2 0.168779 0.661182 0.107018
Si Si3 0.571245 0.000000 0.615301
Si Si4 0.304182 0.661155 0.111586
Si Si5 0.570058 0.500000 0.391528
Si Si6 0.867722 0.843705 0.615203
Si Si7 0.635578 0.258726 0.700577
Si Si8 0.759771 0.654012 0.385428
O O1 0.918413 0.500000 0.284291
O O2 0.884833 0.715338 0.175003
O O3 0.925792 0.760133 0.346044
O O4 0.000000 0.669206 0.212972
O O5 0.163228 0.500000 0.097633
O O6 0.235914 0.698365 0.145352
O O7 0.159997 0.726895 0.000000
O O8 0.603516 0.122496 0.668856
O O9 0.500000 0.000000 0.635027
O O10 0.584408 0.000000 0.500000
O O11 0.315097 0.500000 0.122026
O O12 0.349996 0.739560 0.183577
O O13 0.315603 0.707631 0.000000
O O14 0.500000 0.500000 0.407650
O O15 0.600633 0.500000 0.500000
O O16 0.587785 0.627980 0.327491
O O17 0.870839 0.846481 0.500000
O O18 0.810673 0.756552 0.654855
O O19 0.865004 0.000000 0.654914
O O20 0.696104 0.282433 0.640605
O O21 0.765748 0.643215 0.500000
O O22 0.767001 0.500000 0.340061
#
# Coordination Sequence:
#
# PCOD8195927 Si02
#       8
#     8   8   4   8   4   8   8   8
#     4  10  20  33  52  79 109 142 185 233 279 330
#     4   8  15  30  54  83 114 142 172 220 282 338
#     4  11  26  44  59  81 119 161 197 236 284 340
#     4   9  17  32  57  90 119 145 186 241 295 344
#     4  11  22  36  57  85 115 149 195 240 278 334
#     4  10  22  37  52  73 105 146 189 232 279 335
#     4  12  21  36  60  85 114 155 194 237 288 340
#     4  10  19  32  54  84 112 137 177 235 294 347
#
# _framework density 18.773026999999999
#
# number of rings (size 3 to 8) (size 9 to 14) (size 15 to 20)
#    0.000    2.000    1.429    3.857    1.000    4.000 
#    0.000    3.214    0.000    3.000    0.000    1.000 
#    0.000    0.000    0.000    0.000    0.000    0.000 
#
# Total GULP energy -694100.526547 kJ/mol
# GULP energy per Si atom -12394.652260 kJ/mol
# Density = 1.873030 g / cm^3
# Si number density = 18.773027 Si / 1000 Ang^3
#
#
#
# Elastic Constant Matrix: (Units=GPa)
#
#
# Indices 1 2 3 4 5 6 
#
# 1 108.5816 57.4114 59.1767 0.0000 0.0000 0.0000
# 2 57.4114 125.0872 50.4193 0.0000 0.0000 0.0000
# 3 59.1767 50.4193 80.7486 0.0000 0.0000 0.0000
# 4 0.0000 0.0000 0.0000 20.9445 0.0000 0.0000
# 5 0.0000 0.0000 0.0000 0.0000 28.5497 0.0000
# 6 0.0000 0.0000 0.0000 0.0000 0.0000 27.4817
#
#
#
# Elastic Compliance Matrix: (Units=1/GPa)
#
#
# Indices 1 2 3 4 5 6 
#
# 1 0.016463 -0.003599 -0.009818 0.000000 0.000000 0.000000
# 2 -0.003599 0.011470 -0.004524 0.000000 0.000000 0.000000
# 3 -0.009818 -0.004524 0.022404 0.000000 0.000000 0.000000
# 4 0.000000 0.000000 0.000000 0.047745 0.000000 0.000000
# 5 0.000000 0.000000 0.000000 0.000000 0.035027 0.000000
# 6 0.000000 0.000000 0.000000 0.000000 0.000000 0.036388
#
#
# Mechanical properties :
#
#
# Convention : Reuss Voigt Hill
#
# Bulk Modulus (GPa) = 69.18030 72.04804 70.61417
# Shear Modulus (GPa) = 23.78708 25.22249 24.50479
#
# Velocity S-wave (km/s) = 3.56348 3.66942 3.61684
# Velocity P-wave (km/s) = 7.33908 7.51097 7.42552
#
# Compressibility (1/GPa) = 0.01445498
#
# Stress axis : x y z
#
# Youngs Moduli (GPa) = 60.74105 87.18542 44.63419
#
# Poissons Ratio (x) = 0.31376 0.43822
# Poissons Ratio (y) = 0.21859 0.20194
# Poissons Ratio (z) = 0.59636 0.39446
#
# Static dielectric constant tensor:
#      x y z
#    x 3.475800 0.000000 0.000000 
#    y 0.000000 3.324920 0.000000 
#    z 0.000000 0.000000 3.802970 
# 
# 
# High freq. dielectric constant tensor:
#      x y z
#    x 1.727010 0.000000 0.000000 
#    y 0.000000 1.705440 0.000000 
#    z 0.000000 0.000000 1.729950 
# 
# From -- ./inp_files/25170.got.cif
#   From: 2010.03.12/outbox.cif.g09.slc.cpg/sg47_13_cif.got.tgz:25170.got - 2010.04.14 03:12:58.
