data_PCOD8195208
_publ_section_title
;
Structure prediction by ZEFSAII (Michael W. Deem and Ramdas Pophale) SiO2 
 PCOD8195208
Probable space group: P M M M
;
_chemical_formula_sum "Si O2"
_cell_formula_units_Z 40
_cell_length_a 12.785369
_cell_length_b 19.422340
_cell_length_c 9.114782
_cell_angle_alpha 90.000000
_cell_angle_beta 90.000000
_cell_angle_gamma 90.000000
_cell_volume 2263.398925
_symmetry_space_group_name_H-M "P M M M"
_symmetry_group_IT_number 47
_symmetry_cell_setting 'orthorhombic'
loop_
_space_group_symop_operation_xyz
x,y,z
-x,-y,z
x,-y,-z
-x,y,-z
-x,-y,-z
x,y,-z
-x,y,z
x,-y,z
loop_
_atom_site_type_symbol
_atom_site_label
_atom_site_fract_x
_atom_site_fract_y
_atom_site_fract_z
Si Si1 0.000000 0.825187 0.834759
Si Si2 0.379738 0.579985 0.832030
Si Si3 0.205069 0.823576 0.672254
Si Si4 0.206932 0.664295 0.671759
Si Si5 0.000000 0.338481 0.165770
Si Si6 0.615972 0.923115 0.674292
O O1 0.897755 0.852683 0.751814
O O2 0.000000 0.743260 0.830793
O O3 0.000000 0.853566 0.000000
O O4 0.500000 0.597746 0.797000
O O5 0.357981 0.500000 0.803314
O O6 0.308630 0.623744 0.723557
O O7 0.353304 0.598954 0.000000
O O8 0.188807 0.834449 0.500000
O O9 0.225525 0.744099 0.710616
O O10 0.302228 0.867374 0.735546
O O11 0.190321 0.653186 0.500000
O O12 0.103902 0.634593 0.752368
O O13 0.000000 0.367186 0.000000
O O14 0.614950 0.920209 0.500000
O O15 0.500000 0.904698 0.733854
O O16 0.647732 0.000000 0.726425
#
# Coordination Sequence:
#
# PCOD8195208 Si02
#       6
#     4   8   8   8   4   8
#     4   9  17  29  46  67  92 124 159 192 230 277
#     4   9  19  36  54  70  93 128 165 196 229 276
#     4   9  17  29  47  71  97 123 153 192 236 279
#     4  10  19  30  48  75 102 124 152 196 245 287
#     4   9  17  31  50  69  94 129 163 193 230 281
#     4   8  14  26  45  68  93 122 157 195 232 272
#
# _framework density 17.672536000000001
#
# number of rings (size 3 to 8) (size 9 to 14) (size 15 to 20)
#    0.000    3.000    0.000    2.400    0.000    4.800 
#    0.000    4.000    0.000    7.200    0.000    1.400 
#    0.000    0.000    0.000    0.000    0.000    0.000 
#
# Total GULP energy -495931.413677 kJ/mol
# GULP energy per Si atom -12398.285342 kJ/mol
# Density = 1.763231 g / cm^3
# Si number density = 17.672536 Si / 1000 Ang^3
#
#
#
# Elastic Constant Matrix: (Units=GPa)
#
#
# Indices 1 2 3 4 5 6 
#
# 1 152.1370 65.4609 58.6582 0.0000 0.0000 0.0000
# 2 65.4609 60.5863 35.9481 0.0000 0.0000 0.0000
# 3 58.6582 35.9481 72.3039 0.0000 0.0000 0.0000
# 4 0.0000 0.0000 0.0000 14.2383 0.0000 0.0000
# 5 0.0000 0.0000 0.0000 0.0000 29.6467 0.0000
# 6 0.0000 0.0000 0.0000 0.0000 0.0000 8.7595
#
#
#
# Elastic Compliance Matrix: (Units=1/GPa)
#
#
# Indices 1 2 3 4 5 6 
#
# 1 0.013568 -0.011530 -0.005275 0.000000 0.000000 0.000000
# 2 -0.011530 0.033209 -0.007157 0.000000 0.000000 0.000000
# 3 -0.005275 -0.007157 0.021668 0.000000 0.000000 0.000000
# 4 0.000000 0.000000 0.000000 0.070233 0.000000 0.000000
# 5 0.000000 0.000000 0.000000 0.000000 0.033731 0.000000
# 6 0.000000 0.000000 0.000000 0.000000 0.000000 0.114162
#
#
# Mechanical properties :
#
#
# Convention : Reuss Voigt Hill
#
# Bulk Modulus (GPa) = 48.72869 67.24015 57.98442
# Shear Modulus (GPa) = 14.64835 18.85957 16.75396
#
# Velocity S-wave (km/s) = 2.88214 3.27030 3.08234
# Velocity P-wave (km/s) = 6.22163 7.23811 6.74903
#
# Compressibility (1/GPa) = 0.02052179
#
# Stress axis : x y z
#
# Youngs Moduli (GPa) = 73.70460 30.11203 46.15024
#
# Poissons Ratio (x) = 0.34718 0.24343
# Poissons Ratio (y) = 0.84978 0.33032
# Poissons Ratio (z) = 0.38878 0.21552
#
# Static dielectric constant tensor:
#      x y z
#    x 3.523620 0.000000 0.000000 
#    y 0.000000 3.103810 0.000000 
#    z 0.000000 0.000000 3.109300 
# 
# 
# High freq. dielectric constant tensor:
#      x y z
#    x 1.696130 0.000000 0.000000 
#    y 0.000000 1.657340 0.000000 
#    z 0.000000 0.000000 1.666190 
# 
# From -- ./inp_files/4069.got.cif
#   From: 2010.03.12/outbox.cif.g09.slc.cpg/sg47_3_cif.got.tgz:4069.got - 2010.04.14 03:12:58.
