data_PCOD8195369
_publ_section_title
;
Structure prediction by ZEFSAII (Michael W. Deem and Ramdas Pophale) SiO2 
 PCOD8195369
Probable space group: P M M M
;
_chemical_formula_sum "Si O2"
_cell_formula_units_Z 64
_cell_length_a 19.828939
_cell_length_b 8.926616
_cell_length_c 19.777953
_cell_angle_alpha 90.000000
_cell_angle_beta 90.000000
_cell_angle_gamma 90.000000
_cell_volume 3500.802982
_symmetry_space_group_name_H-M "P M M M"
_symmetry_group_IT_number 47
_symmetry_cell_setting 'orthorhombic'
loop_
_space_group_symop_operation_xyz
x,y,z
-x,-y,z
x,-y,-z
-x,y,-z
-x,-y,-z
x,y,-z
-x,y,z
x,-y,z
loop_
_atom_site_type_symbol
_atom_site_label
_atom_site_fract_x
_atom_site_fract_y
_atom_site_fract_z
Si Si1 0.332700 0.323358 0.686594
Si Si2 0.881922 0.670332 0.927055
Si Si3 0.751193 0.170758 0.894091
Si Si4 0.792001 0.171596 0.258725
Si Si5 0.074289 0.674362 0.781532
Si Si6 0.575490 0.829660 0.795004
Si Si7 0.576764 0.171970 0.421377
Si Si8 0.383696 0.673182 0.075799
O O1 0.326466 0.500000 0.687539
O O2 0.256994 0.255829 0.688395
O O3 0.375360 0.271547 0.751150
O O4 0.370417 0.272919 0.618734
O O5 0.855778 0.500000 0.918470
O O6 0.819394 0.782361 0.930572
O O7 0.927177 0.711704 0.862147
O O8 0.920391 0.687309 0.000000
O O9 0.758140 0.191578 0.814002
O O10 0.693954 0.279539 0.921263
O O11 0.733963 0.000000 0.913022
O O12 0.867805 0.237626 0.258830
O O13 0.797686 0.000000 0.280927
O O14 0.087783 0.500000 0.769378
O O15 0.000000 0.720522 0.754063
O O16 0.500000 0.821790 0.765069
O O17 0.573454 0.771825 0.871928
O O18 0.602678 0.000000 0.793772
O O19 0.593548 0.189593 0.500000
O O20 0.500000 0.224393 0.406829
O O21 0.585198 0.000000 0.398144
O O22 0.390389 0.500000 0.096004
O O23 0.411590 0.700181 0.000000
#
# Coordination Sequence:
#
# PCOD8195369 Si02
#       8
#     8   8   8   8   8   8   8   8
#     4  12  23  35  57  85 113 144 180 225 270 313
#     4   9  17  28  43  64  91 123 161 205 257 322
#     4  10  19  31  48  68  91 122 162 211 266 321
#     4  10  20  34  53  75 101 134 176 222 265 316
#     4   9  18  32  49  70  99 133 169 215 272 330
#     4  11  24  40  56  74  98 131 173 219 268 324
#     4   9  19  37  60  86 120 161 196 223 257 307
#     4  11  23  36  51  70  93 123 162 214 275 333
#
# _framework density 18.28152
#
# number of rings (size 3 to 8) (size 9 to 14) (size 15 to 20)
#    0.000    1.875    1.250    3.750    0.000    7.500 
#    0.000    3.125    0.000    0.000    0.000    3.500 
#    0.000    0.500    0.000    5.250    0.000    2.250 
#
# Total GULP energy -793462.048164 kJ/mol
# GULP energy per Si atom -12397.844503 kJ/mol
# Density = 1.823991 g / cm^3
# Si number density = 18.281520 Si / 1000 Ang^3
#
#
#
# Elastic Constant Matrix: (Units=GPa)
#
#
# Indices 1 2 3 4 5 6 
#
# 1 112.0746 56.3347 37.2693 0.0000 0.0000 0.0000
# 2 56.3347 109.1536 36.5494 0.0000 0.0000 0.0000
# 3 37.2693 36.5494 60.3180 0.0000 0.0000 0.0000
# 4 0.0000 0.0000 0.0000 25.1692 0.0000 0.0000
# 5 0.0000 0.0000 0.0000 0.0000 4.0419 0.0000
# 6 0.0000 0.0000 0.0000 0.0000 0.0000 27.2899
#
#
#
# Elastic Compliance Matrix: (Units=1/GPa)
#
#
# Indices 1 2 3 4 5 6 
#
# 1 0.013166 -0.005107 -0.005040 0.000000 0.000000 0.000000
# 2 -0.005107 0.013475 -0.005009 0.000000 0.000000 0.000000
# 3 -0.005040 -0.005009 0.022728 0.000000 0.000000 0.000000
# 4 0.000000 0.000000 0.000000 0.039731 0.000000 0.000000
# 5 0.000000 0.000000 0.000000 0.000000 0.247407 0.000000
# 6 0.000000 0.000000 0.000000 0.000000 0.000000 0.036644
#
#
# Mechanical properties :
#
#
# Convention : Reuss Voigt Hill
#
# Bulk Modulus (GPa) = 52.47836 60.20590 56.34213
# Shear Modulus (GPa) = 12.20062 21.39306 16.79684
#
# Velocity S-wave (km/s) = 2.58616 3.42453 3.03444
# Velocity P-wave (km/s) = 6.13886 6.97429 6.56987
#
# Compressibility (1/GPa) = 0.01905547
#
# Stress axis : x y z
#
# Youngs Moduli (GPa) = 75.95381 74.21375 43.99795
#
# Poissons Ratio (x) = 0.37903 0.22176
# Poissons Ratio (y) = 0.38792 0.22039
# Poissons Ratio (z) = 0.38282 0.37175
#
# Static dielectric constant tensor:
#      x y z
#    x 3.314130 0.000000 0.000000 
#    y 0.000000 3.384680 0.000000 
#    z 0.000000 0.000000 3.135970 
# 
# 
# High freq. dielectric constant tensor:
#      x y z
#    x 1.700990 0.000000 0.000000 
#    y 0.000000 1.713490 0.000000 
#    z 0.000000 0.000000 1.673150 
# 
# From -- ./inp_files/31534.got.cif
#   From: 2010.03.12/outbox.cif.g09.slc.cpg/sg47_16_cif.got.tgz:31534.got - 2010.04.14 03:12:58.
