data_PCOD8195773
_publ_section_title
;
Structure prediction by ZEFSAII (Michael W. Deem and Ramdas Pophale) SiO2 
 PCOD8195773
Probable space group: P M M M
;
_chemical_formula_sum "Si O2"
_cell_formula_units_Z 40
_cell_length_a 24.291390
_cell_length_b 9.528298
_cell_length_c 9.948899
_cell_angle_alpha 90.000000
_cell_angle_beta 90.000000
_cell_angle_gamma 90.000000
_cell_volume 2302.728415
_symmetry_space_group_name_H-M "P M M M"
_symmetry_group_IT_number 47
_symmetry_cell_setting 'orthorhombic'
loop_
_space_group_symop_operation_xyz
x,y,z
-x,-y,z
x,-y,-z
-x,y,-z
-x,-y,-z
x,y,-z
-x,y,z
x,-y,z
loop_
_atom_site_type_symbol
_atom_site_label
_atom_site_fract_x
_atom_site_fract_y
_atom_site_fract_z
Si Si1 0.062373 0.833763 0.000000
Si Si2 0.131960 0.833452 0.253789
Si Si3 0.439528 0.157136 0.159454
Si Si4 0.662284 0.663051 0.154207
Si Si5 0.235580 0.336081 0.657245
Si Si6 0.060332 0.833945 0.500000
O O1 0.098229 0.782194 0.874977
O O2 0.000000 0.770214 0.000000
O O3 0.056609 0.000000 0.000000
O O4 0.189200 0.753826 0.268301
O O5 0.093313 0.781421 0.372627
O O6 0.143349 0.000000 0.253973
O O7 0.500000 0.205859 0.212343
O O8 0.391788 0.259475 0.211243
O O9 0.427019 0.000000 0.211438
O O10 0.440180 0.159285 0.000000
O O11 0.648692 0.500000 0.157670
O O12 0.710144 0.701618 0.258565
O O13 0.677464 0.708473 0.000000
O O14 0.242488 0.293254 0.500000
O O15 0.221072 0.500000 0.669462
O O16 0.000000 0.764564 0.500000
O O17 0.054631 0.000000 0.500000
#
# Coordination Sequence:
#
# PCOD8195773 Si02
#       6
#     4   8   8   8   8   4
#     4   9  18  32  51  77 105 127 152 195 248 295
#     4  10  19  32  51  75  98 124 161 200 240 290
#     4   8  14  26  45  71 102 130 155 191 242 290
#     4   9  18  31  48  71  95 124 164 203 239 283
#     4  10  21  36  51  68  97 134 166 202 249 292
#     4   9  16  28  49  73  95 121 156 197 236 279
#
# _framework density 17.370698000000001
#
# number of rings (size 3 to 8) (size 9 to 14) (size 15 to 20)
#    0.000    2.800    1.000    1.200    1.400    3.600 
#    0.000    2.000    0.000    4.200    0.000    4.200 
#    0.000    0.000    0.000    0.000    0.000    0.000 
#
# Total GULP energy -495744.784146 kJ/mol
# GULP energy per Si atom -12393.619604 kJ/mol
# Density = 1.733116 g / cm^3
# Si number density = 17.370698 Si / 1000 Ang^3
#
#
#
# Elastic Constant Matrix: (Units=GPa)
#
#
# Indices 1 2 3 4 5 6 
#
# 1 178.7933 66.4499 74.4136 0.0000 0.0000 0.0000
# 2 66.4499 45.5223 31.8971 0.0000 0.0000 0.0000
# 3 74.4136 31.8971 114.2833 0.0000 0.0000 0.0000
# 4 0.0000 0.0000 0.0000 21.4760 0.0000 0.0000
# 5 0.0000 0.0000 0.0000 0.0000 -1.5835 0.0000
# 6 0.0000 0.0000 0.0000 0.0000 0.0000 5.7842
#
#
#
# Elastic Compliance Matrix: (Units=1/GPa)
#
#
# Indices 1 2 3 4 5 6 
#
# 1 0.013632 -0.017005 -0.004130 0.000000 0.000000 0.000000
# 2 -0.017005 0.048520 -0.002470 0.000000 0.000000 0.000000
# 3 -0.004130 -0.002470 0.012129 0.000000 0.000000 0.000000
# 4 0.000000 0.000000 0.000000 0.046564 0.000000 0.000000
# 5 0.000000 0.000000 0.000000 0.000000 -0.631510 0.000000
# 6 0.000000 0.000000 0.000000 0.000000 0.000000 0.172885
#
#
# Mechanical properties :
#
#
# Convention : Reuss Voigt Hill
#
# Bulk Modulus (GPa) = 36.93935 76.01334 56.47634
# Shear Modulus (GPa) = -17.75906 16.19122 -0.78392
#
# Velocity S-wave (km/s) = -3.20090 3.05634 -0.67251
# Velocity P-wave (km/s) = 2.76595 7.50397 5.65508
#
# Compressibility (1/GPa) = 0.02707140
#
# Stress axis : x y z
#
# Youngs Moduli (GPa) = 73.35662 20.60990 82.44894
#
# Poissons Ratio (x) = 0.35047 0.34052
# Poissons Ratio (y) = 1.24743 0.20363
# Poissons Ratio (z) = 0.30297 0.05090
#
# Static dielectric constant tensor:
#      x y z
#    x 3.534100 0.000000 0.000000 
#    y 0.000000 3.038380 0.000000 
#    z 0.000000 0.000000 3.224620 
# 
# 
# High freq. dielectric constant tensor:
#      x y z
#    x 1.683910 0.000000 0.000000 
#    y 0.000000 1.643750 0.000000 
#    z 0.000000 0.000000 1.657870 
# 
# From -- ./inp_files/10653.got.cif
#   From: 2010.03.12/outbox.cif.g09.slc.cpg/sg47_6_cif.got.tgz:10653.got - 2010.04.14 03:12:58.
