data_PCOD8195782
_publ_section_title
;
Structure prediction by ZEFSAII (Michael W. Deem and Ramdas Pophale) SiO2 
 PCOD8195782
Probable space group: P M M M
;
_chemical_formula_sum "Si O2"
_cell_formula_units_Z 52
_cell_length_a 24.767649
_cell_length_b 8.806546
_cell_length_c 12.849983
_cell_angle_alpha 90.000000
_cell_angle_beta 90.000000
_cell_angle_gamma 90.000000
_cell_volume 2802.805399
_symmetry_space_group_name_H-M "P M M M"
_symmetry_group_IT_number 47
_symmetry_cell_setting 'orthorhombic'
loop_
_space_group_symop_operation_xyz
x,y,z
-x,-y,z
x,-y,-z
-x,y,-z
-x,-y,-z
x,y,-z
-x,y,z
x,-y,z
loop_
_atom_site_type_symbol
_atom_site_label
_atom_site_fract_x
_atom_site_fract_y
_atom_site_fract_z
Si Si1 0.000000 0.667204 0.878650
Si Si2 0.560335 0.319311 0.115017
Si Si3 0.628665 0.681839 0.304115
Si Si4 0.739189 0.324481 0.382555
Si Si5 0.062649 0.319496 0.500000
Si Si6 0.145089 0.680742 0.322164
Si Si7 0.561038 0.319095 0.500000
Si Si8 0.890650 0.179443 0.118455
O O1 0.050727 0.765562 0.845229
O O2 0.000000 0.500000 0.823351
O O3 0.000000 0.639403 0.000000
O O4 0.500000 0.261606 0.142493
O O5 0.560587 0.500000 0.118898
O O6 0.603185 0.253705 0.197453
O O7 0.577102 0.262400 0.000000
O O8 0.629449 0.500000 0.306834
O O9 0.690422 0.744170 0.312621
O O10 0.591985 0.742761 0.398454
O O11 0.720104 0.299199 0.500000
O O12 0.745733 0.500000 0.355522
O O13 0.798365 0.252526 0.366000
O O14 0.061713 0.500000 0.500000
O O15 0.095603 0.262556 0.603271
O O16 0.000000 0.258390 0.500000
O O17 0.143349 0.500000 0.318601
O O18 0.146953 0.744287 0.204423
O O19 0.560148 0.500000 0.500000
O O20 0.500000 0.255323 0.500000
O O21 0.887427 0.000000 0.125194
O O22 0.876547 0.233288 0.000000
#
# Coordination Sequence:
#
# PCOD8195782 Si02
#       8
#     4   8   8   8   4   8   4   8
#     4   9  17  31  53  78 101 128 163 197 231 283
#     4   8  13  20  28  39  61  96 136 177 222 273
#     4   9  14  20  31  47  68  98 138 184 232 277
#     4   9  15  26  41  58  81 112 150 192 243 295
#     4   9  18  31  48  72  97 121 155 199 246 292
#     4  10  19  32  52  73  95 126 166 207 246 296
#     4   9  14  17  25  45  70  96 134 186 232 270
#     4  10  21  36  52  73 104 136 162 196 247 297
#
# _framework density 18.55284
#
# number of rings (size 3 to 8) (size 9 to 14) (size 15 to 20)
#    0.000    2.846    1.538    1.615    1.077    3.692 
#    0.000    1.154    0.000    3.231    0.000    0.000 
#    0.000    0.000    0.000    0.000    0.000    3.846 
#
# Total GULP energy -644193.152246 kJ/mol
# GULP energy per Si atom -12388.329851 kJ/mol
# Density = 1.851061 g / cm^3
# Si number density = 18.552840 Si / 1000 Ang^3
#
#
#
# Elastic Constant Matrix: (Units=GPa)
#
#
# Indices 1 2 3 4 5 6 
#
# 1 159.2766 9.1468 76.7539 0.0000 0.0000 0.0000
# 2 9.1468 12.1763 8.2918 0.0000 0.0000 0.0000
# 3 76.7539 8.2918 109.0850 0.0000 0.0000 0.0000
# 4 0.0000 0.0000 0.0000 10.9902 0.0000 0.0000
# 5 0.0000 0.0000 0.0000 0.0000 34.3160 0.0000
# 6 0.0000 0.0000 0.0000 0.0000 0.0000 1.6554
#
#
#
# Elastic Compliance Matrix: (Units=1/GPa)
#
#
# Indices 1 2 3 4 5 6 
#
# 1 0.009586 -0.002750 -0.006536 0.000000 0.000000 0.000000
# 2 -0.002750 0.087399 -0.004708 0.000000 0.000000 0.000000
# 3 -0.006536 -0.004708 0.014124 0.000000 0.000000 0.000000
# 4 0.000000 0.000000 0.000000 0.090990 0.000000 0.000000
# 5 0.000000 0.000000 0.000000 0.000000 0.029141 0.000000
# 6 0.000000 0.000000 0.000000 0.000000 0.000000 0.604101
#
#
# Mechanical properties :
#
#
# Convention : Reuss Voigt Hill
#
# Bulk Modulus (GPa) = 12.03083 52.10254 32.06669
# Shear Modulus (GPa) = 5.61145 21.81534 13.71340
#
# Velocity S-wave (km/s) = 1.74102 3.43279 2.72169
# Velocity P-wave (km/s) = 3.24657 6.62241 5.21520
#
# Compressibility (1/GPa) = 0.08311976
#
# Stress axis : x y z
#
# Youngs Moduli (GPa) = 104.32101 11.44183 70.80323
#
# Poissons Ratio (x) = 0.03147 0.46275
# Poissons Ratio (y) = 0.28690 0.33336
# Poissons Ratio (z) = 0.68181 0.05387
#
# Static dielectric constant tensor:
#      x y z
#    x 3.697750 0.000000 0.000000 
#    y 0.000000 2.699310 0.000000 
#    z 0.000000 0.000000 3.610290 
# 
# 
# High freq. dielectric constant tensor:
#      x y z
#    x 1.723520 0.000000 0.000000 
#    y 0.000000 1.644070 0.000000 
#    z 0.000000 0.000000 1.723730 
# 
# From -- ./inp_files/19845.got.cif
#   From: 2010.03.12/outbox.cif.g09.slc.cpg/sg47_10_cif.got.tgz:19845.got - 2010.04.14 03:12:58.
