data_PCOD8195264
_publ_section_title
;
Structure prediction by ZEFSAII (Michael W. Deem and Ramdas Pophale) SiO2 
 PCOD8195264
Probable space group: P M M M
;
_chemical_formula_sum "Si O2"
_cell_formula_units_Z 52
_cell_length_a 8.323655
_cell_length_b 18.826998
_cell_length_c 26.260557
_cell_angle_alpha 90.000000
_cell_angle_beta 90.000000
_cell_angle_gamma 90.000000
_cell_volume 4115.277078
_symmetry_space_group_name_H-M "P M M M"
_symmetry_group_IT_number 47
_symmetry_cell_setting 'orthorhombic'
loop_
_space_group_symop_operation_xyz
x,y,z
-x,-y,z
x,-y,-z
-x,y,-z
-x,-y,-z
x,y,-z
-x,y,z
x,-y,z
loop_
_atom_site_type_symbol
_atom_site_label
_atom_site_fract_x
_atom_site_fract_y
_atom_site_fract_z
Si Si1 0.181571 0.583507 0.261358
Si Si2 0.183950 0.691871 0.442429
Si Si3 0.684733 0.581748 0.633883
Si Si4 0.812088 0.417901 0.054876
Si Si5 0.679919 0.840225 0.439789
Si Si6 0.000000 0.918375 0.439604
Si Si7 0.314234 0.418827 0.158154
O O1 0.210246 0.500000 0.255519
O O2 0.286929 0.611412 0.308807
O O3 0.231002 0.618642 0.207101
O O4 0.000000 0.603733 0.273878
O O5 0.226159 0.668461 0.500000
O O6 0.210877 0.625033 0.406219
O O7 0.294622 0.757736 0.425314
O O8 0.000000 0.717261 0.438899
O O9 0.500000 0.590144 0.619368
O O10 0.741655 0.500000 0.630711
O O11 0.761842 0.500000 0.052744
O O12 0.728505 0.380930 0.104079
O O13 0.000000 0.408861 0.062360
O O14 0.759454 0.383702 0.000000
O O15 0.681290 0.850211 0.500000
O O16 0.500000 0.863213 0.419342
O O17 0.832510 0.884752 0.417319
O O18 0.000000 0.907922 0.500000
O O19 0.000000 0.000000 0.423166
O O20 0.500000 0.413991 0.168874
O O21 0.253231 0.500000 0.153891
#
# Coordination Sequence:
#
# PCOD8195264 Si02
#       7
#     8   8   8   8   8   4   8
#     4   9  16  26  38  48  59  76  98 125 160 201
#     4  10  19  31  45  57  71  92 117 142 170 209
#     4  10  20  31  41  54  70  85 107 143 181 214
#     4   8  13  20  28  38  53  72  93 115 138 170
#     4   9  16  27  42  58  77 100 122 141 164 196
#     4   9  16  26  40  60  83 101 119 141 162 188
#     4   9  15  21  30  43  57  73  92 115 147 186
#
# _framework density 12.635844000000001
#
# number of rings (size 3 to 8) (size 9 to 14) (size 15 to 20)
#    0.000    2.846    0.769    2.308    0.000    6.462 
#    0.000    4.615    0.000    0.000    0.000    0.000 
#    0.000    0.000    0.000    0.000    0.000    0.000 
#
# Total GULP energy -644209.389780 kJ/mol
# GULP energy per Si atom -12388.642111 kJ/mol
# Density = 1.260708 g / cm^3
# Si number density = 12.635844 Si / 1000 Ang^3
#
#
#
# Elastic Constant Matrix: (Units=GPa)
#
#
# Indices 1 2 3 4 5 6 
#
# 1 61.7664 21.3387 24.4426 0.0000 0.0000 0.0000
# 2 21.3387 30.0995 21.1002 0.0000 0.0000 0.0000
# 3 24.4426 21.1002 72.2946 0.0000 0.0000 0.0000
# 4 0.0000 0.0000 0.0000 0.0534 0.0000 0.0000
# 5 0.0000 0.0000 0.0000 0.0000 18.2871 0.0000
# 6 0.0000 0.0000 0.0000 0.0000 0.0000 11.6366
#
#
#
# Elastic Compliance Matrix: (Units=1/GPa)
#
#
# Indices 1 2 3 4 5 6 
#
# 1 0.022186 -0.013163 -0.003659 0.000000 0.000000 0.000000
# 2 -0.013163 0.049579 -0.010020 0.000000 0.000000 0.000000
# 3 -0.003659 -0.010020 0.017994 0.000000 0.000000 0.000000
# 4 0.000000 0.000000 0.000000 18.734438 0.000000 0.000000
# 5 0.000000 0.000000 0.000000 0.000000 0.054683 0.000000
# 6 0.000000 0.000000 0.000000 0.000000 0.000000 0.085936
#
#
# Mechanical properties :
#
#
# Convention : Reuss Voigt Hill
#
# Bulk Modulus (GPa) = 27.72054 33.10261 30.41157
# Shear Modulus (GPa) = 0.26274 12.48068 6.37171
#
# Velocity S-wave (km/s) = 0.45649 3.14621 2.24800
# Velocity P-wave (km/s) = 4.71842 6.28112 5.55499
#
# Compressibility (1/GPa) = 0.03607433
#
# Stress axis : x y z
#
# Youngs Moduli (GPa) = 45.07437 20.16972 55.57445
#
# Poissons Ratio (x) = 0.26550 0.20335
# Poissons Ratio (y) = 0.59332 0.55686
# Poissons Ratio (z) = 0.16493 0.20210
#
# Static dielectric constant tensor:
#      x y z
#    x 2.711650 0.000000 0.000000 
#    y 0.000000 2.101410 0.000000 
#    z 0.000000 0.000000 2.661630 
# 
# 
# High freq. dielectric constant tensor:
#      x y z
#    x 1.498610 0.000000 0.000000 
#    y 0.000000 1.403220 0.000000 
#    z 0.000000 0.000000 1.467850 
# 
# From -- ./inp_files/11484.got.cif
#   From: 2010.03.12/outbox.cif.g09.slc.cpg/sg47_6_cif.got.tgz:11484.got - 2010.04.14 03:12:58.
