data_PCOD8195507
_publ_section_title
;
Structure prediction by ZEFSAII (Michael W. Deem and Ramdas Pophale) SiO2 
 PCOD8195507
Probable space group: P M M M
;
_chemical_formula_sum "Si O2"
_cell_formula_units_Z 56
_cell_length_a 15.480698
_cell_length_b 9.167507
_cell_length_c 23.100703
_cell_angle_alpha 90.000000
_cell_angle_beta 90.000000
_cell_angle_gamma 90.000000
_cell_volume 3278.438078
_symmetry_space_group_name_H-M "P M M M"
_symmetry_group_IT_number 47
_symmetry_cell_setting 'orthorhombic'
loop_
_space_group_symop_operation_xyz
x,y,z
-x,-y,z
x,-y,-z
-x,y,-z
-x,-y,-z
x,y,-z
-x,y,z
x,-y,z
loop_
_atom_site_type_symbol
_atom_site_label
_atom_site_fract_x
_atom_site_fract_y
_atom_site_fract_z
Si Si1 0.265425 0.673135 0.787450
Si Si2 0.400781 0.329464 0.113702
Si Si3 0.684549 0.661538 0.661727
Si Si4 0.602343 0.163341 0.000000
Si Si5 0.000000 0.163994 0.567911
Si Si6 0.601433 0.838918 0.437215
Si Si7 0.903163 0.171287 0.761876
Si Si8 0.877809 0.335404 0.357029
O O1 0.247088 0.500000 0.784875
O O2 0.336497 0.715903 0.834959
O O3 0.305207 0.728386 0.726316
O O4 0.173427 0.753304 0.799983
O O5 0.500000 0.285898 0.129474
O O6 0.395370 0.500000 0.100470
O O7 0.365789 0.246485 0.057184
O O8 0.645122 0.500000 0.667508
O O9 0.622752 0.749341 0.619916
O O10 0.776810 0.659290 0.631221
O O11 0.500000 0.160825 0.000000
O O12 0.640679 0.000000 0.000000
O O13 0.916138 0.251971 0.588235
O O14 0.000000 0.158546 0.500000
O O15 0.000000 0.000000 0.593625
O O16 0.632838 0.772935 0.500000
O O17 0.500000 0.850688 0.439203
O O18 0.642168 0.000000 0.430361
O O19 0.903662 0.245698 0.699523
O O20 0.000000 0.193897 0.789133
O O21 0.882644 0.000000 0.756156
O O22 0.914322 0.500000 0.351185
#
# Coordination Sequence:
#
# PCOD8195507 Si02
#       8
#     8   8   8   4   4   8   8   8
#     4   9  19  33  49  74 104 133 167 205 250 301
#     4   9  17  31  51  74 104 142 179 212 246 292
#     4   9  19  33  49  72  96 119 152 195 244 293
#     4   9  17  29  47  73 104 139 178 215 251 292
#     4  11  23  35  47  67  93 119 151 190 235 292
#     4   9  19  35  51  66  86 116 156 198 240 290
#     4  10  19  31  50  73  97 126 162 204 248 296
#     4  10  20  34  51  68  90 120 152 190 237 289
#
# _framework density 17.081305
#
# number of rings (size 3 to 8) (size 9 to 14) (size 15 to 20)
#    0.000    2.571    0.714    2.571    0.000    7.429 
#    0.000    5.000    0.000    1.714    0.000    0.500 
#    0.000    4.000    0.000    0.000    0.000    0.000 
#
# Total GULP energy -693952.764256 kJ/mol
# GULP energy per Si atom -12392.013647 kJ/mol
# Density = 1.704243 g / cm^3
# Si number density = 17.081305 Si / 1000 Ang^3
#
#
#
# Elastic Constant Matrix: (Units=GPa)
#
#
# Indices 1 2 3 4 5 6 
#
# 1 74.2255 40.8000 50.6696 0.0000 0.0000 0.0000
# 2 40.8000 89.9719 50.0928 0.0000 0.0000 0.0000
# 3 50.6696 50.0928 104.2189 0.0000 0.0000 0.0000
# 4 0.0000 0.0000 0.0000 20.9476 0.0000 0.0000
# 5 0.0000 0.0000 0.0000 0.0000 20.2472 0.0000
# 6 0.0000 0.0000 0.0000 0.0000 0.0000 25.7827
#
#
#
# Elastic Compliance Matrix: (Units=1/GPa)
#
#
# Indices 1 2 3 4 5 6 
#
# 1 0.021985 -0.005487 -0.008051 0.000000 0.000000 0.000000
# 2 -0.005487 0.016545 -0.005285 0.000000 0.000000 0.000000
# 3 -0.008051 -0.005285 0.016050 0.000000 0.000000 0.000000
# 4 0.000000 0.000000 0.000000 0.047738 0.000000 0.000000
# 5 0.000000 0.000000 0.000000 0.000000 0.049389 0.000000
# 6 0.000000 0.000000 0.000000 0.000000 0.000000 0.038786
#
#
# Mechanical properties :
#
#
# Convention : Reuss Voigt Hill
#
# Bulk Modulus (GPa) = 59.05425 61.28233 60.16829
# Shear Modulus (GPa) = 21.38733 21.85243 21.61988
#
# Velocity S-wave (km/s) = 3.54233 3.58064 3.56153
# Velocity P-wave (km/s) = 7.16786 7.28350 7.22591
#
# Compressibility (1/GPa) = 0.01693358
#
# Stress axis : x y z
#
# Youngs Moduli (GPa) = 45.48633 60.44097 62.30622
#
# Poissons Ratio (x) = 0.33163 0.50165
# Poissons Ratio (y) = 0.24957 0.32928
# Poissons Ratio (z) = 0.36623 0.31942
#
# Static dielectric constant tensor:
#      x y z
#    x 3.263540 0.000000 0.000000 
#    y 0.000000 3.393520 0.000000 
#    z 0.000000 0.000000 3.059750 
# 
# 
# High freq. dielectric constant tensor:
#      x y z
#    x 1.650400 0.000000 0.000000 
#    y 0.000000 1.664110 0.000000 
#    z 0.000000 0.000000 1.636340 
# 
# From -- ./inp_files/31102.got.cif
#   From: 2010.03.12/outbox.cif.g09.slc.cpg/sg47_16_cif.got.tgz:31102.got - 2010.04.14 03:12:58.
