data_PCOD8195445
_publ_section_title
;
Structure prediction by ZEFSAII (Michael W. Deem and Ramdas Pophale) SiO2 
 PCOD8195445
Probable space group: P M M M
;
_chemical_formula_sum "Si O2"
_cell_formula_units_Z 36
_cell_length_a 9.331481
_cell_length_b 25.089985
_cell_length_c 8.111477
_cell_angle_alpha 90.000000
_cell_angle_beta 90.000000
_cell_angle_gamma 90.000000
_cell_volume 1899.113491
_symmetry_space_group_name_H-M "P M M M"
_symmetry_group_IT_number 47
_symmetry_cell_setting 'orthorhombic'
loop_
_space_group_symop_operation_xyz
x,y,z
-x,-y,z
x,-y,-z
-x,y,-z
-x,-y,-z
x,y,-z
-x,y,z
x,-y,z
loop_
_atom_site_type_symbol
_atom_site_label
_atom_site_fract_x
_atom_site_fract_y
_atom_site_fract_z
Si Si1 0.335616 0.442753 0.193613
Si Si2 0.666518 0.223137 0.812401
Si Si3 0.167053 0.126877 0.685396
Si Si4 0.829763 0.059746 0.000000
Si Si5 0.665571 0.666551 0.311903
O O1 0.500000 0.444564 0.251696
O O2 0.265138 0.500000 0.247776
O O3 0.258474 0.390504 0.272089
O O4 0.324246 0.436334 0.000000
O O5 0.500000 0.221402 0.760559
O O6 0.752089 0.183012 0.696010
O O7 0.727962 0.283289 0.789855
O O8 0.689593 0.205290 0.000000
O O9 0.193840 0.103154 0.500000
O O10 0.000000 0.137823 0.713308
O O11 0.224854 0.087928 0.830775
O O12 0.000000 0.058190 0.000000
O O13 0.766593 0.000000 0.000000
O O14 0.688571 0.681344 0.500000
O O15 0.500000 0.659927 0.262538
#
# Coordination Sequence:
#
# PCOD8195445 Si02
#       5
#     8   8   8   4   8
#     4   8  13  21  32  46  69 105 147 189 234 285
#     4  10  19  31  49  71  97 132 169 204 246 295
#     4  10  20  34  54  79 105 133 165 203 246 290
#     4   9  18  34  55  79 107 135 164 201 242 286
#     4   9  16  24  35  55  83 114 151 195 240 288
#
# _framework density 18.956212000000001
#
# number of rings (size 3 to 8) (size 9 to 14) (size 15 to 20)
#    0.000    2.778    1.111    2.000    0.000    4.889 
#    0.000    4.444    0.000    1.333    0.000    1.556 
#    0.000    0.889    0.000    9.333    0.000   12.889 
#
# Total GULP energy -446003.697082 kJ/mol
# GULP energy per Si atom -12388.991586 kJ/mol
# Density = 1.891307 g / cm^3
# Si number density = 18.956212 Si / 1000 Ang^3
#
#
#
# Elastic Constant Matrix: (Units=GPa)
#
#
# Indices 1 2 3 4 5 6 
#
# 1 16.7960 22.9975 16.5596 0.0000 0.0000 0.0000
# 2 22.9975 154.5310 64.5801 0.0000 0.0000 0.0000
# 3 16.5596 64.5801 98.1893 0.0000 0.0000 0.0000
# 4 0.0000 0.0000 0.0000 26.6439 0.0000 0.0000
# 5 0.0000 0.0000 0.0000 0.0000 14.1281 0.0000
# 6 0.0000 0.0000 0.0000 0.0000 0.0000 -2.1051
#
#
#
# Elastic Compliance Matrix: (Units=1/GPa)
#
#
# Indices 1 2 3 4 5 6 
#
# 1 0.078769 -0.008510 -0.007687 0.000000 0.000000 0.000000
# 2 -0.008510 0.009843 -0.005039 0.000000 0.000000 0.000000
# 3 -0.007687 -0.005039 0.014795 0.000000 0.000000 0.000000
# 4 0.000000 0.000000 0.000000 0.037532 0.000000 0.000000
# 5 0.000000 0.000000 0.000000 0.000000 0.070781 0.000000
# 6 0.000000 0.000000 0.000000 0.000000 0.000000 -0.475030
#
#
# Mechanical properties :
#
#
# Convention : Reuss Voigt Hill
#
# Bulk Modulus (GPa) = 16.41088 53.08784 34.74936
# Shear Modulus (GPa) = -24.93453 18.75864 -3.08795
#
# Velocity S-wave (km/s) = -3.63074 3.14917 -1.27770
# Velocity P-wave (km/s) = 2.98335 6.42568 4.02424
#
# Compressibility (1/GPa) = 0.06093520
#
# Stress axis : x y z
#
# Youngs Moduli (GPa) = 12.69533 101.59015 67.59006
#
# Poissons Ratio (x) = 0.86452 0.51959
# Poissons Ratio (y) = 0.10804 0.34058
# Poissons Ratio (z) = 0.09759 0.51191
#
# Static dielectric constant tensor:
#      x y z
#    x 2.766660 0.000000 0.000000 
#    y 0.000000 3.848150 0.000000 
#    z 0.000000 0.000000 3.511840 
# 
# 
# High freq. dielectric constant tensor:
#      x y z
#    x 1.647010 0.000000 0.000000 
#    y 0.000000 1.754060 0.000000 
#    z 0.000000 0.000000 1.744650 
# 
# From -- ./inp_files/1385.got.cif
#   From: 2010.03.12/outbox.cif.g09.slc.cpg/sg47_1_cif.got.tgz:1385.got - 2010.04.14 03:12:58.
