data_PCOD8195634
_publ_section_title
;
Structure prediction by ZEFSAII (Michael W. Deem and Ramdas Pophale) SiO2 
 PCOD8195634
Probable space group: P M M M
;
_chemical_formula_sum "Si O2"
_cell_formula_units_Z 52
_cell_length_a 15.602992
_cell_length_b 8.883796
_cell_length_c 21.827921
_cell_angle_alpha 90.000000
_cell_angle_beta 90.000000
_cell_angle_gamma 90.000000
_cell_volume 3025.651030
_symmetry_space_group_name_H-M "P M M M"
_symmetry_group_IT_number 47
_symmetry_cell_setting 'orthorhombic'
loop_
_space_group_symop_operation_xyz
x,y,z
-x,-y,z
x,-y,-z
-x,y,-z
-x,-y,-z
x,y,-z
-x,y,z
x,-y,z
loop_
_atom_site_type_symbol
_atom_site_label
_atom_site_fract_x
_atom_site_fract_y
_atom_site_fract_z
Si Si1 0.096463 0.665857 0.716099
Si Si2 0.843083 0.328435 0.149736
Si Si3 0.753671 0.172084 0.669391
Si Si4 0.000000 0.679074 0.930078
Si Si5 0.322156 0.821090 0.798970
Si Si6 0.500000 0.320060 0.784051
Si Si7 0.500000 0.678927 0.644224
Si Si8 0.340244 0.321996 0.568570
O O1 0.131798 0.500000 0.696986
O O2 0.102578 0.681948 0.788624
O O3 0.147231 0.800273 0.683932
O O4 0.000000 0.684508 0.694412
O O5 0.817418 0.500000 0.133684
O O6 0.753373 0.236184 0.155443
O O7 0.910389 0.260707 0.099801
O O8 0.699305 0.227375 0.728755
O O9 0.740084 0.268559 0.608007
O O10 0.735007 0.000000 0.655002
O O11 0.000000 0.500000 0.922348
O O12 0.000000 0.732810 0.000000
O O13 0.413890 0.745743 0.816091
O O14 0.328741 0.000000 0.805613
O O15 0.500000 0.500000 0.789735
O O16 0.500000 0.262421 0.713679
O O17 0.500000 0.500000 0.643972
O O18 0.580158 0.743845 0.606868
O O19 0.338540 0.253711 0.500000
O O20 0.343508 0.500000 0.564311
#
# Coordination Sequence:
#
# PCOD8195634 Si02
#       8
#     8   8   8   4   8   4   4   8
#     4   9  16  28  48  70  92 120 156 196 235 280
#     4   9  16  29  48  73 103 136 172 203 238 287
#     4  10  20  31  44  65  93 122 153 192 242 294
#     4   9  16  28  51  83 115 143 172 209 246 277
#     4  10  20  32  46  68 100 134 166 206 251 294
#     4  11  19  30  51  73  95 129 166 206 255 301
#     4   9  17  29  46  67  89 114 150 192 233 282
#     4  10  19  32  49  66  86 116 155 196 237 287
#
# _framework density 17.186384
#
# number of rings (size 3 to 8) (size 9 to 14) (size 15 to 20)
#    0.000    2.385    2.308    1.385    0.000    2.769 
#    0.000    0.769    0.000    2.308    0.000    3.769 
#    0.000    4.308    0.000    0.000    0.000    0.000 
#
# Total GULP energy -644438.911409 kJ/mol
# GULP energy per Si atom -12393.055989 kJ/mol
# Density = 1.714727 g / cm^3
# Si number density = 17.186384 Si / 1000 Ang^3
#
#
#
# Elastic Constant Matrix: (Units=GPa)
#
#
# Indices 1 2 3 4 5 6 
#
# 1 122.5126 37.1162 47.6639 0.0000 0.0000 0.0000
# 2 37.1162 46.1884 19.7021 0.0000 0.0000 0.0000
# 3 47.6639 19.7021 73.9426 0.0000 0.0000 0.0000
# 4 0.0000 0.0000 0.0000 12.2553 0.0000 0.0000
# 5 0.0000 0.0000 0.0000 0.0000 21.6501 0.0000
# 6 0.0000 0.0000 0.0000 0.0000 0.0000 20.4287
#
#
#
# Elastic Compliance Matrix: (Units=1/GPa)
#
#
# Indices 1 2 3 4 5 6 
#
# 1 0.012949 -0.007723 -0.006289 0.000000 0.000000 0.000000
# 2 -0.007723 0.029033 -0.002758 0.000000 0.000000 0.000000
# 3 -0.006289 -0.002758 0.018313 0.000000 0.000000 0.000000
# 4 0.000000 0.000000 0.000000 0.081597 0.000000 0.000000
# 5 0.000000 0.000000 0.000000 0.000000 0.046189 0.000000
# 6 0.000000 0.000000 0.000000 0.000000 0.000000 0.048951
#
#
# Mechanical properties :
#
#
# Convention : Reuss Voigt Hill
#
# Bulk Modulus (GPa) = 37.37597 50.17866 43.77732
# Shear Modulus (GPa) = 17.88978 20.07759 18.98369
#
# Velocity S-wave (km/s) = 3.22984 3.42164 3.32712
# Velocity P-wave (km/s) = 5.97527 6.69853 6.34721
#
# Compressibility (1/GPa) = 0.02675516
#
# Stress axis : x y z
#
# Youngs Moduli (GPa) = 77.22622 34.44399 54.60649
#
# Poissons Ratio (x) = 0.26601 0.34343
# Poissons Ratio (y) = 0.59641 0.15058
# Poissons Ratio (z) = 0.48569 0.09498
#
# Static dielectric constant tensor:
#      x y z
#    x 3.261570 0.000000 0.000000 
#    y 0.000000 3.003460 0.000000 
#    z 0.000000 0.000000 2.978360 
# 
# 
# High freq. dielectric constant tensor:
#      x y z
#    x 1.668070 0.000000 0.000000 
#    y 0.000000 1.646480 0.000000 
#    z 0.000000 0.000000 1.623310 
# 
# From -- ./inp_files/32688.got.cif
#   From: 2010.03.12/outbox.cif.g09.slc.cpg/sg47_17_cif.got.tgz:32688.got - 2010.04.14 03:12:58.
