data_PCOD8195609
_publ_section_title
;
Structure prediction by ZEFSAII (Michael W. Deem and Ramdas Pophale) SiO2 
 PCOD8195609
Probable space group: P M M M
;
_chemical_formula_sum "Si O2"
_cell_formula_units_Z 48
_cell_length_a 19.285554
_cell_length_b 20.756707
_cell_length_c 9.671195
_cell_angle_alpha 90.000000
_cell_angle_beta 90.000000
_cell_angle_gamma 90.000000
_cell_volume 3871.423785
_symmetry_space_group_name_H-M "P M M M"
_symmetry_group_IT_number 47
_symmetry_cell_setting 'orthorhombic'
loop_
_space_group_symop_operation_xyz
x,y,z
-x,-y,z
x,-y,-z
-x,y,-z
-x,-y,-z
x,y,-z
-x,y,z
x,-y,z
loop_
_atom_site_type_symbol
_atom_site_label
_atom_site_fract_x
_atom_site_fract_y
_atom_site_fract_z
Si Si1 0.917043 0.861932 0.155373
Si Si2 0.917831 0.500000 0.160997
Si Si3 0.924063 0.000000 0.835846
Si Si4 0.423613 0.576588 0.844151
Si Si5 0.148387 0.611875 0.660684
Si Si6 0.919957 0.746115 0.340826
Si Si7 0.301043 0.574319 0.342307
O O1 0.888882 0.805658 0.254087
O O2 0.000000 0.865793 0.161135
O O3 0.886667 0.932190 0.205597
O O4 0.892055 0.846266 0.000000
O O5 0.889217 0.562707 0.237707
O O6 0.000000 0.500000 0.172835
O O7 0.894329 0.500000 0.000000
O O8 0.000000 0.000000 0.766141
O O9 0.932575 0.000000 0.000000
O O10 0.500000 0.601361 0.797069
O O11 0.422662 0.500000 0.834132
O O12 0.363226 0.605215 0.747413
O O13 0.408628 0.599308 0.000000
O O14 0.132325 0.593817 0.500000
O O15 0.122002 0.682526 0.698763
O O16 0.230497 0.612375 0.688201
O O17 0.910484 0.764309 0.500000
O O18 0.000000 0.733309 0.303772
O O19 0.324379 0.581354 0.500000
O O20 0.287109 0.500000 0.303655
#
# Coordination Sequence:
#
# PCOD8195609 Si02
#       7
#     8   4   4   8   8   8   8
#     4   8  13  22  36  51  67  86 107 134 167 204
#     4  11  23  33  41  55  68  79 108 155 195 222
#     4   7  10  18  33  51  67  85 107 127 158 205
#     4   8  14  24  37  53  72  91 106 122 156 206
#     4  10  19  32  44  52  66  91 118 143 178 224
#     4   9  17  27  38  51  66  87 115 144 176 213
#     4   9  16  26  39  54  68  83 110 143 170 201
#
# _framework density 12.398540000000001
#
# number of rings (size 3 to 8) (size 9 to 14) (size 15 to 20)
#    0.000    3.167    0.833    2.250    0.000    3.000 
#    0.000    3.750    0.000    2.500    0.000    0.000 
#    0.000    0.000    0.000    0.000    0.000    0.000 
#
# Total GULP energy -594786.975301 kJ/mol
# GULP energy per Si atom -12391.395319 kJ/mol
# Density = 1.237032 g / cm^3
# Si number density = 12.398540 Si / 1000 Ang^3
#
#
#
# Elastic Constant Matrix: (Units=GPa)
#
#
# Indices 1 2 3 4 5 6 
#
# 1 62.0405 36.6163 39.4787 0.0000 0.0000 0.0000
# 2 36.6163 92.5899 50.5042 0.0000 0.0000 0.0000
# 3 39.4787 50.5042 66.8970 0.0000 0.0000 0.0000
# 4 0.0000 0.0000 0.0000 18.5453 0.0000 0.0000
# 5 0.0000 0.0000 0.0000 0.0000 17.7715 0.0000
# 6 0.0000 0.0000 0.0000 0.0000 0.0000 -0.5542
#
#
#
# Elastic Compliance Matrix: (Units=1/GPa)
#
#
# Indices 1 2 3 4 5 6 
#
# 1 0.026392 -0.003301 -0.013083 0.000000 0.000000 0.000000
# 2 -0.003301 0.018774 -0.012226 0.000000 0.000000 0.000000
# 3 -0.013083 -0.012226 0.031899 0.000000 0.000000 0.000000
# 4 0.000000 0.000000 0.000000 0.053922 0.000000 0.000000
# 5 0.000000 0.000000 0.000000 0.000000 0.056270 0.000000
# 6 0.000000 0.000000 0.000000 0.000000 0.000000 -1.804394
#
#
# Mechanical properties :
#
#
# Convention : Reuss Voigt Hill
#
# Bulk Modulus (GPa) = 50.38783 52.74731 51.56757
# Shear Modulus (GPa) = -3.21895 13.48108 5.13107
#
# Velocity S-wave (km/s) = -1.61303 3.30102 2.03652
# Velocity P-wave (km/s) = 6.10403 7.56072 6.87109
#
# Compressibility (1/GPa) = 0.01984606
#
# Stress axis : x y z
#
# Youngs Moduli (GPa) = 37.89056 53.26390 31.34896
#
# Poissons Ratio (x) = 0.17582 0.41013
# Poissons Ratio (y) = 0.12507 0.38327
# Poissons Ratio (z) = 0.49572 0.65119
#
# Static dielectric constant tensor:
#      x y z
#    x 2.450020 0.000000 0.000000 
#    y 0.000000 2.564000 0.000000 
#    z 0.000000 0.000000 2.613750 
# 
# 
# High freq. dielectric constant tensor:
#      x y z
#    x 1.437300 0.000000 0.000000 
#    y 0.000000 1.445400 0.000000 
#    z 0.000000 0.000000 1.472140 
# 
# From -- ./inp_files/11711.got.cif
#   From: 2010.03.12/outbox.cif.g09.slc.cpg/sg47_6_cif.got.tgz:11711.got - 2010.04.14 03:12:58.
