data_PCOD8195812
_publ_section_title
;
Structure prediction by ZEFSAII (Michael W. Deem and Ramdas Pophale) SiO2 
 PCOD8195812
Probable space group: P M M M
;
_chemical_formula_sum "Si O2"
_cell_formula_units_Z 52
_cell_length_a 20.543151
_cell_length_b 14.245595
_cell_length_c 9.816573
_cell_angle_alpha 90.000000
_cell_angle_beta 90.000000
_cell_angle_gamma 90.000000
_cell_volume 2872.814289
_symmetry_space_group_name_H-M "P M M M"
_symmetry_group_IT_number 47
_symmetry_cell_setting 'orthorhombic'
loop_
_space_group_symop_operation_xyz
x,y,z
-x,-y,z
x,-y,-z
-x,y,-z
-x,-y,-z
x,y,-z
-x,y,z
x,-y,z
loop_
_atom_site_type_symbol
_atom_site_label
_atom_site_fract_x
_atom_site_fract_y
_atom_site_fract_z
Si Si1 0.073496 0.704029 0.343224
Si Si2 0.500000 0.897528 0.659347
Si Si3 0.180894 0.389824 0.156998
Si Si4 0.571924 0.277893 0.655242
Si Si5 0.133030 0.895955 0.344937
Si Si6 0.253130 0.104038 0.845900
Si Si7 0.685294 0.294175 0.155480
O O1 0.089464 0.678818 0.500000
O O2 0.121835 0.647197 0.247379
O O3 0.078911 0.816456 0.319881
O O4 0.000000 0.674510 0.306167
O O5 0.500000 0.915448 0.500000
O O6 0.436283 0.833583 0.694210
O O7 0.500000 0.000000 0.734333
O O8 0.187221 0.500000 0.177741
O O9 0.248593 0.343751 0.205687
O O10 0.166943 0.363128 0.000000
O O11 0.596244 0.289030 0.500000
O O12 0.500000 0.325713 0.671915
O O13 0.624465 0.327422 0.753033
O O14 0.158048 0.893131 0.500000
O O15 0.193828 0.871049 0.251474
O O16 0.104646 0.000000 0.310375
O O17 0.308678 0.181781 0.825497
O O18 0.281526 0.000000 0.814129
O O19 0.226191 0.109429 0.000000
O O20 0.670294 0.322395 0.000000
#
# Coordination Sequence:
#
# PCOD8195812 Si02
#       7
#     8   4   8   8   8   8   8
#     4  10  21  36  55  80 109 139 172 214 263 312
#     4   7  12  26  45  67 100 139 176 210 243 285
#     4  10  22  40  59  79 103 133 174 221 268 321
#     4   8  17  31  48  72 101 136 172 206 245 296
#     4   9  17  30  49  74 104 138 175 211 249 300
#     4   9  17  29  46  70 101 134 169 212 260 306
#     4  10  19  32  52  76 102 134 170 213 263 308
#
# _framework density 18.100717
#
# number of rings (size 3 to 8) (size 9 to 14) (size 15 to 20)
#    0.462    2.385    1.538    0.000    0.000    3.385 
#    0.000    3.077    0.000    0.923    0.000    6.462 
#    0.000    0.000    0.000    0.000    0.000    0.000 
#
# Total GULP energy -644277.697292 kJ/mol
# GULP energy per Si atom -12389.955717 kJ/mol
# Density = 1.805952 g / cm^3
# Si number density = 18.100717 Si / 1000 Ang^3
#
#
#
# Elastic Constant Matrix: (Units=GPa)
#
#
# Indices 1 2 3 4 5 6 
#
# 1 116.2615 36.4218 66.8065 0.0000 0.0000 0.0000
# 2 36.4218 60.0436 29.6191 0.0000 0.0000 0.0000
# 3 66.8065 29.6191 78.1336 0.0000 0.0000 0.0000
# 4 0.0000 0.0000 0.0000 20.7263 0.0000 0.0000
# 5 0.0000 0.0000 0.0000 0.0000 -281.8347 0.0000
# 6 0.0000 0.0000 0.0000 0.0000 0.0000 6.3432
#
#
#
# Elastic Compliance Matrix: (Units=1/GPa)
#
#
# Indices 1 2 3 4 5 6 
#
# 1 0.017662 -0.004015 -0.013580 0.000000 0.000000 0.000000
# 2 -0.004015 0.021398 -0.004679 0.000000 0.000000 0.000000
# 3 -0.013580 -0.004679 0.026183 0.000000 0.000000 0.000000
# 4 0.000000 0.000000 0.000000 0.048248 0.000000 0.000000
# 5 0.000000 0.000000 0.000000 0.000000 -0.003548 0.000000
# 6 0.000000 0.000000 0.000000 0.000000 0.000000 0.157649
#
#
# Mechanical properties :
#
#
# Convention : Reuss Voigt Hill
#
# Bulk Modulus (GPa) = 48.31684 57.79260 53.05472
# Shear Modulus (GPa) = 15.67210 -42.84695 -13.58742
#
# Velocity S-wave (km/s) = 2.94569 -4.87061 -2.74278
# Velocity P-wave (km/s) = 6.19037 0.60602 4.39818
#
# Compressibility (1/GPa) = 0.02069672
#
# Stress axis : x y z
#
# Youngs Moduli (GPa) = 56.61759 46.73345 38.19221
#
# Poissons Ratio (x) = 0.18763 0.51864
# Poissons Ratio (y) = 0.22732 0.17869
# Poissons Ratio (z) = 0.76886 0.21865
#
# Static dielectric constant tensor:
#      x y z
#    x 3.062190 0.000000 0.000000 
#    y 0.000000 3.380130 0.000000 
#    z 0.000000 0.000000 3.275630 
# 
# 
# High freq. dielectric constant tensor:
#      x y z
#    x 1.679310 0.000000 0.000000 
#    y 0.000000 1.692450 0.000000 
#    z 0.000000 0.000000 1.694260 
# 
# From -- ./inp_files/11001.got.cif
#   From: 2010.03.12/outbox.cif.g09.slc.cpg/sg47_6_cif.got.tgz:11001.got - 2010.04.14 03:12:58.
