data_PCOD8195781
_publ_section_title
;
Structure prediction by ZEFSAII (Michael W. Deem and Ramdas Pophale) SiO2 
 PCOD8195781
Probable space group: P M M M
;
_chemical_formula_sum "Si O2"
_cell_formula_units_Z 64
_cell_length_a 20.931298
_cell_length_b 8.872573
_cell_length_c 18.865958
_cell_angle_alpha 90.000000
_cell_angle_beta 90.000000
_cell_angle_gamma 90.000000
_cell_volume 3503.681381
_symmetry_space_group_name_H-M "P M M M"
_symmetry_group_IT_number 47
_symmetry_cell_setting 'orthorhombic'
loop_
_space_group_symop_operation_xyz
x,y,z
-x,-y,z
x,-y,-z
-x,y,-z
-x,-y,-z
x,y,-z
-x,y,z
x,-y,z
loop_
_atom_site_type_symbol
_atom_site_label
_atom_site_fract_x
_atom_site_fract_y
_atom_site_fract_z
Si Si1 0.185126 0.324773 0.417508
Si Si2 0.703892 0.174746 0.824575
Si Si3 0.925955 0.824828 0.665176
Si Si4 0.929851 0.820995 0.174849
Si Si5 0.567661 0.171978 0.811484
Si Si6 0.301651 0.178117 0.663045
Si Si7 0.430037 0.675736 0.335924
Si Si8 0.815667 0.819584 0.920332
O O1 0.184834 0.287051 0.500000
O O2 0.194361 0.500000 0.402179
O O3 0.117371 0.272683 0.386664
O O4 0.243471 0.236726 0.382909
O O5 0.632119 0.204080 0.856681
O O6 0.707375 0.237367 0.744094
O O7 0.755265 0.249610 0.877264
O O8 0.721112 0.000000 0.821876
O O9 0.910965 0.772383 0.745578
O O10 0.000000 0.795111 0.646648
O O11 0.908904 0.000000 0.655377
O O12 0.879031 0.757728 0.118585
O O13 0.000000 0.756856 0.155010
O O14 0.931858 0.000000 0.172276
O O15 0.500000 0.190310 0.854485
O O16 0.566419 0.286196 0.746783
O O17 0.573156 0.000000 0.781890
O O18 0.369390 0.236789 0.630502
O O19 0.302477 0.000000 0.659859
O O20 0.500000 0.718670 0.369866
O O21 0.417111 0.500000 0.345928
O O22 0.814688 0.000000 0.921754
O O23 0.814096 0.755190 0.000000
#
# Coordination Sequence:
#
# PCOD8195781 Si02
#       8
#     8   8   8   8   8   8   8   8
#     4  11  24  38  51  71 101 131 156 191 241 290
#     4   8  14  24  39  60  84 113 151 193 234 273
#     4   9  18  34  56  77  96 123 160 200 239 283
#     4   8  14  25  41  62  88 117 151 191 231 271
#     4   8  13  22  37  57  82 114 153 195 237 281
#     4  10  19  32  52  72  93 127 168 206 239 279
#     4   9  16  26  43  70 102 128 152 193 248 296
#     4   9  15  21  32  54  87 124 155 185 228 282
#
# _framework density 18.266501000000002
#
# number of rings (size 3 to 8) (size 9 to 14) (size 15 to 20)
#    0.000    3.000    0.000    3.375    0.000    4.500 
#    0.000    2.500    0.000    0.750    0.000    5.250 
#    0.000   32.000    0.000   42.500    0.000   40.000 
#
# Total GULP energy -792860.385347 kJ/mol
# GULP energy per Si atom -12388.443521 kJ/mol
# Density = 1.822493 g / cm^3
# Si number density = 18.266501 Si / 1000 Ang^3
#
#
#
# Elastic Constant Matrix: (Units=GPa)
#
#
# Indices 1 2 3 4 5 6 
#
# 1 171.6612 37.1620 73.5968 0.0000 0.0000 0.0000
# 2 37.1620 39.6710 29.1919 0.0000 0.0000 0.0000
# 3 73.5968 29.1919 84.6352 0.0000 0.0000 0.0000
# 4 0.0000 0.0000 0.0000 6.0087 0.0000 0.0000
# 5 0.0000 0.0000 0.0000 0.0000 4.5936 0.0000
# 6 0.0000 0.0000 0.0000 0.0000 0.0000 21.0130
#
#
#
# Elastic Compliance Matrix: (Units=1/GPa)
#
#
# Indices 1 2 3 4 5 6 
#
# 1 0.009711 -0.003864 -0.007112 0.000000 0.000000 0.000000
# 2 -0.003864 0.035318 -0.008822 0.000000 0.000000 0.000000
# 3 -0.007112 -0.008822 0.021043 0.000000 0.000000 0.000000
# 4 0.000000 0.000000 0.000000 0.166424 0.000000 0.000000
# 5 0.000000 0.000000 0.000000 0.000000 0.217696 0.000000
# 6 0.000000 0.000000 0.000000 0.000000 0.000000 0.047590
#
#
# Mechanical properties :
#
#
# Convention : Reuss Voigt Hill
#
# Bulk Modulus (GPa) = 37.76895 63.98543 50.87719
# Shear Modulus (GPa) = 9.15412 16.72417 12.93915
#
# Velocity S-wave (km/s) = 2.24105 3.02911 2.66438
# Velocity P-wave (km/s) = 5.23621 6.88033 6.11379
#
# Compressibility (1/GPa) = 0.02647677
#
# Stress axis : x y z
#
# Youngs Moduli (GPa) = 102.97752 28.31396 47.52284
#
# Poissons Ratio (x) = 0.10939 0.33797
# Poissons Ratio (y) = 0.39785 0.41925
# Poissons Ratio (z) = 0.73235 0.24979
#
# Static dielectric constant tensor:
#      x y z
#    x 3.978740 0.000000 0.000000 
#    y 0.000000 2.987630 0.000000 
#    z 0.000000 0.000000 3.146510 
# 
# 
# High freq. dielectric constant tensor:
#      x y z
#    x 1.739700 0.000000 0.000000 
#    y 0.000000 1.667860 0.000000 
#    z 0.000000 0.000000 1.663450 
# 
# From -- ./inp_files/28825.got.cif
#   From: 2010.03.12/outbox.cif.g09.slc.cpg/sg47_15_cif.got.tgz:28825.got - 2010.04.14 03:12:58.
