data_PCOD8195705
_publ_section_title
;
Structure prediction by ZEFSAII (Michael W. Deem and Ramdas Pophale) SiO2 
 PCOD8195705
Probable space group: P M M M
;
_chemical_formula_sum "Si O2"
_cell_formula_units_Z 52
_cell_length_a 8.046784
_cell_length_b 27.606608
_cell_length_c 12.758578
_cell_angle_alpha 90.000000
_cell_angle_beta 90.000000
_cell_angle_gamma 90.000000
_cell_volume 2834.246802
_symmetry_space_group_name_H-M "P M M M"
_symmetry_group_IT_number 47
_symmetry_cell_setting 'orthorhombic'
loop_
_space_group_symop_operation_xyz
x,y,z
-x,-y,z
x,-y,-z
-x,y,-z
-x,-y,-z
x,y,-z
-x,y,z
x,-y,z
loop_
_atom_site_type_symbol
_atom_site_label
_atom_site_fract_x
_atom_site_fract_y
_atom_site_fract_z
Si Si1 0.305295 0.375065 0.618678
Si Si2 0.814076 0.115822 0.122822
Si Si3 0.191224 0.730504 0.381358
Si Si4 0.312023 0.784912 0.187479
Si Si5 0.304777 0.446260 0.205391
Si Si6 0.196343 0.280807 0.000000
Si Si7 0.803982 0.391065 0.000000
Si Si8 0.500000 0.945611 0.875323
O O1 0.266473 0.391321 0.500000
O O2 0.500000 0.365856 0.635891
O O3 0.211475 0.325724 0.647644
O O4 0.234642 0.416691 0.694919
O O5 0.802398 0.167834 0.178105
O O6 0.669234 0.080247 0.165587
O O7 0.000000 0.094596 0.145493
O O8 0.788046 0.124462 0.000000
O O9 0.254468 0.739806 0.500000
O O10 0.297743 0.763654 0.304018
O O11 0.000000 0.744901 0.368626
O O12 0.500000 0.801284 0.166047
O O13 0.262377 0.744242 0.104431
O O14 0.500000 0.451362 0.217090
O O15 0.223856 0.500000 0.203681
O O16 0.264156 0.418128 0.100480
O O17 0.261343 0.335940 0.000000
O O18 0.000000 0.278142 0.000000
O O19 0.000000 0.392648 0.000000
O O20 0.500000 0.000000 0.829809
O O21 0.500000 0.946702 0.000000
#
# Coordination Sequence:
#
# PCOD8195705 Si02
#       8
#     8   8   8   8   8   4   4   4
#     4   9  18  34  55  77 100 125 158 203 255 313
#     4  10  19  32  50  74 110 148 186 234 280 323
#     4  10  21  36  53  74 103 139 175 214 264 320
#     4  12  22  33  52  78 108 142 182 222 267 323
#     4  10  21  36  54  74  97 126 160 202 254 311
#     4  11  23  36  52  77 104 137 175 213 262 321
#     4  11  24  38  51  70  98 128 167 211 251 304
#     4   9  18  32  50  74 107 149 197 237 274 326
#
# _framework density 18.347024999999999
#
# number of rings (size 3 to 8) (size 9 to 14) (size 15 to 20)
#    0.000    1.769    1.538    3.462    0.000    7.077 
#    0.000    3.077    0.000    0.000    0.000    3.231 
#    0.000    1.231    0.000    3.231    0.000    0.154 
#
# Total GULP energy -644869.202561 kJ/mol
# GULP energy per Si atom -12401.330818 kJ/mol
# Density = 1.830527 g / cm^3
# Si number density = 18.347025 Si / 1000 Ang^3
#
#
#
# Elastic Constant Matrix: (Units=GPa)
#
#
# Indices 1 2 3 4 5 6 
#
# 1 79.6187 35.5701 21.8411 0.0000 0.0000 0.0000
# 2 35.5701 119.4561 51.9909 0.0000 0.0000 0.0000
# 3 21.8411 51.9909 93.6224 0.0000 0.0000 0.0000
# 4 0.0000 0.0000 0.0000 118.9549 0.0000 0.0000
# 5 0.0000 0.0000 0.0000 0.0000 -6.9927 0.0000
# 6 0.0000 0.0000 0.0000 0.0000 0.0000 20.1953
#
#
#
# Elastic Compliance Matrix: (Units=1/GPa)
#
#
# Indices 1 2 3 4 5 6 
#
# 1 0.014608 -0.003780 -0.001309 0.000000 0.000000 0.000000
# 2 -0.003780 0.012018 -0.005792 0.000000 0.000000 0.000000
# 3 -0.001309 -0.005792 0.014203 0.000000 0.000000 0.000000
# 4 0.000000 0.000000 0.000000 0.008407 0.000000 0.000000
# 5 0.000000 0.000000 0.000000 0.000000 -0.143007 0.000000
# 6 0.000000 0.000000 0.000000 0.000000 0.000000 0.049517
#
#
# Mechanical properties :
#
#
# Convention : Reuss Voigt Hill
#
# Bulk Modulus (GPa) = 52.44671 56.83349 54.64010
# Shear Modulus (GPa) = -309.81231 38.65119 -135.58056
#
# Velocity S-wave (km/s) = -13.00880 4.59483 -8.60571
# Velocity P-wave (km/s) = 14.03534 7.69377 8.30050
#
# Compressibility (1/GPa) = 0.01906697
#
# Stress axis : x y z
#
# Youngs Moduli (GPa) = 68.45740 83.21090 70.40845
#
# Poissons Ratio (x) = 0.31455 0.09214
# Poissons Ratio (y) = 0.25878 0.40779
# Poissons Ratio (z) = 0.08958 0.48194
#
# Static dielectric constant tensor:
#      x y z
#    x 3.457490 0.000000 0.000000 
#    y 0.000000 3.437930 0.000000 
#    z 0.000000 0.000000 3.316620 
# 
# 
# High freq. dielectric constant tensor:
#      x y z
#    x 1.719040 0.000000 0.000000 
#    y 0.000000 1.699710 0.000000 
#    z 0.000000 0.000000 1.692470 
# 
# From -- ./inp_files/15524.got.cif
#   From: 2010.03.12/outbox.cif.g09.slc.cpg/sg47_8_cif.got.tgz:15524.got - 2010.04.14 03:12:58.
