data_PCOD8195539
_publ_section_title
;
Structure prediction by ZEFSAII (Michael W. Deem and Ramdas Pophale) SiO2 
 PCOD8195539
Probable space group: P M M M
;
_chemical_formula_sum "Si O2"
_cell_formula_units_Z 52
_cell_length_a 8.042407
_cell_length_b 27.607753
_cell_length_c 12.710796
_cell_angle_alpha 90.000000
_cell_angle_beta 90.000000
_cell_angle_gamma 90.000000
_cell_volume 2822.213448
_symmetry_space_group_name_H-M "P M M M"
_symmetry_group_IT_number 47
_symmetry_cell_setting 'orthorhombic'
loop_
_space_group_symop_operation_xyz
x,y,z
-x,-y,z
x,-y,-z
-x,y,-z
-x,-y,-z
x,y,-z
-x,y,z
x,-y,z
loop_
_atom_site_type_symbol
_atom_site_label
_atom_site_fract_x
_atom_site_fract_y
_atom_site_fract_z
Si Si1 0.308253 0.377322 0.618327
Si Si2 0.812934 0.116727 0.122895
Si Si3 0.809414 0.726099 0.619699
Si Si4 0.310000 0.784189 0.190396
Si Si5 0.802862 0.444951 0.202868
Si Si6 0.695707 0.282780 0.000000
Si Si7 0.807879 0.390963 0.000000
Si Si8 0.500000 0.054229 0.875082
O O1 0.256550 0.391908 0.500000
O O2 0.500000 0.363282 0.625503
O O3 0.208389 0.329720 0.655623
O O4 0.268214 0.422914 0.690319
O O5 0.798369 0.167248 0.184566
O O6 0.669821 0.080225 0.164615
O O7 0.000000 0.095682 0.142710
O O8 0.783965 0.127110 0.000000
O O9 0.743793 0.732130 0.500000
O O10 0.703713 0.761109 0.694256
O O11 0.000000 0.741576 0.629233
O O12 0.500000 0.798274 0.166342
O O13 0.245761 0.746169 0.103357
O O14 0.740602 0.500000 0.193705
O O15 0.728062 0.414947 0.104232
O O16 0.000000 0.441962 0.206489
O O17 0.500000 0.292287 0.000000
O O18 0.786994 0.333744 0.000000
O O19 0.000000 0.404752 0.000000
O O20 0.500000 0.000000 0.828126
O O21 0.500000 0.052359 0.000000
#
# Coordination Sequence:
#
# PCOD8195539 Si02
#       8
#     8   8   8   8   8   4   4   4
#     4  10  21  37  55  75 100 128 161 204 256 312
#     4  10  19  31  50  75 108 147 189 234 278 325
#     4  10  21  36  53  75 104 137 175 218 263 316
#     4  11  20  33  52  75 109 145 181 221 266 320
#     4  10  21  37  56  75  96 125 160 202 253 306
#     4  10  22  33  49  75 104 137 169 210 257 308
#     4  10  21  36  52  72 100 128 163 205 246 303
#     4   9  18  32  50  72 107 151 193 237 280 324
#
# _framework density 18.425255
#
# number of rings (size 3 to 8) (size 9 to 14) (size 15 to 20)
#    0.000    1.923    1.538    2.538    0.000    8.000 
#    0.000    3.077    0.000    1.385    0.000    0.000 
#    0.000    1.231    0.000    3.231    0.000    0.154 
#
# Total GULP energy -644909.485054 kJ/mol
# GULP energy per Si atom -12402.105482 kJ/mol
# Density = 1.838332 g / cm^3
# Si number density = 18.425255 Si / 1000 Ang^3
#
#
#
# Elastic Constant Matrix: (Units=GPa)
#
#
# Indices 1 2 3 4 5 6 
#
# 1 73.7185 38.5080 23.7256 0.0000 0.0000 0.0000
# 2 38.5080 120.6855 51.5419 0.0000 0.0000 0.0000
# 3 23.7256 51.5419 84.8955 0.0000 0.0000 0.0000
# 4 0.0000 0.0000 0.0000 14.5144 0.0000 0.0000
# 5 0.0000 0.0000 0.0000 0.0000 20.7418 0.0000
# 6 0.0000 0.0000 0.0000 0.0000 0.0000 26.8722
#
#
#
# Elastic Compliance Matrix: (Units=1/GPa)
#
#
# Indices 1 2 3 4 5 6 
#
# 1 0.016505 -0.004450 -0.001911 0.000000 0.000000 0.000000
# 2 -0.004450 0.012386 -0.006276 0.000000 0.000000 0.000000
# 3 -0.001911 -0.006276 0.016124 0.000000 0.000000 0.000000
# 4 0.000000 0.000000 0.000000 0.068897 0.000000 0.000000
# 5 0.000000 0.000000 0.000000 0.000000 0.048212 0.000000
# 6 0.000000 0.000000 0.000000 0.000000 0.000000 0.037213
#
#
# Mechanical properties :
#
#
# Convention : Reuss Voigt Hill
#
# Bulk Modulus (GPa) = 50.65804 56.31672 53.48738
# Shear Modulus (GPa) = 21.62708 23.46063 22.54385
#
# Velocity S-wave (km/s) = 3.42975 3.57219 3.50169
# Velocity P-wave (km/s) = 6.57554 6.90256 6.74104
#
# Compressibility (1/GPa) = 0.01974020
#
# Stress axis : x y z
#
# Youngs Moduli (GPa) = 60.58874 80.73324 62.02055
#
# Poissons Ratio (x) = 0.35928 0.11850
# Poissons Ratio (y) = 0.26964 0.38927
# Poissons Ratio (z) = 0.11577 0.50671
#
# Static dielectric constant tensor:
#      x y z
#    x 3.359930 0.000000 0.000000 
#    y 0.000000 3.273960 0.000000 
#    z 0.000000 0.000000 3.335560 
# 
# 
# High freq. dielectric constant tensor:
#      x y z
#    x 1.718980 0.000000 0.000000 
#    y 0.000000 1.699330 0.000000 
#    z 0.000000 0.000000 1.694620 
# 
# From -- ./inp_files/15521.got.cif
#   From: 2010.03.12/outbox.cif.g09.slc.cpg/sg47_8_cif.got.tgz:15521.got - 2010.04.14 03:12:58.
