data_PCOD8195800
_publ_section_title
;
Structure prediction by ZEFSAII (Michael W. Deem and Ramdas Pophale) SiO2 
 PCOD8195800
Probable space group: P M M M
;
_chemical_formula_sum "Si O2"
_cell_formula_units_Z 64
_cell_length_a 8.801158
_cell_length_b 18.557983
_cell_length_c 20.322881
_cell_angle_alpha 90.000000
_cell_angle_beta 90.000000
_cell_angle_gamma 90.000000
_cell_volume 3319.371527
_symmetry_space_group_name_H-M "P M M M"
_symmetry_group_IT_number 47
_symmetry_cell_setting 'orthorhombic'
loop_
_space_group_symop_operation_xyz
x,y,z
-x,-y,z
x,-y,-z
-x,y,-z
-x,-y,-z
x,y,-z
-x,y,z
x,-y,z
loop_
_atom_site_type_symbol
_atom_site_label
_atom_site_fract_x
_atom_site_fract_y
_atom_site_fract_z
Si Si1 0.821666 0.330532 0.690324
Si Si2 0.319982 0.080339 0.186582
Si Si3 0.676209 0.813401 0.075007
Si Si4 0.822056 0.663509 0.075568
Si Si5 0.319171 0.174542 0.691842
Si Si6 0.673981 0.415310 0.807831
Si Si7 0.676162 0.582856 0.575632
Si Si8 0.680654 0.080441 0.427099
O O1 0.745135 0.253682 0.698337
O O2 0.772525 0.379752 0.750872
O O3 0.775952 0.366203 0.621296
O O4 0.000000 0.320423 0.691964
O O5 0.500000 0.074549 0.190877
O O6 0.270143 0.119831 0.119448
O O7 0.258379 0.126192 0.247984
O O8 0.248831 0.000000 0.187531
O O9 0.500000 0.794369 0.087232
O O10 0.773486 0.744024 0.095392
O O11 0.706863 0.836095 0.000000
O O12 0.734230 0.606666 0.120484
O O13 0.000000 0.654974 0.087460
O O14 0.777275 0.647571 0.000000
O O15 0.500000 0.179267 0.692061
O O16 0.255800 0.137741 0.625179
O O17 0.500000 0.390514 0.800325
O O18 0.690851 0.500000 0.800196
O O19 0.708057 0.603736 0.500000
O O20 0.500000 0.594779 0.592955
O O21 0.721236 0.500000 0.588330
O O22 0.736564 0.103213 0.500000
O O23 0.500000 0.079727 0.424459
O O24 0.740064 0.000000 0.410007
#
# Coordination Sequence:
#
# PCOD8195800 Si02
#       8
#     8   8   8   8   8   8   8   8
#     4  12  25  38  55  81 114 149 184 226 274 325
#     4   9  17  29  48  75 102 129 170 226 278 317
#     4   9  17  30  50  75 104 140 179 218 262 315
#     4  10  21  37  58  84 115 149 182 220 268 323
#     4  10  19  32  52  75 101 137 179 222 268 319
#     4  11  24  41  61  83 108 141 183 230 276 325
#     4   9  19  38  63  87 111 142 181 224 270 323
#     4   8  14  26  47  76 105 132 170 222 272 314
#
# _framework density 19.280757999999999
#
# number of rings (size 3 to 8) (size 9 to 14) (size 15 to 20)
#    0.000    2.250    0.000    4.125    0.000    7.250 
#    0.000    4.375    0.000    2.625    0.000    2.625 
#    0.000    0.000    0.000    0.000    0.000    0.000 
#
# Total GULP energy -793678.518109 kJ/mol
# GULP energy per Si atom -12401.226845 kJ/mol
# Density = 1.923687 g / cm^3
# Si number density = 19.280758 Si / 1000 Ang^3
#
#
#
# Elastic Constant Matrix: (Units=GPa)
#
#
# Indices 1 2 3 4 5 6 
#
# 1 29.1130 21.3152 22.6607 0.0000 0.0000 0.0000
# 2 21.3152 99.9650 56.8513 0.0000 0.0000 0.0000
# 3 22.6607 56.8513 116.8900 0.0000 0.0000 0.0000
# 4 0.0000 0.0000 0.0000 40.3795 0.0000 0.0000
# 5 0.0000 0.0000 0.0000 0.0000 21.2766 0.0000
# 6 0.0000 0.0000 0.0000 0.0000 0.0000 -4.2134
#
#
#
# Elastic Compliance Matrix: (Units=1/GPa)
#
#
# Indices 1 2 3 4 5 6 
#
# 1 0.043002 -0.006121 -0.005359 0.000000 0.000000 0.000000
# 2 -0.006121 0.014700 -0.005963 0.000000 0.000000 0.000000
# 3 -0.005359 -0.005963 0.012494 0.000000 0.000000 0.000000
# 4 0.000000 0.000000 0.000000 0.024765 0.000000 0.000000
# 5 0.000000 0.000000 0.000000 0.000000 0.047000 0.000000
# 6 0.000000 0.000000 0.000000 0.000000 0.000000 -0.237336
#
#
# Mechanical properties :
#
#
# Convention : Reuss Voigt Hill
#
# Bulk Modulus (GPa) = 28.32118 49.73581 39.02850
# Shear Modulus (GPa) = -102.63085 21.16457 -40.73314
#
# Velocity S-wave (km/s) = -7.30378 3.31676 -4.60132
# Velocity P-wave (km/s) = 7.51041 6.36549 2.81841
#
# Compressibility (1/GPa) = 0.03530926
#
# Stress axis : x y z
#
# Youngs Moduli (GPa) = 23.25463 68.02797 80.03746
#
# Poissons Ratio (x) = 0.41642 0.42895
# Poissons Ratio (y) = 0.14235 0.47725
# Poissons Ratio (z) = 0.12463 0.40564
#
# Static dielectric constant tensor:
#      x y z
#    x 3.231420 0.000000 0.000000 
#    y 0.000000 3.596620 0.000000 
#    z 0.000000 0.000000 3.792780 
# 
# 
# High freq. dielectric constant tensor:
#      x y z
#    x 1.716620 0.000000 0.000000 
#    y 0.000000 1.753940 0.000000 
#    z 0.000000 0.000000 1.767190 
# 
# From -- ./inp_files/29969.got.cif
#   From: 2010.03.12/outbox.cif.g09.slc.cpg/sg47_15_cif.got.tgz:29969.got - 2010.04.14 03:12:58.
