data_PCOD8195720
_publ_section_title
;
Structure prediction by ZEFSAII (Michael W. Deem and Ramdas Pophale) SiO2 
 PCOD8195720
Probable space group: P M M M
;
_chemical_formula_sum "Si O2"
_cell_formula_units_Z 64
_cell_length_a 22.948645
_cell_length_b 9.396527
_cell_length_c 15.980440
_cell_angle_alpha 90.000000
_cell_angle_beta 90.000000
_cell_angle_gamma 90.000000
_cell_volume 3445.983127
_symmetry_space_group_name_H-M "P M M M"
_symmetry_group_IT_number 47
_symmetry_cell_setting 'orthorhombic'
loop_
_space_group_symop_operation_xyz
x,y,z
-x,-y,z
x,-y,-z
-x,y,-z
-x,-y,-z
x,y,-z
-x,y,z
x,-y,z
loop_
_atom_site_type_symbol
_atom_site_label
_atom_site_fract_x
_atom_site_fract_y
_atom_site_fract_z
Si Si1 0.562612 0.346154 0.095768
Si Si2 0.877141 0.669075 0.250920
Si Si3 0.742167 0.665572 0.741777
Si Si4 0.931393 0.164291 0.904287
Si Si5 0.647437 0.162555 0.821465
Si Si6 0.068903 0.837569 0.405047
Si Si7 0.566363 0.836295 0.337778
Si Si8 0.337392 0.339683 0.592120
O O1 0.500000 0.293432 0.133750
O O2 0.579528 0.500000 0.137404
O O3 0.613684 0.230524 0.101361
O O4 0.552862 0.373620 0.000000
O O5 0.889037 0.500000 0.249372
O O6 0.809343 0.706569 0.256739
O O7 0.900683 0.736356 0.164544
O O8 0.905241 0.733637 0.334776
O O9 0.733131 0.500000 0.760756
O O10 0.708631 0.756826 0.811401
O O11 0.714039 0.712922 0.653243
O O12 0.000000 0.185563 0.893861
O O13 0.914578 0.000000 0.887224
O O14 0.912990 0.206177 0.000000
O O15 0.601326 0.188406 0.747496
O O16 0.662207 0.000000 0.838347
O O17 0.088392 0.793364 0.500000
O O18 0.000000 0.826504 0.398288
O O19 0.088826 0.000000 0.387116
O O20 0.500000 0.779353 0.331016
O O21 0.602986 0.750560 0.406511
O O22 0.566103 0.000000 0.364364
O O23 0.310221 0.327887 0.500000
O O24 0.355146 0.500000 0.615312
#
# Coordination Sequence:
#
# PCOD8195720 Si02
#       8
#     8   8   8   8   8   8   8   8
#     4   9  18  32  50  73 100 129 159 192 240 306
#     4  11  22  34  54  84 113 142 179 227 277 319
#     4   9  20  37  52  69  98 136 173 206 249 307
#     4   9  19  37  60  84 111 145 181 215 258 317
#     4  10  19  32  51  72  94 123 163 210 251 289
#     4   9  19  36  56  79 111 151 189 222 262 318
#     4   9  18  31  46  67  95 123 150 188 246 307
#     4   9  18  33  51  68  89 122 165 209 246 286
#
# _framework density 18.572348999999999
#
# number of rings (size 3 to 8) (size 9 to 14) (size 15 to 20)
#    0.000    2.625    0.000    2.625    0.000    6.250 
#    0.000    5.000    0.000    0.750    0.000    0.000 
#    0.000    0.000    0.000    0.000    0.000    0.000 
#
# Total GULP energy -793045.542126 kJ/mol
# GULP energy per Si atom -12391.336596 kJ/mol
# Density = 1.853008 g / cm^3
# Si number density = 18.572349 Si / 1000 Ang^3
#
#
#
# Elastic Constant Matrix: (Units=GPa)
#
#
# Indices 1 2 3 4 5 6 
#
# 1 108.0563 59.7251 50.5560 0.0000 0.0000 0.0000
# 2 59.7251 88.8168 53.7862 0.0000 0.0000 0.0000
# 3 50.5560 53.7862 95.6578 0.0000 0.0000 0.0000
# 4 0.0000 0.0000 0.0000 28.3506 0.0000 0.0000
# 5 0.0000 0.0000 0.0000 0.0000 19.3451 0.0000
# 6 0.0000 0.0000 0.0000 0.0000 0.0000 28.3647
#
#
#
# Elastic Compliance Matrix: (Units=1/GPa)
#
#
# Indices 1 2 3 4 5 6 
#
# 1 0.015477 -0.008270 -0.003530 0.000000 0.000000 0.000000
# 2 -0.008270 0.021491 -0.007713 0.000000 0.000000 0.000000
# 3 -0.003530 -0.007713 0.016656 0.000000 0.000000 0.000000
# 4 0.000000 0.000000 0.000000 0.035273 0.000000 0.000000
# 5 0.000000 0.000000 0.000000 0.000000 0.051693 0.000000
# 6 0.000000 0.000000 0.000000 0.000000 0.000000 0.035255
#
#
# Mechanical properties :
#
#
# Convention : Reuss Voigt Hill
#
# Bulk Modulus (GPa) = 68.49909 68.96281 68.73095
# Shear Modulus (GPa) = 22.75445 23.77631 23.26538
#
# Velocity S-wave (km/s) = 3.50405 3.58187 3.54317
# Velocity P-wave (km/s) = 7.30298 7.37014 7.33664
#
# Compressibility (1/GPa) = 0.01459873
#
# Stress axis : x y z
#
# Youngs Moduli (GPa) = 64.61282 46.53033 60.03688
#
# Poissons Ratio (x) = 0.38480 0.21191
# Poissons Ratio (y) = 0.53434 0.46309
# Poissons Ratio (z) = 0.22806 0.35891
#
# Static dielectric constant tensor:
#      x y z
#    x 3.384100 0.000000 0.000000 
#    y 0.000000 3.432090 0.000000 
#    z 0.000000 0.000000 3.390400 
# 
# 
# High freq. dielectric constant tensor:
#      x y z
#    x 1.712740 0.000000 0.000000 
#    y 0.000000 1.721110 0.000000 
#    z 0.000000 0.000000 1.714370 
# 
# From -- ./inp_files/28827.got.cif
#   From: 2010.03.12/outbox.cif.g09.slc.cpg/sg47_15_cif.got.tgz:28827.got - 2010.04.14 03:12:58.
