data_PCOD8195975
_publ_section_title
;
Structure prediction by ZEFSAII (Michael W. Deem and Ramdas Pophale) SiO2 
 PCOD8195975
Probable space group: P M M M
;
_chemical_formula_sum "Si O2"
_cell_formula_units_Z 52
_cell_length_a 7.986668
_cell_length_b 11.976940
_cell_length_c 29.469911
_cell_angle_alpha 90.000000
_cell_angle_beta 90.000000
_cell_angle_gamma 90.000000
_cell_volume 2818.969193
_symmetry_space_group_name_H-M "P M M M"
_symmetry_group_IT_number 47
_symmetry_cell_setting 'orthorhombic'
loop_
_space_group_symop_operation_xyz
x,y,z
-x,-y,z
x,-y,-z
-x,y,-z
-x,-y,-z
x,y,-z
-x,y,z
x,-y,z
loop_
_atom_site_type_symbol
_atom_site_label
_atom_site_fract_x
_atom_site_fract_y
_atom_site_fract_z
Si Si1 0.201023 0.743411 0.198439
Si Si2 0.310676 0.130425 0.889385
Si Si3 0.197777 0.374405 0.449285
Si Si4 0.193045 0.123168 0.285446
Si Si5 0.302918 0.500000 0.687567
Si Si6 0.692430 0.723748 0.639103
Si Si7 0.189625 0.500000 0.786640
Si Si8 0.000000 0.867354 0.050790
O O1 0.287441 0.809990 0.158330
O O2 0.266770 0.796812 0.245881
O O3 0.270426 0.615594 0.195206
O O4 0.000000 0.748427 0.194746
O O5 0.500000 0.153372 0.907855
O O6 0.169803 0.175322 0.924477
O O7 0.282428 0.000000 0.880897
O O8 0.254241 0.339545 0.500000
O O9 0.265447 0.500000 0.438731
O O10 0.271670 0.282364 0.414703
O O11 0.000000 0.374013 0.445469
O O12 0.213872 0.175834 0.335483
O O13 0.000000 0.108008 0.275071
O O14 0.278364 0.000000 0.284040
O O15 0.500000 0.500000 0.698519
O O16 0.245329 0.393126 0.659296
O O17 0.195231 0.500000 0.732676
O O18 0.500000 0.744915 0.648486
O O19 0.000000 0.500000 0.802966
O O20 0.000000 0.000000 0.048920
O O21 0.000000 0.817363 0.000000
#
# Coordination Sequence:
#
# PCOD8195975 Si02
#       8
#     8   8   8   8   4   8   4   4
#     4  10  19  33  52  76 108 142 178 221 268 316
#     4  10  20  33  53  81 111 147 187 225 272 327
#     4   9  18  32  51  75 100 127 162 205 254 309
#     4  10  21  35  53  75  99 135 179 217 254 305
#     4  10  20  32  45  69 104 137 167 205 256 308
#     4  11  21  33  50  73 104 137 167 206 258 310
#     4  10  20  32  52  77 101 137 181 221 261 309
#     4   9  18  34  56  81 113 149 183 230 282 323
#
# _framework density 18.446459999999998
#
# number of rings (size 3 to 8) (size 9 to 14) (size 15 to 20)
#    0.000    2.077    3.077    1.385    0.000    3.385 
#    0.000    2.308    0.000    0.462    0.000    4.308 
#    0.000    1.231    0.000    0.000    0.000    0.000 
#
# Total GULP energy -644563.497600 kJ/mol
# GULP energy per Si atom -12395.451877 kJ/mol
# Density = 1.840448 g / cm^3
# Si number density = 18.446460 Si / 1000 Ang^3
#
#
#
# Elastic Constant Matrix: (Units=GPa)
#
#
# Indices 1 2 3 4 5 6 
#
# 1 55.9578 28.1933 33.0992 0.0000 0.0000 0.0000
# 2 28.1933 103.3646 44.4906 0.0000 0.0000 0.0000
# 3 33.0992 44.4906 124.1908 0.0000 0.0000 0.0000
# 4 0.0000 0.0000 0.0000 17.9406 0.0000 0.0000
# 5 0.0000 0.0000 0.0000 0.0000 15.1487 0.0000
# 6 0.0000 0.0000 0.0000 0.0000 0.0000 14.4858
#
#
#
# Elastic Compliance Matrix: (Units=1/GPa)
#
#
# Indices 1 2 3 4 5 6 
#
# 1 0.022684 -0.004239 -0.004527 0.000000 0.000000 0.000000
# 2 -0.004239 0.012230 -0.003252 0.000000 0.000000 0.000000
# 3 -0.004527 -0.003252 0.010424 0.000000 0.000000 0.000000
# 4 0.000000 0.000000 0.000000 0.055740 0.000000 0.000000
# 5 0.000000 0.000000 0.000000 0.000000 0.066012 0.000000
# 6 0.000000 0.000000 0.000000 0.000000 0.000000 0.069033
#
#
# Mechanical properties :
#
#
# Convention : Reuss Voigt Hill
#
# Bulk Modulus (GPa) = 46.94237 55.00884 50.97561
# Shear Modulus (GPa) = 18.70843 21.36368 20.03606
#
# Velocity S-wave (km/s) = 3.18811 3.40685 3.29929
# Velocity P-wave (km/s) = 6.24942 6.73506 6.49678
#
# Compressibility (1/GPa) = 0.02130272
#
# Stress axis : x y z
#
# Youngs Moduli (GPa) = 44.08390 81.76474 95.93569
#
# Poissons Ratio (x) = 0.34656 0.43433
# Poissons Ratio (y) = 0.18685 0.31196
# Poissons Ratio (z) = 0.19958 0.26588
#
# Static dielectric constant tensor:
#      x y z
#    x 3.293610 0.000000 0.000000 
#    y 0.000000 3.425140 0.000000 
#    z 0.000000 0.000000 3.414190 
# 
# 
# High freq. dielectric constant tensor:
#      x y z
#    x 1.709420 0.000000 0.000000 
#    y 0.000000 1.690600 0.000000 
#    z 0.000000 0.000000 1.703460 
# 
# From -- ./inp_files/34321.got.cif
#   From: 2010.03.12/outbox.cif.g09.slc.cpg/sg47_18_cif.got.tgz:34321.got - 2010.04.14 03:12:58.
