data_PCOD8195290
_publ_section_title
;
Structure prediction by ZEFSAII (Michael W. Deem and Ramdas Pophale) SiO2 
 PCOD8195290
Probable space group: P M M M
;
_chemical_formula_sum "Si O2"
_cell_formula_units_Z 48
_cell_length_a 23.305693
_cell_length_b 16.845408
_cell_length_c 8.923256
_cell_angle_alpha 90.000000
_cell_angle_beta 90.000000
_cell_angle_gamma 90.000000
_cell_volume 3503.215939
_symmetry_space_group_name_H-M "P M M M"
_symmetry_group_IT_number 47
_symmetry_cell_setting 'orthorhombic'
loop_
_space_group_symop_operation_xyz
x,y,z
-x,-y,z
x,-y,-z
-x,y,-z
-x,-y,-z
x,y,-z
-x,y,z
x,-y,z
loop_
_atom_site_type_symbol
_atom_site_label
_atom_site_fract_x
_atom_site_fract_y
_atom_site_fract_z
Si Si1 0.062973 0.594395 0.331491
Si Si2 0.500000 0.411475 0.177994
Si Si3 0.431912 0.000000 0.168829
Si Si4 0.288663 0.407191 0.325680
Si Si5 0.566508 0.839773 0.323263
Si Si6 0.609530 0.314581 0.822133
Si Si7 0.173515 0.594179 0.166736
O O1 0.071394 0.626372 0.500000
O O2 0.066824 0.500000 0.332421
O O3 0.113694 0.630221 0.229096
O O4 0.000000 0.620748 0.270380
O O5 0.500000 0.500000 0.246048
O O6 0.443798 0.366647 0.237092
O O7 0.500000 0.414857 0.000000
O O8 0.410162 0.077743 0.255991
O O9 0.500000 0.000000 0.167110
O O10 0.407275 0.000000 0.000000
O O11 0.296338 0.387679 0.500000
O O12 0.298714 0.500000 0.292239
O O13 0.332795 0.357264 0.228022
O O14 0.225354 0.380194 0.274884
O O15 0.574980 0.841714 0.500000
O O16 0.500000 0.825512 0.279453
O O17 0.605548 0.771494 0.252281
O O18 0.608731 0.305252 0.000000
O O19 0.169103 0.500000 0.161918
O O20 0.183951 0.628127 0.000000
#
# Coordination Sequence:
#
# PCOD8195290 Si02
#       7
#     8   4   4   8   8   8   8
#     4   8  13  21  33  49  69  92 116 145 186 232
#     4   9  18  30  43  58  75  96 123 159 202 241
#     4   9  17  29  47  67  85 103 125 147 178 225
#     4  10  20  32  43  55  73  99 131 166 204 242
#     4  10  19  31  46  64  86 105 123 149 188 233
#     4  11  20  31  46  61  79 100 128 162 198 238
#     4   9  16  25  37  52  69  91 121 157 194 231
#
# _framework density 13.701695000000001
#
# number of rings (size 3 to 8) (size 9 to 14) (size 15 to 20)
#    0.000    2.500    0.833    3.250    0.000    5.667 
#    0.000    1.667    0.000    2.000    0.000    0.000 
#    0.000    0.000    0.000    0.000    0.000    0.000 
#
# Total GULP energy -595114.117021 kJ/mol
# GULP energy per Si atom -12398.210771 kJ/mol
# Density = 1.367051 g / cm^3
# Si number density = 13.701695 Si / 1000 Ang^3
#
#
#
# Elastic Constant Matrix: (Units=GPa)
#
#
# Indices 1 2 3 4 5 6 
#
# 1 81.9308 28.4971 28.2891 0.0000 0.0000 0.0000
# 2 28.4971 65.9198 28.8740 0.0000 0.0000 0.0000
# 3 28.2891 28.8740 71.1170 0.0000 0.0000 0.0000
# 4 0.0000 0.0000 0.0000 18.5239 0.0000 0.0000
# 5 0.0000 0.0000 0.0000 0.0000 24.1479 0.0000
# 6 0.0000 0.0000 0.0000 0.0000 0.0000 1.5170
#
#
#
# Elastic Compliance Matrix: (Units=1/GPa)
#
#
# Indices 1 2 3 4 5 6 
#
# 1 0.015305 -0.004804 -0.004138 0.000000 0.000000 0.000000
# 2 -0.004804 0.019959 -0.006193 0.000000 0.000000 0.000000
# 3 -0.004138 -0.006193 0.018221 0.000000 0.000000 0.000000
# 4 0.000000 0.000000 0.000000 0.053984 0.000000 0.000000
# 5 0.000000 0.000000 0.000000 0.000000 0.041411 0.000000
# 6 0.000000 0.000000 0.000000 0.000000 0.000000 0.659210
#
#
# Mechanical properties :
#
#
# Convention : Reuss Voigt Hill
#
# Bulk Modulus (GPa) = 43.07155 43.36533 43.21844
# Shear Modulus (GPa) = 5.90947 17.72492 11.81719
#
# Velocity S-wave (km/s) = 2.07902 3.60061 2.93996
# Velocity P-wave (km/s) = 6.10463 7.00030 6.56775
#
# Compressibility (1/GPa) = 0.02321718
#
# Stress axis : x y z
#
# Youngs Moduli (GPa) = 65.33825 50.10220 54.88044
#
# Poissons Ratio (x) = 0.24069 0.22707
# Poissons Ratio (y) = 0.31389 0.33985
# Poissons Ratio (z) = 0.27034 0.31026
#
# Static dielectric constant tensor:
#      x y z
#    x 2.743920 0.000000 0.000000 
#    y 0.000000 2.441540 0.000000 
#    z 0.000000 0.000000 2.816110 
# 
# 
# High freq. dielectric constant tensor:
#      x y z
#    x 1.508790 0.000000 0.000000 
#    y 0.000000 1.472180 0.000000 
#    z 0.000000 0.000000 1.534500 
# 
# From -- ./inp_files/11403.got.cif
#   From: 2010.03.12/outbox.cif.g09.slc.cpg/sg47_6_cif.got.tgz:11403.got - 2010.04.14 03:12:58.
