data_PCOD8195687
_publ_section_title
;
Structure prediction by ZEFSAII (Michael W. Deem and Ramdas Pophale) SiO2 
 PCOD8195687
Probable space group: P M M M
;
_chemical_formula_sum "Si O2"
_cell_formula_units_Z 56
_cell_length_a 18.545054
_cell_length_b 18.814294
_cell_length_c 9.228159
_cell_angle_alpha 90.000000
_cell_angle_beta 90.000000
_cell_angle_gamma 90.000000
_cell_volume 3219.816319
_symmetry_space_group_name_H-M "P M M M"
_symmetry_group_IT_number 47
_symmetry_cell_setting 'orthorhombic'
loop_
_space_group_symop_operation_xyz
x,y,z
-x,-y,z
x,-y,-z
-x,y,-z
-x,-y,-z
x,y,-z
-x,y,z
x,-y,z
loop_
_atom_site_type_symbol
_atom_site_label
_atom_site_fract_x
_atom_site_fract_y
_atom_site_fract_z
Si Si1 0.206028 0.344183 0.668513
Si Si2 0.917685 0.582530 0.164991
Si Si3 0.422046 0.917470 0.157558
Si Si4 0.726488 0.215757 0.168917
Si Si5 0.286584 0.080875 0.331398
Si Si6 0.418778 0.707072 0.166717
Si Si7 0.648355 0.420170 0.331481
O O1 0.199564 0.325345 0.500000
O O2 0.130337 0.373476 0.723940
O O3 0.223820 0.273199 0.754994
O O4 0.268026 0.402148 0.698216
O O5 0.909854 0.500000 0.202498
O O6 0.000000 0.607131 0.186253
O O7 0.892831 0.596991 0.000000
O O8 0.500000 0.882167 0.190496
O O9 0.370095 0.904951 0.292983
O O10 0.432711 0.000000 0.135044
O O11 0.392650 0.886761 0.000000
O O12 0.753545 0.139926 0.234469
O O13 0.640935 0.231775 0.203094
O O14 0.743527 0.216826 0.000000
O O15 0.273863 0.095278 0.500000
O O16 0.262995 0.000000 0.290089
O O17 0.500000 0.734196 0.203856
O O18 0.404014 0.634764 0.252802
O O19 0.411782 0.685958 0.000000
O O20 0.630456 0.414636 0.500000
O O21 0.634038 0.500000 0.273847
#
# Coordination Sequence:
#
# PCOD8195687 Si02
#       7
#     8   8   8   8   8   8   8
#     4  10  19  32  50  71  98 130 164 201 239 282
#     4   9  18  32  50  75 108 142 172 201 233 271
#     4   8  14  25  40  57  78 106 140 177 221 278
#     4  10  20  34  51  68  89 122 161 198 241 294
#     4  10  20  32  46  66  91 115 143 187 241 292
#     4   9  19  34  48  63  84 112 151 199 246 289
#     4   9  18  31  46  66  91 119 153 193 238 286
#
# _framework density 17.392296000000002
#
# number of rings (size 3 to 8) (size 9 to 14) (size 15 to 20)
#    0.000    2.714    0.000    2.571    0.000    4.857 
#    0.000    5.000    0.000    0.000    0.000    0.000 
#    0.000    0.571    0.000    6.000    0.000    2.571 
#
# Total GULP energy -693970.563008 kJ/mol
# GULP energy per Si atom -12392.331482 kJ/mol
# Density = 1.735271 g / cm^3
# Si number density = 17.392296 Si / 1000 Ang^3
#
#
#
# Elastic Constant Matrix: (Units=GPa)
#
#
# Indices 1 2 3 4 5 6 
#
# 1 57.4010 23.6056 30.2588 0.0000 0.0000 0.0000
# 2 23.6056 113.3625 56.4730 0.0000 0.0000 0.0000
# 3 30.2588 56.4730 86.6628 0.0000 0.0000 0.0000
# 4 0.0000 0.0000 0.0000 29.4797 0.0000 0.0000
# 5 0.0000 0.0000 0.0000 0.0000 25.0731 0.0000
# 6 0.0000 0.0000 0.0000 0.0000 0.0000 12.4430
#
#
#
# Elastic Compliance Matrix: (Units=1/GPa)
#
#
# Indices 1 2 3 4 5 6 
#
# 1 0.021441 -0.001089 -0.006777 0.000000 0.000000 0.000000
# 2 -0.001089 0.013117 -0.008167 0.000000 0.000000 0.000000
# 3 -0.006777 -0.008167 0.019227 0.000000 0.000000 0.000000
# 4 0.000000 0.000000 0.000000 0.033922 0.000000 0.000000
# 5 0.000000 0.000000 0.000000 0.000000 0.039883 0.000000
# 6 0.000000 0.000000 0.000000 0.000000 0.000000 0.080367
#
#
# Mechanical properties :
#
#
# Convention : Reuss Voigt Hill
#
# Bulk Modulus (GPa) = 46.04137 53.12234 49.58185
# Shear Modulus (GPa) = 20.22142 23.20508 21.71325
#
# Velocity S-wave (km/s) = 3.41349 3.65665 3.53716
# Velocity P-wave (km/s) = 6.48580 6.95975 6.72695
#
# Compressibility (1/GPa) = 0.02171960
#
# Stress axis : x y z
#
# Youngs Moduli (GPa) = 46.63854 76.23973 52.00961
#
# Poissons Ratio (x) = 0.08301 0.35247
# Poissons Ratio (y) = 0.05078 0.42477
# Poissons Ratio (z) = 0.31607 0.62266
#
# Static dielectric constant tensor:
#      x y z
#    x 2.956550 0.000000 0.000000 
#    y 0.000000 3.379880 0.000000 
#    z 0.000000 0.000000 3.229300 
# 
# 
# High freq. dielectric constant tensor:
#      x y z
#    x 1.626860 0.000000 0.000000 
#    y 0.000000 1.677680 0.000000 
#    z 0.000000 0.000000 1.675270 
# 
# From -- ./inp_files/9821.got.cif
#   From: 2010.03.12/outbox.cif.g09.slc.cpg/sg47_5_cif.got.tgz:9821.got - 2010.04.14 03:12:58.
