data_PCOD8195284
_publ_section_title
;
Structure prediction by ZEFSAII (Michael W. Deem and Ramdas Pophale) SiO2 
 PCOD8195284
Probable space group: P M M M
;
_chemical_formula_sum "Si O2"
_cell_formula_units_Z 52
_cell_length_a 28.212500
_cell_length_b 9.004684
_cell_length_c 12.427178
_cell_angle_alpha 90.000000
_cell_angle_beta 90.000000
_cell_angle_gamma 90.000000
_cell_volume 3157.058053
_symmetry_space_group_name_H-M "P M M M"
_symmetry_group_IT_number 47
_symmetry_cell_setting 'orthorhombic'
loop_
_space_group_symop_operation_xyz
x,y,z
-x,-y,z
x,-y,-z
-x,y,-z
-x,-y,-z
x,y,-z
-x,y,z
x,-y,z
loop_
_atom_site_type_symbol
_atom_site_label
_atom_site_fract_x
_atom_site_fract_y
_atom_site_fract_z
Si Si1 0.094634 0.675307 0.123136
Si Si2 0.000000 0.835760 0.126195
Si Si3 0.945706 0.175717 0.500000
Si Si4 0.686599 0.832833 0.628582
Si Si5 0.500000 0.832381 0.371681
Si Si6 0.223175 0.663483 0.377743
Si Si7 0.870460 0.176246 0.322990
Si Si8 0.593167 0.332521 0.628204
O O1 0.093121 0.500000 0.136929
O O2 0.044967 0.742438 0.162379
O O3 0.131459 0.749517 0.204517
O O4 0.106943 0.719148 0.000000
O O5 0.000000 0.000000 0.181534
O O6 0.000000 0.857415 0.000000
O O7 0.916238 0.227273 0.393924
O O8 0.000000 0.240977 0.500000
O O9 0.948646 0.000000 0.500000
O O10 0.687587 0.835341 0.500000
O O11 0.732487 0.747687 0.677394
O O12 0.639593 0.751484 0.671693
O O13 0.686936 0.000000 0.673910
O O14 0.500000 0.831305 0.500000
O O15 0.546535 0.749606 0.327068
O O16 0.500000 0.000000 0.327682
O O17 0.237773 0.637122 0.500000
O O18 0.214733 0.500000 0.323986
O O19 0.176907 0.766209 0.378275
O O20 0.868868 0.000000 0.312215
O O21 0.592779 0.332019 0.500000
O O22 0.593597 0.500000 0.672661
#
# Coordination Sequence:
#
# PCOD8195284 Si02
#       8
#     8   4   4   8   4   8   8   8
#     4  10  21  36  52  72  98 123 147 181 224 265
#     4   9  17  31  51  72  91 114 145 175 207 250
#     4   9  20  36  51  71  97 123 150 183 222 265
#     4   9  16  25  38  54  73  97 131 172 214 258
#     4   9  15  21  29  41  61  89 123 163 208 255
#     4  10  19  31  46  63  86 113 143 179 221 267
#     4  11  21  34  54  73  94 121 153 188 224 269
#     4   9  15  22  31  45  65  91 124 163 211 259
#
# _framework density 16.471029999999999
#
# number of rings (size 3 to 8) (size 9 to 14) (size 15 to 20)
#    0.000    2.385    0.769    2.769    1.077    7.077 
#    0.000    0.000    0.000    1.846    0.000    0.000 
#    0.000    0.000    0.000    0.000    0.000    0.000 
#
# Total GULP energy -644522.619422 kJ/mol
# GULP energy per Si atom -12394.665758 kJ/mol
# Density = 1.643354 g / cm^3
# Si number density = 16.471030 Si / 1000 Ang^3
#
#
#
# Elastic Constant Matrix: (Units=GPa)
#
#
# Indices 1 2 3 4 5 6 
#
# 1 131.4277 56.4259 18.0855 0.0000 0.0000 0.0000
# 2 56.4259 126.9442 26.0971 0.0000 0.0000 0.0000
# 3 18.0855 26.0971 41.1194 0.0000 0.0000 0.0000
# 4 0.0000 0.0000 0.0000 14.6361 0.0000 0.0000
# 5 0.0000 0.0000 0.0000 0.0000 3.8644 0.0000
# 6 0.0000 0.0000 0.0000 0.0000 0.0000 33.6660
#
#
#
# Elastic Compliance Matrix: (Units=1/GPa)
#
#
# Indices 1 2 3 4 5 6 
#
# 1 0.009508 -0.003872 -0.001725 0.000000 0.000000 0.000000
# 2 -0.003872 0.010636 -0.005047 0.000000 0.000000 0.000000
# 3 -0.001725 -0.005047 0.028281 0.000000 0.000000 0.000000
# 4 0.000000 0.000000 0.000000 0.068324 0.000000 0.000000
# 5 0.000000 0.000000 0.000000 0.000000 0.258774 0.000000
# 6 0.000000 0.000000 0.000000 0.000000 0.000000 0.029704
#
#
# Mechanical properties :
#
#
# Convention : Reuss Voigt Hill
#
# Bulk Modulus (GPa) = 36.84883 55.63426 46.24155
# Shear Modulus (GPa) = 11.47942 23.69214 17.58578
#
# Velocity S-wave (km/s) = 2.64284 3.79676 3.27108
# Velocity P-wave (km/s) = 5.63323 7.28497 6.51169
#
# Compressibility (1/GPa) = 0.02713790
#
# Stress axis : x y z
#
# Youngs Moduli (GPa) = 105.17034 94.01904 35.35891
#
# Poissons Ratio (x) = 0.36403 0.06098
# Poissons Ratio (y) = 0.40720 0.17847
# Poissons Ratio (z) = 0.18139 0.47456
#
# Static dielectric constant tensor:
#      x y z
#    x 3.304360 0.000000 0.000000 
#    y 0.000000 3.309990 0.000000 
#    z 0.000000 0.000000 2.572320 
# 
# 
# High freq. dielectric constant tensor:
#      x y z
#    x 1.637560 0.000000 0.000000 
#    y 0.000000 1.651640 0.000000 
#    z 0.000000 0.000000 1.555010 
# 
# From -- ./inp_files/8072.got.cif
#   From: 2010.03.12/outbox.cif.g09.slc.cpg/sg47_5_cif.got.tgz:8072.got - 2010.04.14 03:12:58.
