data_PCOD8195288
_publ_section_title
;
Structure prediction by ZEFSAII (Michael W. Deem and Ramdas Pophale) SiO2 
 PCOD8195288
Probable space group: P M M M
;
_chemical_formula_sum "Si O2"
_cell_formula_units_Z 64
_cell_length_a 9.450127
_cell_length_b 23.594720
_cell_length_c 18.913415
_cell_angle_alpha 90.000000
_cell_angle_beta 90.000000
_cell_angle_gamma 90.000000
_cell_volume 4217.182784
_symmetry_space_group_name_H-M "P M M M"
_symmetry_group_IT_number 47
_symmetry_cell_setting 'orthorhombic'
loop_
_space_group_symop_operation_xyz
x,y,z
-x,-y,z
x,-y,-z
-x,y,-z
-x,-y,-z
x,y,-z
-x,y,z
x,-y,z
loop_
_atom_site_type_symbol
_atom_site_label
_atom_site_fract_x
_atom_site_fract_y
_atom_site_fract_z
Si Si1 0.667950 0.562684 0.920941
Si Si2 0.165448 0.158934 0.802304
Si Si3 0.838512 0.725512 0.722535
Si Si4 0.836856 0.229788 0.421977
Si Si5 0.336667 0.935235 0.722525
Si Si6 0.336271 0.782561 0.081982
Si Si7 0.662690 0.882405 0.422032
Si Si8 0.664694 0.668943 0.163931
O O1 0.500000 0.568166 0.924055
O O2 0.712202 0.500000 0.893408
O O3 0.728037 0.610974 0.868955
O O4 0.728424 0.572162 0.000000
O O5 0.193000 0.211030 0.749521
O O6 0.235582 0.103046 0.770087
O O7 0.238887 0.172330 0.877311
O O8 0.000000 0.147636 0.814768
O O9 0.802036 0.723938 0.638687
O O10 0.741555 0.679839 0.761719
O O11 0.000000 0.708710 0.737586
O O12 0.802985 0.255235 0.500000
O O13 0.749690 0.173782 0.406959
O O14 0.000000 0.211808 0.415655
O O15 0.500000 0.919176 0.737796
O O16 0.302321 0.927698 0.638982
O O17 0.305751 0.000000 0.742588
O O18 0.500000 0.798055 0.095173
O O19 0.303958 0.719154 0.108799
O O20 0.296253 0.785475 0.000000
O O21 0.699817 0.907840 0.500000
O O22 0.500000 0.864166 0.419066
O O23 0.500000 0.663293 0.180751
#
# Coordination Sequence:
#
# PCOD8195288 Si02
#       8
#     8   8   8   8   8   8   8   8
#     4   8  13  22  38  61  89 119 150 182 209 235
#     4  10  19  31  46  64  85 109 138 172 211 254
#     4   9  17  28  41  60  85 112 140 173 214 253
#     4   9  16  27  43  60  81 111 143 172 206 252
#     4  10  20  32  46  63  84 111 141 172 207 251
#     4   9  17  29  46  67  89 112 137 169 209 253
#     4   9  17  28  43  63  85 109 138 172 207 244
#     4   9  16  25  41  65  89 115 146 177 206 242
#
# _framework density 15.176009000000001
#
# number of rings (size 3 to 8) (size 9 to 14) (size 15 to 20)
#    0.000    2.875    1.250    1.125    0.000    3.250 
#    0.000    1.250    0.000    1.875    0.000    6.125 
#    0.000    0.500    0.000    6.250    0.000    0.000 
#
# Total GULP energy -793331.681148 kJ/mol
# GULP energy per Si atom -12395.807518 kJ/mol
# Density = 1.514147 g / cm^3
# Si number density = 15.176009 Si / 1000 Ang^3
#
#
#
# Elastic Constant Matrix: (Units=GPa)
#
#
# Indices 1 2 3 4 5 6 
#
# 1 53.7679 40.1487 45.8274 0.0000 0.0000 0.0000
# 2 40.1487 87.7344 54.5148 0.0000 0.0000 0.0000
# 3 45.8274 54.5148 107.9518 0.0000 0.0000 0.0000
# 4 0.0000 0.0000 0.0000 24.3760 0.0000 0.0000
# 5 0.0000 0.0000 0.0000 0.0000 21.6318 0.0000
# 6 0.0000 0.0000 0.0000 0.0000 0.0000 8.8929
#
#
#
# Elastic Compliance Matrix: (Units=1/GPa)
#
#
# Indices 1 2 3 4 5 6 
#
# 1 0.033887 -0.009572 -0.009552 0.000000 0.000000 0.000000
# 2 -0.009572 0.019314 -0.005690 0.000000 0.000000 0.000000
# 3 -0.009552 -0.005690 0.016192 0.000000 0.000000 0.000000
# 4 0.000000 0.000000 0.000000 0.041024 0.000000 0.000000
# 5 0.000000 0.000000 0.000000 0.000000 0.046228 0.000000
# 6 0.000000 0.000000 0.000000 0.000000 0.000000 0.112450
#
#
# Mechanical properties :
#
#
# Convention : Reuss Voigt Hill
#
# Bulk Modulus (GPa) = 50.59431 58.93732 54.76582
# Shear Modulus (GPa) = 15.36993 18.24436 16.80714
#
# Velocity S-wave (km/s) = 3.18587 3.47101 3.33149
# Velocity P-wave (km/s) = 6.85155 7.41513 7.13890
#
# Compressibility (1/GPa) = 0.01976507
#
# Stress axis : x y z
#
# Youngs Moduli (GPa) = 29.50966 51.77631 61.76050
#
# Poissons Ratio (x) = 0.49561 0.58992
# Poissons Ratio (y) = 0.28247 0.35140
# Poissons Ratio (z) = 0.28187 0.29460
#
# Static dielectric constant tensor:
#      x y z
#    x 2.845580 0.000000 0.000000 
#    y 0.000000 2.751860 0.000000 
#    z 0.000000 0.000000 3.086490 
# 
# 
# High freq. dielectric constant tensor:
#      x y z
#    x 1.572880 0.000000 0.000000 
#    y 0.000000 1.547080 0.000000 
#    z 0.000000 0.000000 1.582480 
# 
# From -- ./inp_files/11781.got.cif
#   From: 2010.03.12/outbox.cif.g09.slc.cpg/sg47_6_cif.got.tgz:11781.got - 2010.04.14 03:12:58.
