data_PCOD8195480
_publ_section_title
;
Structure prediction by ZEFSAII (Michael W. Deem and Ramdas Pophale) SiO2 
 PCOD8195480
Probable space group: P M M M
;
_chemical_formula_sum "Si O2"
_cell_formula_units_Z 48
_cell_length_a 14.779224
_cell_length_b 9.292750
_cell_length_c 19.855538
_cell_angle_alpha 90.000000
_cell_angle_beta 90.000000
_cell_angle_gamma 90.000000
_cell_volume 2726.952318
_symmetry_space_group_name_H-M "P M M M"
_symmetry_group_IT_number 47
_symmetry_cell_setting 'orthorhombic'
loop_
_space_group_symop_operation_xyz
x,y,z
-x,-y,z
x,-y,-z
-x,y,-z
-x,-y,-z
x,y,-z
-x,y,z
x,-y,z
loop_
_atom_site_type_symbol
_atom_site_label
_atom_site_fract_x
_atom_site_fract_y
_atom_site_fract_z
Si Si1 0.500000 0.329316 0.077515
Si Si2 0.137325 0.335260 0.146587
Si Si3 0.000000 0.154204 0.075891
Si Si4 0.901488 0.836811 0.276183
Si Si5 0.605258 0.663340 0.422729
Si Si6 0.659772 0.666107 0.824724
Si Si7 0.296141 0.832414 0.309899
O O1 0.500000 0.500000 0.072085
O O2 0.586886 0.276450 0.120778
O O3 0.500000 0.267148 0.000000
O O4 0.108211 0.500000 0.141134
O O5 0.098101 0.275002 0.215831
O O6 0.244323 0.316024 0.138976
O O7 0.090369 0.245536 0.088237
O O8 0.000000 0.000000 0.116003
O O9 0.000000 0.111597 0.000000
O O10 0.811886 0.803557 0.320071
O O11 0.000000 0.818781 0.314008
O O12 0.892716 0.000000 0.248747
O O13 0.626678 0.700758 0.500000
O O14 0.500000 0.682979 0.407432
O O15 0.634899 0.500000 0.406523
O O16 0.660017 0.773259 0.377319
O O17 0.640224 0.500000 0.805418
O O18 0.660053 0.755947 0.755458
O O19 0.318229 0.000000 0.302737
#
# Coordination Sequence:
#
# PCOD8195480 Si02
#       7
#     4   8   4   8   8   8   8
#     4   9  18  34  55  75  96 131 176 213 253 310
#     4  10  19  31  49  73  97 121 159 213 260 297
#     4  11  23  35  47  65  93 131 166 199 254 325
#     4   9  17  31  51  72 100 136 167 199 247 305
#     4   9  19  36  56  77 105 143 180 213 256 310
#     4   9  19  34  53  77 103 133 170 214 260 306
#     4  10  20  32  51  81 110 136 171 215 257 303
#
# _framework density 17.602067000000002
#
# number of rings (size 3 to 8) (size 9 to 14) (size 15 to 20)
#    0.000    2.500    0.833    1.750    1.167    3.333 
#    0.000    2.500    0.000    1.500    0.000    3.500 
#    0.000    0.000    0.000    0.000    0.000    0.000 
#
# Total GULP energy -594790.102838 kJ/mol
# GULP energy per Si atom -12391.460476 kJ/mol
# Density = 1.756200 g / cm^3
# Si number density = 17.602067 Si / 1000 Ang^3
#
#
#
# Elastic Constant Matrix: (Units=GPa)
#
#
# Indices 1 2 3 4 5 6 
#
# 1 121.5766 51.8662 63.0125 0.0000 0.0000 0.0000
# 2 51.8662 102.6430 50.0500 0.0000 0.0000 0.0000
# 3 63.0125 50.0500 92.1860 0.0000 0.0000 0.0000
# 4 0.0000 0.0000 0.0000 6.9375 0.0000 0.0000
# 5 0.0000 0.0000 0.0000 0.0000 26.3951 0.0000
# 6 0.0000 0.0000 0.0000 0.0000 0.0000 26.6745
#
#
#
# Elastic Compliance Matrix: (Units=1/GPa)
#
#
# Indices 1 2 3 4 5 6 
#
# 1 0.013445 -0.003145 -0.007483 0.000000 0.000000 0.000000
# 2 -0.003145 0.013986 -0.005443 0.000000 0.000000 0.000000
# 3 -0.007483 -0.005443 0.018918 0.000000 0.000000 0.000000
# 4 0.000000 0.000000 0.000000 0.144144 0.000000 0.000000
# 5 0.000000 0.000000 0.000000 0.000000 0.037886 0.000000
# 6 0.000000 0.000000 0.000000 0.000000 0.000000 0.037489
#
#
# Mechanical properties :
#
#
# Convention : Reuss Voigt Hill
#
# Bulk Modulus (GPa) = 70.39181 71.80702 71.09941
# Shear Modulus (GPa) = 16.51544 22.09987 19.30766
#
# Velocity S-wave (km/s) = 3.06644 3.54719 3.31554
# Velocity P-wave (km/s) = 7.25361 7.59341 7.42546
#
# Compressibility (1/GPa) = 0.01420620
#
# Stress axis : x y z
#
# Youngs Moduli (GPa) = 74.37505 71.49915 52.86052
#
# Poissons Ratio (x) = 0.22489 0.39554
# Poissons Ratio (y) = 0.23394 0.28774
# Poissons Ratio (z) = 0.55653 0.38920
#
# Static dielectric constant tensor:
#      x y z
#    x 4.019240 0.000000 0.000000 
#    y 0.000000 3.333060 0.000000 
#    z 0.000000 0.000000 3.009640 
# 
# 
# High freq. dielectric constant tensor:
#      x y z
#    x 1.692970 0.000000 0.000000 
#    y 0.000000 1.681960 0.000000 
#    z 0.000000 0.000000 1.649300 
# 
# From -- ./inp_files/27990.got.cif
#   From: 2010.03.12/outbox.cif.g09.slc.cpg/sg47_14_cif.got.tgz:27990.got - 2010.04.14 03:12:58.
