data_PCOD8195973
_publ_section_title
;
Structure prediction by ZEFSAII (Michael W. Deem and Ramdas Pophale) SiO2 
 PCOD8195973
Probable space group: P M M M
;
_chemical_formula_sum "Si O2"
_cell_formula_units_Z 52
_cell_length_a 26.628825
_cell_length_b 8.176116
_cell_length_c 12.257999
_cell_angle_alpha 90.000000
_cell_angle_beta 90.000000
_cell_angle_gamma 90.000000
_cell_volume 2668.815981
_symmetry_space_group_name_H-M "P M M M"
_symmetry_group_IT_number 47
_symmetry_cell_setting 'orthorhombic'
loop_
_space_group_symop_operation_xyz
x,y,z
-x,-y,z
x,-y,-z
-x,y,-z
-x,-y,-z
x,y,-z
-x,y,z
x,-y,z
loop_
_atom_site_type_symbol
_atom_site_label
_atom_site_fract_x
_atom_site_fract_y
_atom_site_fract_z
Si Si1 0.588763 0.313668 0.378003
Si Si2 0.746567 0.306881 0.000000
Si Si3 0.779497 0.311248 0.233777
Si Si4 0.121785 0.688129 0.372864
Si Si5 0.365680 0.686563 0.000000
Si Si6 0.554923 0.813227 0.837482
Si Si7 0.694025 0.184204 0.621017
Si Si8 0.944426 0.000000 0.628198
O O1 0.577588 0.247823 0.500000
O O2 0.571388 0.500000 0.365963
O O3 0.557794 0.206113 0.292712
O O4 0.648049 0.303854 0.352508
O O5 0.778262 0.252537 0.107211
O O6 0.742014 0.500000 0.000000
O O7 0.689689 0.227401 0.000000
O O8 0.764333 0.500000 0.244000
O O9 0.832502 0.279221 0.290921
O O10 0.738264 0.205289 0.294284
O O11 0.137861 0.711010 0.500000
O O12 0.101370 0.500000 0.356757
O O13 0.082348 0.829029 0.337534
O O14 0.398674 0.722436 0.893243
O O15 0.352124 0.500000 0.000000
O O16 0.500000 0.747464 0.876053
O O17 0.559584 0.000000 0.871443
O O18 0.715347 0.220633 0.500000
O O19 0.673263 0.000000 0.629810
O O20 0.949423 0.000000 0.500000
O O21 0.000000 0.000000 0.681756
#
# Coordination Sequence:
#
# PCOD8195973 Si02
#       8
#     8   4   8   8   4   8   8   4
#     4  10  21  37  56  78 105 135 170 214 262 319
#     4   9  20  36  54  77 104 137 174 214 265 321
#     4  10  19  33  52  75 106 142 181 224 271 324
#     4   9  18  31  51  80 112 149 190 233 280 329
#     4  11  22  38  61  84 106 134 173 220 264 316
#     4  11  24  40  58  79 104 135 170 214 268 322
#     4  10  20  32  50  76 105 139 174 212 262 323
#     4   9  18  32  52  79 115 155 189 232 283 328
#
# _framework density 19.484297000000002
#
# number of rings (size 3 to 8) (size 9 to 14) (size 15 to 20)
#    0.000    2.077    0.000    3.231    1.077    6.462 
#    0.000    4.231    0.000    0.000    0.000    1.077 
#    0.000    3.077    0.000    0.000    0.000    0.000 
#
# Total GULP energy -644461.808916 kJ/mol
# GULP energy per Si atom -12393.496325 kJ/mol
# Density = 1.943995 g / cm^3
# Si number density = 19.484297 Si / 1000 Ang^3
#
#
#
# Elastic Constant Matrix: (Units=GPa)
#
#
# Indices 1 2 3 4 5 6 
#
# 1 103.2919 35.7204 54.4250 0.0000 0.0000 0.0000
# 2 35.7204 64.7343 26.9045 0.0000 0.0000 0.0000
# 3 54.4250 26.9045 117.2799 0.0000 0.0000 0.0000
# 4 0.0000 0.0000 0.0000 15.2411 0.0000 0.0000
# 5 0.0000 0.0000 0.0000 0.0000 17.6115 0.0000
# 6 0.0000 0.0000 0.0000 0.0000 0.0000 26.8424
#
#
#
# Elastic Compliance Matrix: (Units=1/GPa)
#
#
# Indices 1 2 3 4 5 6 
#
# 1 0.014531 -0.005765 -0.005421 0.000000 0.000000 0.000000
# 2 -0.005765 0.019363 -0.001767 0.000000 0.000000 0.000000
# 3 -0.005421 -0.001767 0.011447 0.000000 0.000000 0.000000
# 4 0.000000 0.000000 0.000000 0.065612 0.000000 0.000000
# 5 0.000000 0.000000 0.000000 0.000000 0.056781 0.000000
# 6 0.000000 0.000000 0.000000 0.000000 0.000000 0.037254
#
#
# Mechanical properties :
#
#
# Convention : Reuss Voigt Hill
#
# Bulk Modulus (GPa) = 51.44937 57.71177 54.58057
# Shear Modulus (GPa) = 21.06377 23.15607 22.10992
#
# Velocity S-wave (km/s) = 3.29152 3.45113 3.37227
# Velocity P-wave (km/s) = 6.39596 6.75013 6.57543
#
# Compressibility (1/GPa) = 0.01943658
#
# Stress axis : x y z
#
# Youngs Moduli (GPa) = 68.81663 51.64407 87.35576
#
# Poissons Ratio (x) = 0.29775 0.47354
# Poissons Ratio (y) = 0.39676 0.15431
# Poissons Ratio (z) = 0.37304 0.09123
#
# Static dielectric constant tensor:
#      x y z
#    x 3.472370 0.000000 0.000000 
#    y 0.000000 3.522890 0.000000 
#    z 0.000000 0.000000 3.698430 
# 
# 
# High freq. dielectric constant tensor:
#      x y z
#    x 1.732720 0.000000 0.000000 
#    y 0.000000 1.756960 0.000000 
#    z 0.000000 0.000000 1.754780 
# 
# From -- ./inp_files/19857.got.cif
#   From: 2010.03.12/outbox.cif.g09.slc.cpg/sg47_10_cif.got.tgz:19857.got - 2010.04.14 03:12:58.
