data_PCOD8195943
_publ_section_title
;
Structure prediction by ZEFSAII (Michael W. Deem and Ramdas Pophale) SiO2 
 PCOD8195943
Probable space group: P M M M
;
_chemical_formula_sum "Si O2"
_cell_formula_units_Z 52
_cell_length_a 22.602985
_cell_length_b 9.422855
_cell_length_c 15.366534
_cell_angle_alpha 90.000000
_cell_angle_beta 90.000000
_cell_angle_gamma 90.000000
_cell_volume 3272.835869
_symmetry_space_group_name_H-M "P M M M"
_symmetry_group_IT_number 47
_symmetry_cell_setting 'orthorhombic'
loop_
_space_group_symop_operation_xyz
x,y,z
-x,-y,z
x,-y,-z
-x,y,-z
-x,-y,-z
x,y,-z
-x,y,z
x,-y,z
loop_
_atom_site_type_symbol
_atom_site_label
_atom_site_fract_x
_atom_site_fract_y
_atom_site_fract_z
Si Si1 0.564885 0.341007 0.396764
Si Si2 0.177862 0.837002 0.094042
Si Si3 0.065739 0.340579 0.129430
Si Si4 0.324029 0.165772 0.599867
Si Si5 0.213655 0.833237 0.717994
Si Si6 0.100093 0.661834 0.325391
Si Si7 0.000000 0.154888 0.401472
O O1 0.564354 0.339086 0.500000
O O2 0.500000 0.290029 0.362839
O O3 0.577516 0.500000 0.362829
O O4 0.616690 0.238948 0.363167
O O5 0.115675 0.756895 0.088418
O O6 0.217863 0.793647 0.178052
O O7 0.160859 0.000000 0.104479
O O8 0.210522 0.809925 0.000000
O O9 0.076223 0.500000 0.095270
O O10 0.069098 0.337086 0.232694
O O11 0.000000 0.288140 0.101786
O O12 0.308644 0.212480 0.500000
O O13 0.272887 0.210193 0.667129
O O14 0.335915 0.000000 0.602798
O O15 0.163198 0.738680 0.674973
O O16 0.199873 0.000000 0.704948
O O17 0.107638 0.500000 0.359417
O O18 0.058292 0.752559 0.386657
O O19 0.000000 0.112846 0.500000
O O20 0.000000 0.000000 0.351055
#
# Coordination Sequence:
#
# PCOD8195943 Si02
#       7
#     8   8   8   8   8   8   4
#     4   8  14  25  41  62  90 122 151 178 209 246
#     4   9  18  31  45  62  83 109 143 178 213 260
#     4   9  17  30  46  63  83 105 128 162 214 271
#     4   9  17  28  43  64  90 119 150 181 211 251
#     4   9  18  32  47  64  88 118 146 179 223 263
#     4  10  19  33  49  64  82 106 140 180 220 265
#     4  11  23  35  47  63  82 107 140 179 225 272
#
# _framework density 15.888362000000001
#
# number of rings (size 3 to 8) (size 9 to 14) (size 15 to 20)
#    0.000    2.846    0.769    1.154    0.000    3.692 
#    0.000    4.615    0.000    0.000    0.000    0.000 
#    0.000    0.615    0.000    7.692    0.000    1.538 
#
# Total GULP energy -644257.195542 kJ/mol
# GULP energy per Si atom -12389.561453 kJ/mol
# Density = 1.585220 g / cm^3
# Si number density = 15.888362 Si / 1000 Ang^3
#
#
#
# Elastic Constant Matrix: (Units=GPa)
#
#
# Indices 1 2 3 4 5 6 
#
# 1 124.8720 55.3845 53.1533 0.0000 0.0000 0.0000
# 2 55.3845 70.4976 30.0214 0.0000 0.0000 0.0000
# 3 53.1533 30.0214 71.7077 0.0000 0.0000 0.0000
# 4 0.0000 0.0000 0.0000 8.8425 0.0000 0.0000
# 5 0.0000 0.0000 0.0000 0.0000 -1.6186 0.0000
# 6 0.0000 0.0000 0.0000 0.0000 0.0000 45.7844
#
#
#
# Elastic Compliance Matrix: (Units=1/GPa)
#
#
# Indices 1 2 3 4 5 6 
#
# 1 0.015032 -0.008597 -0.007543 0.000000 0.000000 0.000000
# 2 -0.008597 0.022180 -0.002913 0.000000 0.000000 0.000000
# 3 -0.007543 -0.002913 0.020757 0.000000 0.000000 0.000000
# 4 0.000000 0.000000 0.000000 0.113090 0.000000 0.000000
# 5 0.000000 0.000000 0.000000 0.000000 -0.617835 0.000000
# 6 0.000000 0.000000 0.000000 0.000000 0.000000 0.021841
#
#
# Mechanical properties :
#
#
# Convention : Reuss Voigt Hill
#
# Bulk Modulus (GPa) = 50.34953 60.46618 55.40786
# Shear Modulus (GPa) = -13.15074 19.16955 3.00941
#
# Velocity S-wave (km/s) = -2.88009 3.47726 1.37775
# Velocity P-wave (km/s) = 4.54956 7.36623 6.12208
#
# Compressibility (1/GPa) = 0.01986116
#
# Stress axis : x y z
#
# Youngs Moduli (GPa) = 66.52347 45.08627 48.17768
#
# Poissons Ratio (x) = 0.38763 0.36342
# Poissons Ratio (y) = 0.57193 0.14034
# Poissons Ratio (z) = 0.50180 0.13134
#
# Static dielectric constant tensor:
#      x y z
#    x 3.028350 0.000000 0.000000 
#    y 0.000000 3.152140 0.000000 
#    z 0.000000 0.000000 3.013850 
# 
# 
# High freq. dielectric constant tensor:
#      x y z
#    x 1.586630 0.000000 0.000000 
#    y 0.000000 1.617580 0.000000 
#    z 0.000000 0.000000 1.590150 
# 
# From -- ./inp_files/25722.got.cif
#   From: 2010.03.12/outbox.cif.g09.slc.cpg/sg47_13_cif.got.tgz:25722.got - 2010.04.14 03:12:58.
