data_PCOD8195305
_publ_section_title
;
Structure prediction by ZEFSAII (Michael W. Deem and Ramdas Pophale) SiO2 
 PCOD8195305
Probable space group: P M M M
;
_chemical_formula_sum "Si O2"
_cell_formula_units_Z 44
_cell_length_a 11.762380
_cell_length_b 13.683136
_cell_length_c 17.928130
_cell_angle_alpha 90.000000
_cell_angle_beta 90.000000
_cell_angle_gamma 90.000000
_cell_volume 2885.465207
_symmetry_space_group_name_H-M "P M M M"
_symmetry_group_IT_number 47
_symmetry_cell_setting 'orthorhombic'
loop_
_space_group_symop_operation_xyz
x,y,z
-x,-y,z
x,-y,-z
-x,y,-z
-x,-y,-z
x,y,-z
-x,y,z
x,-y,z
loop_
_atom_site_type_symbol
_atom_site_label
_atom_site_fract_x
_atom_site_fract_y
_atom_site_fract_z
Si Si1 0.273911 0.388795 0.913229
Si Si2 0.257633 0.885699 0.274608
Si Si3 0.872740 0.884187 0.582184
Si Si4 0.135312 0.890530 0.000000
Si Si5 0.500000 0.730329 0.085440
Si Si6 0.865672 0.224148 0.855749
Si Si7 0.500000 0.112670 0.787084
O O1 0.281756 0.500000 0.885353
O O2 0.392627 0.336766 0.896892
O O3 0.176573 0.335321 0.865002
O O4 0.241078 0.384460 0.000000
O O5 0.219267 0.849134 0.356701
O O6 0.183117 0.825068 0.217266
O O7 0.390723 0.863115 0.263840
O O8 0.230556 0.000000 0.262922
O O9 0.837951 0.843806 0.500000
O O10 0.000000 0.846968 0.603069
O O11 0.873933 0.000000 0.579568
O O12 0.181702 0.836029 0.073080
O O13 0.000000 0.891206 0.000000
O O14 0.184533 0.000000 0.000000
O O15 0.500000 0.825053 0.137536
O O16 0.500000 0.766958 0.000000
O O17 0.000000 0.222916 0.851041
O O18 0.500000 0.000000 0.812320
#
# Coordination Sequence:
#
# PCOD8195305 Si02
#       7
#     8   8   8   4   4   8   4
#     4  10  20  34  51  67  85 115 157 205 247 282
#     4  10  19  31  46  66  95 128 159 193 234 276
#     4   8  14  26  45  68  93 123 159 192 221 265
#     4   9  18  30  41  58  87 122 159 190 218 271
#     4  10  19  35  52  66  86 119 165 205 234 276
#     4  11  20  30  45  66  91 123 157 191 237 285
#     4  10  20  32  46  68  96 127 157 193 239 279
#
# _framework density 15.248841000000001
#
# number of rings (size 3 to 8) (size 9 to 14) (size 15 to 20)
#    0.000    2.273    2.727    1.909    0.000    3.455 
#    0.000    1.364    0.000    2.727    0.000    0.000 
#    0.000    0.727    0.000    5.455    0.000    0.364 
#
# Total GULP energy -545532.044760 kJ/mol
# GULP energy per Si atom -12398.455563 kJ/mol
# Density = 1.521413 g / cm^3
# Si number density = 15.248841 Si / 1000 Ang^3
#
#
#
# Elastic Constant Matrix: (Units=GPa)
#
#
# Indices 1 2 3 4 5 6 
#
# 1 100.5141 42.6248 60.0188 0.0000 0.0000 0.0000
# 2 42.6248 74.6474 47.0042 0.0000 0.0000 0.0000
# 3 60.0188 47.0042 115.3471 0.0000 0.0000 0.0000
# 4 0.0000 0.0000 0.0000 6.9586 0.0000 0.0000
# 5 0.0000 0.0000 0.0000 0.0000 20.9375 0.0000
# 6 0.0000 0.0000 0.0000 0.0000 0.0000 16.5501
#
#
#
# Elastic Compliance Matrix: (Units=1/GPa)
#
#
# Indices 1 2 3 4 5 6 
#
# 1 0.015789 -0.005169 -0.006109 0.000000 0.000000 0.000000
# 2 -0.005169 0.019712 -0.005343 0.000000 0.000000 0.000000
# 3 -0.006109 -0.005343 0.014026 0.000000 0.000000 0.000000
# 4 0.000000 0.000000 0.000000 0.143708 0.000000 0.000000
# 5 0.000000 0.000000 0.000000 0.000000 0.047761 0.000000
# 6 0.000000 0.000000 0.000000 0.000000 0.000000 0.060423
#
#
# Mechanical properties :
#
#
# Convention : Reuss Voigt Hill
#
# Bulk Modulus (GPa) = 61.40886 65.53380 63.47133
# Shear Modulus (GPa) = 14.70205 18.27994 16.49099
#
# Velocity S-wave (km/s) = 3.10843 3.46609 3.29212
# Velocity P-wave (km/s) = 7.29669 7.68687 7.49432
#
# Compressibility (1/GPa) = 0.01628429
#
# Stress axis : x y z
#
# Youngs Moduli (GPa) = 63.33687 50.72950 71.29797
#
# Poissons Ratio (x) = 0.26221 0.43556
# Poissons Ratio (y) = 0.32737 0.38097
# Poissons Ratio (z) = 0.38693 0.27107
#
# Static dielectric constant tensor:
#      x y z
#    x 3.014500 0.000000 0.000000 
#    y 0.000000 2.802730 0.000000 
#    z 0.000000 0.000000 3.046210 
# 
# 
# High freq. dielectric constant tensor:
#      x y z
#    x 1.591190 0.000000 0.000000 
#    y 0.000000 1.555700 0.000000 
#    z 0.000000 0.000000 1.568410 
# 
# From -- ./inp_files/22643.got.cif
#   From: 2010.03.12/outbox.cif.g09.slc.cpg/sg47_12_cif.got.tgz:22643.got - 2010.04.14 03:12:58.
