data_PCOD8195209
_publ_section_title
;
Structure prediction by ZEFSAII (Michael W. Deem and Ramdas Pophale) SiO2 
 PCOD8195209
Probable space group: P M M M
;
_chemical_formula_sum "Si O2"
_cell_formula_units_Z 44
_cell_length_a 9.115665
_cell_length_b 20.792513
_cell_length_c 13.603233
_cell_angle_alpha 90.000000
_cell_angle_beta 90.000000
_cell_angle_gamma 90.000000
_cell_volume 2578.323904
_symmetry_space_group_name_H-M "P M M M"
_symmetry_group_IT_number 47
_symmetry_cell_setting 'orthorhombic'
loop_
_space_group_symop_operation_xyz
x,y,z
-x,-y,z
x,-y,-z
-x,y,-z
-x,-y,-z
x,y,-z
-x,y,z
x,-y,z
loop_
_atom_site_type_symbol
_atom_site_label
_atom_site_fract_x
_atom_site_fract_y
_atom_site_fract_z
Si Si1 0.671442 0.685197 0.217925
Si Si2 0.170961 0.119058 0.284552
Si Si3 0.673775 0.000000 0.385395
Si Si4 0.169318 0.747675 0.388511
Si Si5 0.671447 0.184278 0.113410
Si Si6 0.831388 0.426770 0.887164
O O1 0.500000 0.678521 0.230036
O O2 0.738197 0.697599 0.325028
O O3 0.714144 0.743108 0.144158
O O4 0.731249 0.618324 0.178348
O O5 0.258828 0.061708 0.333517
O O6 0.197824 0.179885 0.353979
O O7 0.235073 0.133264 0.176139
O O8 0.000000 0.101273 0.275064
O O9 0.500000 0.000000 0.370690
O O10 0.717070 0.000000 0.500000
O O11 0.223369 0.741684 0.500000
O O12 0.000000 0.729308 0.377092
O O13 0.500000 0.171664 0.132623
O O14 0.713411 0.174602 0.000000
O O15 0.806887 0.500000 0.852683
O O16 0.000000 0.406655 0.873568
O O17 0.783919 0.419040 0.000000
#
# Coordination Sequence:
#
# PCOD8195209 Si02
#       6
#     8   8   4   8   8   8
#     4  10  19  30  48  75 103 130 162 201 245 291
#     4  10  20  34  53  77 102 127 161 205 246 286
#     4  11  23  37  54  75 100 131 163 196 242 299
#     4   9  18  33  52  73  98 129 164 201 243 290
#     4   9  18  33  51  72 102 136 166 198 239 289
#     4   9  18  32  49  70  98 132 167 201 239 286
#
# _framework density 17.065351
#
# number of rings (size 3 to 8) (size 9 to 14) (size 15 to 20)
#    0.000    2.455    0.000    3.000    0.000    5.091 
#    0.000    1.364    0.000    3.273    0.000    3.818 
#    0.000    0.000    0.000    0.000    0.000    0.000 
#
# Total GULP energy -545708.320522 kJ/mol
# GULP energy per Si atom -12402.461830 kJ/mol
# Density = 1.702651 g / cm^3
# Si number density = 17.065351 Si / 1000 Ang^3
#
#
#
# Elastic Constant Matrix: (Units=GPa)
#
#
# Indices 1 2 3 4 5 6 
#
# 1 83.4786 54.7668 67.5819 0.0000 0.0000 0.0000
# 2 54.7668 90.0434 64.7324 0.0000 0.0000 0.0000
# 3 67.5819 64.7324 144.0196 0.0000 0.0000 0.0000
# 4 0.0000 0.0000 0.0000 23.5198 0.0000 0.0000
# 5 0.0000 0.0000 0.0000 0.0000 26.2770 0.0000
# 6 0.0000 0.0000 0.0000 0.0000 0.0000 31.5659
#
#
#
# Elastic Compliance Matrix: (Units=1/GPa)
#
#
# Indices 1 2 3 4 5 6 
#
# 1 0.023807 -0.009527 -0.006889 0.000000 0.000000 0.000000
# 2 -0.009527 0.020220 -0.004618 0.000000 0.000000 0.000000
# 3 -0.006889 -0.004618 0.012252 0.000000 0.000000 0.000000
# 4 0.000000 0.000000 0.000000 0.042517 0.000000 0.000000
# 5 0.000000 0.000000 0.000000 0.000000 0.038056 0.000000
# 6 0.000000 0.000000 0.000000 0.000000 0.000000 0.031680
#
#
# Mechanical properties :
#
#
# Convention : Reuss Voigt Hill
#
# Bulk Modulus (GPa) = 70.37051 76.85597 73.61324
# Shear Modulus (GPa) = 23.21938 24.96991 24.09464
#
# Velocity S-wave (km/s) = 3.69265 3.82932 3.76161
# Velocity P-wave (km/s) = 7.71404 8.04274 7.88010
#
# Compressibility (1/GPa) = 0.01421050
#
# Stress axis : x y z
#
# Youngs Moduli (GPa) = 42.00446 49.45572 81.62062
#
# Poissons Ratio (x) = 0.47118 0.56231
# Poissons Ratio (y) = 0.40019 0.37689
# Poissons Ratio (z) = 0.28938 0.22837
#
# Static dielectric constant tensor:
#      x y z
#    x 3.217810 0.000000 0.000000 
#    y 0.000000 3.074290 0.000000 
#    z 0.000000 0.000000 3.245360 
# 
# 
# High freq. dielectric constant tensor:
#      x y z
#    x 1.665280 0.000000 0.000000 
#    y 0.000000 1.647560 0.000000 
#    z 0.000000 0.000000 1.657560 
# 
# From -- ./inp_files/6126.got.cif
#   From: 2010.03.12/outbox.cif.g09.slc.cpg/sg47_4_cif.got.tgz:6126.got - 2010.04.14 03:12:58.
