data_PCOD8195010
_publ_section_title
;
Structure prediction by ZEFSAII (Michael W. Deem and Ramdas Pophale) SiO2 
 PCOD8195010
Probable space group: P M M M
;
_chemical_formula_sum "Si O2"
_cell_formula_units_Z 52
_cell_length_a 9.286483
_cell_length_b 19.007619
_cell_length_c 18.651765
_cell_angle_alpha 90.000000
_cell_angle_beta 90.000000
_cell_angle_gamma 90.000000
_cell_volume 3292.296355
_symmetry_space_group_name_H-M "P M M M"
_symmetry_group_IT_number 47
_symmetry_cell_setting 'orthorhombic'
loop_
_space_group_symop_operation_xyz
x,y,z
-x,-y,z
x,-y,-z
-x,y,-z
-x,-y,-z
x,y,-z
-x,y,z
x,-y,z
loop_
_atom_site_type_symbol
_atom_site_label
_atom_site_fract_x
_atom_site_fract_y
_atom_site_fract_z
Si Si1 0.667632 0.420036 0.082914
Si Si2 0.834544 0.219528 0.298866
Si Si3 0.339336 0.082899 0.500000
Si Si4 0.336469 0.420468 0.321617
Si Si5 0.334113 0.704470 0.419731
Si Si6 0.166412 0.078809 0.639513
Si Si7 0.830365 0.342806 0.798465
O O1 0.500000 0.407684 0.097639
O O2 0.709500 0.500000 0.105728
O O3 0.756532 0.361442 0.126266
O O4 0.704779 0.408460 0.000000
O O5 0.749163 0.243398 0.368305
O O6 0.810019 0.134505 0.294577
O O7 0.787659 0.262784 0.227220
O O8 0.000000 0.237770 0.313303
O O9 0.500000 0.116378 0.500000
O O10 0.256048 0.106800 0.571342
O O11 0.349473 0.000000 0.500000
O O12 0.500000 0.411458 0.292257
O O13 0.302998 0.500000 0.343147
O O14 0.313238 0.375562 0.393430
O O15 0.226213 0.397374 0.260323
O O16 0.271997 0.710996 0.500000
O O17 0.500000 0.726565 0.417664
O O18 0.000000 0.077747 0.616170
O O19 0.214595 0.000000 0.664005
O O20 0.000000 0.351602 0.807860
#
# Coordination Sequence:
#
# PCOD8195010 Si02
#       7
#     8   8   4   8   8   8   8
#     4   9  18  32  49  69  93 120 147 173 202 240
#     4   9  19  32  44  60  83 112 142 174 215 259
#     4   9  17  27  39  59  85 107 130 171 226 269
#     4   9  17  29  44  59  77 106 142 178 216 254
#     4   9  18  30  42  58  78 102 138 181 221 260
#     4   9  17  30  46  61  79 108 146 180 212 259
#     4  10  19  30  44  64  90 115 140 172 210 252
#
# _framework density 15.794447999999999
#
# number of rings (size 3 to 8) (size 9 to 14) (size 15 to 20)
#    0.000    2.846    0.000    1.615    1.077    5.538 
#    0.000    2.308    0.000    0.000    0.000    4.308 
#    0.000    0.615    0.000    7.692    0.000    1.231 
#
# Total GULP energy -644409.163426 kJ/mol
# GULP energy per Si atom -12392.483912 kJ/mol
# Density = 1.575850 g / cm^3
# Si number density = 15.794448 Si / 1000 Ang^3
#
#
#
# Elastic Constant Matrix: (Units=GPa)
#
#
# Indices 1 2 3 4 5 6 
#
# 1 55.6791 35.4670 37.7038 0.0000 0.0000 0.0000
# 2 35.4670 110.8438 47.6895 0.0000 0.0000 0.0000
# 3 37.7038 47.6895 82.9139 0.0000 0.0000 0.0000
# 4 0.0000 0.0000 0.0000 22.2562 0.0000 0.0000
# 5 0.0000 0.0000 0.0000 0.0000 18.5663 0.0000
# 6 0.0000 0.0000 0.0000 0.0000 0.0000 15.7745
#
#
#
# Elastic Compliance Matrix: (Units=1/GPa)
#
#
# Indices 1 2 3 4 5 6 
#
# 1 0.027581 -0.004557 -0.009921 0.000000 0.000000 0.000000
# 2 -0.004557 0.012741 -0.005256 0.000000 0.000000 0.000000
# 3 -0.009921 -0.005256 0.019595 0.000000 0.000000 0.000000
# 4 0.000000 0.000000 0.000000 0.044931 0.000000 0.000000
# 5 0.000000 0.000000 0.000000 0.000000 0.053861 0.000000
# 6 0.000000 0.000000 0.000000 0.000000 0.000000 0.063394
#
#
# Mechanical properties :
#
#
# Convention : Reuss Voigt Hill
#
# Bulk Modulus (GPa) = 48.90129 54.57306 51.73717
# Shear Modulus (GPa) = 18.62978 19.89118 19.26048
#
# Velocity S-wave (km/s) = 3.43813 3.55262 3.49585
# Velocity P-wave (km/s) = 6.84027 7.17323 7.00873
#
# Compressibility (1/GPa) = 0.02044936
#
# Stress axis : x y z
#
# Youngs Moduli (GPa) = 36.25715 78.48578 51.03239
#
# Poissons Ratio (x) = 0.35763 0.50630
# Poissons Ratio (y) = 0.16521 0.26824
# Poissons Ratio (z) = 0.35971 0.41254
#
# Static dielectric constant tensor:
#      x y z
#    x 3.074610 0.000000 0.000000 
#    y 0.000000 3.197710 0.000000 
#    z 0.000000 0.000000 2.825030 
# 
# 
# High freq. dielectric constant tensor:
#      x y z
#    x 1.609370 0.000000 0.000000 
#    y 0.000000 1.606270 0.000000 
#    z 0.000000 0.000000 1.571050 
# 
# From -- ./inp_files/9834.got.cif
#   From: 2010.03.12/outbox.cif.g09.slc.cpg/sg47_5_cif.got.tgz:9834.got - 2010.04.14 03:12:58.
