data_PCOD8195756
_publ_section_title
;
Structure prediction by ZEFSAII (Michael W. Deem and Ramdas Pophale) SiO2 
 PCOD8195756
Probable space group: P M M M
;
_chemical_formula_sum "Si O2"
_cell_formula_units_Z 64
_cell_length_a 8.903460
_cell_length_b 19.642106
_cell_length_c 19.434020
_cell_angle_alpha 90.000000
_cell_angle_beta 90.000000
_cell_angle_gamma 90.000000
_cell_volume 3398.673988
_symmetry_space_group_name_H-M "P M M M"
_symmetry_group_IT_number 47
_symmetry_cell_setting 'orthorhombic'
loop_
_space_group_symop_operation_xyz
x,y,z
-x,-y,z
x,-y,-z
-x,y,-z
-x,-y,-z
x,y,-z
-x,y,z
x,-y,z
loop_
_atom_site_type_symbol
_atom_site_label
_atom_site_fract_x
_atom_site_fract_y
_atom_site_fract_z
Si Si1 0.677905 0.926508 0.075998
Si Si2 0.820941 0.811467 0.687610
Si Si3 0.175985 0.576238 0.182005
Si Si4 0.174675 0.340902 0.688814
Si Si5 0.678862 0.194049 0.166959
Si Si6 0.332576 0.420466 0.577063
Si Si7 0.175564 0.688670 0.920873
Si Si8 0.821670 0.076905 0.422260
O O1 0.500000 0.920248 0.072302
O O2 0.744075 0.866657 0.121049
O O3 0.723989 0.000000 0.107167
O O4 0.746431 0.918899 0.000000
O O5 0.763654 0.734621 0.671872
O O6 0.749067 0.826526 0.760758
O O7 0.758983 0.865796 0.630898
O O8 0.000000 0.816385 0.691854
O O9 0.247932 0.500000 0.181483
O O10 0.247051 0.622791 0.243536
O O11 0.205299 0.612512 0.108353
O O12 0.000000 0.569067 0.195794
O O13 0.206612 0.386051 0.622748
O O14 0.000000 0.334605 0.702292
O O15 0.500000 0.197580 0.172769
O O16 0.736874 0.262598 0.131473
O O17 0.314601 0.392458 0.500000
O O18 0.500000 0.403635 0.604662
O O19 0.302972 0.500000 0.578585
O O20 0.000000 0.706716 0.917564
O O21 0.234236 0.693260 0.000000
O O22 0.764763 0.093624 0.500000
O O23 0.000000 0.079342 0.421394
O O24 0.768512 0.000000 0.401331
#
# Coordination Sequence:
#
# PCOD8195756 Si02
#       8
#     8   8   8   8   8   8   8   8
#     4   8  15  29  48  70  97 130 169 210 249 292
#     4  10  20  34  53  77 107 137 170 213 260 306
#     4   9  17  31  51  75 102 132 169 213 261 311
#     4  10  19  32  51  74 103 136 172 218 260 301
#     4  11  21  33  52  77 106 139 174 214 257 309
#     4   9  19  35  52  72 102 137 169 205 254 312
#     4  10  20  35  55  77 103 136 172 215 268 317
#     4   8  15  30  53  80 108 140 179 219 259 305
#
# _framework density 18.830874000000001
#
# number of rings (size 3 to 8) (size 9 to 14) (size 15 to 20)
#    0.000    2.625    1.250    2.250    0.000    3.500 
#    0.000    3.125    0.000    1.875    0.000    6.125 
#    0.000    0.000    0.000    0.000    0.000    0.000 
#
# Total GULP energy -793004.532554 kJ/mol
# GULP energy per Si atom -12390.695821 kJ/mol
# Density = 1.878801 g / cm^3
# Si number density = 18.830874 Si / 1000 Ang^3
#
#
#
# Elastic Constant Matrix: (Units=GPa)
#
#
# Indices 1 2 3 4 5 6 
#
# 1 12.2817 16.2823 15.9948 0.0000 0.0000 0.0000
# 2 16.2823 129.1778 77.3505 0.0000 0.0000 0.0000
# 3 15.9948 77.3505 129.0263 0.0000 0.0000 0.0000
# 4 0.0000 0.0000 0.0000 30.4870 0.0000 0.0000
# 5 0.0000 0.0000 0.0000 0.0000 21.6960 0.0000
# 6 0.0000 0.0000 0.0000 0.0000 0.0000 15.0859
#
#
#
# Elastic Compliance Matrix: (Units=1/GPa)
#
#
# Indices 1 2 3 4 5 6 
#
# 1 0.102481 -0.008284 -0.007738 0.000000 0.000000 0.000000
# 2 -0.008284 0.012746 -0.006614 0.000000 0.000000 0.000000
# 3 -0.007738 -0.006614 0.012675 0.000000 0.000000 0.000000
# 4 0.000000 0.000000 0.000000 0.032801 0.000000 0.000000
# 5 0.000000 0.000000 0.000000 0.000000 0.046091 0.000000
# 6 0.000000 0.000000 0.000000 0.000000 0.000000 0.066287
#
#
# Mechanical properties :
#
#
# Convention : Reuss Voigt Hill
#
# Bulk Modulus (GPa) = 12.10214 54.41565 33.25889
# Shear Modulus (GPa) = 14.45518 24.17768 19.31643
#
# Velocity S-wave (km/s) = 2.77362 3.58710 3.20626
# Velocity P-wave (km/s) = 4.08632 6.79088 5.60420
#
# Compressibility (1/GPa) = 0.08263002
#
# Stress axis : x y z
#
# Youngs Moduli (GPa) = 9.75786 78.45639 78.89690
#
# Poissons Ratio (x) = 0.64992 0.61050
# Poissons Ratio (y) = 0.08083 0.52184
# Poissons Ratio (z) = 0.07551 0.51893
#
# Static dielectric constant tensor:
#      x y z
#    x 2.971780 0.000000 0.000000 
#    y 0.000000 3.812160 0.000000 
#    z 0.000000 0.000000 3.612730 
# 
# 
# High freq. dielectric constant tensor:
#      x y z
#    x 1.682390 0.000000 0.000000 
#    y 0.000000 1.743040 0.000000 
#    z 0.000000 0.000000 1.736010 
# 
# From -- ./inp_files/27025.got.cif
#   From: 2010.03.12/outbox.cif.g09.slc.cpg/sg47_14_cif.got.tgz:27025.got - 2010.04.14 03:12:58.
