data_PCOD8195811
_publ_section_title
;
Structure prediction by ZEFSAII (Michael W. Deem and Ramdas Pophale) SiO2 
 PCOD8195811
Probable space group: P M M M
;
_chemical_formula_sum "Si O2"
_cell_formula_units_Z 60
_cell_length_a 18.352545
_cell_length_b 9.562544
_cell_length_c 19.051433
_cell_angle_alpha 90.000000
_cell_angle_beta 90.000000
_cell_angle_gamma 90.000000
_cell_volume 3343.469701
_symmetry_space_group_name_H-M "P M M M"
_symmetry_group_IT_number 47
_symmetry_cell_setting 'orthorhombic'
loop_
_space_group_symop_operation_xyz
x,y,z
-x,-y,z
x,-y,-z
-x,y,-z
-x,-y,-z
x,y,-z
-x,y,z
x,-y,z
loop_
_atom_site_type_symbol
_atom_site_label
_atom_site_fract_x
_atom_site_fract_y
_atom_site_fract_z
Si Si1 0.322427 0.742998 0.079124
Si Si2 0.649958 0.348436 0.222691
Si Si3 0.420408 0.000000 0.918046
Si Si4 0.697820 0.333707 0.419473
Si Si5 0.203354 0.339708 0.299786
Si Si6 0.843235 0.839049 0.079959
Si Si7 0.415675 0.161931 0.331806
Si Si8 0.083593 0.335347 0.801579
O O1 0.345783 0.632622 0.138278
O O2 0.239277 0.787600 0.085587
O O3 0.373601 0.868254 0.103438
O O4 0.339115 0.688224 0.000000
O O5 0.625847 0.500000 0.252740
O O6 0.731313 0.310603 0.246315
O O7 0.596530 0.230661 0.254625
O O8 0.500000 0.000000 0.880397
O O9 0.433037 0.000000 0.000000
O O10 0.710371 0.294190 0.500000
O O11 0.683924 0.500000 0.409051
O O12 0.770461 0.283986 0.376413
O O13 0.628635 0.248892 0.390220
O O14 0.184462 0.500000 0.309544
O O15 0.130950 0.273389 0.264233
O O16 0.895483 0.744944 0.127475
O O17 0.847782 0.000000 0.104258
O O18 0.870547 0.823213 0.000000
O O19 0.500000 0.172203 0.352273
O O20 0.390258 0.000000 0.329978
O O21 0.098889 0.500000 0.814111
O O22 0.000000 0.306247 0.783202
#
# Coordination Sequence:
#
# PCOD8195811 Si02
#       8
#     8   8   4   8   8   8   8   8
#     4  10  19  32  52  76 101 134 179 226 276 330
#     4  10  20  34  53  74 101 138 177 222 271 318
#     4   9  18  32  48  68  95 127 166 216 270 321
#     4   9  18  34  58  84 109 140 175 212 258 314
#     4   8  15  31  51  74 102 132 169 208 250 304
#     4  10  20  34  52  74 104 140 179 226 274 324
#     4  10  22  37  53  77 109 143 178 219 265 314
#     4  10  20  34  53  76 104 141 182 225 274 322
#
# _framework density 17.945429000000001
#
# number of rings (size 3 to 8) (size 9 to 14) (size 15 to 20)
#    0.000    2.467    2.000    1.200    0.933    3.200 
#    0.000    4.000    0.000    0.400    0.000    5.600 
#    0.000    0.000    0.000    4.667    0.000    5.867 
#
# Total GULP energy -743295.248651 kJ/mol
# GULP energy per Si atom -12388.254144 kJ/mol
# Density = 1.790458 g / cm^3
# Si number density = 17.945429 Si / 1000 Ang^3
#
#
#
# Elastic Constant Matrix: (Units=GPa)
#
#
# Indices 1 2 3 4 5 6 
#
# 1 82.1143 28.6594 31.5166 0.0000 0.0000 0.0000
# 2 28.6594 60.2915 28.4227 0.0000 0.0000 0.0000
# 3 31.5166 28.4227 131.6204 0.0000 0.0000 0.0000
# 4 0.0000 0.0000 0.0000 20.8005 0.0000 0.0000
# 5 0.0000 0.0000 0.0000 0.0000 19.5993 0.0000
# 6 0.0000 0.0000 0.0000 0.0000 0.0000 72.3811
#
#
#
# Elastic Compliance Matrix: (Units=1/GPa)
#
#
# Indices 1 2 3 4 5 6 
#
# 1 0.015209 -0.006138 -0.002317 0.000000 0.000000 0.000000
# 2 -0.006138 0.020943 -0.003053 0.000000 0.000000 0.000000
# 3 -0.002317 -0.003053 0.008812 0.000000 0.000000 0.000000
# 4 0.000000 0.000000 0.000000 0.048076 0.000000 0.000000
# 5 0.000000 0.000000 0.000000 0.000000 0.051022 0.000000
# 6 0.000000 0.000000 0.000000 0.000000 0.000000 0.013816
#
#
# Mechanical properties :
#
#
# Convention : Reuss Voigt Hill
#
# Bulk Modulus (GPa) = 45.55867 50.13596 47.84732
# Shear Modulus (GPa) = 26.56632 34.91800 30.74216
#
# Velocity S-wave (km/s) = 3.85176 4.41589 4.14344
# Velocity P-wave (km/s) = 6.72487 7.34839 7.04353
#
# Compressibility (1/GPa) = 0.02194972
#
# Stress axis : x y z
#
# Youngs Moduli (GPa) = 65.74870 47.74912 113.48762
#
# Poissons Ratio (x) = 0.29307 0.26289
# Poissons Ratio (y) = 0.40355 0.34646
# Poissons Ratio (z) = 0.15231 0.14577
#
# Static dielectric constant tensor:
#      x y z
#    x 3.395420 0.000000 0.000000 
#    y 0.000000 3.271980 0.000000 
#    z 0.000000 0.000000 3.463360 
# 
# 
# High freq. dielectric constant tensor:
#      x y z
#    x 1.680550 0.000000 0.000000 
#    y 0.000000 1.681400 0.000000 
#    z 0.000000 0.000000 1.690700 
# 
# From -- ./inp_files/31346.got.cif
#   From: 2010.03.12/outbox.cif.g09.slc.cpg/sg47_16_cif.got.tgz:31346.got - 2010.04.14 03:12:58.
