data_PCOD8195452
_publ_section_title
;
Structure prediction by ZEFSAII (Michael W. Deem and Ramdas Pophale) SiO2 
 PCOD8195452
Probable space group: P M M M
;
_chemical_formula_sum "Si O2"
_cell_formula_units_Z 44
_cell_length_a 13.664154
_cell_length_b 21.002504
_cell_length_c 9.239751
_cell_angle_alpha 90.000000
_cell_angle_beta 90.000000
_cell_angle_gamma 90.000000
_cell_volume 2651.637131
_symmetry_space_group_name_H-M "P M M M"
_symmetry_group_IT_number 47
_symmetry_cell_setting 'orthorhombic'
loop_
_space_group_symop_operation_xyz
x,y,z
-x,-y,z
x,-y,-z
-x,y,-z
-x,-y,-z
x,y,-z
-x,y,z
x,-y,z
loop_
_atom_site_type_symbol
_atom_site_label
_atom_site_fract_x
_atom_site_fract_y
_atom_site_fract_z
Si Si1 0.611882 0.814052 0.830328
Si Si2 0.110136 0.000000 0.328658
Si Si3 0.110411 0.238919 0.165249
Si Si4 0.706490 0.317684 0.165123
Si Si5 0.389601 0.428424 0.329607
Si Si6 0.787024 0.128814 0.671958
O O1 0.500000 0.827735 0.788048
O O2 0.638781 0.741739 0.786984
O O3 0.679670 0.862841 0.741767
O O4 0.631399 0.824386 0.000000
O O5 0.169575 0.061613 0.275624
O O6 0.102120 0.000000 0.500000
O O7 0.000000 0.000000 0.262770
O O8 0.180107 0.299608 0.190933
O O9 0.138494 0.182410 0.272943
O O10 0.000000 0.260871 0.197071
O O11 0.123580 0.214543 0.000000
O O12 0.685030 0.379305 0.259460
O O13 0.684820 0.335541 0.000000
O O14 0.383045 0.420656 0.500000
O O15 0.500000 0.414012 0.276602
O O16 0.359683 0.500000 0.283786
O O17 0.777746 0.133401 0.500000
#
# Coordination Sequence:
#
# PCOD8195452 Si02
#       6
#     8   4   8   8   8   8
#     4   9  18  33  50  68  95 127 155 188 231 276
#     4   9  18  32  48  67  94 124 151 187 236 281
#     4   9  18  33  50  68  94 124 152 188 234 278
#     4   9  17  29  47  70  91 115 151 190 226 266
#     4   9  18  31  45  64  93 125 152 181 222 270
#     4  10  19  31  49  72  95 120 154 194 233 275
#
# _framework density 16.593523000000001
#
# number of rings (size 3 to 8) (size 9 to 14) (size 15 to 20)
#    0.000    2.818    0.000    3.273    0.000    5.818 
#    0.000    3.182    0.000    6.545    0.000    3.818 
#    0.000    0.000    0.000    0.000    0.000    0.000 
#
# Total GULP energy -545556.015398 kJ/mol
# GULP energy per Si atom -12399.000350 kJ/mol
# Density = 1.655576 g / cm^3
# Si number density = 16.593523 Si / 1000 Ang^3
#
#
#
# Elastic Constant Matrix: (Units=GPa)
#
#
# Indices 1 2 3 4 5 6 
#
# 1 146.8542 69.8170 44.8489 0.0000 0.0000 0.0000
# 2 69.8170 116.8036 46.2954 0.0000 0.0000 0.0000
# 3 44.8489 46.2954 52.2972 0.0000 0.0000 0.0000
# 4 0.0000 0.0000 0.0000 9.3323 0.0000 0.0000
# 5 0.0000 0.0000 0.0000 0.0000 26.6198 0.0000
# 6 0.0000 0.0000 0.0000 0.0000 0.0000 22.9421
#
#
#
# Elastic Compliance Matrix: (Units=1/GPa)
#
#
# Indices 1 2 3 4 5 6 
#
# 1 0.010370 -0.004119 -0.005247 0.000000 0.000000 0.000000
# 2 -0.004119 0.014825 -0.009591 0.000000 0.000000 0.000000
# 3 -0.005247 -0.009591 0.032112 0.000000 0.000000 0.000000
# 4 0.000000 0.000000 0.000000 0.107155 0.000000 0.000000
# 5 0.000000 0.000000 0.000000 0.000000 0.037566 0.000000
# 6 0.000000 0.000000 0.000000 0.000000 0.000000 0.043588
#
#
# Mechanical properties :
#
#
# Convention : Reuss Voigt Hill
#
# Bulk Modulus (GPa) = 51.56646 70.87528 61.22087
# Shear Modulus (GPa) = 17.24172 22.11174 19.67673
#
# Velocity S-wave (km/s) = 3.22695 3.65437 3.44729
# Velocity P-wave (km/s) = 6.71029 7.78532 7.26771
#
# Compressibility (1/GPa) = 0.01939245
#
# Stress axis : x y z
#
# Youngs Moduli (GPa) = 96.43151 67.45425 31.14126
#
# Poissons Ratio (x) = 0.27783 0.16340
# Poissons Ratio (y) = 0.39719 0.29868
# Poissons Ratio (z) = 0.50597 0.64697
#
# Static dielectric constant tensor:
#      x y z
#    x 3.261880 0.000000 0.000000 
#    y 0.000000 3.011030 0.000000 
#    z 0.000000 0.000000 2.993050 
# 
# 
# High freq. dielectric constant tensor:
#      x y z
#    x 1.641960 0.000000 0.000000 
#    y 0.000000 1.623870 0.000000 
#    z 0.000000 0.000000 1.631780 
# 
# From -- ./inp_files/6125.got.cif
#   From: 2010.03.12/outbox.cif.g09.slc.cpg/sg47_4_cif.got.tgz:6125.got - 2010.04.14 03:12:58.
