data_PCOD8195259
_publ_section_title
;
Structure prediction by ZEFSAII (Michael W. Deem and Ramdas Pophale) SiO2 
 PCOD8195259
Probable space group: P M M M
;
_chemical_formula_sum "Si O2"
_cell_formula_units_Z 48
_cell_length_a 8.126229
_cell_length_b 19.935550
_cell_length_c 22.031679
_cell_angle_alpha 90.000000
_cell_angle_beta 90.000000
_cell_angle_gamma 90.000000
_cell_volume 3569.150605
_symmetry_space_group_name_H-M "P M M M"
_symmetry_group_IT_number 47
_symmetry_cell_setting 'orthorhombic'
loop_
_space_group_symop_operation_xyz
x,y,z
-x,-y,z
x,-y,-z
-x,y,-z
-x,-y,-z
x,y,-z
-x,y,z
x,-y,z
loop_
_atom_site_type_symbol
_atom_site_label
_atom_site_fract_x
_atom_site_fract_y
_atom_site_fract_z
Si Si1 0.308546 0.847861 0.118235
Si Si2 0.691445 0.710440 0.067556
Si Si3 0.000000 0.079970 0.430946
Si Si4 0.192418 0.571970 0.929536
Si Si5 0.190472 0.920876 0.000000
Si Si6 0.188562 0.075453 0.768040
Si Si7 0.317346 0.079672 0.359013
O O1 0.500000 0.848649 0.134740
O O2 0.239764 0.772213 0.107183
O O3 0.279230 0.892127 0.058950
O O4 0.209242 0.876590 0.174730
O O5 0.500000 0.722054 0.060426
O O6 0.726112 0.638397 0.100095
O O7 0.772906 0.712116 0.000000
O O8 0.832202 0.108891 0.399984
O O9 0.000000 0.105116 0.500000
O O10 0.000000 0.000000 0.426785
O O11 0.254277 0.500000 0.901612
O O12 0.000000 0.577812 0.919541
O O13 0.240010 0.571361 0.000000
O O14 0.000000 0.899977 0.000000
O O15 0.212940 0.000000 0.000000
O O16 0.293393 0.102054 0.710903
O O17 0.000000 0.075520 0.747073
O O18 0.243453 0.000000 0.786392
O O19 0.500000 0.104695 0.380571
O O20 0.309535 0.000000 0.362829
#
# Coordination Sequence:
#
# PCOD8195259 Si02
#       7
#     8   8   4   8   4   8   8
#     4  11  21  32  43  56  72  92 120 155 197 240
#     4   9  17  29  40  52  72  92 112 142 183 230
#     4   9  16  26  40  60  84 103 121 149 184 226
#     4   8  14  24  38  56  73  88 109 134 164 212
#     4  11  23  35  43  53  68  87 116 155 199 246
#     4  10  19  31  44  57  73  94 126 164 196 234
#     4   9  16  27  42  58  77 101 126 153 188 227
#
# _framework density 13.448579000000001
#
# number of rings (size 3 to 8) (size 9 to 14) (size 15 to 20)
#    0.000    2.500    1.667    2.250    0.000    5.667 
#    0.000    3.333    0.000    0.000    0.000    0.000 
#    0.000    0.000    0.000    0.000    0.000    0.000 
#
# Total GULP energy -594788.437491 kJ/mol
# GULP energy per Si atom -12391.425781 kJ/mol
# Density = 1.341797 g / cm^3
# Si number density = 13.448579 Si / 1000 Ang^3
#
#
#
# Elastic Constant Matrix: (Units=GPa)
#
#
# Indices 1 2 3 4 5 6 
#
# 1 57.7553 17.1121 27.5837 0.0000 0.0000 0.0000
# 2 17.1121 79.9672 24.0565 0.0000 0.0000 0.0000
# 3 27.5837 24.0565 64.8475 0.0000 0.0000 0.0000
# 4 0.0000 0.0000 0.0000 -4.0583 0.0000 0.0000
# 5 0.0000 0.0000 0.0000 0.0000 14.1567 0.0000
# 6 0.0000 0.0000 0.0000 0.0000 0.0000 15.8709
#
#
#
# Elastic Compliance Matrix: (Units=1/GPa)
#
#
# Indices 1 2 3 4 5 6 
#
# 1 0.022048 -0.002135 -0.008586 0.000000 0.000000 0.000000
# 2 -0.002135 0.014283 -0.004390 0.000000 0.000000 0.000000
# 3 -0.008586 -0.004390 0.020702 0.000000 0.000000 0.000000
# 4 0.000000 0.000000 0.000000 -0.246407 0.000000 0.000000
# 5 0.000000 0.000000 0.000000 0.000000 0.070638 0.000000
# 6 0.000000 0.000000 0.000000 0.000000 0.000000 0.063008
#
#
# Mechanical properties :
#
#
# Convention : Reuss Voigt Hill
#
# Bulk Modulus (GPa) = 37.30079 37.78607 37.54343
# Shear Modulus (GPa) = -301.76955 14.11504 -143.82726
#
# Velocity S-wave (km/s) = -14.99583 3.24320 -10.35269
# Velocity P-wave (km/s) = 16.49354 6.49478 10.72042
#
# Compressibility (1/GPa) = 0.02680908
#
# Stress axis : x y z
#
# Youngs Moduli (GPa) = 45.35610 70.01463 48.30514
#
# Poissons Ratio (x) = 0.14948 0.41476
# Poissons Ratio (y) = 0.09683 0.21208
# Poissons Ratio (z) = 0.38944 0.30739
#
# Static dielectric constant tensor:
#      x y z
#    x 2.805960 0.000000 0.000000 
#    y 0.000000 2.713370 0.000000 
#    z 0.000000 0.000000 2.468290 
# 
# 
# High freq. dielectric constant tensor:
#      x y z
#    x 1.525790 0.000000 0.000000 
#    y 0.000000 1.481570 0.000000 
#    z 0.000000 0.000000 1.468230 
# 
# From -- ./inp_files/30047.got.cif
#   From: 2010.03.12/outbox.cif.g09.slc.cpg/sg47_16_cif.got.tgz:30047.got - 2010.04.14 03:12:58.
