data_PCOD8195528
_publ_section_title
;
Structure prediction by ZEFSAII (Michael W. Deem and Ramdas Pophale) SiO2 
 PCOD8195528
Probable space group: P M M M
;
_chemical_formula_sum "Si O2"
_cell_formula_units_Z 48
_cell_length_a 15.535949
_cell_length_b 17.906252
_cell_length_c 9.302280
_cell_angle_alpha 90.000000
_cell_angle_beta 90.000000
_cell_angle_gamma 90.000000
_cell_volume 2587.807021
_symmetry_space_group_name_H-M "P M M M"
_symmetry_group_IT_number 47
_symmetry_cell_setting 'orthorhombic'
loop_
_space_group_symop_operation_xyz
x,y,z
-x,-y,z
x,-y,-z
-x,y,-z
-x,-y,-z
x,y,-z
-x,y,z
x,-y,z
loop_
_atom_site_type_symbol
_atom_site_label
_atom_site_fract_x
_atom_site_fract_y
_atom_site_fract_z
Si Si1 0.165152 0.841446 0.170180
Si Si2 0.595889 0.659283 0.333803
Si Si3 0.768491 0.582355 0.670177
Si Si4 0.500000 0.918369 0.829763
Si Si5 0.096760 0.000000 0.170623
Si Si6 0.902758 0.704825 0.666033
Si Si7 0.358052 0.805977 0.169196
O O1 0.103590 0.781789 0.246467
O O2 0.261480 0.822295 0.217880
O O3 0.144115 0.925066 0.225642
O O4 0.151090 0.835222 0.000000
O O5 0.609238 0.679965 0.500000
O O6 0.500000 0.624712 0.308438
O O7 0.670568 0.602326 0.283945
O O8 0.604091 0.733855 0.243855
O O9 0.777399 0.579970 0.500000
O O10 0.789148 0.500000 0.733723
O O11 0.836948 0.642799 0.730793
O O12 0.585527 0.875910 0.778929
O O13 0.500000 0.000000 0.757696
O O14 0.500000 0.925573 0.000000
O O15 0.000000 0.000000 0.231390
O O16 0.096640 0.000000 0.000000
O O17 0.880483 0.721282 0.500000
O O18 0.000000 0.674120 0.682248
O O19 0.365283 0.793105 0.000000
#
# Coordination Sequence:
#
# PCOD8195528 Si02
#       7
#     8   8   8   4   4   8   8
#     4  10  20  33  53  77 102 134 172 211 253 301
#     4  10  19  32  53  77 101 132 167 205 249 298
#     4   9  18  33  52  76 106 135 166 209 256 303
#     4   9  18  30  47  73 104 133 166 210 255 297
#     4   9  18  32  49  72 102 131 164 211 257 297
#     4  10  20  34  54  78 103 134 171 210 254 304
#     4  10  19  31  50  75 100 132 169 206 248 298
#
# _framework density 18.548524
#
# number of rings (size 3 to 8) (size 9 to 14) (size 15 to 20)
#    0.000    2.333    2.500    0.500    1.167    1.667 
#    0.000    3.750    0.000    4.500    0.000    2.333 
#    0.000    0.000    0.000    0.000    0.000    0.000 
#
# Total GULP energy -595081.756052 kJ/mol
# GULP energy per Si atom -12397.536584 kJ/mol
# Density = 1.850631 g / cm^3
# Si number density = 18.548524 Si / 1000 Ang^3
#
#
#
# Elastic Constant Matrix: (Units=GPa)
#
#
# Indices 1 2 3 4 5 6 
#
# 1 126.5100 48.6237 19.5692 0.0000 0.0000 0.0000
# 2 48.6237 136.7314 20.4437 0.0000 0.0000 0.0000
# 3 19.5692 20.4437 19.2742 0.0000 0.0000 0.0000
# 4 0.0000 0.0000 0.0000 20.2014 0.0000 0.0000
# 5 0.0000 0.0000 0.0000 0.0000 19.3992 0.0000
# 6 0.0000 0.0000 0.0000 0.0000 0.0000 28.1298
#
#
#
# Elastic Compliance Matrix: (Units=1/GPa)
#
#
# Indices 1 2 3 4 5 6 
#
# 1 0.010011 -0.002425 -0.007592 0.000000 0.000000 0.000000
# 2 -0.002425 0.009279 -0.007380 0.000000 0.000000 0.000000
# 3 -0.007592 -0.007380 0.067420 0.000000 0.000000 0.000000
# 4 0.000000 0.000000 0.000000 0.049501 0.000000 0.000000
# 5 0.000000 0.000000 0.000000 0.000000 0.051549 0.000000
# 6 0.000000 0.000000 0.000000 0.000000 0.000000 0.035550
#
#
# Mechanical properties :
#
#
# Convention : Reuss Voigt Hill
#
# Bulk Modulus (GPa) = 19.26230 51.08764 35.17497
# Shear Modulus (GPa) = 18.15480 26.47135 22.31308
#
# Velocity S-wave (km/s) = 3.13193 3.78185 3.47213
# Velocity P-wave (km/s) = 4.84624 6.83172 5.92277
#
# Compressibility (1/GPa) = 0.05191488
#
# Stress axis : x y z
#
# Youngs Moduli (GPa) = 99.89127 107.76519 14.83250
#
# Poissons Ratio (x) = 0.26132 0.11261
# Poissons Ratio (y) = 0.24222 0.10947
# Poissons Ratio (z) = 0.75839 0.79536
#
# Static dielectric constant tensor:
#      x y z
#    x 3.735390 0.000000 0.000000 
#    y 0.000000 3.619680 0.000000 
#    z 0.000000 0.000000 3.001380 
# 
# 
# High freq. dielectric constant tensor:
#      x y z
#    x 1.738400 0.000000 0.000000 
#    y 0.000000 1.720470 0.000000 
#    z 0.000000 0.000000 1.672490 
# 
# From -- ./inp_files/6419.got.cif
#   From: 2010.03.12/outbox.cif.g09.slc.cpg/sg47_4_cif.got.tgz:6419.got - 2010.04.14 03:12:58.
