data_PCOD8195552
_publ_section_title
;
Structure prediction by ZEFSAII (Michael W. Deem and Ramdas Pophale) SiO2 
 PCOD8195552
Probable space group: P M M M
;
_chemical_formula_sum "Si O2"
_cell_formula_units_Z 52
_cell_length_a 14.151110
_cell_length_b 9.240312
_cell_length_c 22.932852
_cell_angle_alpha 90.000000
_cell_angle_beta 90.000000
_cell_angle_gamma 90.000000
_cell_volume 2998.715128
_symmetry_space_group_name_H-M "P M M M"
_symmetry_group_IT_number 47
_symmetry_cell_setting 'orthorhombic'
loop_
_space_group_symop_operation_xyz
x,y,z
-x,-y,z
x,-y,-z
-x,y,-z
-x,-y,-z
x,y,-z
-x,y,z
x,-y,z
loop_
_atom_site_type_symbol
_atom_site_label
_atom_site_fract_x
_atom_site_fract_y
_atom_site_fract_z
Si Si1 0.888709 0.166274 0.285473
Si Si2 0.200338 0.668975 0.608462
Si Si3 0.604693 0.665900 0.343407
Si Si4 0.604646 0.168626 0.226235
Si Si5 0.893370 0.330150 0.066031
Si Si6 0.790646 0.832042 0.165689
Si Si7 0.889026 0.830004 0.500000
O O1 0.841691 0.274674 0.331034
O O2 0.854064 0.210633 0.221259
O O3 0.000000 0.187034 0.288618
O O4 0.860042 0.000000 0.299551
O O5 0.175024 0.500000 0.600778
O O6 0.314275 0.693108 0.608199
O O7 0.156531 0.759982 0.556573
O O8 0.500000 0.707765 0.368035
O O9 0.606132 0.500000 0.323585
O O10 0.630565 0.756616 0.286664
O O11 0.500000 0.213730 0.204069
O O12 0.681490 0.211077 0.177684
O O13 0.610882 0.000000 0.239881
O O14 0.886293 0.500000 0.075743
O O15 0.821084 0.254274 0.109047
O O16 0.000000 0.277066 0.078990
O O17 0.865186 0.289245 0.000000
O O18 0.802026 0.000000 0.151416
O O19 0.000000 0.798166 0.500000
O O20 0.867883 0.000000 0.500000
#
# Coordination Sequence:
#
# PCOD8195552 Si02
#       7
#     8   8   8   8   8   8   4
#     4  10  20  33  49  73 107 139 166 205 258 308
#     4  11  22  36  56  80 104 133 172 215 254 300
#     4   9  18  33  53  78 107 136 166 204 254 307
#     4   9  17  30  50  76 105 136 169 207 252 301
#     4   9  19  35  52  71  99 136 176 217 260 306
#     4  10  19  31  50  77 106 134 170 212 255 306
#     4  11  25  43  60  75  98 138 179 213 256 309
#
# _framework density 17.34076
#
# number of rings (size 3 to 8) (size 9 to 14) (size 15 to 20)
#    0.000    2.231    1.538    2.077    0.000    5.846 
#    0.000    1.154    0.000    2.769    0.000    3.231 
#    0.000    0.000    0.000    0.000    0.000    0.000 
#
# Total GULP energy -644725.632837 kJ/mol
# GULP energy per Si atom -12398.569862 kJ/mol
# Density = 1.730129 g / cm^3
# Si number density = 17.340760 Si / 1000 Ang^3
#
#
#
# Elastic Constant Matrix: (Units=GPa)
#
#
# Indices 1 2 3 4 5 6 
#
# 1 123.1374 55.2644 69.2441 0.0000 0.0000 0.0000
# 2 55.2644 67.4092 53.7831 0.0000 0.0000 0.0000
# 3 69.2441 53.7831 101.2398 0.0000 0.0000 0.0000
# 4 0.0000 0.0000 0.0000 -177.8674 0.0000 0.0000
# 5 0.0000 0.0000 0.0000 0.0000 16.1578 0.0000
# 6 0.0000 0.0000 0.0000 0.0000 0.0000 25.0271
#
#
#
# Elastic Compliance Matrix: (Units=1/GPa)
#
#
# Indices 1 2 3 4 5 6 
#
# 1 0.014929 -0.007103 -0.006437 0.000000 0.000000 0.000000
# 2 -0.007103 0.029128 -0.010616 0.000000 0.000000 0.000000
# 3 -0.006437 -0.010616 0.019920 0.000000 0.000000 0.000000
# 4 0.000000 0.000000 0.000000 -0.005622 0.000000 0.000000
# 5 0.000000 0.000000 0.000000 0.000000 0.061890 0.000000
# 6 0.000000 0.000000 0.000000 0.000000 0.000000 0.039957
#
#
# Mechanical properties :
#
#
# Convention : Reuss Voigt Hill
#
# Bulk Modulus (GPa) = 63.83889 72.04103 67.93996
# Shear Modulus (GPa) = 23.39346 -19.77017 1.81164
#
# Velocity S-wave (km/s) = 3.67692 -3.38020 1.02323
# Velocity P-wave (km/s) = 7.41084 5.13811 6.37655
#
# Compressibility (1/GPa) = 0.01566443
#
# Stress axis : x y z
#
# Youngs Moduli (GPa) = 66.98487 34.33104 50.20093
#
# Poissons Ratio (x) = 0.24386 0.32315
# Poissons Ratio (y) = 0.47580 0.53293
# Poissons Ratio (z) = 0.43119 0.36445
#
# Static dielectric constant tensor:
#      x y z
#    x 3.636970 0.000000 0.000000 
#    y 0.000000 3.239110 0.000000 
#    z 0.000000 0.000000 3.526780 
# 
# 
# High freq. dielectric constant tensor:
#      x y z
#    x 1.684430 0.000000 0.000000 
#    y 0.000000 1.671780 0.000000 
#    z 0.000000 0.000000 1.647870 
# 
# From -- ./inp_files/11037.got.cif
#   From: 2010.03.12/outbox.cif.g09.slc.cpg/sg47_6_cif.got.tgz:11037.got - 2010.04.14 03:12:58.
