data_PCOD8195839
_publ_section_title
;
Structure prediction by ZEFSAII (Michael W. Deem and Ramdas Pophale) SiO2 
 PCOD8195839
Probable space group: P M M M
;
_chemical_formula_sum "Si O2"
_cell_formula_units_Z 48
_cell_length_a 15.410307
_cell_length_b 9.109592
_cell_length_c 17.749865
_cell_angle_alpha 90.000000
_cell_angle_beta 90.000000
_cell_angle_gamma 90.000000
_cell_volume 2491.754615
_symmetry_space_group_name_H-M "P M M M"
_symmetry_group_IT_number 47
_symmetry_cell_setting 'orthorhombic'
loop_
_space_group_symop_operation_xyz
x,y,z
-x,-y,z
x,-y,-z
-x,y,-z
-x,-y,-z
x,y,-z
-x,y,z
x,-y,z
loop_
_atom_site_type_symbol
_atom_site_label
_atom_site_fract_x
_atom_site_fract_y
_atom_site_fract_z
Si Si1 0.171497 0.827954 0.855742
Si Si2 0.000000 0.666295 0.857316
Si Si3 0.336134 0.668027 0.913659
Si Si4 0.500000 0.325776 0.178738
Si Si5 0.665042 0.168681 0.587091
Si Si6 0.500000 0.325878 0.350076
Si Si7 0.830385 0.170865 0.681009
Si Si8 0.000000 0.664994 0.678129
O O1 0.252228 0.767498 0.902136
O O2 0.186187 0.791115 0.768084
O O3 0.085204 0.749450 0.887319
O O4 0.161501 0.000000 0.869971
O O5 0.000000 0.670519 0.767730
O O6 0.000000 0.500000 0.888040
O O7 0.314326 0.500000 0.891050
O O8 0.413926 0.733223 0.862817
O O9 0.366168 0.677338 0.000000
O O10 0.500000 0.500000 0.173840
O O11 0.500000 0.267958 0.264223
O O12 0.688735 0.187701 0.500000
O O13 0.583741 0.268320 0.606894
O O14 0.746745 0.224647 0.635159
O O15 0.642644 0.000000 0.606492
O O16 0.500000 0.500000 0.352748
O O17 0.913919 0.254771 0.648070
O O18 0.848326 0.000000 0.668896
O O19 0.000000 0.500000 0.647072
#
# Coordination Sequence:
#
# PCOD8195839 Si02
#       8
#     8   4   8   4   8   4   8   4
#     4  10  19  32  52  78 107 136 169 214 264 308
#     4   9  17  31  52  77 104 135 175 217 254 301
#     4  10  20  35  55  77 103 137 174 210 251 304
#     4   9  19  36  57  80 104 133 172 214 254 301
#     4  10  21  37  55  75 103 140 178 214 254 304
#     4  11  22  35  55  81 106 133 168 214 264 309
#     4   9  18  33  53  76 102 136 177 216 255 303
#     4   9  17  29  50  79 106 134 169 214 264 305
#
# _framework density 19.263532999999999
#
# number of rings (size 3 to 8) (size 9 to 14) (size 15 to 20)
#    0.000    2.333    0.000    2.750    0.000    6.000 
#    0.000    2.083    0.000    6.000    0.000    0.000 
#    0.000    0.000    0.000    0.000    0.000    0.000 
#
# Total GULP energy -595371.390218 kJ/mol
# GULP energy per Si atom -12403.570630 kJ/mol
# Density = 1.921969 g / cm^3
# Si number density = 19.263533 Si / 1000 Ang^3
#
#
#
# Elastic Constant Matrix: (Units=GPa)
#
#
# Indices 1 2 3 4 5 6 
#
# 1 127.3027 45.1383 17.7113 0.0000 0.0000 0.0000
# 2 45.1383 77.5845 17.5992 0.0000 0.0000 0.0000
# 3 17.7113 17.5992 47.9319 0.0000 0.0000 0.0000
# 4 0.0000 0.0000 0.0000 21.6956 0.0000 0.0000
# 5 0.0000 0.0000 0.0000 0.0000 -9.0111 0.0000
# 6 0.0000 0.0000 0.0000 0.0000 0.0000 16.9825
#
#
#
# Elastic Compliance Matrix: (Units=1/GPa)
#
#
# Indices 1 2 3 4 5 6 
#
# 1 0.010023 -0.005445 -0.001704 0.000000 0.000000 0.000000
# 2 -0.005445 0.017018 -0.004237 0.000000 0.000000 0.000000
# 3 -0.001704 -0.004237 0.023048 0.000000 0.000000 0.000000
# 4 0.000000 0.000000 0.000000 0.046092 0.000000 0.000000
# 5 0.000000 0.000000 0.000000 0.000000 -0.110975 0.000000
# 6 0.000000 0.000000 0.000000 0.000000 0.000000 0.058884
#
#
# Mechanical properties :
#
#
# Convention : Reuss Voigt Hill
#
# Bulk Modulus (GPa) = 36.60633 45.96852 41.28743
# Shear Modulus (GPa) = 65.81670 17.42475 41.62073
#
# Velocity S-wave (km/s) = 5.85155 3.01083 4.65326
# Velocity P-wave (km/s) = 8.04353 6.00013 7.09577
#
# Compressibility (1/GPa) = 0.02731768
#
# Stress axis : x y z
#
# Youngs Moduli (GPa) = 99.77068 58.76163 43.38711
#
# Poissons Ratio (x) = 0.31994 0.07395
# Poissons Ratio (y) = 0.54322 0.18381
# Poissons Ratio (z) = 0.17006 0.24895
#
# Static dielectric constant tensor:
#      x y z
#    x 3.692800 0.000000 0.000000 
#    y 0.000000 3.436810 0.000000 
#    z 0.000000 0.000000 3.369790 
# 
# 
# High freq. dielectric constant tensor:
#      x y z
#    x 1.762840 0.000000 0.000000 
#    y 0.000000 1.740790 0.000000 
#    z 0.000000 0.000000 1.732490 
# 
# From -- ./inp_files/9269.got.cif
#   From: 2010.03.12/outbox.cif.g09.slc.cpg/sg47_5_cif.got.tgz:9269.got - 2010.04.14 03:12:58.
