data_PCOD8195787
_publ_section_title
;
Structure prediction by ZEFSAII (Michael W. Deem and Ramdas Pophale) SiO2 
 PCOD8195787
Probable space group: P M M M
;
_chemical_formula_sum "Si O2"
_cell_formula_units_Z 64
_cell_length_a 31.205718
_cell_length_b 14.230519
_cell_length_c 9.138070
_cell_angle_alpha 90.000000
_cell_angle_beta 90.000000
_cell_angle_gamma 90.000000
_cell_volume 4057.975303
_symmetry_space_group_name_H-M "P M M M"
_symmetry_group_IT_number 47
_symmetry_cell_setting 'orthorhombic'
loop_
_space_group_symop_operation_xyz
x,y,z
-x,-y,z
x,-y,-z
-x,y,-z
-x,-y,-z
x,y,-z
-x,y,z
x,-y,z
loop_
_atom_site_type_symbol
_atom_site_label
_atom_site_fract_x
_atom_site_fract_y
_atom_site_fract_z
Si Si1 0.701399 0.797337 0.669171
Si Si2 0.665373 0.396378 0.665831
Si Si3 0.211830 0.108406 0.329171
Si Si4 0.451717 0.219795 0.668344
Si Si5 0.421458 0.393340 0.170681
Si Si6 0.871831 0.887965 0.835898
Si Si7 0.621953 0.890043 0.828909
Si Si8 0.047071 0.111736 0.335480
O O1 0.694816 0.826407 0.500000
O O2 0.700873 0.684235 0.689835
O O3 0.747134 0.833465 0.726437
O O4 0.664194 0.843961 0.762898
O O5 0.647153 0.390136 0.500000
O O6 0.685713 0.500000 0.693696
O O7 0.627178 0.377616 0.778310
O O8 0.203751 0.122025 0.500000
O O9 0.170009 0.148905 0.248655
O O10 0.220030 0.000000 0.288978
O O11 0.436843 0.226228 0.500000
O O12 0.500000 0.180154 0.680246
O O13 0.451584 0.323637 0.738860
O O14 0.420448 0.150422 0.753883
O O15 0.436474 0.500000 0.201393
O O16 0.424322 0.368825 0.000000
O O17 0.915132 0.845869 0.764296
O O18 0.873037 0.000000 0.829945
O O19 0.869510 0.849792 0.000000
O O20 0.623577 0.000000 0.797507
O O21 0.619923 0.866752 0.000000
O O22 0.053786 0.149015 0.500000
O O23 0.000000 0.143504 0.277011
O O24 0.049629 0.000000 0.334614
#
# Coordination Sequence:
#
# PCOD8195787 Si02
#       8
#     8   8   8   8   8   8   8   8
#     4  10  19  32  52  74  94 120 152 184 220 264
#     4   9  17  30  50  75 100 123 147 177 215 261
#     4   9  17  28  41  58  82 114 151 187 221 259
#     4  11  24  40  57  76  97 123 154 185 218 260
#     4  10  20  34  54  79 104 127 149 176 215 262
#     4   9  16  24  34  50  74 104 139 182 229 269
#     4  11  24  39  55  75  97 121 149 185 228 268
#     4   8  13  21  33  48  67  96 136 180 224 268
#
# _framework density 15.771412
#
# number of rings (size 3 to 8) (size 9 to 14) (size 15 to 20)
#    0.000    2.375    1.250    2.250    0.000    6.000 
#    0.000    5.000    0.000    0.000    0.000    0.000 
#    0.000    0.000    0.000    0.000    0.000    0.625 
#
# Total GULP energy -793448.425290 kJ/mol
# GULP energy per Si atom -12397.631645 kJ/mol
# Density = 1.573552 g / cm^3
# Si number density = 15.771412 Si / 1000 Ang^3
#
#
#
# Elastic Constant Matrix: (Units=GPa)
#
#
# Indices 1 2 3 4 5 6 
#
# 1 130.0719 46.0271 57.8157 0.0000 0.0000 0.0000
# 2 46.0271 64.5516 37.9652 0.0000 0.0000 0.0000
# 3 57.8157 37.9652 88.0649 0.0000 0.0000 0.0000
# 4 0.0000 0.0000 0.0000 17.7105 0.0000 0.0000
# 5 0.0000 0.0000 0.0000 0.0000 7.3592 0.0000
# 6 0.0000 0.0000 0.0000 0.0000 0.0000 6.5681
#
#
#
# Elastic Compliance Matrix: (Units=1/GPa)
#
#
# Indices 1 2 3 4 5 6 
#
# 1 0.012067 -0.005285 -0.005644 0.000000 0.000000 0.000000
# 2 -0.005285 0.023068 -0.006475 0.000000 0.000000 0.000000
# 3 -0.005644 -0.006475 0.017852 0.000000 0.000000 0.000000
# 4 0.000000 0.000000 0.000000 0.056464 0.000000 0.000000
# 5 0.000000 0.000000 0.000000 0.000000 0.135884 0.000000
# 6 0.000000 0.000000 0.000000 0.000000 0.000000 0.152251
#
#
# Mechanical properties :
#
#
# Convention : Reuss Voigt Hill
#
# Bulk Modulus (GPa) = 55.00743 62.92270 58.96506
# Shear Modulus (GPa) = 11.40378 15.71960 13.56169
#
# Velocity S-wave (km/s) = 2.69191 3.16050 2.93557
# Velocity P-wave (km/s) = 6.67948 7.30080 6.99704
#
# Compressibility (1/GPa) = 0.01817936
#
# Stress axis : x y z
#
# Youngs Moduli (GPa) = 82.87330 43.35029 56.01630
#
# Poissons Ratio (x) = 0.22909 0.31614
# Poissons Ratio (y) = 0.43795 0.36272
# Poissons Ratio (z) = 0.46771 0.28071
#
# Static dielectric constant tensor:
#      x y z
#    x 3.057540 0.000000 0.000000 
#    y 0.000000 2.875210 0.000000 
#    z 0.000000 0.000000 3.134490 
# 
# 
# High freq. dielectric constant tensor:
#      x y z
#    x 1.596890 0.000000 0.000000 
#    y 0.000000 1.567050 0.000000 
#    z 0.000000 0.000000 1.615070 
# 
# From -- ./inp_files/14310.got.cif
#   From: 2010.03.12/outbox.cif.g09.slc.cpg/sg47_8_cif.got.tgz:14310.got - 2010.04.14 03:12:58.
