data_PCOD8195287
_publ_section_title
;
Structure prediction by ZEFSAII (Michael W. Deem and Ramdas Pophale) SiO2 
 PCOD8195287
Probable space group: P M M M
;
_chemical_formula_sum "Si O2"
_cell_formula_units_Z 52
_cell_length_a 9.055102
_cell_length_b 16.369779
_cell_length_c 20.824886
_cell_angle_alpha 90.000000
_cell_angle_beta 90.000000
_cell_angle_gamma 90.000000
_cell_volume 3086.873238
_symmetry_space_group_name_H-M "P M M M"
_symmetry_group_IT_number 47
_symmetry_cell_setting 'orthorhombic'
loop_
_space_group_symop_operation_xyz
x,y,z
-x,-y,z
x,-y,-z
-x,y,-z
-x,-y,-z
x,y,-z
-x,y,z
x,-y,z
loop_
_atom_site_type_symbol
_atom_site_label
_atom_site_fract_x
_atom_site_fract_y
_atom_site_fract_z
Si Si1 0.826705 0.826115 0.620756
Si Si2 0.675167 0.094607 0.500000
Si Si3 0.175336 0.089402 0.749299
Si Si4 0.171903 0.663077 0.692615
Si Si5 0.675324 0.500000 0.857864
Si Si6 0.675100 0.500000 0.288470
Si Si7 0.826387 0.244179 0.821537
Si Si8 0.675235 0.661361 0.927200
O O1 0.733801 0.855450 0.560579
O O2 0.771007 0.881873 0.679518
O O3 0.793710 0.731325 0.638441
O O4 0.000000 0.838096 0.606750
O O5 0.500000 0.097103 0.500000
O O6 0.730884 0.000000 0.500000
O O7 0.226617 0.152687 0.803772
O O8 0.000000 0.088411 0.747728
O O9 0.241225 0.000000 0.764747
O O10 0.263745 0.581292 0.676768
O O11 0.218241 0.696217 0.762928
O O12 0.000000 0.641023 0.691996
O O13 0.500000 0.500000 0.858601
O O14 0.733241 0.500000 0.784992
O O15 0.736755 0.578331 0.895626
O O16 0.500000 0.500000 0.293288
O O17 0.740688 0.264283 0.886591
O O18 0.000000 0.248677 0.834186
O O19 0.500000 0.664779 0.924577
O O20 0.732698 0.667349 0.000000
#
# Coordination Sequence:
#
# PCOD8195287 Si02
#       8
#     8   4   8   8   4   4   8   8
#     4   9  18  33  54  76  98 131 170 200 233 286
#     4  11  23  35  49  76 113 142 161 193 242 285
#     4   8  14  27  49  74  95 117 152 197 239 280
#     4   9  18  32  49  72 100 127 159 204 250 282
#     4   9  17  29  44  65  90 120 160 195 226 275
#     4  11  19  28  49  74  97 130 167 197 237 292
#     4   9  17  29  46  68  93 119 150 195 245 286
#     4  10  19  31  46  63  89 125 160 195 235 282
#
# _framework density 16.845524000000001
#
# number of rings (size 3 to 8) (size 9 to 14) (size 15 to 20)
#    0.000    2.692    1.538    3.000    0.000    3.077 
#    0.000    2.692    0.000    3.231    0.000    6.462 
#    0.000    0.000    0.000    0.000    0.000    0.000 
#
# Total GULP energy -644635.027839 kJ/mol
# GULP energy per Si atom -12396.827458 kJ/mol
# Density = 1.680718 g / cm^3
# Si number density = 16.845524 Si / 1000 Ang^3
#
#
#
# Elastic Constant Matrix: (Units=GPa)
#
#
# Indices 1 2 3 4 5 6 
#
# 1 39.4723 39.5567 30.3201 0.0000 0.0000 0.0000
# 2 39.5567 147.6222 61.0381 0.0000 0.0000 0.0000
# 3 30.3201 61.0381 101.0610 0.0000 0.0000 0.0000
# 4 0.0000 0.0000 0.0000 24.2649 0.0000 0.0000
# 5 0.0000 0.0000 0.0000 0.0000 24.3571 0.0000
# 6 0.0000 0.0000 0.0000 0.0000 0.0000 22.3567
#
#
#
# Elastic Compliance Matrix: (Units=1/GPa)
#
#
# Indices 1 2 3 4 5 6 
#
# 1 0.038022 -0.007293 -0.007002 0.000000 0.000000 0.000000
# 2 -0.007293 0.010428 -0.004110 0.000000 0.000000 0.000000
# 3 -0.007002 -0.004110 0.014478 0.000000 0.000000 0.000000
# 4 0.000000 0.000000 0.000000 0.041212 0.000000 0.000000
# 5 0.000000 0.000000 0.000000 0.000000 0.041056 0.000000
# 6 0.000000 0.000000 0.000000 0.000000 0.000000 0.044729
#
#
# Mechanical properties :
#
#
# Convention : Reuss Voigt Hill
#
# Bulk Modulus (GPa) = 38.28966 61.10948 49.69957
# Shear Modulus (GPa) = 21.23680 24.67845 22.95762
#
# Velocity S-wave (km/s) = 3.55446 3.83167 3.69566
# Velocity P-wave (km/s) = 6.29482 7.47868 6.91214
#
# Compressibility (1/GPa) = 0.02611671
#
# Stress axis : x y z
#
# Youngs Moduli (GPa) = 26.30090 95.89893 69.06934
#
# Poissons Ratio (x) = 0.69938 0.48365
# Poissons Ratio (y) = 0.19181 0.28388
# Poissons Ratio (z) = 0.18417 0.39415
#
# Static dielectric constant tensor:
#      x y z
#    x 2.842430 0.000000 0.000000 
#    y 0.000000 3.449560 0.000000 
#    z 0.000000 0.000000 3.027840 
# 
# 
# High freq. dielectric constant tensor:
#      x y z
#    x 1.624860 0.000000 0.000000 
#    y 0.000000 1.655630 0.000000 
#    z 0.000000 0.000000 1.630320 
# 
# From -- ./inp_files/26844.got.cif
#   From: 2010.03.12/outbox.cif.g09.slc.cpg/sg47_14_cif.got.tgz:26844.got - 2010.04.14 03:12:58.
