data_PCOD8195357
_publ_section_title
;
Structure prediction by ZEFSAII (Michael W. Deem and Ramdas Pophale) SiO2 
 PCOD8195357
Probable space group: P M M M
;
_chemical_formula_sum "Si O2"
_cell_formula_units_Z 64
_cell_length_a 8.969858
_cell_length_b 19.911498
_cell_length_c 19.760572
_cell_angle_alpha 90.000000
_cell_angle_beta 90.000000
_cell_angle_gamma 90.000000
_cell_volume 3529.303559
_symmetry_space_group_name_H-M "P M M M"
_symmetry_group_IT_number 47
_symmetry_cell_setting 'orthorhombic'
loop_
_space_group_symop_operation_xyz
x,y,z
-x,-y,z
x,-y,-z
-x,y,-z
-x,-y,-z
x,y,-z
-x,y,z
x,-y,z
loop_
_atom_site_type_symbol
_atom_site_label
_atom_site_fract_x
_atom_site_fract_y
_atom_site_fract_z
Si Si1 0.326822 0.296247 0.238811
Si Si2 0.671324 0.923916 0.079340
Si Si3 0.676313 0.111707 0.425643
Si Si4 0.168804 0.073445 0.703646
Si Si5 0.171860 0.425626 0.289478
Si Si6 0.323926 0.603250 0.574515
Si Si7 0.822795 0.172416 0.181298
Si Si8 0.671543 0.254274 0.389651
O O1 0.500000 0.304379 0.220113
O O2 0.255880 0.371034 0.242505
O O3 0.248048 0.247439 0.183874
O O4 0.301225 0.259973 0.309926
O O5 0.500000 0.913594 0.101025
O O6 0.771524 0.867418 0.114875
O O7 0.722042 0.000000 0.098461
O O8 0.691032 0.912597 0.000000
O O9 0.719801 0.083715 0.500000
O O10 0.500000 0.112021 0.416330
O O11 0.742956 0.066746 0.366605
O O12 0.746637 0.186602 0.417438
O O13 0.235475 0.128781 0.754574
O O14 0.000000 0.092678 0.686340
O O15 0.179133 0.000000 0.738586
O O16 0.187522 0.500000 0.256241
O O17 0.238208 0.433557 0.365289
O O18 0.000000 0.403812 0.294856
O O19 0.291535 0.571544 0.500000
O O20 0.500000 0.599643 0.591360
O O21 0.265118 0.680058 0.573133
O O22 0.000000 0.179157 0.180284
O O23 0.500000 0.249486 0.408178
#
# Coordination Sequence:
#
# PCOD8195357 Si02
#       8
#     8   8   8   8   8   8   8   8
#     4  10  19  33  55  77  98 128 170 215 259 309
#     4   9  19  36  57  83 117 155 191 224 259 303
#     4  10  19  31  48  67  87 114 156 211 265 315
#     4  10  22  37  49  65  94 130 165 205 256 312
#     4  10  21  35  49  68  99 134 165 206 264 323
#     4   9  17  29  46  67  90 120 161 206 254 316
#     4  11  21  34  55  81 109 139 176 220 263 312
#     4   8  14  27  46  66  88 113 148 201 260 310
#
# _framework density 18.133887999999999
#
# number of rings (size 3 to 8) (size 9 to 14) (size 15 to 20)
#    0.000    2.375    1.250    3.000    0.000    5.250 
#    0.000    3.125    0.000    1.500    0.000    0.000 
#    0.000    0.500    0.000    5.250    0.000    2.250 
#
# Total GULP energy -793121.287968 kJ/mol
# GULP energy per Si atom -12392.520124 kJ/mol
# Density = 1.809261 g / cm^3
# Si number density = 18.133888 Si / 1000 Ang^3
#
#
#
# Elastic Constant Matrix: (Units=GPa)
#
#
# Indices 1 2 3 4 5 6 
#
# 1 77.6841 43.3158 31.6607 0.0000 0.0000 0.0000
# 2 43.3158 112.8466 33.2577 0.0000 0.0000 0.0000
# 3 31.6607 33.2577 54.5102 0.0000 0.0000 0.0000
# 4 0.0000 0.0000 0.0000 33.4017 0.0000 0.0000
# 5 0.0000 0.0000 0.0000 0.0000 22.3460 0.0000
# 6 0.0000 0.0000 0.0000 0.0000 0.0000 25.8344
#
#
#
# Elastic Compliance Matrix: (Units=1/GPa)
#
#
# Indices 1 2 3 4 5 6 
#
# 1 0.018842 -0.004886 -0.007963 0.000000 0.000000 0.000000
# 2 -0.004886 0.012071 -0.004527 0.000000 0.000000 0.000000
# 3 -0.007963 -0.004527 0.025732 0.000000 0.000000 0.000000
# 4 0.000000 0.000000 0.000000 0.029939 0.000000 0.000000
# 5 0.000000 0.000000 0.000000 0.000000 0.044751 0.000000
# 6 0.000000 0.000000 0.000000 0.000000 0.000000 0.038708
#
#
# Mechanical properties :
#
#
# Convention : Reuss Voigt Hill
#
# Bulk Modulus (GPa) = 45.67473 51.27883 48.47678
# Shear Modulus (GPa) = 23.57454 25.43687 24.50571
#
# Velocity S-wave (km/s) = 3.60950 3.74936 3.68010
# Velocity P-wave (km/s) = 6.52790 6.86170 6.69688
#
# Compressibility (1/GPa) = 0.02189394
#
# Stress axis : x y z
#
# Youngs Moduli (GPa) = 53.07212 82.84203 38.86146
#
# Poissons Ratio (x) = 0.40474 0.30946
# Poissons Ratio (y) = 0.25929 0.17593
# Poissons Ratio (z) = 0.42262 0.37504
#
# Static dielectric constant tensor:
#      x y z
#    x 3.196930 0.000000 0.000000 
#    y 0.000000 3.506310 0.000000 
#    z 0.000000 0.000000 3.170720 
# 
# 
# High freq. dielectric constant tensor:
#      x y z
#    x 1.688970 0.000000 0.000000 
#    y 0.000000 1.709460 0.000000 
#    z 0.000000 0.000000 1.659180 
# 
# From -- ./inp_files/30170.got.cif
#   From: 2010.03.12/outbox.cif.g09.slc.cpg/sg47_16_cif.got.tgz:30170.got - 2010.04.14 03:12:58.
