data_PCOD8195666
_publ_section_title
;
Structure prediction by ZEFSAII (Michael W. Deem and Ramdas Pophale) SiO2 
 PCOD8195666
Probable space group: P M M M
;
_chemical_formula_sum "Si O2"
_cell_formula_units_Z 44
_cell_length_a 9.157302
_cell_length_b 31.833684
_cell_length_c 7.903096
_cell_angle_alpha 90.000000
_cell_angle_beta 90.000000
_cell_angle_gamma 90.000000
_cell_volume 2303.836716
_symmetry_space_group_name_H-M "P M M M"
_symmetry_group_IT_number 47
_symmetry_cell_setting 'orthorhombic'
loop_
_space_group_symop_operation_xyz
x,y,z
-x,-y,z
x,-y,-z
-x,y,-z
-x,-y,-z
x,y,-z
-x,y,z
x,-y,z
loop_
_atom_site_type_symbol
_atom_site_label
_atom_site_fract_x
_atom_site_fract_y
_atom_site_fract_z
Si Si1 0.335076 0.500000 0.798502
Si Si2 0.673598 0.047276 0.187807
Si Si3 0.674514 0.803868 0.500000
Si Si4 0.663092 0.662066 0.694237
Si Si5 0.673393 0.750579 0.186344
Si Si6 0.325537 0.898803 0.500000
Si Si7 0.167439 0.581599 0.199544
O O1 0.500000 0.500000 0.729193
O O2 0.253848 0.458701 0.728918
O O3 0.331107 0.500000 0.000000
O O4 0.500000 0.047772 0.194276
O O5 0.736456 0.078159 0.331977
O O6 0.729585 0.000000 0.224069
O O7 0.725775 0.061901 0.000000
O O8 0.500000 0.803293 0.500000
O O9 0.737404 0.780974 0.331809
O O10 0.733738 0.851351 0.500000
O O11 0.655331 0.675314 0.500000
O O12 0.500000 0.650235 0.760302
O O13 0.727499 0.702542 0.791766
O O14 0.769878 0.623182 0.716583
O O15 0.500000 0.750438 0.202645
O O16 0.722927 0.766604 0.000000
O O17 0.500000 0.899734 0.500000
O O18 0.000000 0.576441 0.253081
O O19 0.186245 0.585338 0.000000
#
# Coordination Sequence:
#
# PCOD8195666 Si02
#       7
#     4   8   4   8   8   4   8
#     4   9  17  31  52  75 100 131 166 200 234 282
#     4   8  13  20  28  38  54  81 122 168 212 264
#     4   9  16  25  34  53  79 100 130 173 224 287
#     4  10  19  32  50  70  92 119 157 200 236 282
#     4   9  16  27  43  60  81 109 140 180 228 276
#     4   9  15  20  29  42  62  89 118 160 218 277
#     4  10  20  33  50  74 102 129 158 195 241 289
#
# _framework density 19.098575
#
# number of rings (size 3 to 8) (size 9 to 14) (size 15 to 20)
#    0.000    2.818    0.909    2.182    0.000    5.091 
#    0.000    4.091    0.000    2.727    0.000    0.000 
#    0.000    0.000    0.000    0.000    0.000    0.000 
#
# Total GULP energy -545423.175219 kJ/mol
# GULP energy per Si atom -12395.981255 kJ/mol
# Density = 1.905511 g / cm^3
# Si number density = 19.098575 Si / 1000 Ang^3
#
#
#
# Elastic Constant Matrix: (Units=GPa)
#
#
# Indices 1 2 3 4 5 6 
#
# 1 45.4409 25.0709 19.5382 0.0000 0.0000 0.0000
# 2 25.0709 153.4376 81.9400 0.0000 0.0000 0.0000
# 3 19.5382 81.9400 129.0136 0.0000 0.0000 0.0000
# 4 0.0000 0.0000 0.0000 28.7286 0.0000 0.0000
# 5 0.0000 0.0000 0.0000 0.0000 8.6099 0.0000
# 6 0.0000 0.0000 0.0000 0.0000 0.0000 0.7818
#
#
#
# Elastic Compliance Matrix: (Units=1/GPa)
#
#
# Indices 1 2 3 4 5 6 
#
# 1 0.024449 -0.003053 -0.001764 0.000000 0.000000 0.000000
# 2 -0.003053 0.010244 -0.006044 0.000000 0.000000 0.000000
# 3 -0.001764 -0.006044 0.011857 0.000000 0.000000 0.000000
# 4 0.000000 0.000000 0.000000 0.034809 0.000000 0.000000
# 5 0.000000 0.000000 0.000000 0.000000 0.116145 0.000000
# 6 0.000000 0.000000 0.000000 0.000000 0.000000 1.279049
#
#
# Mechanical properties :
#
#
# Convention : Reuss Voigt Hill
#
# Bulk Modulus (GPa) = 40.27544 64.55449 52.41496
# Shear Modulus (GPa) = 3.31884 21.04693 12.18289
#
# Velocity S-wave (km/s) = 1.31967 3.32326 2.52840
# Velocity P-wave (km/s) = 4.84314 6.97133 6.00231
#
# Compressibility (1/GPa) = 0.02482903
#
# Stress axis : x y z
#
# Youngs Moduli (GPa) = 40.90090 97.62160 84.34064
#
# Poissons Ratio (x) = 0.29805 0.14874
# Poissons Ratio (y) = 0.12487 0.50972
# Poissons Ratio (z) = 0.07213 0.58999
#
# Static dielectric constant tensor:
#      x y z
#    x 2.869130 0.000000 0.000000 
#    y 0.000000 3.587580 0.000000 
#    z 0.000000 0.000000 3.647390 
# 
# 
# High freq. dielectric constant tensor:
#      x y z
#    x 1.668870 0.000000 0.000000 
#    y 0.000000 1.745060 0.000000 
#    z 0.000000 0.000000 1.749050 
# 
# From -- ./inp_files/2333.got.cif
#   From: 2010.03.12/outbox.cif.g09.slc.cpg/sg47_2_cif.got.tgz:2333.got - 2010.04.14 03:12:58.
