data_PCOD8195723
_publ_section_title
;
Structure prediction by ZEFSAII (Michael W. Deem and Ramdas Pophale) SiO2 
 PCOD8195723
Probable space group: P M M M
;
_chemical_formula_sum "Si O2"
_cell_formula_units_Z 64
_cell_length_a 20.532910
_cell_length_b 18.116937
_cell_length_c 9.204152
_cell_angle_alpha 90.000000
_cell_angle_beta 90.000000
_cell_angle_gamma 90.000000
_cell_volume 3423.884136
_symmetry_space_group_name_H-M "P M M M"
_symmetry_group_IT_number 47
_symmetry_cell_setting 'orthorhombic'
loop_
_space_group_symop_operation_xyz
x,y,z
-x,-y,z
x,-y,-z
-x,y,-z
-x,-y,-z
x,y,-z
-x,y,z
x,-y,z
loop_
_atom_site_type_symbol
_atom_site_label
_atom_site_fract_x
_atom_site_fract_y
_atom_site_fract_z
Si Si1 0.574342 0.847808 0.669449
Si Si2 0.929227 0.725878 0.332611
Si Si3 0.293131 0.919299 0.671120
Si Si4 0.636897 0.417148 0.665384
Si Si5 0.756149 0.363993 0.832445
Si Si6 0.101223 0.582383 0.166479
Si Si7 0.791412 0.781855 0.672777
Si Si8 0.425078 0.294012 0.840905
O O1 0.575055 0.828301 0.500000
O O2 0.500000 0.872836 0.713826
O O3 0.629910 0.907661 0.708058
O O4 0.600795 0.776543 0.754199
O O5 0.918732 0.707398 0.500000
O O6 0.933460 0.646699 0.255123
O O7 0.868838 0.778237 0.282277
O O8 0.000000 0.765137 0.305687
O O9 0.284393 0.920003 0.500000
O O10 0.242791 0.857138 0.731308
O O11 0.274075 0.000000 0.735453
O O12 0.647494 0.390567 0.500000
O O13 0.609528 0.500000 0.669198
O O14 0.703761 0.414540 0.753563
O O15 0.584634 0.366401 0.745191
O O16 0.821977 0.408962 0.815523
O O17 0.755816 0.285212 0.752334
O O18 0.738248 0.350755 0.000000
O O19 0.081558 0.500000 0.221617
O O20 0.079916 0.591565 0.000000
O O21 0.782302 0.773783 0.500000
O O22 0.500000 0.282338 0.866536
O O23 0.390719 0.299998 0.000000
#
# Coordination Sequence:
#
# PCOD8195723 Si02
#       8
#     8   8   8   8   8   8   8   8
#     4   9  17  30  50  75 102 130 158 192 236 289
#     4   9  18  31  46  66  92 124 164 207 249 291
#     4   9  17  29  48  75 102 127 158 195 235 284
#     4  11  23  35  48  68  94 125 162 205 251 296
#     4  10  19  32  51  72  95 124 160 201 243 289
#     4   9  18  31  46  67  96 127 158 196 243 291
#     4   9  17  31  51  71  94 127 164 202 243 289
#     4  10  21  36  53  71  92 122 161 204 248 294
#
# _framework density 18.692219999999999
#
# number of rings (size 3 to 8) (size 9 to 14) (size 15 to 20)
#    0.000    2.500    0.000    2.250    0.000    5.000 
#    0.000    3.750    0.000    1.875    0.000    4.375 
#    0.000    0.000    0.000    6.250    0.000    6.500 
#
# Total GULP energy -792983.913171 kJ/mol
# GULP energy per Si atom -12390.373643 kJ/mol
# Density = 1.864968 g / cm^3
# Si number density = 18.692220 Si / 1000 Ang^3
#
#
#
# Elastic Constant Matrix: (Units=GPa)
#
#
# Indices 1 2 3 4 5 6 
#
# 1 78.8314 42.2400 12.7991 0.0000 0.0000 0.0000
# 2 42.2400 112.2780 29.6832 0.0000 0.0000 0.0000
# 3 12.7991 29.6832 61.4496 0.0000 0.0000 0.0000
# 4 0.0000 0.0000 0.0000 8.0947 0.0000 0.0000
# 5 0.0000 0.0000 0.0000 0.0000 15.3245 0.0000
# 6 0.0000 0.0000 0.0000 0.0000 0.0000 12.7041
#
#
#
# Elastic Compliance Matrix: (Units=1/GPa)
#
#
# Indices 1 2 3 4 5 6 
#
# 1 0.015901 -0.005854 -0.000484 0.000000 0.000000 0.000000
# 2 -0.005854 0.012366 -0.004754 0.000000 0.000000 0.000000
# 3 -0.000484 -0.004754 0.018671 0.000000 0.000000 0.000000
# 4 0.000000 0.000000 0.000000 0.123538 0.000000 0.000000
# 5 0.000000 0.000000 0.000000 0.000000 0.065255 0.000000
# 6 0.000000 0.000000 0.000000 0.000000 0.000000 0.078715
#
#
# Mechanical properties :
#
#
# Convention : Reuss Voigt Hill
#
# Bulk Modulus (GPa) = 40.39921 46.88927 43.64424
# Shear Modulus (GPa) = 14.49780 18.41377 16.45578
#
# Velocity S-wave (km/s) = 2.78799 3.14204 2.97030
# Velocity P-wave (km/s) = 5.65894 6.18891 5.92985
#
# Compressibility (1/GPa) = 0.02475296
#
# Stress axis : x y z
#
# Youngs Moduli (GPa) = 62.89057 80.86965 53.55985
#
# Poissons Ratio (x) = 0.47341 0.02593
# Poissons Ratio (y) = 0.36816 0.25462
# Poissons Ratio (z) = 0.03045 0.38444
#
# Static dielectric constant tensor:
#      x y z
#    x 3.602420 0.000000 0.000000 
#    y 0.000000 3.461170 0.000000 
#    z 0.000000 0.000000 3.608860 
# 
# 
# High freq. dielectric constant tensor:
#      x y z
#    x 1.732100 0.000000 0.000000 
#    y 0.000000 1.703130 0.000000 
#    z 0.000000 0.000000 1.713410 
# 
# From -- ./inp_files/9998.got.cif
#   From: 2010.03.12/outbox.cif.g09.slc.cpg/sg47_5_cif.got.tgz:9998.got - 2010.04.14 03:12:58.
