data_PCOD8195887
_publ_section_title
;
Structure prediction by ZEFSAII (Michael W. Deem and Ramdas Pophale) SiO2 
 PCOD8195887
Probable space group: P M M M
;
_chemical_formula_sum "Si O2"
_cell_formula_units_Z 40
_cell_length_a 27.543169
_cell_length_b 8.790585
_cell_length_c 8.160070
_cell_angle_alpha 90.000000
_cell_angle_beta 90.000000
_cell_angle_gamma 90.000000
_cell_volume 1975.720785
_symmetry_space_group_name_H-M "P M M M"
_symmetry_group_IT_number 47
_symmetry_cell_setting 'orthorhombic'
loop_
_space_group_symop_operation_xyz
x,y,z
-x,-y,z
x,-y,-z
-x,y,-z
-x,-y,-z
x,y,-z
-x,y,z
x,-y,z
loop_
_atom_site_type_symbol
_atom_site_label
_atom_site_fract_x
_atom_site_fract_y
_atom_site_fract_z
Si Si1 0.057177 0.325306 0.500000
Si Si2 0.107404 0.178631 0.185613
Si Si3 0.799967 0.323667 0.687439
Si Si4 0.699476 0.676730 0.187424
Si Si5 0.500000 0.327257 0.807788
Si Si6 0.400113 0.672477 0.691347
O O1 0.073696 0.500000 0.500000
O O2 0.076119 0.254506 0.329864
O O3 0.000000 0.304491 0.500000
O O4 0.163215 0.230307 0.199835
O O5 0.103899 0.000000 0.211946
O O6 0.089276 0.221700 0.000000
O O7 0.816121 0.302831 0.500000
O O8 0.801577 0.500000 0.741200
O O9 0.745365 0.257963 0.711485
O O10 0.693987 0.500000 0.232133
O O11 0.647826 0.755005 0.233861
O O12 0.711482 0.706525 0.000000
O O13 0.500000 0.500000 0.738909
O O14 0.549314 0.245044 0.743054
O O15 0.500000 0.320705 0.000000
O O16 0.393836 0.676843 0.500000
O O17 0.402831 0.500000 0.760347
#
# Coordination Sequence:
#
# PCOD8195887 Si02
#       6
#     4   8   8   8   4   8
#     4  11  25  45  69  97 127 161 203 250 295 340
#     4  11  24  41  63  92 126 164 203 244 295 353
#     4  10  19  32  53  80 109 145 189 236 287 343
#     4   9  16  25  38  59  88 122 163 215 272 330
#     4   9  15  21  29  41  61  97 146 199 258 325
#     4   9  15  22  31  45  69 104 150 204 261 324
#
# _framework density 20.245775999999999
#
# number of rings (size 3 to 8) (size 9 to 14) (size 15 to 20)
#    0.000    2.200    1.000    3.000    0.000    9.600 
#    0.000    2.000    0.000    0.000    0.000    0.000 
#    0.000    0.000    0.000    0.900    0.000   17.600 
#
# Total GULP energy -495727.026016 kJ/mol
# GULP energy per Si atom -12393.175650 kJ/mol
# Density = 2.019970 g / cm^3
# Si number density = 20.245776 Si / 1000 Ang^3
#
#
#
# Elastic Constant Matrix: (Units=GPa)
#
#
# Indices 1 2 3 4 5 6 
#
# 1 126.3917 37.7044 57.3499 0.0000 0.0000 0.0000
# 2 37.7044 51.6425 42.0971 0.0000 0.0000 0.0000
# 3 57.3499 42.0971 113.9227 0.0000 0.0000 0.0000
# 4 0.0000 0.0000 0.0000 18.0005 0.0000 0.0000
# 5 0.0000 0.0000 0.0000 0.0000 33.7230 0.0000
# 6 0.0000 0.0000 0.0000 0.0000 0.0000 -1.6112
#
#
#
# Elastic Compliance Matrix: (Units=1/GPa)
#
#
# Indices 1 2 3 4 5 6 
#
# 1 0.011115 -0.005086 -0.003716 0.000000 0.000000 0.000000
# 2 -0.005086 0.030038 -0.008539 0.000000 0.000000 0.000000
# 3 -0.003716 -0.008539 0.013804 0.000000 0.000000 0.000000
# 4 0.000000 0.000000 0.000000 0.055554 0.000000 0.000000
# 5 0.000000 0.000000 0.000000 0.000000 0.029653 0.000000
# 6 0.000000 0.000000 0.000000 0.000000 0.000000 -0.620649
#
#
# Mechanical properties :
#
#
# Convention : Reuss Voigt Hill
#
# Bulk Modulus (GPa) = 49.32321 62.91775 56.12048
# Shear Modulus (GPa) = -11.38843 20.34281 4.47719
#
# Velocity S-wave (km/s) = -2.37430 3.17329 1.48870
# Velocity P-wave (km/s) = 4.11080 6.67613 5.54389
#
# Compressibility (1/GPa) = 0.02027443
#
# Stress axis : x y z
#
# Youngs Moduli (GPa) = 89.96550 33.29074 72.44188
#
# Poissons Ratio (x) = 0.16932 0.26921
# Poissons Ratio (y) = 0.45757 0.61862
# Poissons Ratio (z) = 0.33433 0.28429
#
# Static dielectric constant tensor:
#      x y z
#    x 4.094210 0.000000 0.000000 
#    y 0.000000 3.077270 0.000000 
#    z 0.000000 0.000000 3.683590 
# 
# 
# High freq. dielectric constant tensor:
#      x y z
#    x 1.816060 0.000000 0.000000 
#    y 0.000000 1.710540 0.000000 
#    z 0.000000 0.000000 1.803070 
# 
# From -- ./inp_files/13085.got.cif
#   From: 2010.03.12/outbox.cif.g09.slc.cpg/sg47_7_cif.got.tgz:13085.got - 2010.04.14 03:12:58.
