data_PCOD8195232
_publ_section_title
;
Structure prediction by ZEFSAII (Michael W. Deem and Ramdas Pophale) SiO2 
 PCOD8195232
Probable space group: P M M M
;
_chemical_formula_sum "Si O2"
_cell_formula_units_Z 48
_cell_length_a 9.547456
_cell_length_b 7.598205
_cell_length_c 34.197777
_cell_angle_alpha 90.000000
_cell_angle_beta 90.000000
_cell_angle_gamma 90.000000
_cell_volume 2480.827390
_symmetry_space_group_name_H-M "P M M M"
_symmetry_group_IT_number 47
_symmetry_cell_setting 'orthorhombic'
loop_
_space_group_symop_operation_xyz
x,y,z
-x,-y,z
x,-y,-z
-x,y,-z
-x,-y,-z
x,y,-z
-x,y,z
x,-y,z
loop_
_atom_site_type_symbol
_atom_site_label
_atom_site_fract_x
_atom_site_fract_y
_atom_site_fract_z
Si Si1 0.663084 0.000000 0.675147
Si Si2 0.659980 0.208939 0.114369
Si Si3 0.156928 0.291202 0.457039
Si Si4 0.156867 0.790920 0.043320
Si Si5 0.158633 0.302464 0.187651
Si Si6 0.836563 0.000000 0.246337
Si Si7 0.662824 0.298146 0.385129
O O1 0.750771 0.000000 0.714254
O O2 0.703374 0.824084 0.651350
O O3 0.500000 0.000000 0.685980
O O4 0.500000 0.274271 0.114354
O O5 0.734127 0.283013 0.075162
O O6 0.738442 0.289301 0.151219
O O7 0.669623 0.000000 0.116461
O O8 0.204727 0.221708 0.500000
O O9 0.160620 0.500000 0.457349
O O10 0.258806 0.221342 0.423242
O O11 0.000000 0.224080 0.448095
O O12 0.000000 0.724270 0.053490
O O13 0.159077 0.000000 0.043823
O O14 0.200305 0.723416 0.000000
O O15 0.165679 0.500000 0.204511
O O16 0.000000 0.254338 0.174232
O O17 0.207157 0.172067 0.221825
O O18 0.000000 0.000000 0.256722
O O19 0.500000 0.283569 0.394847
O O20 0.705816 0.500000 0.375355
#
# Coordination Sequence:
#
# PCOD8195232 Si02
#       7
#     4   8   8   8   8   4   8
#     4  10  22  38  55  77 106 136 169 212 260 314
#     4  10  19  30  49  78 111 145 179 218 266 316
#     4   8  14  26  46  73 104 137 174 217 262 304
#     4   8  14  25  43  69 102 143 188 226 261 306
#     4  10  21  38  60  83 107 138 175 216 265 319
#     4  10  22  40  60  83 108 133 168 217 264 317
#     4   9  18  33  52  74 102 138 178 215 254 304
#
# _framework density 19.348382999999998
#
# number of rings (size 3 to 8) (size 9 to 14) (size 15 to 20)
#    0.000    2.833    0.833    1.500    0.000    3.667 
#    0.000    3.750    0.000    3.000    0.000    3.500 
#    0.000    0.000    0.000    0.000    0.000    0.000 
#
# Total GULP energy -595056.829662 kJ/mol
# GULP energy per Si atom -12397.017285 kJ/mol
# Density = 1.930435 g / cm^3
# Si number density = 19.348383 Si / 1000 Ang^3
#
#
#
# Elastic Constant Matrix: (Units=GPa)
#
#
# Indices 1 2 3 4 5 6 
#
# 1 104.2882 38.2194 93.7386 0.0000 0.0000 0.0000
# 2 38.2194 78.3813 56.4547 0.0000 0.0000 0.0000
# 3 93.7386 56.4547 178.4218 0.0000 0.0000 0.0000
# 4 0.0000 0.0000 0.0000 0.3407 0.0000 0.0000
# 5 0.0000 0.0000 0.0000 0.0000 19.9801 0.0000
# 6 0.0000 0.0000 0.0000 0.0000 0.0000 12.1233
#
#
#
# Elastic Compliance Matrix: (Units=1/GPa)
#
#
# Indices 1 2 3 4 5 6 
#
# 1 0.018577 -0.002627 -0.008929 0.000000 0.000000 0.000000
# 2 -0.002627 0.016896 -0.003966 0.000000 0.000000 0.000000
# 3 -0.008929 -0.003966 0.011550 0.000000 0.000000 0.000000
# 4 0.000000 0.000000 0.000000 2.935421 0.000000 0.000000
# 5 0.000000 0.000000 0.000000 0.000000 0.050050 0.000000
# 6 0.000000 0.000000 0.000000 0.000000 0.000000 0.082485
#
#
# Mechanical properties :
#
#
# Convention : Reuss Voigt Hill
#
# Bulk Modulus (GPa) = 62.57927 81.99076 72.28501
# Shear Modulus (GPa) = 1.58662 18.00072 9.79367
#
# Velocity S-wave (km/s) = 0.90654 3.05347 2.25227
# Velocity P-wave (km/s) = 5.78873 7.40943 6.64864
#
# Compressibility (1/GPa) = 0.01597973
#
# Stress axis : x y z
#
# Youngs Moduli (GPa) = 53.82955 59.18728 86.57760
#
# Poissons Ratio (x) = 0.15551 0.77302
# Poissons Ratio (y) = 0.14144 0.34333
# Poissons Ratio (z) = 0.48062 0.23471
#
# Static dielectric constant tensor:
#      x y z
#    x 3.610910 0.000000 0.000000 
#    y 0.000000 3.491710 0.000000 
#    z 0.000000 0.000000 3.581090 
# 
# 
# High freq. dielectric constant tensor:
#      x y z
#    x 1.746560 0.000000 0.000000 
#    y 0.000000 1.742920 0.000000 
#    z 0.000000 0.000000 1.747050 
# 
# From -- ./inp_files/34066.got.cif
#   From: 2010.03.12/outbox.cif.g09.slc.cpg/sg47_18_cif.got.tgz:34066.got - 2010.04.14 03:12:58.
