data_PCOD8195955
_publ_section_title
;
Structure prediction by ZEFSAII (Michael W. Deem and Ramdas Pophale) SiO2 
 PCOD8195955
Probable space group: P M M M
;
_chemical_formula_sum "Si O2"
_cell_formula_units_Z 64
_cell_length_a 19.299267
_cell_length_b 18.967251
_cell_length_c 9.866630
_cell_angle_alpha 90.000000
_cell_angle_beta 90.000000
_cell_angle_gamma 90.000000
_cell_volume 3611.719786
_symmetry_space_group_name_H-M "P M M M"
_symmetry_group_IT_number 47
_symmetry_cell_setting 'orthorhombic'
loop_
_space_group_symop_operation_xyz
x,y,z
-x,-y,z
x,-y,-z
-x,y,-z
-x,-y,-z
x,y,-z
-x,y,z
x,-y,z
loop_
_atom_site_type_symbol
_atom_site_label
_atom_site_fract_x
_atom_site_fract_y
_atom_site_fract_z
Si Si1 0.921815 0.082671 0.851565
Si Si2 0.177141 0.320491 0.657116
Si Si3 0.576628 0.583046 0.149058
Si Si4 0.820919 0.158254 0.340705
Si Si5 0.683551 0.920504 0.338999
Si Si6 0.661610 0.670892 0.342926
Si Si7 0.421951 0.807204 0.660986
Si Si8 0.080392 0.581879 0.842435
O O1 0.882064 0.117169 0.729226
O O2 0.000000 0.110146 0.843484
O O3 0.918611 0.000000 0.830492
O O4 0.890995 0.102842 0.000000
O O5 0.157735 0.334014 0.500000
O O6 0.168030 0.239357 0.697924
O O7 0.257309 0.335439 0.684372
O O8 0.128965 0.369503 0.749689
O O9 0.500000 0.612687 0.182496
O O10 0.574942 0.500000 0.149564
O O11 0.629490 0.606338 0.263003
O O12 0.599866 0.610148 0.000000
O O13 0.826539 0.146739 0.500000
O O14 0.748342 0.126164 0.287336
O O15 0.685630 0.924720 0.500000
O O16 0.613560 0.880528 0.290952
O O17 0.685339 0.000000 0.277790
O O18 0.644189 0.661931 0.500000
O O19 0.627011 0.743285 0.288239
O O20 0.425317 0.805354 0.500000
O O21 0.500000 0.802099 0.721598
O O22 0.096225 0.500000 0.810171
O O23 0.000000 0.598670 0.810158
O O24 0.096161 0.597810 0.000000
#
# Coordination Sequence:
#
# PCOD8195955 Si02
#       8
#     8   8   8   8   8   8   8   8
#     4   9  19  35  52  72 101 135 171 214 262 310
#     4  10  21  35  53  78 111 142 172 215 262 308
#     4   9  19  35  52  72 101 135 171 214 262 310
#     4  10  19  33  51  74 105 139 174 214 258 310
#     4   9  16  27  45  69  98 133 171 212 259 306
#     4  10  19  33  51  74 105 139 174 214 258 310
#     4   9  16  27  45  69  98 133 171 212 259 306
#     4   9  20  40  62  82 106 137 175 218 260 308
#
# _framework density 17.720092000000001
#
# number of rings (size 3 to 8) (size 9 to 14) (size 15 to 20)
#    0.000    2.625    1.250    1.875    0.000    4.750 
#    0.000    8.125    0.000    0.000    0.000    0.000 
#    0.000    0.000    0.000    5.250    0.000    5.000 
#
# Total GULP energy -793247.500079 kJ/mol
# GULP energy per Si atom -12394.492189 kJ/mol
# Density = 1.767976 g / cm^3
# Si number density = 17.720092 Si / 1000 Ang^3
#
#
#
# Elastic Constant Matrix: (Units=GPa)
#
#
# Indices 1 2 3 4 5 6 
#
# 1 112.4883 65.5567 51.2793 0.0000 0.0000 0.0000
# 2 65.5567 62.1208 22.0300 0.0000 0.0000 0.0000
# 3 51.2793 22.0300 33.3942 0.0000 0.0000 0.0000
# 4 0.0000 0.0000 0.0000 17.9733 0.0000 0.0000
# 5 0.0000 0.0000 0.0000 0.0000 15.4396 0.0000
# 6 0.0000 0.0000 0.0000 0.0000 0.0000 37.8013
#
#
#
# Elastic Compliance Matrix: (Units=1/GPa)
#
#
# Indices 1 2 3 4 5 6 
#
# 1 0.079421 -0.052952 -0.087025 0.000000 0.000000 0.000000
# 2 -0.052952 0.056319 0.044159 0.000000 0.000000 0.000000
# 3 -0.087025 0.044159 0.134447 0.000000 0.000000 0.000000
# 4 0.000000 0.000000 0.000000 0.055638 0.000000 0.000000
# 5 0.000000 0.000000 0.000000 0.000000 0.064768 0.000000
# 6 0.000000 0.000000 0.000000 0.000000 0.000000 0.026454
#
#
# Mechanical properties :
#
#
# Convention : Reuss Voigt Hill
#
# Bulk Modulus (GPa) = 12.73061 53.97060 33.35060
# Shear Modulus (GPa) = 7.87565 18.85199 13.36382
#
# Velocity S-wave (km/s) = 2.11048 3.26525 2.74918
# Velocity P-wave (km/s) = 3.62474 6.68874 5.37949
#
# Compressibility (1/GPa) = 0.07855083
#
# Stress axis : x y z
#
# Youngs Moduli (GPa) = 12.59107 17.75610 7.43786
#
# Poissons Ratio (x) = 0.94023 0.64728
# Poissons Ratio (y) = 0.66673 -0.32845
# Poissons Ratio (z) = 1.09574 -0.78410
#
# Static dielectric constant tensor:
#      x y z
#    x 3.423670 0.000000 0.000000 
#    y 0.000000 3.317630 0.000000 
#    z 0.000000 0.000000 3.056780 
# 
# 
# High freq. dielectric constant tensor:
#      x y z
#    x 1.691140 0.000000 0.000000 
#    y 0.000000 1.688200 0.000000 
#    z 0.000000 0.000000 1.655680 
# 
# From -- ./inp_files/11572.got.cif
#   From: 2010.03.12/outbox.cif.g09.slc.cpg/sg47_6_cif.got.tgz:11572.got - 2010.04.14 03:12:58.
