data_PCOD8195375
_publ_section_title
;
Structure prediction by ZEFSAII (Michael W. Deem and Ramdas Pophale) SiO2 
 PCOD8195375
Probable space group: P M M M
;
_chemical_formula_sum "Si O2"
_cell_formula_units_Z 52
_cell_length_a 21.541950
_cell_length_b 9.145316
_cell_length_c 15.729790
_cell_angle_alpha 90.000000
_cell_angle_beta 90.000000
_cell_angle_gamma 90.000000
_cell_volume 3098.893525
_symmetry_space_group_name_H-M "P M M M"
_symmetry_group_IT_number 47
_symmetry_cell_setting 'orthorhombic'
loop_
_space_group_symop_operation_xyz
x,y,z
-x,-y,z
x,-y,-z
-x,y,-z
-x,-y,-z
x,y,-z
-x,y,z
x,-y,z
loop_
_atom_site_type_symbol
_atom_site_label
_atom_site_fract_x
_atom_site_fract_y
_atom_site_fract_z
Si Si1 0.072281 0.668602 0.845990
Si Si2 0.133723 0.173604 0.000000
Si Si3 0.348632 0.333687 0.655669
Si Si4 0.835219 0.167581 0.740921
Si Si5 0.570938 0.674051 0.500000
Si Si6 0.274037 0.826364 0.000000
Si Si7 0.211828 0.338966 0.596273
Si Si8 0.299140 0.169940 0.185812
O O1 0.086786 0.500000 0.866837
O O2 0.095750 0.771569 0.920198
O O3 0.109375 0.722929 0.764046
O O4 0.000000 0.693251 0.829689
O O5 0.203813 0.236617 0.000000
O O6 0.134475 0.000000 0.000000
O O7 0.365904 0.500000 0.678644
O O8 0.398555 0.266352 0.588472
O O9 0.285168 0.320789 0.604438
O O10 0.344220 0.251027 0.746964
O O11 0.821635 0.206284 0.643630
O O12 0.773508 0.200251 0.795929
O O13 0.856025 0.000000 0.750308
O O14 0.579172 0.500000 0.500000
O O15 0.500000 0.725358 0.500000
O O16 0.309612 0.776759 0.912767
O O17 0.269073 0.000000 0.000000
O O18 0.191157 0.324625 0.500000
O O19 0.192994 0.500000 0.632009
O O20 0.314566 0.000000 0.195642
#
# Coordination Sequence:
#
# PCOD8195375 Si02
#       8
#     8   4   8   8   4   4   8   8
#     4  11  23  36  48  65  91 122 157 196 240 293
#     4  11  20  34  51  68  92 121 157 197 237 289
#     4   9  16  28  45  70 100 128 164 201 230 277
#     4  10  19  31  48  69  91 118 156 198 241 290
#     4   9  16  28  49  75 105 141 172 197 232 277
#     4   9  16  30  48  67  95 125 156 194 239 293
#     4   9  16  28  47  69  96 126 152 187 238 291
#     4   9  17  30  47  67  94 127 158 195 244 290
#
# _framework density 16.780183000000001
#
# number of rings (size 3 to 8) (size 9 to 14) (size 15 to 20)
#    0.000    2.385    2.308    1.385    0.000    3.077 
#    0.000    0.769    0.000    1.385    0.000    3.769 
#    0.000    4.308    0.000    0.000    0.000    0.000 
#
# Total GULP energy -644402.312844 kJ/mol
# GULP energy per Si atom -12392.352170 kJ/mol
# Density = 1.674199 g / cm^3
# Si number density = 16.780183 Si / 1000 Ang^3
#
#
#
# Elastic Constant Matrix: (Units=GPa)
#
#
# Indices 1 2 3 4 5 6 
#
# 1 66.0159 31.9680 48.9913 0.0000 0.0000 0.0000
# 2 31.9680 56.9010 43.3521 0.0000 0.0000 0.0000
# 3 48.9913 43.3521 129.6087 0.0000 0.0000 0.0000
# 4 0.0000 0.0000 0.0000 28.3833 0.0000 0.0000
# 5 0.0000 0.0000 0.0000 0.0000 23.2180 0.0000
# 6 0.0000 0.0000 0.0000 0.0000 0.0000 14.2431
#
#
#
# Elastic Compliance Matrix: (Units=1/GPa)
#
#
# Indices 1 2 3 4 5 6 
#
# 1 0.023940 -0.008797 -0.006106 0.000000 0.000000 0.000000
# 2 -0.008797 0.026818 -0.005645 0.000000 0.000000 0.000000
# 3 -0.006106 -0.005645 0.011912 0.000000 0.000000 0.000000
# 4 0.000000 0.000000 0.000000 0.035232 0.000000 0.000000
# 5 0.000000 0.000000 0.000000 0.000000 0.043070 0.000000
# 6 0.000000 0.000000 0.000000 0.000000 0.000000 0.070209
#
#
# Mechanical properties :
#
#
# Convention : Reuss Voigt Hill
#
# Bulk Modulus (GPa) = 46.35640 55.68314 51.01977
# Shear Modulus (GPa) = 19.27020 21.71648 20.49334
#
# Velocity S-wave (km/s) = 3.39247 3.60137 3.49848
# Velocity P-wave (km/s) = 6.55978 7.10978 6.84031
#
# Compressibility (1/GPa) = 0.02157200
#
# Stress axis : x y z
#
# Youngs Moduli (GPa) = 41.77172 37.28908 83.95024
#
# Poissons Ratio (x) = 0.32804 0.51264
# Poissons Ratio (y) = 0.36748 0.47388
# Poissons Ratio (z) = 0.25508 0.21049
#
# Static dielectric constant tensor:
#      x y z
#    x 2.877610 0.000000 0.000000 
#    y 0.000000 3.121570 0.000000 
#    z 0.000000 0.000000 3.035820 
# 
# 
# High freq. dielectric constant tensor:
#      x y z
#    x 1.604710 0.000000 0.000000 
#    y 0.000000 1.635830 0.000000 
#    z 0.000000 0.000000 1.655160 
# 
# From -- ./inp_files/25074.got.cif
#   From: 2010.03.12/outbox.cif.g09.slc.cpg/sg47_13_cif.got.tgz:25074.got - 2010.04.14 03:12:58.
