data_PCOD8195928
_publ_section_title
;
Structure prediction by ZEFSAII (Michael W. Deem and Ramdas Pophale) SiO2 
 PCOD8195928
Probable space group: P M M M
;
_chemical_formula_sum "Si O2"
_cell_formula_units_Z 64
_cell_length_a 23.595156
_cell_length_b 14.984268
_cell_length_c 9.593537
_cell_angle_alpha 90.000000
_cell_angle_beta 90.000000
_cell_angle_gamma 90.000000
_cell_volume 3391.853920
_symmetry_space_group_name_H-M "P M M M"
_symmetry_group_IT_number 47
_symmetry_cell_setting 'orthorhombic'
loop_
_space_group_symop_operation_xyz
x,y,z
-x,-y,z
x,-y,-z
-x,y,-z
-x,-y,-z
x,y,-z
-x,y,z
x,-y,z
loop_
_atom_site_type_symbol
_atom_site_label
_atom_site_fract_x
_atom_site_fract_y
_atom_site_fract_z
Si Si1 0.435798 0.400320 0.334776
Si Si2 0.062889 0.105188 0.655691
Si Si3 0.936162 0.603154 0.345087
Si Si4 0.843326 0.652539 0.153596
Si Si5 0.705918 0.101134 0.836485
Si Si6 0.170018 0.147204 0.845636
Si Si7 0.343282 0.739331 0.335178
Si Si8 0.749616 0.403397 0.655823
O O1 0.430016 0.402804 0.500000
O O2 0.500000 0.379628 0.288252
O O3 0.418217 0.500000 0.278748
O O4 0.397465 0.317719 0.279918
O O5 0.073086 0.144348 0.500000
O O6 0.114707 0.133917 0.752480
O O7 0.000000 0.136967 0.709309
O O8 0.062887 0.000000 0.648281
O O9 0.911155 0.617851 0.500000
O O10 0.932407 0.500000 0.302983
O O11 0.903181 0.661218 0.231861
O O12 0.000000 0.637787 0.340724
O O13 0.815497 0.749060 0.144213
O O14 0.802777 0.588950 0.241957
O O15 0.852037 0.611432 0.000000
O O16 0.771913 0.104046 0.785824
O O17 0.665488 0.168277 0.748926
O O18 0.683882 0.000000 0.811088
O O19 0.702433 0.126792 0.000000
O O20 0.156950 0.108123 0.000000
O O21 0.347700 0.760923 0.500000
O O22 0.291097 0.675614 0.298739
O O23 0.772214 0.385323 0.500000
O O24 0.718146 0.500000 0.661980
#
# Coordination Sequence:
#
# PCOD8195928 Si02
#       8
#     8   8   8   8   8   8   8   8
#     4   8  14  27  51  85 123 158 188 220 264 317
#     4   9  19  35  53  74  98 122 154 203 264 327
#     4   9  19  36  54  69  89 123 166 208 254 312
#     4  11  22  34  49  71  99 128 164 212 259 308
#     4  10  21  38  57  75 103 145 187 228 278 330
#     4  10  21  36  52  71  98 131 170 214 263 323
#     4  10  19  32  54  84 113 141 181 229 267 306
#     4  10  20  33  50  74 106 141 172 206 254 313
#
# _framework density 18.868738
#
# number of rings (size 3 to 8) (size 9 to 14) (size 15 to 20)
#    0.000    2.375    1.250    2.625    0.000    7.000 
#    0.000    3.750    0.000    1.875    0.000    3.500 
#    0.000    0.000    0.000    0.000    0.000    0.000 
#
# Total GULP energy -793031.550683 kJ/mol
# GULP energy per Si atom -12391.117979 kJ/mol
# Density = 1.882579 g / cm^3
# Si number density = 18.868738 Si / 1000 Ang^3
#
#
#
# Elastic Constant Matrix: (Units=GPa)
#
#
# Indices 1 2 3 4 5 6 
#
# 1 103.4916 44.7171 50.6540 0.0000 0.0000 0.0000
# 2 44.7171 101.5347 36.9652 0.0000 0.0000 0.0000
# 3 50.6540 36.9652 84.8145 0.0000 0.0000 0.0000
# 4 0.0000 0.0000 0.0000 21.5819 0.0000 0.0000
# 5 0.0000 0.0000 0.0000 0.0000 10.8601 0.0000
# 6 0.0000 0.0000 0.0000 0.0000 0.0000 30.2098
#
#
#
# Elastic Compliance Matrix: (Units=1/GPa)
#
#
# Indices 1 2 3 4 5 6 
#
# 1 0.014872 -0.003942 -0.007164 0.000000 0.000000 0.000000
# 2 -0.003942 0.012751 -0.003203 0.000000 0.000000 0.000000
# 3 -0.007164 -0.003203 0.017465 0.000000 0.000000 0.000000
# 4 0.000000 0.000000 0.000000 0.046335 0.000000 0.000000
# 5 0.000000 0.000000 0.000000 0.000000 0.092080 0.000000
# 6 0.000000 0.000000 0.000000 0.000000 0.000000 0.033102
#
#
# Mechanical properties :
#
#
# Convention : Reuss Voigt Hill
#
# Bulk Modulus (GPa) = 60.71595 61.61262 61.16428
# Shear Modulus (GPa) = 19.94302 23.03066 21.48684
#
# Velocity S-wave (km/s) = 3.25458 3.49746 3.37820
# Velocity P-wave (km/s) = 6.80962 7.00241 6.90669
#
# Compressibility (1/GPa) = 0.01647014
#
# Stress axis : x y z
#
# Youngs Moduli (GPa) = 67.23892 78.42528 57.25635
#
# Poissons Ratio (x) = 0.30913 0.41020
# Poissons Ratio (y) = 0.26503 0.18341
# Poissons Ratio (z) = 0.48172 0.25122
#
# Static dielectric constant tensor:
#      x y z
#    x 3.448790 0.000000 0.000000 
#    y 0.000000 3.497880 0.000000 
#    z 0.000000 0.000000 3.418040 
# 
# 
# High freq. dielectric constant tensor:
#      x y z
#    x 1.714250 0.000000 0.000000 
#    y 0.000000 1.735460 0.000000 
#    z 0.000000 0.000000 1.710870 
# 
# From -- ./inp_files/12696.got.cif
#   From: 2010.03.12/outbox.cif.g09.slc.cpg/sg47_7_cif.got.tgz:12696.got - 2010.04.14 03:12:58.
