data_PCOD8195626
_publ_section_title
;
Structure prediction by ZEFSAII (Michael W. Deem and Ramdas Pophale) SiO2 
 PCOD8195626
Probable space group: P M M M
;
_chemical_formula_sum "Si O2"
_cell_formula_units_Z 52
_cell_length_a 17.504491
_cell_length_b 9.269633
_cell_length_c 17.327881
_cell_angle_alpha 90.000000
_cell_angle_beta 90.000000
_cell_angle_gamma 90.000000
_cell_volume 2811.625565
_symmetry_space_group_name_H-M "P M M M"
_symmetry_group_IT_number 47
_symmetry_cell_setting 'orthorhombic'
loop_
_space_group_symop_operation_xyz
x,y,z
-x,-y,z
x,-y,-z
-x,y,-z
-x,-y,-z
x,y,-z
-x,y,z
x,-y,z
loop_
_atom_site_type_symbol
_atom_site_label
_atom_site_fract_x
_atom_site_fract_y
_atom_site_fract_z
Si Si1 0.590075 0.329721 0.500000
Si Si2 0.415310 0.171203 0.085635
Si Si3 0.000000 0.839921 0.758848
Si Si4 0.000000 0.778385 0.582704
Si Si5 0.146045 0.339922 0.213282
Si Si6 0.290606 0.168300 0.203974
Si Si7 0.162486 0.344808 0.392317
Si Si8 0.305787 0.168331 0.616018
O O1 0.607353 0.500000 0.500000
O O2 0.500000 0.298780 0.500000
O O3 0.625984 0.256197 0.423926
O O4 0.500000 0.232778 0.102543
O O5 0.358714 0.230032 0.151120
O O6 0.417651 0.000000 0.089594
O O7 0.388399 0.220387 0.000000
O O8 0.929129 0.755618 0.794396
O O9 0.000000 0.860938 0.664886
O O10 0.000000 0.000000 0.793459
O O11 0.076943 0.685150 0.579347
O O12 0.000000 0.867574 0.500000
O O13 0.134958 0.500000 0.176266
O O14 0.216328 0.255211 0.174963
O O15 0.165347 0.357431 0.301682
O O16 0.312523 0.195871 0.292753
O O17 0.274098 0.000000 0.189886
O O18 0.186662 0.500000 0.427446
O O19 0.223979 0.223796 0.417505
O O20 0.312360 0.000000 0.595339
#
# Coordination Sequence:
#
# PCOD8195626 Si02
#       8
#     4   8   4   4   8   8   8   8
#     4  11  25  43  59  72  89 120 165 213 262 317
#     4   8  14  26  47  78 114 145 170 200 242 295
#     4  10  19  32  48  66  93 127 165 214 263 303
#     4  10  21  31  43  69  97 128 165 207 248 302
#     4   9  17  30  48  69  95 129 168 208 250 297
#     4   9  17  30  51  79 106 134 171 210 247 296
#     4   9  18  32  49  68  94 129 167 205 244 295
#     4  10  21  36  54  76 101 129 164 213 267 307
#
# _framework density 18.49464
#
# number of rings (size 3 to 8) (size 9 to 14) (size 15 to 20)
#    0.000    2.692    0.000    2.077    1.077    8.154 
#    0.000    1.538    0.000    0.923    0.000    1.615 
#    0.000    4.308    0.000    0.000    0.000    0.000 
#
# Total GULP energy -644204.005290 kJ/mol
# GULP energy per Si atom -12388.538563 kJ/mol
# Density = 1.845255 g / cm^3
# Si number density = 18.494640 Si / 1000 Ang^3
#
#
#
# Elastic Constant Matrix: (Units=GPa)
#
#
# Indices 1 2 3 4 5 6 
#
# 1 165.5196 74.4103 59.9007 0.0000 0.0000 0.0000
# 2 74.4103 128.4710 28.7262 0.0000 0.0000 0.0000
# 3 59.9007 28.7262 71.5695 0.0000 0.0000 0.0000
# 4 0.0000 0.0000 0.0000 1.8757 0.0000 0.0000
# 5 0.0000 0.0000 0.0000 0.0000 -340.9567 0.0000
# 6 0.0000 0.0000 0.0000 0.0000 0.0000 23.0890
#
#
#
# Elastic Compliance Matrix: (Units=1/GPa)
#
#
# Indices 1 2 3 4 5 6 
#
# 1 0.010673 -0.004597 -0.007088 0.000000 0.000000 0.000000
# 2 -0.004597 0.010531 -0.000379 0.000000 0.000000 0.000000
# 3 -0.007088 -0.000379 0.020057 0.000000 0.000000 0.000000
# 4 0.000000 0.000000 0.000000 0.533140 0.000000 0.000000
# 5 0.000000 0.000000 0.000000 0.000000 -0.002933 0.000000
# 6 0.000000 0.000000 0.000000 0.000000 0.000000 0.043311
#
#
# Mechanical properties :
#
#
# Convention : Reuss Voigt Hill
#
# Bulk Modulus (GPa) = 58.36785 76.84828 67.60807
# Shear Modulus (GPa) = 7.75651 -49.69688 -20.97018
#
# Velocity S-wave (km/s) = 2.05013 -5.18934 -3.37092
# Velocity P-wave (km/s) = 6.10179 2.39502 4.63508
#
# Compressibility (1/GPa) = 0.01713272
#
# Stress axis : x y z
#
# Youngs Moduli (GPa) = 93.69135 94.95468 49.85770
#
# Poissons Ratio (x) = 0.43652 0.35339
# Poissons Ratio (y) = 0.43071 0.01892
# Poissons Ratio (z) = 0.66408 0.03603
#
# Static dielectric constant tensor:
#      x y z
#    x 3.597780 0.000000 0.000000 
#    y 0.000000 3.499500 0.000000 
#    z 0.000000 0.000000 3.237100 
# 
# 
# High freq. dielectric constant tensor:
#      x y z
#    x 1.722960 0.000000 0.000000 
#    y 0.000000 1.707160 0.000000 
#    z 0.000000 0.000000 1.684180 
# 
# From -- ./inp_files/28574.got.cif
#   From: 2010.03.12/outbox.cif.g09.slc.cpg/sg47_15_cif.got.tgz:28574.got - 2010.04.14 03:12:58.
