data_PCOD8195675
_publ_section_title
;
Structure prediction by ZEFSAII (Michael W. Deem and Ramdas Pophale) SiO2 
 PCOD8195675
Probable space group: P M M M
;
_chemical_formula_sum "Si O2"
_cell_formula_units_Z 52
_cell_length_a 18.320808
_cell_length_b 18.094570
_cell_length_c 9.079123
_cell_angle_alpha 90.000000
_cell_angle_beta 90.000000
_cell_angle_gamma 90.000000
_cell_volume 3009.794125
_symmetry_space_group_name_H-M "P M M M"
_symmetry_group_IT_number 47
_symmetry_cell_setting 'orthorhombic'
loop_
_space_group_symop_operation_xyz
x,y,z
-x,-y,z
x,-y,-z
-x,y,-z
-x,-y,-z
x,y,-z
-x,y,z
x,-y,z
loop_
_atom_site_type_symbol
_atom_site_label
_atom_site_fract_x
_atom_site_fract_y
_atom_site_fract_z
Si Si1 0.713376 0.582215 0.328507
Si Si2 0.582065 0.145738 0.173043
Si Si3 0.864103 0.662294 0.673478
Si Si4 0.281352 0.085030 0.669274
Si Si5 0.354279 0.294026 0.837855
Si Si6 0.000000 0.586978 0.827574
Si Si7 0.202891 0.208823 0.834482
O O1 0.699633 0.579559 0.500000
O O2 0.707860 0.500000 0.260272
O O3 0.792710 0.614160 0.291401
O O4 0.649077 0.633553 0.263516
O O5 0.500000 0.118588 0.206798
O O6 0.638006 0.095219 0.262674
O O7 0.589031 0.232191 0.220955
O O8 0.601119 0.138798 0.000000
O O9 0.878884 0.669252 0.500000
O O10 0.929606 0.621122 0.751907
O O11 0.856387 0.744525 0.741645
O O12 0.283905 0.111125 0.500000
O O13 0.219306 0.131353 0.753953
O O14 0.258755 0.000000 0.683309
O O15 0.276382 0.255057 0.840862
O O16 0.377115 0.320990 0.000000
O O17 0.000000 0.500000 0.799065
O O18 0.000000 0.606081 0.000000
O O19 0.173476 0.193830 0.000000
#
# Coordination Sequence:
#
# PCOD8195675 Si02
#       7
#     8   8   8   8   8   4   8
#     4   9  17  28  43  64  88 114 147 189 235 280
#     4   9  18  32  48  65  88 121 158 193 233 286
#     4  10  19  32  50  70  95 128 164 200 240 286
#     4  10  20  32  47  71 101 127 154 192 235 279
#     4   8  15  27  43  63  84 109 146 191 233 274
#     4  11  23  35  47  69 104 141 174 207 241 279
#     4   9  17  31  50  70  93 122 158 197 236 280
#
# _framework density 17.276928999999999
#
# number of rings (size 3 to 8) (size 9 to 14) (size 15 to 20)
#    0.000    2.692    0.000    3.000    0.000    7.692 
#    0.000    1.538    0.000    0.462    0.000    3.769 
#    0.000    4.308    0.000    0.000    0.000    0.000 
#
# Total GULP energy -644629.327459 kJ/mol
# GULP energy per Si atom -12396.717836 kJ/mol
# Density = 1.723761 g / cm^3
# Si number density = 17.276929 Si / 1000 Ang^3
#
#
#
# Elastic Constant Matrix: (Units=GPa)
#
#
# Indices 1 2 3 4 5 6 
#
# 1 36.2395 24.0049 29.9422 0.0000 0.0000 0.0000
# 2 24.0049 103.2531 54.1055 0.0000 0.0000 0.0000
# 3 29.9422 54.1055 95.0765 0.0000 0.0000 0.0000
# 4 0.0000 0.0000 0.0000 30.2528 0.0000 0.0000
# 5 0.0000 0.0000 0.0000 0.0000 23.3325 0.0000
# 6 0.0000 0.0000 0.0000 0.0000 0.0000 21.0572
#
#
#
# Elastic Compliance Matrix: (Units=1/GPa)
#
#
# Indices 1 2 3 4 5 6 
#
# 1 0.038255 -0.003677 -0.009955 0.000000 0.000000 0.000000
# 2 -0.003677 0.014154 -0.006896 0.000000 0.000000 0.000000
# 3 -0.009955 -0.006896 0.017577 0.000000 0.000000 0.000000
# 4 0.000000 0.000000 0.000000 0.033055 0.000000 0.000000
# 5 0.000000 0.000000 0.000000 0.000000 0.042859 0.000000
# 6 0.000000 0.000000 0.000000 0.000000 0.000000 0.047490
#
#
# Mechanical properties :
#
#
# Convention : Reuss Voigt Hill
#
# Bulk Modulus (GPa) = 34.56740 50.07493 42.32117
# Shear Modulus (GPa) = 20.48428 23.36292 21.92360
#
# Velocity S-wave (km/s) = 3.44705 3.68130 3.56610
# Velocity P-wave (km/s) = 5.99117 6.86410 6.44244
#
# Compressibility (1/GPa) = 0.02892899
#
# Stress axis : x y z
#
# Youngs Moduli (GPa) = 26.14030 70.65332 56.89100
#
# Poissons Ratio (x) = 0.25981 0.56635
# Poissons Ratio (y) = 0.09613 0.39234
# Poissons Ratio (z) = 0.26023 0.48725
#
# Static dielectric constant tensor:
#      x y z
#    x 3.076880 0.000000 0.000000 
#    y 0.000000 3.353560 0.000000 
#    z 0.000000 0.000000 3.376630 
# 
# 
# High freq. dielectric constant tensor:
#      x y z
#    x 1.628440 0.000000 0.000000 
#    y 0.000000 1.665220 0.000000 
#    z 0.000000 0.000000 1.675230 
# 
# From -- ./inp_files/9503.got.cif
#   From: 2010.03.12/outbox.cif.g09.slc.cpg/sg47_5_cif.got.tgz:9503.got - 2010.04.14 03:12:58.
