data_PCOD8195950
_publ_section_title
;
Structure prediction by ZEFSAII (Michael W. Deem and Ramdas Pophale) SiO2 
 PCOD8195950
Probable space group: P M M M
;
_chemical_formula_sum "Si O2"
_cell_formula_units_Z 44
_cell_length_a 19.020163
_cell_length_b 8.846847
_cell_length_c 14.481494
_cell_angle_alpha 90.000000
_cell_angle_beta 90.000000
_cell_angle_gamma 90.000000
_cell_volume 2436.778867
_symmetry_space_group_name_H-M "P M M M"
_symmetry_group_IT_number 47
_symmetry_cell_setting 'orthorhombic'
loop_
_space_group_symop_operation_xyz
x,y,z
-x,-y,z
x,-y,-z
-x,y,-z
-x,-y,-z
x,y,-z
-x,y,z
x,-y,z
loop_
_atom_site_type_symbol
_atom_site_label
_atom_site_fract_x
_atom_site_fract_y
_atom_site_fract_z
Si Si1 0.500000 0.165441 0.655829
Si Si2 0.856777 0.679405 0.393809
Si Si3 0.500000 0.323416 0.158980
Si Si4 0.733786 0.325345 0.741436
Si Si5 0.000000 0.168551 0.390888
Si Si6 0.646682 0.173259 0.105561
Si Si7 0.350435 0.168969 0.600000
O O1 0.500000 0.295620 0.732279
O O2 0.433752 0.179248 0.589192
O O3 0.500000 0.000000 0.705825
O O4 0.839910 0.733511 0.500000
O O5 0.859574 0.500000 0.392410
O O6 0.800679 0.738611 0.317205
O O7 0.930858 0.743217 0.357787
O O8 0.500000 0.500000 0.136704
O O9 0.571621 0.254829 0.116921
O O10 0.743472 0.500000 0.765338
O O11 0.712466 0.240710 0.835751
O O12 0.669416 0.298160 0.672205
O O13 0.000000 0.160989 0.500000
O O14 0.000000 0.000000 0.348384
O O15 0.636269 0.000000 0.135624
O O16 0.670824 0.188091 0.000000
O O17 0.316733 0.203783 0.500000
O O18 0.327348 0.000000 0.633006
#
# Coordination Sequence:
#
# PCOD8195950 Si02
#       7
#     4   8   4   8   4   8   8
#     4  10  19  33  51  69  97 135 173 211 257 310
#     4   9  18  33  52  76 111 151 180 206 249 303
#     4  12  23  36  57  81 101 126 167 223 279 325
#     4  11  22  35  53  78 107 137 173 218 264 311
#     4   9  17  29  49  79 110 141 182 223 249 282
#     4  11  24  41  59  77 100 134 173 217 274 332
#     4  10  20  33  50  71  99 138 178 214 255 307
#
# _framework density 18.056623999999999
#
# number of rings (size 3 to 8) (size 9 to 14) (size 15 to 20)
#    0.000    1.727    1.818    3.273    0.000    7.273 
#    0.000    1.818    0.000    1.636    0.000    0.636 
#    0.000    5.091    0.000    0.000    0.000    0.000 
#
# Total GULP energy -545183.802002 kJ/mol
# GULP energy per Si atom -12390.540955 kJ/mol
# Density = 1.801553 g / cm^3
# Si number density = 18.056624 Si / 1000 Ang^3
#
#
#
# Elastic Constant Matrix: (Units=GPa)
#
#
# Indices 1 2 3 4 5 6 
#
# 1 114.3435 37.4606 41.2220 0.0000 0.0000 0.0000
# 2 37.4606 74.4838 34.8106 0.0000 0.0000 0.0000
# 3 41.2220 34.8106 97.5343 0.0000 0.0000 0.0000
# 4 0.0000 0.0000 0.0000 18.3463 0.0000 0.0000
# 5 0.0000 0.0000 0.0000 0.0000 15.3813 0.0000
# 6 0.0000 0.0000 0.0000 0.0000 0.0000 23.5364
#
#
#
# Elastic Compliance Matrix: (Units=1/GPa)
#
#
# Indices 1 2 3 4 5 6 
#
# 1 0.011289 -0.004138 -0.003294 0.000000 0.000000 0.000000
# 2 -0.004138 0.017630 -0.004543 0.000000 0.000000 0.000000
# 3 -0.003294 -0.004543 0.013267 0.000000 0.000000 0.000000
# 4 0.000000 0.000000 0.000000 0.054507 0.000000 0.000000
# 5 0.000000 0.000000 0.000000 0.000000 0.065014 0.000000
# 6 0.000000 0.000000 0.000000 0.000000 0.000000 0.042487
#
#
# Mechanical properties :
#
#
# Convention : Reuss Voigt Hill
#
# Bulk Modulus (GPa) = 54.84139 57.03867 55.94003
# Shear Modulus (GPa) = 21.34711 22.97736 22.16224
#
# Velocity S-wave (km/s) = 3.44209 3.57111 3.50719
# Velocity P-wave (km/s) = 6.79964 6.97575 6.88826
#
# Compressibility (1/GPa) = 0.01823440
#
# Stress axis : x y z
#
# Youngs Moduli (GPa) = 88.58294 56.72055 75.37677
#
# Poissons Ratio (x) = 0.23471 0.24831
# Poissons Ratio (y) = 0.36655 0.34247
# Poissons Ratio (z) = 0.29182 0.25771
#
# Static dielectric constant tensor:
#      x y z
#    x 3.381340 0.000000 0.000000 
#    y 0.000000 3.369220 0.000000 
#    z 0.000000 0.000000 3.235200 
# 
# 
# High freq. dielectric constant tensor:
#      x y z
#    x 1.685060 0.000000 0.000000 
#    y 0.000000 1.700390 0.000000 
#    z 0.000000 0.000000 1.679660 
# 
# From -- ./inp_files/20973.got.cif
#   From: 2010.03.12/outbox.cif.g09.slc.cpg/sg47_11_cif.got.tgz:20973.got - 2010.04.14 03:12:58.
