data_PCOD8195169
_publ_section_title
;
Structure prediction by ZEFSAII (Michael W. Deem and Ramdas Pophale) SiO2 
 PCOD8195169
Probable space group: P M M M
;
_chemical_formula_sum "Si O2"
_cell_formula_units_Z 64
_cell_length_a 14.112819
_cell_length_b 9.323496
_cell_length_c 28.681234
_cell_angle_alpha 90.000000
_cell_angle_beta 90.000000
_cell_angle_gamma 90.000000
_cell_volume 3773.900044
_symmetry_space_group_name_H-M "P M M M"
_symmetry_group_IT_number 47
_symmetry_cell_setting 'orthorhombic'
loop_
_space_group_symop_operation_xyz
x,y,z
-x,-y,z
x,-y,-z
-x,y,-z
-x,-y,-z
x,y,-z
-x,y,z
x,-y,z
loop_
_atom_site_type_symbol
_atom_site_label
_atom_site_fract_x
_atom_site_fract_y
_atom_site_fract_z
Si Si1 0.737856 0.670631 0.618988
Si Si2 0.611745 0.161850 0.552012
Si Si3 0.103775 0.329568 0.551243
Si Si4 0.890812 0.169423 0.201464
Si Si5 0.393454 0.338692 0.211124
Si Si6 0.393493 0.829575 0.948232
Si Si7 0.776130 0.664717 0.277248
Si Si8 0.281061 0.830863 0.138958
O O1 0.725283 0.500000 0.618638
O O2 0.646319 0.738700 0.594616
O O3 0.824810 0.731176 0.588949
O O4 0.761321 0.725798 0.670872
O O5 0.643339 0.216578 0.500000
O O6 0.500000 0.165029 0.554831
O O7 0.649146 0.000000 0.559410
O O8 0.134515 0.275995 0.500000
O O9 0.103217 0.500000 0.552467
O O10 0.000000 0.270044 0.563673
O O11 0.854390 0.245400 0.248581
O O12 0.823753 0.218008 0.157390
O O13 0.000000 0.214024 0.191022
O O14 0.882840 0.000000 0.209377
O O15 0.500000 0.304021 0.227078
O O16 0.384424 0.500000 0.191054
O O17 0.327712 0.319390 0.255769
O O18 0.363114 0.228391 0.171740
O O19 0.500000 0.776361 0.933975
O O20 0.310474 0.775184 0.912844
O O21 0.394184 0.000000 0.948681
O O22 0.368325 0.771411 0.000000
O O23 0.811230 0.500000 0.277583
O O24 0.286872 0.000000 0.140921
#
# Coordination Sequence:
#
# PCOD8195169 Si02
#       8
#     8   8   8   8   8   8   8   8
#     4  10  19  30  48  72  92 112 144 186 226 264
#     4   9  19  35  51  67  91 124 157 185 217 261
#     4   8  14  25  41  62  87 110 131 161 206 257
#     4   9  18  32  48  65  87 117 153 193 232 265
#     4   9  17  29  43  59  85 118 145 175 220 268
#     4   8  13  21  36  62  93 119 144 180 227 274
#     4   9  19  32  45  66  92 116 145 181 223 272
#     4   9  16  27  45  66  86 112 151 192 222 258
#
# _framework density 16.958583999999998
#
# number of rings (size 3 to 8) (size 9 to 14) (size 15 to 20)
#    0.000    3.125    0.000    1.875    0.000    3.500 
#    0.000    3.125    0.000    1.125    0.000    6.125 
#    0.000    0.000    0.000    6.250    0.000    6.750 
#
# Total GULP energy -792943.295327 kJ/mol
# GULP energy per Si atom -12389.738989 kJ/mol
# Density = 1.691999 g / cm^3
# Si number density = 16.958584 Si / 1000 Ang^3
#
#
#
# Elastic Constant Matrix: (Units=GPa)
#
#
# Indices 1 2 3 4 5 6 
#
# 1 110.7066 24.3408 65.1969 0.0000 0.0000 0.0000
# 2 24.3408 19.7846 26.3205 0.0000 0.0000 0.0000
# 3 65.1969 26.3205 134.2326 0.0000 0.0000 0.0000
# 4 0.0000 0.0000 0.0000 17.6363 0.0000 0.0000
# 5 0.0000 0.0000 0.0000 0.0000 48.6676 0.0000
# 6 0.0000 0.0000 0.0000 0.0000 0.0000 18.2185
#
#
#
# Elastic Compliance Matrix: (Units=1/GPa)
#
#
# Indices 1 2 3 4 5 6 
#
# 1 0.014305 -0.011305 -0.004731 0.000000 0.000000 0.000000
# 2 -0.011305 0.077317 -0.009670 0.000000 0.000000 0.000000
# 3 -0.004731 -0.009670 0.011644 0.000000 0.000000 0.000000
# 4 0.000000 0.000000 0.000000 0.056701 0.000000 0.000000
# 5 0.000000 0.000000 0.000000 0.000000 0.020548 0.000000
# 6 0.000000 0.000000 0.000000 0.000000 0.000000 0.054889
#
#
# Mechanical properties :
#
#
# Convention : Reuss Voigt Hill
#
# Bulk Modulus (GPa) = 19.28494 55.16005 37.22250
# Shear Modulus (GPa) = 16.44201 26.82884 21.63543
#
# Velocity S-wave (km/s) = 3.11712 3.98178 3.57568
# Velocity P-wave (km/s) = 4.93475 7.33051 6.24852
#
# Compressibility (1/GPa) = 0.05185392
#
# Stress axis : x y z
#
# Youngs Moduli (GPa) = 69.90701 12.93381 85.88342
#
# Poissons Ratio (x) = 0.14622 0.40633
# Poissons Ratio (y) = 0.79029 0.83046
# Poissons Ratio (z) = 0.33074 0.12506
#
# Static dielectric constant tensor:
#      x y z
#    x 3.341710 0.000000 0.000000 
#    y 0.000000 2.935930 0.000000 
#    z 0.000000 0.000000 3.430050 
# 
# 
# High freq. dielectric constant tensor:
#      x y z
#    x 1.652500 0.000000 0.000000 
#    y 0.000000 1.623310 0.000000 
#    z 0.000000 0.000000 1.650660 
# 
# From -- ./inp_files/34681.got.cif
#   From: 2010.03.12/outbox.cif.g09.slc.cpg/sg47_18_cif.got.tgz:34681.got - 2010.04.14 03:12:58.
