data_PCOD8195785
_publ_section_title
;
Structure prediction by ZEFSAII (Michael W. Deem and Ramdas Pophale) SiO2 
 PCOD8195785
Probable space group: P M M M
;
_chemical_formula_sum "Si O2"
_cell_formula_units_Z 64
_cell_length_a 20.126118
_cell_length_b 8.927809
_cell_length_c 19.826884
_cell_angle_alpha 90.000000
_cell_angle_beta 90.000000
_cell_angle_gamma 90.000000
_cell_volume 3562.536895
_symmetry_space_group_name_H-M "P M M M"
_symmetry_group_IT_number 47
_symmetry_cell_setting 'orthorhombic'
loop_
_space_group_symop_operation_xyz
x,y,z
-x,-y,z
x,-y,-z
-x,y,-z
-x,-y,-z
x,y,-z
-x,y,z
x,-y,z
loop_
_atom_site_type_symbol
_atom_site_label
_atom_site_fract_x
_atom_site_fract_y
_atom_site_fract_z
Si Si1 0.383130 0.328316 0.293040
Si Si2 0.424335 0.171180 0.160371
Si Si3 0.688074 0.323081 0.077308
Si Si4 0.225343 0.331077 0.284121
Si Si5 0.076613 0.328048 0.077822
Si Si6 0.190656 0.825328 0.154100
Si Si7 0.240337 0.670446 0.428000
Si Si8 0.622924 0.173859 0.573961
O O1 0.403977 0.500000 0.285447
O O2 0.419291 0.235273 0.235371
O O3 0.304335 0.305304 0.285715
O O4 0.409848 0.269024 0.365514
O O5 0.500000 0.184259 0.135362
O O6 0.379930 0.262214 0.107924
O O7 0.399950 0.000000 0.161204
O O8 0.687889 0.500000 0.084986
O O9 0.751089 0.262273 0.117001
O O10 0.693372 0.271907 0.000000
O O11 0.208630 0.500000 0.260815
O O12 0.190760 0.216510 0.233124
O O13 0.196786 0.299609 0.360317
O O14 0.093519 0.500000 0.095026
O O15 0.119813 0.218612 0.123566
O O16 0.000000 0.293421 0.093241
O O17 0.093120 0.295732 0.000000
O O18 0.202631 0.000000 0.145145
O O19 0.200573 0.684779 0.500000
O O20 0.269246 0.500000 0.421033
O O21 0.299499 0.788206 0.429881
O O22 0.590774 0.209875 0.500000
O O23 0.614448 0.000000 0.591379
#
# Coordination Sequence:
#
# PCOD8195785 Si02
#       8
#     8   8   8   8   8   8   8   8
#     4  10  19  32  52  73  97 132 171 212 256 308
#     4  11  24  40  58  79 102 129 164 212 269 325
#     4  11  24  41  60  80 103 134 173 214 257 311
#     4   9  17  29  47  71 101 136 173 214 258 306
#     4   9  19  37  59  80 105 141 181 218 259 310
#     4  12  23  33  52  81 113 145 176 216 261 305
#     4   8  14  25  41  63  93 130 171 213 257 305
#     4   9  16  25  41  67  98 130 163 204 255 307
#
# _framework density 17.964725999999999
#
# number of rings (size 3 to 8) (size 9 to 14) (size 15 to 20)
#    0.000    2.125    1.250    4.125    0.000    7.000 
#    0.000    1.875    0.000    0.375    0.000    2.625 
#    0.000    0.500    0.000    5.750    0.000    1.750 
#
# Total GULP energy -793316.461387 kJ/mol
# GULP energy per Si atom -12395.569709 kJ/mol
# Density = 1.792384 g / cm^3
# Si number density = 17.964726 Si / 1000 Ang^3
#
#
#
# Elastic Constant Matrix: (Units=GPa)
#
#
# Indices 1 2 3 4 5 6 
#
# 1 50.6109 21.4246 34.9942 0.0000 0.0000 0.0000
# 2 21.4246 69.0067 46.1258 0.0000 0.0000 0.0000
# 3 34.9942 46.1258 139.1182 0.0000 0.0000 0.0000
# 4 0.0000 0.0000 0.0000 24.8738 0.0000 0.0000
# 5 0.0000 0.0000 0.0000 0.0000 8.2893 0.0000
# 6 0.0000 0.0000 0.0000 0.0000 0.0000 22.0579
#
#
#
# Elastic Compliance Matrix: (Units=1/GPa)
#
#
# Indices 1 2 3 4 5 6 
#
# 1 0.024992 -0.004570 -0.004771 0.000000 0.000000 0.000000
# 2 -0.004570 0.019453 -0.005300 0.000000 0.000000 0.000000
# 3 -0.004771 -0.005300 0.010146 0.000000 0.000000 0.000000
# 4 0.000000 0.000000 0.000000 0.040203 0.000000 0.000000
# 5 0.000000 0.000000 0.000000 0.000000 0.120638 0.000000
# 6 0.000000 0.000000 0.000000 0.000000 0.000000 0.045335
#
#
# Mechanical properties :
#
#
# Convention : Reuss Voigt Hill
#
# Bulk Modulus (GPa) = 39.51381 51.53610 45.52495
# Shear Modulus (GPa) = 16.75118 21.45693 19.10405
#
# Velocity S-wave (km/s) = 3.05691 3.45975 3.26455
# Velocity P-wave (km/s) = 5.87389 6.68651 6.29333
#
# Compressibility (1/GPa) = 0.02530761
#
# Stress axis : x y z
#
# Youngs Moduli (GPa) = 40.01228 51.40587 98.56402
#
# Poissons Ratio (x) = 0.23493 0.47029
# Poissons Ratio (y) = 0.18286 0.52241
# Poissons Ratio (z) = 0.19091 0.27246
#
# Static dielectric constant tensor:
#      x y z
#    x 2.876580 0.000000 0.000000 
#    y 0.000000 3.364750 0.000000 
#    z 0.000000 0.000000 3.827740 
# 
# 
# High freq. dielectric constant tensor:
#      x y z
#    x 1.637500 0.000000 0.000000 
#    y 0.000000 1.702760 0.000000 
#    z 0.000000 0.000000 1.716420 
# 
# From -- ./inp_files/31530.got.cif
#   From: 2010.03.12/outbox.cif.g09.slc.cpg/sg47_16_cif.got.tgz:31530.got - 2010.04.14 03:12:58.
