data_PCOD8195250
_publ_section_title
;
Structure prediction by ZEFSAII (Michael W. Deem and Ramdas Pophale) SiO2 
 PCOD8195250
Probable space group: P M M M
;
_chemical_formula_sum "Si O2"
_cell_formula_units_Z 64
_cell_length_a 14.449623
_cell_length_b 9.166042
_cell_length_c 25.811922
_cell_angle_alpha 90.000000
_cell_angle_beta 90.000000
_cell_angle_gamma 90.000000
_cell_volume 3418.681983
_symmetry_space_group_name_H-M "P M M M"
_symmetry_group_IT_number 47
_symmetry_cell_setting 'orthorhombic'
loop_
_space_group_symop_operation_xyz
x,y,z
-x,-y,z
x,-y,-z
-x,y,-z
-x,-y,-z
x,y,-z
-x,y,z
x,-y,z
loop_
_atom_site_type_symbol
_atom_site_label
_atom_site_fract_x
_atom_site_fract_y
_atom_site_fract_z
Si Si1 0.890348 0.667172 0.859444
Si Si2 0.212959 0.331870 0.354683
Si Si3 0.603750 0.667169 0.695476
Si Si4 0.393288 0.327888 0.102465
Si Si5 0.609665 0.163032 0.203950
Si Si6 0.104235 0.171581 0.441226
Si Si7 0.231293 0.168012 0.058199
Si Si8 0.897047 0.326664 0.744584
O O1 0.858655 0.500000 0.867897
O O2 0.842700 0.766835 0.902224
O O3 0.861488 0.723231 0.801609
O O4 0.000000 0.680962 0.865770
O O5 0.185258 0.500000 0.361678
O O6 0.324303 0.311126 0.351684
O O7 0.178112 0.246621 0.404388
O O8 0.168524 0.269042 0.301502
O O9 0.500000 0.711694 0.677272
O O10 0.605029 0.500000 0.714743
O O11 0.641128 0.764606 0.742506
O O12 0.500000 0.286950 0.091328
O O13 0.379053 0.500000 0.103274
O O14 0.355961 0.263125 0.156795
O O15 0.329026 0.254283 0.059256
O O16 0.500000 0.157330 0.202658
O O17 0.651449 0.000000 0.199529
O O18 0.125760 0.219586 0.500000
O O19 0.000000 0.219932 0.426165
O O20 0.114654 0.000000 0.435291
O O21 0.249521 0.000000 0.072513
O O22 0.191620 0.183398 0.000000
O O23 0.900213 0.500000 0.745211
O O24 0.000000 0.264434 0.734228
#
# Coordination Sequence:
#
# PCOD8195250 Si02
#       8
#     8   8   8   8   8   8   8   8
#     4   9  19  37  60  82 106 140 179 219 266 322
#     4  10  19  30  51  81 109 142 183 225 265 308
#     4   9  18  31  46  71 110 150 186 222 262 309
#     4  10  21  37  58  81 105 136 175 219 266 322
#     4   9  17  30  49  74 104 137 174 215 260 312
#     4   9  19  36  55  76 107 144 178 219 274 329
#     4  11  25  41  56  78 107 138 175 223 276 327
#     4   8  15  29  49  76 108 135 162 207 266 317
#
# _framework density 18.720666000000001
#
# number of rings (size 3 to 8) (size 9 to 14) (size 15 to 20)
#    0.000    2.625    0.000    2.625    1.750    5.500 
#    0.000    3.750    0.000    1.125    0.000    2.625 
#    0.000    0.000    0.000    0.000    0.000    0.000 
#
# Total GULP energy -793420.960642 kJ/mol
# GULP energy per Si atom -12397.202510 kJ/mol
# Density = 1.867806 g / cm^3
# Si number density = 18.720666 Si / 1000 Ang^3
#
#
#
# Elastic Constant Matrix: (Units=GPa)
#
#
# Indices 1 2 3 4 5 6 
#
# 1 76.1977 29.4394 55.4011 0.0000 0.0000 0.0000
# 2 29.4394 77.1568 46.6002 0.0000 0.0000 0.0000
# 3 55.4011 46.6002 115.9251 0.0000 0.0000 0.0000
# 4 0.0000 0.0000 0.0000 30.9944 0.0000 0.0000
# 5 0.0000 0.0000 0.0000 0.0000 29.6350 0.0000
# 6 0.0000 0.0000 0.0000 0.0000 0.0000 23.7514
#
#
#
# Elastic Compliance Matrix: (Units=1/GPa)
#
#
# Indices 1 2 3 4 5 6 
#
# 1 0.020474 -0.002512 -0.008775 0.000000 0.000000 0.000000
# 2 -0.002512 0.017424 -0.005804 0.000000 0.000000 0.000000
# 3 -0.008775 -0.005804 0.015153 0.000000 0.000000 0.000000
# 4 0.000000 0.000000 0.000000 0.032264 0.000000 0.000000
# 5 0.000000 0.000000 0.000000 0.000000 0.033744 0.000000
# 6 0.000000 0.000000 0.000000 0.000000 0.000000 0.042103
#
#
# Mechanical properties :
#
#
# Convention : Reuss Voigt Hill
#
# Bulk Modulus (GPa) = 52.99470 59.12900 56.06185
# Shear Modulus (GPa) = 24.79740 26.06540 25.43140
#
# Velocity S-wave (km/s) = 3.64345 3.73545 3.68974
# Velocity P-wave (km/s) = 6.78743 7.08930 6.94001
#
# Compressibility (1/GPa) = 0.01886981
#
# Stress axis : x y z
#
# Youngs Moduli (GPa) = 48.84162 57.39054 65.99436
#
# Poissons Ratio (x) = 0.14418 0.57909
# Poissons Ratio (y) = 0.12271 0.38301
# Poissons Ratio (z) = 0.42858 0.33308
#
# Static dielectric constant tensor:
#      x y z
#    x 3.454530 0.000000 0.000000 
#    y 0.000000 3.345800 0.000000 
#    z 0.000000 0.000000 3.345960 
# 
# 
# High freq. dielectric constant tensor:
#      x y z
#    x 1.726280 0.000000 0.000000 
#    y 0.000000 1.713670 0.000000 
#    z 0.000000 0.000000 1.710900 
# 
# From -- ./inp_files/7836.got.cif
#   From: 2010.03.12/outbox.cif.g09.slc.cpg/sg47_4_cif.got.tgz:7836.got - 2010.04.14 03:12:58.
