data_PCOD8195524
_publ_section_title
;
Structure prediction by ZEFSAII (Michael W. Deem and Ramdas Pophale) SiO2 
 PCOD8195524
Probable space group: P M M M
;
_chemical_formula_sum "Si O2"
_cell_formula_units_Z 64
_cell_length_a 23.127003
_cell_length_b 9.380782
_cell_length_c 15.757128
_cell_angle_alpha 90.000000
_cell_angle_beta 90.000000
_cell_angle_gamma 90.000000
_cell_volume 3418.499047
_symmetry_space_group_name_H-M "P M M M"
_symmetry_group_IT_number 47
_symmetry_cell_setting 'orthorhombic'
loop_
_space_group_symop_operation_xyz
x,y,z
-x,-y,z
x,-y,-z
-x,y,-z
-x,-y,-z
x,y,-z
-x,y,z
x,-y,z
loop_
_atom_site_type_symbol
_atom_site_label
_atom_site_fract_x
_atom_site_fract_y
_atom_site_fract_z
Si Si1 0.893453 0.161737 0.405628
Si Si2 0.816513 0.331497 0.185762
Si Si3 0.063272 0.334965 0.744938
Si Si4 0.565733 0.334442 0.269598
Si Si5 0.229776 0.835719 0.341241
Si Si6 0.624537 0.664890 0.902720
Si Si7 0.733022 0.155816 0.096855
Si Si8 0.355951 0.833038 0.403432
O O1 0.915085 0.193901 0.500000
O O2 0.931391 0.258310 0.344632
O O3 0.824830 0.192898 0.402130
O O4 0.905951 0.000000 0.378991
O O5 0.807724 0.500000 0.178275
O O6 0.884309 0.288751 0.193378
O O7 0.777190 0.269005 0.261413
O O8 0.791865 0.248699 0.104483
O O9 0.069562 0.500000 0.724518
O O10 0.000000 0.300402 0.785492
O O11 0.500000 0.290217 0.288577
O O12 0.576719 0.500000 0.288493
O O13 0.576186 0.303517 0.168818
O O14 0.606036 0.247669 0.333759
O O15 0.288397 0.796218 0.390005
O O16 0.230701 0.000000 0.310763
O O17 0.642914 0.500000 0.901955
O O18 0.678810 0.755205 0.868437
O O19 0.604611 0.705801 0.000000
O O20 0.737186 0.000000 0.142484
O O21 0.721693 0.127764 0.000000
O O22 0.372280 0.786900 0.500000
O O23 0.367241 0.000000 0.391149
#
# Coordination Sequence:
#
# PCOD8195524 Si02
#       8
#     8   8   8   8   8   8   8   8
#     4   9  17  29  46  69  96 124 156 197 244 294
#     4  10  19  31  50  74  99 128 163 203 244 290
#     4   9  19  34  48  64  90 126 166 204 242 284
#     4  10  22  38  54  75 104 137 173 212 254 300
#     4   9  17  31  51  73  98 127 159 200 253 305
#     4   9  18  34  57  83 109 136 166 202 246 300
#     4  10  20  33  51  77 107 133 156 188 236 294
#     4  10  21  36  54  75  99 132 175 219 261 305
#
# _framework density 18.721667
#
# number of rings (size 3 to 8) (size 9 to 14) (size 15 to 20)
#    0.000    2.500    0.000    1.875    0.000    7.500 
#    0.000    3.750    0.000    2.625    0.000    5.250 
#    0.000    0.000    0.000    0.000    0.000    0.000 
#
# Total GULP energy -793102.256796 kJ/mol
# GULP energy per Si atom -12392.222762 kJ/mol
# Density = 1.867906 g / cm^3
# Si number density = 18.721667 Si / 1000 Ang^3
#
#
#
# Elastic Constant Matrix: (Units=GPa)
#
#
# Indices 1 2 3 4 5 6 
#
# 1 98.3086 41.2342 31.2960 0.0000 0.0000 0.0000
# 2 41.2342 65.6537 22.7953 0.0000 0.0000 0.0000
# 3 31.2960 22.7953 63.0615 0.0000 0.0000 0.0000
# 4 0.0000 0.0000 0.0000 26.1383 0.0000 0.0000
# 5 0.0000 0.0000 0.0000 0.0000 18.6635 0.0000
# 6 0.0000 0.0000 0.0000 0.0000 0.0000 24.2668
#
#
#
# Elastic Compliance Matrix: (Units=1/GPa)
#
#
# Indices 1 2 3 4 5 6 
#
# 1 0.014885 -0.007757 -0.004583 0.000000 0.000000 0.000000
# 2 -0.007757 0.021460 -0.003908 0.000000 0.000000 0.000000
# 3 -0.004583 -0.003908 0.019544 0.000000 0.000000 0.000000
# 4 0.000000 0.000000 0.000000 0.038258 0.000000 0.000000
# 5 0.000000 0.000000 0.000000 0.000000 0.053581 0.000000
# 6 0.000000 0.000000 0.000000 0.000000 0.000000 0.041209
#
#
# Mechanical properties :
#
#
# Convention : Reuss Voigt Hill
#
# Bulk Modulus (GPa) = 42.74632 46.40831 44.57732
# Shear Modulus (GPa) = 21.81218 22.59360 22.20289
#
# Velocity S-wave (km/s) = 3.41702 3.47769 3.44749
# Velocity P-wave (km/s) = 6.20082 6.40064 6.30152
#
# Compressibility (1/GPa) = 0.02339383
#
# Stress axis : x y z
#
# Youngs Moduli (GPa) = 67.18341 46.59799 51.16550
#
# Poissons Ratio (x) = 0.36147 0.23448
# Poissons Ratio (y) = 0.52115 0.19994
# Poissons Ratio (z) = 0.30789 0.18209
#
# Static dielectric constant tensor:
#      x y z
#    x 3.550090 0.000000 0.000000 
#    y 0.000000 3.652190 0.000000 
#    z 0.000000 0.000000 3.489370 
# 
# 
# High freq. dielectric constant tensor:
#      x y z
#    x 1.723670 0.000000 0.000000 
#    y 0.000000 1.726330 0.000000 
#    z 0.000000 0.000000 1.714470 
# 
# From -- ./inp_files/25590.got.cif
#   From: 2010.03.12/outbox.cif.g09.slc.cpg/sg47_13_cif.got.tgz:25590.got - 2010.04.14 03:12:58.
