data_PCOD8195450
_publ_section_title
;
Structure prediction by ZEFSAII (Michael W. Deem and Ramdas Pophale) SiO2 
 PCOD8195450
Probable space group: P M M M
;
_chemical_formula_sum "Si O2"
_cell_formula_units_Z 64
_cell_length_a 14.188139
_cell_length_b 30.750289
_cell_length_c 9.333694
_cell_angle_alpha 90.000000
_cell_angle_beta 90.000000
_cell_angle_gamma 90.000000
_cell_volume 4072.191518
_symmetry_space_group_name_H-M "P M M M"
_symmetry_group_IT_number 47
_symmetry_cell_setting 'orthorhombic'
loop_
_space_group_symop_operation_xyz
x,y,z
-x,-y,z
x,-y,-z
-x,y,-z
-x,-y,-z
x,y,-z
-x,y,z
x,-y,z
loop_
_atom_site_type_symbol
_atom_site_label
_atom_site_fract_x
_atom_site_fract_y
_atom_site_fract_z
Si Si1 0.888659 0.869823 0.334022
Si Si2 0.395564 0.333220 0.665786
Si Si3 0.106667 0.549392 0.832302
Si Si4 0.798059 0.790850 0.167553
Si Si5 0.888167 0.952017 0.160358
Si Si6 0.395448 0.752894 0.164206
Si Si7 0.208790 0.622767 0.665810
Si Si8 0.888878 0.712177 0.335071
O O1 0.861140 0.867421 0.500000
O O2 0.835434 0.832653 0.248867
O O3 0.852246 0.915978 0.272306
O O4 0.000000 0.863675 0.311566
O O5 0.390191 0.320802 0.500000
O O6 0.500000 0.350073 0.708920
O O7 0.368490 0.289417 0.746591
O O8 0.319328 0.370221 0.701710
O O9 0.134384 0.500000 0.793823
O O10 0.177797 0.581021 0.753245
O O11 0.000000 0.558893 0.781615
O O12 0.115729 0.557561 0.000000
O O13 0.684697 0.789125 0.191496
O O14 0.845793 0.748020 0.231121
O O15 0.823891 0.794174 0.000000
O O16 0.000000 0.952619 0.160466
O O17 0.850818 0.000000 0.206286
O O18 0.852012 0.940687 0.000000
O O19 0.500000 0.770827 0.206595
O O20 0.394280 0.738140 0.000000
O O21 0.191643 0.612680 0.500000
O O22 0.150381 0.665329 0.711947
O O23 0.861286 0.722558 0.500000
O O24 0.000000 0.711889 0.314452
#
# Coordination Sequence:
#
# PCOD8195450 Si02
#       8
#     8   8   8   8   8   8   8   8
#     4  10  20  31  43  61  89 126 161 192 228 269
#     4   9  17  30  49  71  93 117 146 182 224 268
#     4   9  19  35  52  70  93 120 150 186 226 266
#     4  11  21  31  45  64  88 120 156 190 224 268
#     4   8  14  26  44  64  86 114 151 195 236 271
#     4   9  18  32  48  66  88 114 148 191 234 271
#     4  10  19  31  49  72  95 118 149 186 223 268
#     4  10  20  32  44  62  92 124 151 183 221 260
#
# _framework density 15.716353
#
# number of rings (size 3 to 8) (size 9 to 14) (size 15 to 20)
#    0.000    2.500    1.250    2.250    0.000    5.250 
#    0.000    1.875    0.000    0.375    0.000    2.625 
#    0.000    0.500    0.000    5.750    0.000    1.875 
#
# Total GULP energy -793413.278714 kJ/mol
# GULP energy per Si atom -12397.082480 kJ/mol
# Density = 1.568058 g / cm^3
# Si number density = 15.716353 Si / 1000 Ang^3
#
#
#
# Elastic Constant Matrix: (Units=GPa)
#
#
# Indices 1 2 3 4 5 6 
#
# 1 78.3703 55.0603 45.3828 0.0000 0.0000 0.0000
# 2 55.0603 118.0033 67.0654 0.0000 0.0000 0.0000
# 3 45.3828 67.0654 83.1427 0.0000 0.0000 0.0000
# 4 0.0000 0.0000 0.0000 36.2968 0.0000 0.0000
# 5 0.0000 0.0000 0.0000 0.0000 19.7968 0.0000
# 6 0.0000 0.0000 0.0000 0.0000 0.0000 5.2506
#
#
#
# Elastic Compliance Matrix: (Units=1/GPa)
#
#
# Indices 1 2 3 4 5 6 
#
# 1 0.020717 -0.005982 -0.006483 0.000000 0.000000 0.000000
# 2 -0.005982 0.017375 -0.010750 0.000000 0.000000 0.000000
# 3 -0.006483 -0.010750 0.024237 0.000000 0.000000 0.000000
# 4 0.000000 0.000000 0.000000 0.027551 0.000000 0.000000
# 5 0.000000 0.000000 0.000000 0.000000 0.050513 0.000000
# 6 0.000000 0.000000 0.000000 0.000000 0.000000 0.190454
#
#
# Mechanical properties :
#
#
# Convention : Reuss Voigt Hill
#
# Bulk Modulus (GPa) = 62.89489 68.28149 65.58819
# Shear Modulus (GPa) = 13.06927 19.73604 16.40266
#
# Velocity S-wave (km/s) = 2.88683 3.54752 3.23409
# Velocity P-wave (km/s) = 7.15663 7.76662 7.46785
#
# Compressibility (1/GPa) = 0.01589954
#
# Stress axis : x y z
#
# Youngs Moduli (GPa) = 48.27006 57.55318 41.25840
#
# Poissons Ratio (x) = 0.34429 0.26747
# Poissons Ratio (y) = 0.28875 0.44353
# Poissons Ratio (z) = 0.31293 0.61870
#
# Static dielectric constant tensor:
#      x y z
#    x 3.110350 0.000000 0.000000 
#    y 0.000000 3.015870 0.000000 
#    z 0.000000 0.000000 3.070130 
# 
# 
# High freq. dielectric constant tensor:
#      x y z
#    x 1.588500 0.000000 0.000000 
#    y 0.000000 1.588940 0.000000 
#    z 0.000000 0.000000 1.609750 
# 
# From -- ./inp_files/8289.got.cif
#   From: 2010.03.12/outbox.cif.g09.slc.cpg/sg47_5_cif.got.tgz:8289.got - 2010.04.14 03:12:58.
