data_PCOD8195415
_publ_section_title
;
Structure prediction by ZEFSAII (Michael W. Deem and Ramdas Pophale) SiO2 
 PCOD8195415
Probable space group: P M M M
;
_chemical_formula_sum "Si O2"
_cell_formula_units_Z 64
_cell_length_a 13.508871
_cell_length_b 18.572702
_cell_length_c 15.433283
_cell_angle_alpha 90.000000
_cell_angle_beta 90.000000
_cell_angle_gamma 90.000000
_cell_volume 3872.152605
_symmetry_space_group_name_H-M "P M M M"
_symmetry_group_IT_number 47
_symmetry_cell_setting 'orthorhombic'
loop_
_space_group_symop_operation_xyz
x,y,z
-x,-y,z
x,-y,-z
-x,y,-z
-x,-y,-z
x,y,-z
-x,y,z
x,-y,z
loop_
_atom_site_type_symbol
_atom_site_label
_atom_site_fract_x
_atom_site_fract_y
_atom_site_fract_z
Si Si1 0.299350 0.776650 0.903167
Si Si2 0.617261 0.772511 0.404522
Si Si3 0.889301 0.414623 0.594622
Si Si4 0.211325 0.414757 0.231336
Si Si5 0.386100 0.922710 0.651744
Si Si6 0.612997 0.080604 0.855562
Si Si7 0.887865 0.687184 0.900249
Si Si8 0.613509 0.316160 0.758738
O O1 0.311887 0.862935 0.899511
O O2 0.186420 0.753692 0.879666
O O3 0.376269 0.740908 0.836536
O O4 0.324706 0.749624 0.000000
O O5 0.645852 0.742925 0.500000
O O6 0.500000 0.778878 0.392587
O O7 0.663665 0.853129 0.393823
O O8 0.655819 0.718848 0.330277
O O9 0.847535 0.389437 0.500000
O O10 0.892926 0.500000 0.597208
O O11 0.822533 0.387227 0.673692
O O12 0.000000 0.383833 0.606838
O O13 0.208209 0.500000 0.220805
O O14 0.140213 0.381289 0.158493
O O15 0.323458 0.387229 0.219411
O O16 0.500000 0.926649 0.624281
O O17 0.376181 0.911892 0.753513
O O18 0.336706 0.000000 0.624416
O O19 0.500000 0.097352 0.883740
O O20 0.642106 0.000000 0.885955
O O21 0.000000 0.712037 0.879070
O O22 0.878700 0.662682 0.000000
O O23 0.500000 0.339944 0.749499
#
# Coordination Sequence:
#
# PCOD8195415 Si02
#       8
#     8   8   8   8   8   8   8   8
#     4  10  19  31  49  69  90 121 158 189 226 277
#     4   9  16  26  41  59  82 119 162 195 224 260
#     4   8  14  26  45  68  91 111 133 170 223 277
#     4  10  20  32  49  71  91 116 151 187 231 288
#     4   8  13  22  37  58  86 118 150 187 229 265
#     4   9  16  26  42  66  97 129 159 194 231 261
#     4   9  19  35  53  73  95 117 143 182 233 285
#     4  10  20  33  45  61  90 123 158 196 229 265
#
# _framework density 16.528274
#
# number of rings (size 3 to 8) (size 9 to 14) (size 15 to 20)
#    0.000    2.875    1.250    1.875    0.000    3.250 
#    0.000    2.500    0.000    0.375    0.000    8.750 
#    0.000    0.000    0.000    0.000    0.000   12.250 
#
# Total GULP energy -793040.907777 kJ/mol
# GULP energy per Si atom -12391.264184 kJ/mol
# Density = 1.649065 g / cm^3
# Si number density = 16.528274 Si / 1000 Ang^3
#
#
#
# Elastic Constant Matrix: (Units=GPa)
#
#
# Indices 1 2 3 4 5 6 
#
# 1 67.6701 39.9651 30.6852 0.0000 0.0000 0.0000
# 2 39.9651 83.5496 33.1450 0.0000 0.0000 0.0000
# 3 30.6852 33.1450 86.2199 0.0000 0.0000 0.0000
# 4 0.0000 0.0000 0.0000 19.5271 0.0000 0.0000
# 5 0.0000 0.0000 0.0000 0.0000 17.9688 0.0000
# 6 0.0000 0.0000 0.0000 0.0000 0.0000 14.2866
#
#
#
# Elastic Compliance Matrix: (Units=1/GPa)
#
#
# Indices 1 2 3 4 5 6 
#
# 1 0.021957 -0.008735 -0.004456 0.000000 0.000000 0.000000
# 2 -0.008735 0.017598 -0.003656 0.000000 0.000000 0.000000
# 3 -0.004456 -0.003656 0.014590 0.000000 0.000000 0.000000
# 4 0.000000 0.000000 0.000000 0.051211 0.000000 0.000000
# 5 0.000000 0.000000 0.000000 0.000000 0.055652 0.000000
# 6 0.000000 0.000000 0.000000 0.000000 0.000000 0.069996
#
#
# Mechanical properties :
#
#
# Convention : Reuss Voigt Hill
#
# Bulk Modulus (GPa) = 48.90165 49.44781 49.17473
# Shear Modulus (GPa) = 18.41517 19.26612 18.84065
#
# Velocity S-wave (km/s) = 3.34153 3.41786 3.37991
# Velocity P-wave (km/s) = 6.67373 6.74965 6.71179
#
# Compressibility (1/GPa) = 0.02044921
#
# Stress axis : x y z
#
# Youngs Moduli (GPa) = 45.54316 56.82549 68.54089
#
# Poissons Ratio (x) = 0.49638 0.30545
# Poissons Ratio (y) = 0.39782 0.25060
# Poissons Ratio (z) = 0.20296 0.20777
#
# Static dielectric constant tensor:
#      x y z
#    x 2.818380 0.000000 0.000000 
#    y 0.000000 3.049050 0.000000 
#    z 0.000000 0.000000 3.314190 
# 
# 
# High freq. dielectric constant tensor:
#      x y z
#    x 1.590730 0.000000 0.000000 
#    y 0.000000 1.622610 0.000000 
#    z 0.000000 0.000000 1.650750 
# 
# From -- ./inp_files/24126.got.cif
#   From: 2010.03.12/outbox.cif.g09.slc.cpg/sg47_13_cif.got.tgz:24126.got - 2010.04.14 03:12:58.
