data_PCOD8195115
_publ_section_title
;
Structure prediction by ZEFSAII (Michael W. Deem and Ramdas Pophale) SiO2 
 PCOD8195115
Probable space group: P M M M
;
_chemical_formula_sum "Si O2"
_cell_formula_units_Z 44
_cell_length_a 8.842221
_cell_length_b 13.634454
_cell_length_c 21.419604
_cell_angle_alpha 90.000000
_cell_angle_beta 90.000000
_cell_angle_gamma 90.000000
_cell_volume 2582.322943
_symmetry_space_group_name_H-M "P M M M"
_symmetry_group_IT_number 47
_symmetry_cell_setting 'orthorhombic'
loop_
_space_group_symop_operation_xyz
x,y,z
-x,-y,z
x,-y,-z
-x,y,-z
-x,-y,-z
x,y,-z
-x,y,z
x,-y,z
loop_
_atom_site_type_symbol
_atom_site_label
_atom_site_fract_x
_atom_site_fract_y
_atom_site_fract_z
Si Si1 0.321787 0.106833 0.866160
Si Si2 0.678763 0.699674 0.929386
Si Si3 0.178592 0.112382 0.626555
Si Si4 0.678254 0.784182 0.742518
Si Si5 0.330128 0.883649 0.500000
Si Si6 0.174424 0.387488 0.812617
O O1 0.500000 0.097249 0.870652
O O2 0.266771 0.188476 0.915665
O O3 0.275317 0.139699 0.796680
O O4 0.247931 0.000000 0.880486
O O5 0.500000 0.690417 0.917637
O O6 0.762354 0.626097 0.882776
O O7 0.722590 0.671916 0.000000
O O8 0.240529 0.182652 0.679959
O O9 0.243981 0.153600 0.561541
O O10 0.000000 0.119855 0.623748
O O11 0.230858 0.000000 0.638585
O O12 0.500000 0.781247 0.731360
O O13 0.733641 0.676309 0.762426
O O14 0.500000 0.841333 0.500000
O O15 0.330566 0.000000 0.500000
O O16 0.195122 0.500000 0.793153
O O17 0.000000 0.355506 0.811660
#
# Coordination Sequence:
#
# PCOD8195115 Si02
#       6
#     8   8   8   8   4   8
#     4   8  14  25  42  65  92 120 151 188 227 269
#     4   9  18  31  47  69  94 120 153 192 235 286
#     4  10  19  30  46  71 105 140 169 199 237 278
#     4  10  19  31  49  72  96 123 159 200 241 288
#     4   9  17  29  45  67  98 137 178 211 235 267
#     4  10  21  36  52  69  90 117 152 197 249 301
#
# _framework density 17.038923
#
# number of rings (size 3 to 8) (size 9 to 14) (size 15 to 20)
#    0.000    2.636    0.000    3.545    0.000    5.455 
#    0.000    3.636    0.000    4.909    0.000    5.727 
#    0.000    5.091    0.000    0.000    0.000    0.000 
#
# Total GULP energy -545509.587674 kJ/mol
# GULP energy per Si atom -12397.945174 kJ/mol
# Density = 1.700014 g / cm^3
# Si number density = 17.038923 Si / 1000 Ang^3
#
#
#
# Elastic Constant Matrix: (Units=GPa)
#
#
# Indices 1 2 3 4 5 6 
#
# 1 63.3059 21.7337 35.4062 0.0000 0.0000 0.0000
# 2 21.7337 65.7451 24.6020 0.0000 0.0000 0.0000
# 3 35.4062 24.6020 106.7914 0.0000 0.0000 0.0000
# 4 0.0000 0.0000 0.0000 25.2923 0.0000 0.0000
# 5 0.0000 0.0000 0.0000 0.0000 24.9171 0.0000
# 6 0.0000 0.0000 0.0000 0.0000 0.0000 21.6573
#
#
#
# Elastic Compliance Matrix: (Units=1/GPa)
#
#
# Indices 1 2 3 4 5 6 
#
# 1 0.020619 -0.004660 -0.005763 0.000000 0.000000 0.000000
# 2 -0.004660 0.017698 -0.002532 0.000000 0.000000 0.000000
# 3 -0.005763 -0.002532 0.011858 0.000000 0.000000 0.000000
# 4 0.000000 0.000000 0.000000 0.039538 0.000000 0.000000
# 5 0.000000 0.000000 0.000000 0.000000 0.040133 0.000000
# 6 0.000000 0.000000 0.000000 0.000000 0.000000 0.046174
#
#
# Mechanical properties :
#
#
# Convention : Reuss Voigt Hill
#
# Bulk Modulus (GPa) = 41.21015 44.36959 42.78987
# Shear Modulus (GPa) = 23.80746 24.64668 24.22707
#
# Velocity S-wave (km/s) = 3.74202 3.80740 3.77485
# Velocity P-wave (km/s) = 6.55047 6.73982 6.64582
#
# Compressibility (1/GPa) = 0.02426587
#
# Stress axis : x y z
#
# Youngs Moduli (GPa) = 48.49885 56.50274 84.33111
#
# Poissons Ratio (x) = 0.26329 0.48597
# Poissons Ratio (y) = 0.22599 0.21355
# Poissons Ratio (z) = 0.27948 0.14308
#
# Static dielectric constant tensor:
#      x y z
#    x 3.132280 0.000000 0.000000 
#    y 0.000000 2.795000 0.000000 
#    z 0.000000 0.000000 3.189660 
# 
# 
# High freq. dielectric constant tensor:
#      x y z
#    x 1.652250 0.000000 0.000000 
#    y 0.000000 1.636510 0.000000 
#    z 0.000000 0.000000 1.652190 
# 
# From -- ./inp_files/29453.got.cif
#   From: 2010.03.12/outbox.cif.g09.slc.cpg/sg47_15_cif.got.tgz:29453.got - 2010.04.14 03:12:58.
