data_PCOD8195664
_publ_section_title
;
Structure prediction by ZEFSAII (Michael W. Deem and Ramdas Pophale) SiO2 
 PCOD8195664
Probable space group: P M M M
;
_chemical_formula_sum "Si O2"
_cell_formula_units_Z 64
_cell_length_a 19.129829
_cell_length_b 14.456316
_cell_length_c 13.297141
_cell_angle_alpha 90.000000
_cell_angle_beta 90.000000
_cell_angle_gamma 90.000000
_cell_volume 3677.282498
_symmetry_space_group_name_H-M "P M M M"
_symmetry_group_IT_number 47
_symmetry_cell_setting 'orthorhombic'
loop_
_space_group_symop_operation_xyz
x,y,z
-x,-y,z
x,-y,-z
-x,y,-z
-x,-y,-z
x,y,-z
-x,y,z
x,-y,z
loop_
_atom_site_type_symbol
_atom_site_label
_atom_site_fract_x
_atom_site_fract_y
_atom_site_fract_z
Si Si1 0.363213 0.604887 0.384526
Si Si2 0.726339 0.602507 0.200158
Si Si3 0.077344 0.797675 0.116104
Si Si4 0.421361 0.217358 0.305152
Si Si5 0.664030 0.220970 0.112174
Si Si6 0.127204 0.398450 0.885589
Si Si7 0.787704 0.891074 0.197630
Si Si8 0.297976 0.105220 0.611782
O O1 0.345044 0.628970 0.500000
O O2 0.392319 0.500000 0.375649
O O3 0.293043 0.618439 0.317707
O O4 0.420644 0.674611 0.338036
O O5 0.703556 0.500000 0.165114
O O6 0.687086 0.673528 0.128030
O O7 0.809007 0.615550 0.191037
O O8 0.074931 0.686467 0.133646
O O9 0.135610 0.847711 0.183181
O O10 0.000000 0.834521 0.145576
O O11 0.093751 0.820487 0.000000
O O12 0.500000 0.179790 0.317712
O O13 0.397640 0.198085 0.190390
O O14 0.368362 0.164433 0.378147
O O15 0.730998 0.153790 0.123205
O O16 0.634078 0.208999 0.000000
O O17 0.091720 0.500000 0.867178
O O18 0.155930 0.394008 0.000000
O O19 0.762950 0.865838 0.310760
O O20 0.791642 0.000000 0.177084
O O21 0.267516 0.119199 0.500000
O O22 0.320160 0.000000 0.632487
#
# Coordination Sequence:
#
# PCOD8195664 Si02
#       8
#     8   8   8   8   8   8   8   8
#     4   9  18  31  46  67  96 127 159 196 239 288
#     4   9  16  27  46  70  93 119 157 204 247 283
#     4  10  20  32  47  71 103 135 166 199 236 282
#     4  10  21  34  48  71 101 128 158 198 241 288
#     4  10  19  32  50  69  93 128 166 201 238 282
#     4   9  16  27  45  68  96 129 162 197 238 281
#     4  10  20  34  52  73  98 127 160 200 241 283
#     4   9  19  36  57  78  96 119 155 199 249 297
#
# _framework density 17.404154999999999
#
# number of rings (size 3 to 8) (size 9 to 14) (size 15 to 20)
#    0.000    2.500    1.250    1.125    0.000    4.000 
#    0.000    3.125    0.000    0.375    0.000    8.750 
#    0.000    0.000    0.000    6.000    0.000    0.250 
#
# Total GULP energy -793214.888555 kJ/mol
# GULP energy per Si atom -12393.982634 kJ/mol
# Density = 1.736454 g / cm^3
# Si number density = 17.404155 Si / 1000 Ang^3
#
#
#
# Elastic Constant Matrix: (Units=GPa)
#
#
# Indices 1 2 3 4 5 6 
#
# 1 103.3004 39.1729 38.4585 0.0000 0.0000 0.0000
# 2 39.1729 78.8798 25.7515 0.0000 0.0000 0.0000
# 3 38.4585 25.7515 98.7575 0.0000 0.0000 0.0000
# 4 0.0000 0.0000 0.0000 21.9384 0.0000 0.0000
# 5 0.0000 0.0000 0.0000 0.0000 13.6323 0.0000
# 6 0.0000 0.0000 0.0000 0.0000 0.0000 13.5204
#
#
#
# Elastic Compliance Matrix: (Units=1/GPa)
#
#
# Indices 1 2 3 4 5 6 
#
# 1 0.013063 -0.005276 -0.003711 0.000000 0.000000 0.000000
# 2 -0.005276 0.015988 -0.002114 0.000000 0.000000 0.000000
# 3 -0.003711 -0.002114 0.012122 0.000000 0.000000 0.000000
# 4 0.000000 0.000000 0.000000 0.045582 0.000000 0.000000
# 5 0.000000 0.000000 0.000000 0.000000 0.073355 0.000000
# 6 0.000000 0.000000 0.000000 0.000000 0.000000 0.073962
#
#
# Mechanical properties :
#
#
# Convention : Reuss Voigt Hill
#
# Bulk Modulus (GPa) = 52.71400 54.18927 53.45163
# Shear Modulus (GPa) = 19.04047 21.65521 20.34784
#
# Velocity S-wave (km/s) = 3.31118 3.53123 3.42297
# Velocity P-wave (km/s) = 6.70615 6.91589 6.81183
#
# Compressibility (1/GPa) = 0.01897029
#
# Stress axis : x y z
#
# Youngs Moduli (GPa) = 76.55333 62.54797 82.49157
#
# Poissons Ratio (x) = 0.32998 0.30615
# Poissons Ratio (y) = 0.40386 0.17442
# Poissons Ratio (z) = 0.28412 0.13225
#
# Static dielectric constant tensor:
#      x y z
#    x 2.943830 0.000000 0.000000 
#    y 0.000000 3.479860 0.000000 
#    z 0.000000 0.000000 3.230750 
# 
# 
# High freq. dielectric constant tensor:
#      x y z
#    x 1.640540 0.000000 0.000000 
#    y 0.000000 1.688410 0.000000 
#    z 0.000000 0.000000 1.659900 
# 
# From -- ./inp_files/18678.got.cif
#   From: 2010.03.12/outbox.cif.g09.slc.cpg/sg47_10_cif.got.tgz:18678.got - 2010.04.14 03:12:58.
