data_PCOD8195046
_publ_section_title
;
Structure prediction by ZEFSAII (Michael W. Deem and Ramdas Pophale) SiO2 
 PCOD8195046
Probable space group: P M M M
;
_chemical_formula_sum "Si O2"
_cell_formula_units_Z 40
_cell_length_a 20.391262
_cell_length_b 9.070442
_cell_length_c 12.428511
_cell_angle_alpha 90.000000
_cell_angle_beta 90.000000
_cell_angle_gamma 90.000000
_cell_volume 2298.749546
_symmetry_space_group_name_H-M "P M M M"
_symmetry_group_IT_number 47
_symmetry_cell_setting 'orthorhombic'
loop_
_space_group_symop_operation_xyz
x,y,z
-x,-y,z
x,-y,-z
-x,y,-z
-x,-y,-z
x,y,-z
-x,y,z
x,-y,z
loop_
_atom_site_type_symbol
_atom_site_label
_atom_site_fract_x
_atom_site_fract_y
_atom_site_fract_z
Si Si1 0.924751 0.174458 0.000000
Si Si2 0.869851 0.326087 0.376682
Si Si3 0.572173 0.834824 0.127954
Si Si4 0.693766 0.338745 0.122709
Si Si5 0.178606 0.174827 0.821302
Si Si6 0.000000 0.163089 0.373814
O O1 0.883998 0.225738 0.106052
O O2 0.000000 0.238645 0.000000
O O3 0.928424 0.000000 0.000000
O O4 0.852467 0.284633 0.500000
O O5 0.873596 0.500000 0.361895
O O6 0.818525 0.253146 0.295614
O O7 0.937857 0.255792 0.337536
O O8 0.500000 0.773846 0.161239
O O9 0.629601 0.733406 0.179265
O O10 0.581152 0.000000 0.173444
O O11 0.578245 0.839474 0.000000
O O12 0.708993 0.500000 0.175517
O O13 0.754879 0.227879 0.124117
O O14 0.675178 0.364763 0.000000
O O15 0.179285 0.000000 0.807228
O O16 0.000000 0.141717 0.500000
O O17 0.000000 0.000000 0.318521
#
# Coordination Sequence:
#
# PCOD8195046 Si02
#       6
#     4   8   8   8   8   4
#     4   9  20  36  51  71  96 125 165 212 254 291
#     4  10  21  36  52  72  99 126 155 201 259 307
#     4   8  14  25  42  64  91 124 162 201 239 283
#     4  10  19  30  45  66  97 132 166 202 241 294
#     4  11  21  34  54  73  96 130 169 211 251 298
#     4   9  17  31  51  72  91 116 153 193 239 296
#
# _framework density 17.400763999999999
#
# number of rings (size 3 to 8) (size 9 to 14) (size 15 to 20)
#    0.000    2.400    1.000    2.700    1.400    3.600 
#    0.000    2.000    0.000    2.400    0.000    0.000 
#    0.000    0.800    0.000    8.400    0.000    4.000 
#
# Total GULP energy -495643.537233 kJ/mol
# GULP energy per Si atom -12391.088431 kJ/mol
# Density = 1.736116 g / cm^3
# Si number density = 17.400764 Si / 1000 Ang^3
#
#
#
# Elastic Constant Matrix: (Units=GPa)
#
#
# Indices 1 2 3 4 5 6 
#
# 1 118.8265 43.2923 23.6267 0.0000 0.0000 0.0000
# 2 43.2923 96.5497 33.0721 0.0000 0.0000 0.0000
# 3 23.6267 33.0721 58.2050 0.0000 0.0000 0.0000
# 4 0.0000 0.0000 0.0000 20.3356 0.0000 0.0000
# 5 0.0000 0.0000 0.0000 0.0000 5.4145 0.0000
# 6 0.0000 0.0000 0.0000 0.0000 0.0000 27.9321
#
#
#
# Elastic Compliance Matrix: (Units=1/GPa)
#
#
# Indices 1 2 3 4 5 6 
#
# 1 0.010229 -0.003929 -0.001920 0.000000 0.000000 0.000000
# 2 -0.003929 0.014370 -0.006570 0.000000 0.000000 0.000000
# 3 -0.001920 -0.006570 0.021693 0.000000 0.000000 0.000000
# 4 0.000000 0.000000 0.000000 0.049175 0.000000 0.000000
# 5 0.000000 0.000000 0.000000 0.000000 0.184690 0.000000
# 6 0.000000 0.000000 0.000000 0.000000 0.000000 0.035801
#
#
# Mechanical properties :
#
#
# Convention : Reuss Voigt Hill
#
# Bulk Modulus (GPa) = 46.61102 52.61816 49.61459
# Shear Modulus (GPa) = 14.37006 22.30911 18.33959
#
# Velocity S-wave (km/s) = 2.87684 3.58449 3.24999
# Velocity P-wave (km/s) = 6.15466 6.88739 6.53131
#
# Compressibility (1/GPa) = 0.02145415
#
# Stress axis : x y z
#
# Youngs Moduli (GPa) = 97.76342 69.59167 46.09802
#
# Poissons Ratio (x) = 0.27342 0.08849
# Poissons Ratio (y) = 0.38411 0.30286
# Poissons Ratio (z) = 0.18767 0.45721
#
# Static dielectric constant tensor:
#      x y z
#    x 3.398200 0.000000 0.000000 
#    y 0.000000 3.434250 0.000000 
#    z 0.000000 0.000000 2.887990 
# 
# 
# High freq. dielectric constant tensor:
#      x y z
#    x 1.669120 0.000000 0.000000 
#    y 0.000000 1.678190 0.000000 
#    z 0.000000 0.000000 1.620240 
# 
# From -- ./inp_files/15128.got.cif
#   From: 2010.03.12/outbox.cif.g09.slc.cpg/sg47_8_cif.got.tgz:15128.got - 2010.04.14 03:12:58.
