data_PCOD8195235
_publ_section_title
;
Structure prediction by ZEFSAII (Michael W. Deem and Ramdas Pophale) SiO2 
 PCOD8195235
Probable space group: P M M M
;
_chemical_formula_sum "Si O2"
_cell_formula_units_Z 32
_cell_length_a 9.000590
_cell_length_b 14.209944
_cell_length_c 13.080135
_cell_angle_alpha 90.000000
_cell_angle_beta 90.000000
_cell_angle_gamma 90.000000
_cell_volume 1672.921535
_symmetry_space_group_name_H-M "P M M M"
_symmetry_group_IT_number 47
_symmetry_cell_setting 'orthorhombic'
loop_
_space_group_symop_operation_xyz
x,y,z
-x,-y,z
x,-y,-z
-x,y,-z
-x,-y,-z
x,y,-z
-x,y,z
x,-y,z
loop_
_atom_site_type_symbol
_atom_site_label
_atom_site_fract_x
_atom_site_fract_y
_atom_site_fract_z
Si Si1 0.176566 0.393566 0.000000
Si Si2 0.677142 0.893208 0.278567
Si Si3 0.823369 0.721374 0.803686
Si Si4 0.661517 0.110994 0.500000
Si Si5 0.176290 0.394465 0.387821
O O1 0.233887 0.337824 0.099390
O O2 0.241015 0.500000 0.000000
O O3 0.000000 0.398464 0.000000
O O4 0.500000 0.882779 0.277519
O O5 0.751772 0.825351 0.194579
O O6 0.742194 0.863942 0.392139
O O7 0.723008 0.000000 0.251094
O O8 0.760355 0.670197 0.702246
O O9 0.000000 0.730736 0.804773
O O10 0.500000 0.160216 0.500000
O O11 0.636806 0.000000 0.500000
O O12 0.224472 0.354989 0.500000
O O13 0.238981 0.500000 0.373827
O O14 0.000000 0.397755 0.379794
#
# Coordination Sequence:
#
# PCOD8195235 Si02
#       5
#     4   8   8   4   8
#     4   9  18  34  54  75 100 132 169 205 244 297
#     4   9  18  33  51  71  99 135 170 201 241 298
#     4  10  19  30  50  76  99 126 166 210 249 286
#     4   7  12  26  47  67  90 127 168 196 227 285
#     4   8  14  25  42  67  98 126 152 190 244 300
#
# _framework density 19.128215000000001
#
# number of rings (size 3 to 8) (size 9 to 14) (size 15 to 20)
#    0.000    3.250    0.000    3.000    1.750    3.500 
#    0.000    1.250    0.000    9.750    0.000    1.750 
#    0.000    0.000    0.000    0.000    0.000    0.000 
#
# Total GULP energy -396461.247192 kJ/mol
# GULP energy per Si atom -12389.413975 kJ/mol
# Density = 1.908468 g / cm^3
# Si number density = 19.128215 Si / 1000 Ang^3
#
#
#
# Elastic Constant Matrix: (Units=GPa)
#
#
# Indices 1 2 3 4 5 6 
#
# 1 15.1811 24.5348 21.6294 0.0000 0.0000 0.0000
# 2 24.5348 134.2296 90.0226 0.0000 0.0000 0.0000
# 3 21.6294 90.0226 141.0852 0.0000 0.0000 0.0000
# 4 0.0000 0.0000 0.0000 36.8975 0.0000 0.0000
# 5 0.0000 0.0000 0.0000 0.0000 10.9848 0.0000
# 6 0.0000 0.0000 0.0000 0.0000 0.0000 4.9048
#
#
#
# Elastic Compliance Matrix: (Units=1/GPa)
#
#
# Indices 1 2 3 4 5 6 
#
# 1 0.096481 -0.013486 -0.006186 0.000000 0.000000 0.000000
# 2 -0.013486 0.014908 -0.007445 0.000000 0.000000 0.000000
# 3 -0.006186 -0.007445 0.012787 0.000000 0.000000 0.000000
# 4 0.000000 0.000000 0.000000 0.027102 0.000000 0.000000
# 5 0.000000 0.000000 0.000000 0.000000 0.091035 0.000000
# 6 0.000000 0.000000 0.000000 0.000000 0.000000 0.203884
#
#
# Mechanical properties :
#
#
# Convention : Reuss Voigt Hill
#
# Bulk Modulus (GPa) = 14.29773 62.54106 38.41940
# Shear Modulus (GPa) = 9.54665 20.84468 15.19566
#
# Velocity S-wave (km/s) = 2.23645 3.30469 2.82159
# Velocity P-wave (km/s) = 3.76296 6.87954 5.54472
#
# Compressibility (1/GPa) = 0.06994118
#
# Stress axis : x y z
#
# Youngs Moduli (GPa) = 10.36476 67.07839 78.20702
#
# Poissons Ratio (x) = 0.90464 0.48378
# Poissons Ratio (y) = 0.13978 0.58223
# Poissons Ratio (z) = 0.06412 0.49938
#
# Static dielectric constant tensor:
#      x y z
#    x 2.801130 0.000000 0.000000 
#    y 0.000000 3.560250 0.000000 
#    z 0.000000 0.000000 3.750550 
# 
# 
# High freq. dielectric constant tensor:
#      x y z
#    x 1.677810 0.000000 0.000000 
#    y 0.000000 1.749220 0.000000 
#    z 0.000000 0.000000 1.740400 
# 
# From -- ./inp_files/3363.got.cif
#   From: 2010.03.12/outbox.cif.g09.slc.cpg/sg47_2_cif.got.tgz:3363.got - 2010.04.14 03:12:58.
