data_PCOD8195468
_publ_section_title
;
Structure prediction by ZEFSAII (Michael W. Deem and Ramdas Pophale) SiO2 
 PCOD8195468
Probable space group: P M M M
;
_chemical_formula_sum "Si O2"
_cell_formula_units_Z 52
_cell_length_a 23.207769
_cell_length_b 9.534462
_cell_length_c 13.942863
_cell_angle_alpha 90.000000
_cell_angle_beta 90.000000
_cell_angle_gamma 90.000000
_cell_volume 3085.187374
_symmetry_space_group_name_H-M "P M M M"
_symmetry_group_IT_number 47
_symmetry_cell_setting 'orthorhombic'
loop_
_space_group_symop_operation_xyz
x,y,z
-x,-y,z
x,-y,-z
-x,y,-z
-x,-y,-z
x,y,-z
-x,y,z
x,-y,z
loop_
_atom_site_type_symbol
_atom_site_label
_atom_site_fract_x
_atom_site_fract_y
_atom_site_fract_z
Si Si1 0.182612 0.843293 0.258547
Si Si2 0.064437 0.156991 0.828166
Si Si3 0.646896 0.336553 0.257189
Si Si4 0.280848 0.835684 0.887998
Si Si5 0.568067 0.160207 0.391103
Si Si6 0.068023 0.653492 0.000000
Si Si7 0.246298 0.341642 0.393992
O O1 0.113418 0.832401 0.251567
O O2 0.219346 0.800351 0.163178
O O3 0.195207 0.746266 0.348201
O O4 0.201225 0.000000 0.285355
O O5 0.087748 0.263027 0.907357
O O6 0.000000 0.196170 0.789501
O O7 0.062885 0.000000 0.871772
O O8 0.632745 0.500000 0.233243
O O9 0.667835 0.255755 0.160852
O O10 0.592936 0.261078 0.307905
O O11 0.696104 0.323228 0.335282
O O12 0.296249 0.000000 0.877676
O O13 0.275754 0.793289 0.000000
O O14 0.585879 0.206552 0.500000
O O15 0.500000 0.169831 0.380835
O O16 0.588841 0.000000 0.373413
O O17 0.097058 0.500000 0.000000
O O18 0.000000 0.641258 0.000000
O O19 0.258774 0.284829 0.500000
O O20 0.224467 0.500000 0.395245
#
# Coordination Sequence:
#
# PCOD8195468 Si02
#       7
#     8   8   8   8   8   4   8
#     4   9  18  30  47  70  92 117 154 195 233 280
#     4   9  17  29  45  64  89 120 150 185 234 285
#     4  10  19  31  49  73 100 128 159 194 236 283
#     4   9  18  32  49  68  93 126 161 198 237 278
#     4   9  18  32  50  74 104 135 164 194 230 275
#     4   9  17  27  39  59  85 113 147 181 214 261
#     4   9  18  32  48  67  94 124 153 190 236 282
#
# _framework density 16.85473
#
# number of rings (size 3 to 8) (size 9 to 14) (size 15 to 20)
#    0.000    2.846    0.000    1.615    1.077    4.000 
#    0.000    0.769    0.000    0.923    0.000    6.462 
#    0.000    0.000    0.000    0.000    0.000    0.000 
#
# Total GULP energy -644356.829518 kJ/mol
# GULP energy per Si atom -12391.477491 kJ/mol
# Density = 1.681637 g / cm^3
# Si number density = 16.854730 Si / 1000 Ang^3
#
#
#
# Elastic Constant Matrix: (Units=GPa)
#
#
# Indices 1 2 3 4 5 6 
#
# 1 59.6148 31.8181 25.7241 0.0000 0.0000 0.0000
# 2 31.8181 77.9172 41.0305 0.0000 0.0000 0.0000
# 3 25.7241 41.0305 91.6303 0.0000 0.0000 0.0000
# 4 0.0000 0.0000 0.0000 27.8737 0.0000 0.0000
# 5 0.0000 0.0000 0.0000 0.0000 16.0550 0.0000
# 6 0.0000 0.0000 0.0000 0.0000 0.0000 21.5080
#
#
#
# Elastic Compliance Matrix: (Units=1/GPa)
#
#
# Indices 1 2 3 4 5 6 
#
# 1 0.021991 -0.007497 -0.002817 0.000000 0.000000 0.000000
# 2 -0.007497 0.019350 -0.006560 0.000000 0.000000 0.000000
# 3 -0.002817 -0.006560 0.014642 0.000000 0.000000 0.000000
# 4 0.000000 0.000000 0.000000 0.035876 0.000000 0.000000
# 5 0.000000 0.000000 0.000000 0.000000 0.062286 0.000000
# 6 0.000000 0.000000 0.000000 0.000000 0.000000 0.046494
#
#
# Mechanical properties :
#
#
# Convention : Reuss Voigt Hill
#
# Bulk Modulus (GPa) = 44.97318 47.36753 46.17035
# Shear Modulus (GPa) = 20.67840 21.79331 21.23585
#
# Velocity S-wave (km/s) = 3.50646 3.59974 3.55341
# Velocity P-wave (km/s) = 6.56768 6.74106 6.65494
#
# Compressibility (1/GPa) = 0.02223548
#
# Stress axis : x y z
#
# Youngs Moduli (GPa) = 45.47286 51.67973 68.29861
#
# Poissons Ratio (x) = 0.38744 0.19238
# Poissons Ratio (y) = 0.34091 0.44803
# Poissons Ratio (z) = 0.12809 0.33901
#
# Static dielectric constant tensor:
#      x y z
#    x 3.023870 0.000000 0.000000 
#    y 0.000000 3.443650 0.000000 
#    z 0.000000 0.000000 3.070340 
# 
# 
# High freq. dielectric constant tensor:
#      x y z
#    x 1.635230 0.000000 0.000000 
#    y 0.000000 1.655940 0.000000 
#    z 0.000000 0.000000 1.627760 
# 
# From -- ./inp_files/25427.got.cif
#   From: 2010.03.12/outbox.cif.g09.slc.cpg/sg47_13_cif.got.tgz:25427.got - 2010.04.14 03:12:58.
