data_PCOD8195134
_publ_section_title
;
Structure prediction by ZEFSAII (Michael W. Deem and Ramdas Pophale) SiO2 
 PCOD8195134
Probable space group: P M M M
;
_chemical_formula_sum "Si O2"
_cell_formula_units_Z 60
_cell_length_a 21.026448
_cell_length_b 8.963411
_cell_length_c 18.825831
_cell_angle_alpha 90.000000
_cell_angle_beta 90.000000
_cell_angle_gamma 90.000000
_cell_volume 3548.079806
_symmetry_space_group_name_H-M "P M M M"
_symmetry_group_IT_number 47
_symmetry_cell_setting 'orthorhombic'
loop_
_space_group_symop_operation_xyz
x,y,z
-x,-y,z
x,-y,-z
-x,y,-z
-x,-y,-z
x,y,-z
-x,y,z
x,-y,z
loop_
_atom_site_type_symbol
_atom_site_label
_atom_site_fract_x
_atom_site_fract_y
_atom_site_fract_z
Si Si1 0.000000 0.176972 0.582254
Si Si2 0.573070 0.824519 0.781453
Si Si3 0.755032 0.170647 0.581599
Si Si4 0.682222 0.676259 0.300972
Si Si5 0.124622 0.675822 0.357555
Si Si6 0.193681 0.327647 0.215901
Si Si7 0.219502 0.175755 0.921363
Si Si8 0.636775 0.176935 0.076968
O O1 0.060469 0.241682 0.622430
O O2 0.000000 0.227233 0.500000
O O3 0.000000 0.000000 0.588690
O O4 0.500000 0.786668 0.766789
O O5 0.614228 0.734853 0.724568
O O6 0.591080 0.765773 0.860381
O O7 0.587068 0.000000 0.774082
O O8 0.735207 0.178830 0.500000
O O9 0.697199 0.244545 0.624549
O O10 0.819636 0.262333 0.592849
O O11 0.765729 0.000000 0.606135
O O12 0.680469 0.500000 0.312822
O O13 0.737274 0.722374 0.245315
O O14 0.118083 0.500000 0.371097
O O15 0.140456 0.709906 0.274939
O O16 0.193944 0.500000 0.197661
O O17 0.177306 0.244060 0.142216
O O18 0.291506 0.235406 0.911488
O O19 0.216531 0.000000 0.914047
O O20 0.194394 0.223781 0.000000
O O21 0.638075 0.000000 0.076346
O O22 0.611363 0.234325 0.000000
#
# Coordination Sequence:
#
# PCOD8195134 Si02
#       8
#     4   8   8   8   8   8   8   8
#     4  11  23  37  53  77 110 145 180 209 237 280
#     4  10  19  30  47  69  92 124 165 205 248 298
#     4  10  20  34  54  79 103 126 157 200 246 291
#     4  10  20  33  49  69  95 127 161 200 247 297
#     4  10  21  35  52  77 108 141 174 204 239 286
#     4   9  18  31  47  70  97 127 166 206 244 289
#     4   9  16  26  44  69  95 126 163 204 251 297
#     4   8  14  25  41  64  93 123 159 202 246 293
#
# _framework density 16.910554999999999
#
# number of rings (size 3 to 8) (size 9 to 14) (size 15 to 20)
#    0.000    2.467    1.333    3.400    0.000    6.667 
#    0.000    1.333    0.000    0.800    0.000    4.200 
#    0.000    3.733    0.000    0.000    0.000    0.000 
#
# Total GULP energy -743842.096409 kJ/mol
# GULP energy per Si atom -12397.368273 kJ/mol
# Density = 1.687207 g / cm^3
# Si number density = 16.910555 Si / 1000 Ang^3
#
#
#
# Elastic Constant Matrix: (Units=GPa)
#
#
# Indices 1 2 3 4 5 6 
#
# 1 86.3538 34.9599 56.4482 0.0000 0.0000 0.0000
# 2 34.9599 66.1278 55.4390 0.0000 0.0000 0.0000
# 3 56.4482 55.4390 128.3010 0.0000 0.0000 0.0000
# 4 0.0000 0.0000 0.0000 23.1550 0.0000 0.0000
# 5 0.0000 0.0000 0.0000 0.0000 24.2959 0.0000
# 6 0.0000 0.0000 0.0000 0.0000 0.0000 24.5616
#
#
#
# Elastic Compliance Matrix: (Units=1/GPa)
#
#
# Indices 1 2 3 4 5 6 
#
# 1 0.016987 -0.004257 -0.005634 0.000000 0.000000 0.000000
# 2 -0.004257 0.024779 -0.008834 0.000000 0.000000 0.000000
# 3 -0.005634 -0.008834 0.014090 0.000000 0.000000 0.000000
# 4 0.000000 0.000000 0.000000 0.043187 0.000000 0.000000
# 5 0.000000 0.000000 0.000000 0.000000 0.041159 0.000000
# 6 0.000000 0.000000 0.000000 0.000000 0.000000 0.040714
#
#
# Mechanical properties :
#
#
# Convention : Reuss Voigt Hill
#
# Bulk Modulus (GPa) = 54.33163 63.83073 59.08118
# Shear Modulus (GPa) = 22.27156 23.33153 22.80155
#
# Velocity S-wave (km/s) = 3.63302 3.71846 3.67599
# Velocity P-wave (km/s) = 7.05670 7.50093 7.28220
#
# Compressibility (1/GPa) = 0.01840548
#
# Stress axis : x y z
#
# Youngs Moduli (GPa) = 58.86989 40.35693 70.97119
#
# Poissons Ratio (x) = 0.17180 0.39986
# Poissons Ratio (y) = 0.25060 0.62697
# Poissons Ratio (z) = 0.33168 0.35652
#
# Static dielectric constant tensor:
#      x y z
#    x 3.103670 0.000000 0.000000 
#    y 0.000000 3.080290 0.000000 
#    z 0.000000 0.000000 3.372870 
# 
# 
# High freq. dielectric constant tensor:
#      x y z
#    x 1.617370 0.000000 0.000000 
#    y 0.000000 1.647020 0.000000 
#    z 0.000000 0.000000 1.658830 
# 
# From -- ./inp_files/28798.got.cif
#   From: 2010.03.12/outbox.cif.g09.slc.cpg/sg47_15_cif.got.tgz:28798.got - 2010.04.14 03:12:58.
