data_PCOD8195474
_publ_section_title
;
Structure prediction by ZEFSAII (Michael W. Deem and Ramdas Pophale) SiO2 
 PCOD8195474
Probable space group: P M M M
;
_chemical_formula_sum "Si O2"
_cell_formula_units_Z 32
_cell_length_a 22.395592
_cell_length_b 7.752096
_cell_length_c 9.071082
_cell_angle_alpha 90.000000
_cell_angle_beta 90.000000
_cell_angle_gamma 90.000000
_cell_volume 1574.855756
_symmetry_space_group_name_H-M "P M M M"
_symmetry_group_IT_number 47
_symmetry_cell_setting 'orthorhombic'
loop_
_space_group_symop_operation_xyz
x,y,z
-x,-y,z
x,-y,-z
-x,y,-z
-x,-y,-z
x,y,-z
-x,y,z
x,-y,z
loop_
_atom_site_type_symbol
_atom_site_label
_atom_site_fract_x
_atom_site_fract_y
_atom_site_fract_z
Si Si1 0.066496 0.500000 0.174935
Si Si2 0.265479 0.298215 0.328675
Si Si3 0.383636 0.294629 0.833635
Si Si4 0.149314 0.192712 0.169088
Si Si5 0.500000 0.294176 0.666551
O O1 0.100904 0.328892 0.230454
O O2 0.000000 0.500000 0.243928
O O3 0.061938 0.500000 0.000000
O O4 0.272076 0.256268 0.500000
O O5 0.256524 0.500000 0.298554
O O6 0.324542 0.227347 0.248377
O O7 0.208932 0.199012 0.264785
O O8 0.384982 0.500000 0.832278
O O9 0.441587 0.221916 0.749389
O O10 0.383827 0.223180 0.000000
O O11 0.122142 0.000000 0.182022
O O12 0.165620 0.237534 0.000000
O O13 0.500000 0.500000 0.667350
O O14 0.500000 0.223666 0.500000
#
# Coordination Sequence:
#
# PCOD8195474 Si02
#       5
#     4   8   8   8   4
#     4   9  18  34  57  85 117 148 179 222 271 319
#     4  10  19  31  49  73 102 139 182 228 280 333
#     4   9  16  25  40  63  94 134 179 228 281 334
#     4  10  20  34  55  82 111 145 184 225 272 326
#     4   9  15  23  35  57  94 135 178 228 279 334
#
# _framework density 20.319320999999999
#
# number of rings (size 3 to 8) (size 9 to 14) (size 15 to 20)
#    0.000    2.500    1.250    1.875    0.000    6.500 
#    0.000    2.500    0.000    1.500    0.000    2.625 
#    0.000    7.000    0.000    0.000    0.000    0.000 
#
# Total GULP energy -396829.709755 kJ/mol
# GULP energy per Si atom -12400.928430 kJ/mol
# Density = 2.027307 g / cm^3
# Si number density = 20.319321 Si / 1000 Ang^3
#
#
#
# Elastic Constant Matrix: (Units=GPa)
#
#
# Indices 1 2 3 4 5 6 
#
# 1 181.7136 50.3190 64.5515 0.0000 0.0000 0.0000
# 2 50.3190 77.2233 28.9943 0.0000 0.0000 0.0000
# 3 64.5515 28.9943 120.3991 0.0000 0.0000 0.0000
# 4 0.0000 0.0000 0.0000 10.1495 0.0000 0.0000
# 5 0.0000 0.0000 0.0000 0.0000 12.6956 0.0000
# 6 0.0000 0.0000 0.0000 0.0000 0.0000 1.3756
#
#
#
# Elastic Compliance Matrix: (Units=1/GPa)
#
#
# Indices 1 2 3 4 5 6 
#
# 1 0.007699 -0.003811 -0.003210 0.000000 0.000000 0.000000
# 2 -0.003811 0.016124 -0.001839 0.000000 0.000000 0.000000
# 3 -0.003210 -0.001839 0.010470 0.000000 0.000000 0.000000
# 4 0.000000 0.000000 0.000000 0.098527 0.000000 0.000000
# 5 0.000000 0.000000 0.000000 0.000000 0.078768 0.000000
# 6 0.000000 0.000000 0.000000 0.000000 0.000000 0.726951
#
#
# Mechanical properties :
#
#
# Convention : Reuss Voigt Hill
#
# Bulk Modulus (GPa) = 60.34723 74.11841 67.23282
# Shear Modulus (GPa) = 5.19868 20.54221 12.87044
#
# Velocity S-wave (km/s) = 1.60126 3.18302 2.51949
# Velocity P-wave (km/s) = 5.76044 7.07565 6.45165
#
# Compressibility (1/GPa) = 0.01657077
#
# Stress axis : x y z
#
# Youngs Moduli (GPa) = 129.88927 62.02080 95.51442
#
# Poissons Ratio (x) = 0.23639 0.30659
# Poissons Ratio (y) = 0.49506 0.17569
# Poissons Ratio (z) = 0.41693 0.11408
#
# Static dielectric constant tensor:
#      x y z
#    x 3.780890 0.000000 0.000000 
#    y 0.000000 3.348750 0.000000 
#    z 0.000000 0.000000 3.598970 
# 
# 
# High freq. dielectric constant tensor:
#      x y z
#    x 1.793620 0.000000 0.000000 
#    y 0.000000 1.768880 0.000000 
#    z 0.000000 0.000000 1.782370 
# 
# From -- ./inp_files/12013.got.cif
#   From: 2010.03.12/outbox.cif.g09.slc.cpg/sg47_7_cif.got.tgz:12013.got - 2010.04.14 03:12:58.
