data_PCOD8195676
_publ_section_title
;
Structure prediction by ZEFSAII (Michael W. Deem and Ramdas Pophale) SiO2 
 PCOD8195676
Probable space group: P M M M
;
_chemical_formula_sum "Si O2"
_cell_formula_units_Z 64
_cell_length_a 9.329779
_cell_length_b 20.173596
_cell_length_c 18.056727
_cell_angle_alpha 90.000000
_cell_angle_beta 90.000000
_cell_angle_gamma 90.000000
_cell_volume 3398.550345
_symmetry_space_group_name_H-M "P M M M"
_symmetry_group_IT_number 47
_symmetry_cell_setting 'orthorhombic'
loop_
_space_group_symop_operation_xyz
x,y,z
-x,-y,z
x,-y,-z
-x,y,-z
-x,-y,-z
x,y,-z
-x,y,z
x,-y,z
loop_
_atom_site_type_symbol
_atom_site_label
_atom_site_fract_x
_atom_site_fract_y
_atom_site_fract_z
Si Si1 0.662470 0.396708 0.083646
Si Si2 0.662932 0.747699 0.854646
Si Si3 0.665953 0.785307 0.416730
Si Si4 0.333182 0.925605 0.636512
Si Si5 0.835707 0.427725 0.776274
Si Si6 0.154654 0.076397 0.227598
Si Si7 0.829039 0.710842 0.712132
Si Si8 0.836090 0.859254 0.919339
O O1 0.500000 0.422646 0.089954
O O2 0.670120 0.319593 0.100622
O O3 0.755267 0.433447 0.145364
O O4 0.720036 0.410367 0.000000
O O5 0.500000 0.765055 0.831632
O O6 0.762322 0.750346 0.781356
O O7 0.726795 0.798979 0.912772
O O8 0.692880 0.759488 0.500000
O O9 0.500000 0.776154 0.393348
O O10 0.704140 0.864720 0.418289
O O11 0.763342 0.740202 0.363344
O O12 0.500000 0.933374 0.647680
O O13 0.270453 0.898326 0.713983
O O14 0.274693 0.000000 0.612050
O O15 0.815219 0.500000 0.736599
O O16 0.784286 0.367342 0.722773
O O17 0.000000 0.414370 0.796237
O O18 0.205484 0.088147 0.143774
O O19 0.000000 0.111238 0.242794
O O20 0.135415 0.000000 0.240341
O O21 0.000000 0.719991 0.709922
O O22 0.000000 0.834410 0.910622
O O23 0.814203 0.892473 0.000000
#
# Coordination Sequence:
#
# PCOD8195676 Si02
#       8
#     8   8   8   8   8   8   8   8
#     4   9  18  31  46  68 100 135 169 206 250 300
#     4  10  19  32  50  70  95 129 168 207 250 301
#     4  10  21  36  55  81 111 139 166 200 244 294
#     4   9  18  33  53  76 102 134 170 204 240 288
#     4   9  19  35  53  74 100 132 172 215 257 301
#     4   9  18  32  48  65  88 122 163 205 250 300
#     4  10  20  35  56  79 103 133 169 209 252 300
#     4  10  20  31  44  65  92 123 164 215 264 305
#
# _framework density 18.831557
#
# number of rings (size 3 to 8) (size 9 to 14) (size 15 to 20)
#    0.000    2.500    0.000    1.875    0.000    6.250 
#    0.000    3.750    0.000    0.375    0.000    7.875 
#    0.000    0.000    0.000    0.000    0.000    0.000 
#
# Total GULP energy -792891.086794 kJ/mol
# GULP energy per Si atom -12388.923231 kJ/mol
# Density = 1.878870 g / cm^3
# Si number density = 18.831557 Si / 1000 Ang^3
#
#
#
# Elastic Constant Matrix: (Units=GPa)
#
#
# Indices 1 2 3 4 5 6 
#
# 1 59.1268 34.3815 35.4235 0.0000 0.0000 0.0000
# 2 34.3815 59.7841 38.5111 0.0000 0.0000 0.0000
# 3 35.4235 38.5111 99.2392 0.0000 0.0000 0.0000
# 4 0.0000 0.0000 0.0000 9.1144 0.0000 0.0000
# 5 0.0000 0.0000 0.0000 0.0000 26.3493 0.0000
# 6 0.0000 0.0000 0.0000 0.0000 0.0000 19.9955
#
#
#
# Elastic Compliance Matrix: (Units=1/GPa)
#
#
# Indices 1 2 3 4 5 6 
#
# 1 0.027037 -0.012442 -0.004822 0.000000 0.000000 0.000000
# 2 -0.012442 0.028028 -0.006435 0.000000 0.000000 0.000000
# 3 -0.004822 -0.006435 0.014295 0.000000 0.000000 0.000000
# 4 0.000000 0.000000 0.000000 0.109717 0.000000 0.000000
# 5 0.000000 0.000000 0.000000 0.000000 0.037952 0.000000
# 6 0.000000 0.000000 0.000000 0.000000 0.000000 0.050011
#
#
# Mechanical properties :
#
#
# Convention : Reuss Voigt Hill
#
# Bulk Modulus (GPa) = 45.53734 48.30916 46.92325
# Shear Modulus (GPa) = 15.53953 18.41411 16.97682
#
# Velocity S-wave (km/s) = 2.87572 3.13042 3.00577
# Velocity P-wave (km/s) = 5.93803 6.22696 6.08421
#
# Compressibility (1/GPa) = 0.02196000
#
# Stress axis : x y z
#
# Youngs Moduli (GPa) = 36.98620 35.67881 69.95291
#
# Poissons Ratio (x) = 0.44393 0.33735
# Poissons Ratio (y) = 0.46020 0.45016
# Poissons Ratio (z) = 0.17836 0.22960
#
# Static dielectric constant tensor:
#      x y z
#    x 3.874730 0.000000 0.000000 
#    y 0.000000 3.583960 0.000000 
#    z 0.000000 0.000000 3.341000 
# 
# 
# High freq. dielectric constant tensor:
#      x y z
#    x 1.728420 0.000000 0.000000 
#    y 0.000000 1.729650 0.000000 
#    z 0.000000 0.000000 1.712870 
# 
# From -- ./inp_files/9997.got.cif
#   From: 2010.03.12/outbox.cif.g09.slc.cpg/sg47_5_cif.got.tgz:9997.got - 2010.04.14 03:12:58.
