data_PCOD8195940
_publ_section_title
;
Structure prediction by ZEFSAII (Michael W. Deem and Ramdas Pophale) SiO2 
 PCOD8195940
Probable space group: P M M M
;
_chemical_formula_sum "Si O2"
_cell_formula_units_Z 48
_cell_length_a 8.085726
_cell_length_b 7.916332
_cell_length_c 35.756444
_cell_angle_alpha 90.000000
_cell_angle_beta 90.000000
_cell_angle_gamma 90.000000
_cell_volume 2288.744646
_symmetry_space_group_name_H-M "P M M M"
_symmetry_group_IT_number 47
_symmetry_cell_setting 'orthorhombic'
loop_
_space_group_symop_operation_xyz
x,y,z
-x,-y,z
x,-y,-z
-x,y,-z
-x,-y,-z
x,y,-z
-x,y,z
x,-y,z
loop_
_atom_site_type_symbol
_atom_site_label
_atom_site_fract_x
_atom_site_fract_y
_atom_site_fract_z
Si Si1 0.000000 0.799306 0.041918
Si Si2 0.805571 0.000000 0.782225
Si Si3 0.675514 0.810735 0.500000
Si Si4 0.812861 0.308408 0.575665
Si Si5 0.313599 0.802222 0.089491
Si Si6 0.692135 0.000000 0.699062
Si Si7 0.689906 0.311859 0.653914
Si Si8 0.808821 0.309799 0.833664
O O1 0.830730 0.734613 0.061800
O O2 0.000000 0.000000 0.040970
O O3 0.000000 0.725180 0.000000
O O4 0.749236 0.169665 0.803948
O O5 0.712972 0.000000 0.743196
O O6 0.000000 0.000000 0.775022
O O7 0.500000 0.707029 0.500000
O O8 0.780814 0.785323 0.462806
O O9 0.621351 0.000000 0.500000
O O10 0.770360 0.500000 0.566642
O O11 0.705132 0.246890 0.611048
O O12 0.000000 0.279064 0.588061
O O13 0.500000 0.766892 0.073532
O O14 0.297412 0.707341 0.128807
O O15 0.287185 0.000000 0.096646
O O16 0.772562 0.829176 0.681186
O O17 0.500000 0.000000 0.688307
O O18 0.500000 0.330241 0.664638
O O19 0.773494 0.500000 0.658606
O O20 0.783052 0.500000 0.817462
O O21 0.000000 0.276438 0.843913
#
# Coordination Sequence:
#
# PCOD8195940 Si02
#       8
#     4   4   4   8   8   4   8   8
#     4   9  18  32  53  83 123 166 205 253 308 357
#     4  10  22  38  58  86 121 152 187 238 297 353
#     4  11  24  37  52  78 112 147 184 227 272 328
#     4  10  21  37  57  82 110 141 180 230 283 332
#     4  10  19  32  56  85 116 158 205 252 302 359
#     4  10  22  38  58  83 113 148 189 233 281 342
#     4   9  19  37  59  81 109 149 192 233 280 337
#     4  10  20  36  60  86 115 155 198 242 297 359
#
# _framework density 20.972197000000001
#
# number of rings (size 3 to 8) (size 9 to 14) (size 15 to 20)
#    0.000    2.167    1.667    1.000    1.167    5.333 
#    0.000    1.667    0.000    1.000    0.000    1.167 
#    0.000    0.000    0.000    0.000    0.000    0.000 
#
# Total GULP energy -594895.895842 kJ/mol
# GULP energy per Si atom -12393.664497 kJ/mol
# Density = 2.092446 g / cm^3
# Si number density = 20.972197 Si / 1000 Ang^3
#
#
#
# Elastic Constant Matrix: (Units=GPa)
#
#
# Indices 1 2 3 4 5 6 
#
# 1 70.7778 28.1767 35.6622 0.0000 0.0000 0.0000
# 2 28.1767 113.4509 66.4108 0.0000 0.0000 0.0000
# 3 35.6622 66.4108 143.3380 0.0000 0.0000 0.0000
# 4 0.0000 0.0000 0.0000 12.9121 0.0000 0.0000
# 5 0.0000 0.0000 0.0000 0.0000 31.1419 0.0000
# 6 0.0000 0.0000 0.0000 0.0000 0.0000 13.0212
#
#
#
# Elastic Compliance Matrix: (Units=1/GPa)
#
#
# Indices 1 2 3 4 5 6 
#
# 1 0.016594 -0.002339 -0.003045 0.000000 0.000000 0.000000
# 2 -0.002339 0.012424 -0.005174 0.000000 0.000000 0.000000
# 3 -0.003045 -0.005174 0.010131 0.000000 0.000000 0.000000
# 4 0.000000 0.000000 0.000000 0.077447 0.000000 0.000000
# 5 0.000000 0.000000 0.000000 0.000000 0.032111 0.000000
# 6 0.000000 0.000000 0.000000 0.000000 0.000000 0.076798
#
#
# Mechanical properties :
#
#
# Convention : Reuss Voigt Hill
#
# Bulk Modulus (GPa) = 55.45307 65.34067 60.39687
# Shear Modulus (GPa) = 19.79157 24.56952 22.18055
#
# Velocity S-wave (km/s) = 3.07531 3.42647 3.25563
# Velocity P-wave (km/s) = 6.25369 6.84673 6.55692
#
# Compressibility (1/GPa) = 0.01803327
#
# Stress axis : x y z
#
# Youngs Moduli (GPa) = 60.26258 80.48786 98.70228
#
# Poissons Ratio (x) = 0.18825 0.30054
# Poissons Ratio (y) = 0.14095 0.51073
# Poissons Ratio (z) = 0.18349 0.41648
#
# Static dielectric constant tensor:
#      x y z
#    x 3.669110 0.000000 0.000000 
#    y 0.000000 3.960940 0.000000 
#    z 0.000000 0.000000 3.774030 
# 
# 
# High freq. dielectric constant tensor:
#      x y z
#    x 1.812440 0.000000 0.000000 
#    y 0.000000 1.817230 0.000000 
#    z 0.000000 0.000000 1.806740 
# 
# From -- ./inp_files/34241.got.cif
#   From: 2010.03.12/outbox.cif.g09.slc.cpg/sg47_18_cif.got.tgz:34241.got - 2010.04.14 03:12:58.
