data_PCOD8195563
_publ_section_title
;
Structure prediction by ZEFSAII (Michael W. Deem and Ramdas Pophale) SiO2 
 PCOD8195563
Probable space group: P M M M
;
_chemical_formula_sum "Si O2"
_cell_formula_units_Z 52
_cell_length_a 13.791308
_cell_length_b 9.262122
_cell_length_c 21.195850
_cell_angle_alpha 90.000000
_cell_angle_beta 90.000000
_cell_angle_gamma 90.000000
_cell_volume 2707.489570
_symmetry_space_group_name_H-M "P M M M"
_symmetry_group_IT_number 47
_symmetry_cell_setting 'orthorhombic'
loop_
_space_group_symop_operation_xyz
x,y,z
-x,-y,z
x,-y,-z
-x,y,-z
-x,-y,-z
x,y,-z
-x,y,z
x,-y,z
loop_
_atom_site_type_symbol
_atom_site_label
_atom_site_fract_x
_atom_site_fract_y
_atom_site_fract_z
Si Si1 0.615095 0.163221 0.310306
Si Si2 0.702974 0.333253 0.805440
Si Si3 0.884399 0.837239 0.618822
Si Si4 0.115999 0.662808 0.500000
Si Si5 0.390469 0.671420 0.068791
Si Si6 0.384688 0.336001 0.570059
Si Si7 0.891591 0.664469 0.260420
O O1 0.500000 0.168422 0.312842
O O2 0.647584 0.248474 0.248709
O O3 0.658763 0.233655 0.374720
O O4 0.653986 0.000000 0.306541
O O5 0.670720 0.500000 0.799975
O O6 0.675841 0.268735 0.874204
O O7 0.819295 0.316965 0.798504
O O8 0.841682 0.743571 0.561330
O O9 0.850699 0.766343 0.684294
O O10 0.000000 0.834833 0.615278
O O11 0.844657 0.000000 0.614667
O O12 0.155717 0.500000 0.500000
O O13 0.000000 0.665089 0.500000
O O14 0.500000 0.724727 0.080712
O O15 0.386739 0.500000 0.067994
O O16 0.354228 0.728963 0.000000
O O17 0.344144 0.293398 0.500000
O O18 0.500000 0.320893 0.568724
O O19 0.355197 0.500000 0.586214
O O20 0.891378 0.500000 0.285633
O O21 0.000000 0.709545 0.238988
#
# Coordination Sequence:
#
# PCOD8195563 Si02
#       7
#     8   8   8   4   8   8   8
#     4  10  20  31  45  70 103 133 160 198 249 299
#     4  10  19  31  51  74  97 130 169 206 244 292
#     4   9  16  26  42  64  88 116 154 200 250 303
#     4   9  15  23  39  63  89 117 150 193 250 311
#     4   8  14  26  47  77 108 133 161 199 239 282
#     4   8  14  26  45  67  91 124 166 206 242 286
#     4   9  18  32  48  67  93 125 163 208 256 301
#
# _framework density 19.205981999999999
#
# number of rings (size 3 to 8) (size 9 to 14) (size 15 to 20)
#    0.000    3.000    0.000    2.538    0.000    5.231 
#    0.000    1.538    1.692    0.923    0.000    5.385 
#    0.000    0.000    0.000    5.231    0.000    5.692 
#
# Total GULP energy -644619.025835 kJ/mol
# GULP energy per Si atom -12396.519728 kJ/mol
# Density = 1.916227 g / cm^3
# Si number density = 19.205982 Si / 1000 Ang^3
#
#
#
# Elastic Constant Matrix: (Units=GPa)
#
#
# Indices 1 2 3 4 5 6 
#
# 1 37.3285 23.7316 56.8480 0.0000 0.0000 0.0000
# 2 23.7316 97.2541 68.9212 0.0000 0.0000 0.0000
# 3 56.8480 68.9212 190.0760 0.0000 0.0000 0.0000
# 4 0.0000 0.0000 0.0000 6.0123 0.0000 0.0000
# 5 0.0000 0.0000 0.0000 0.0000 28.3974 0.0000
# 6 0.0000 0.0000 0.0000 0.0000 0.0000 11.1043
#
#
#
# Elastic Compliance Matrix: (Units=1/GPa)
#
#
# Indices 1 2 3 4 5 6 
#
# 1 0.049525 -0.002137 -0.014037 0.000000 0.000000 0.000000
# 2 -0.002137 0.013931 -0.004412 0.000000 0.000000 0.000000
# 3 -0.014037 -0.004412 0.011059 0.000000 0.000000 0.000000
# 4 0.000000 0.000000 0.000000 0.166325 0.000000 0.000000
# 5 0.000000 0.000000 0.000000 0.000000 0.035214 0.000000
# 6 0.000000 0.000000 0.000000 0.000000 0.000000 0.090055
#
#
# Mechanical properties :
#
#
# Convention : Reuss Voigt Hill
#
# Bulk Modulus (GPa) = 29.99210 69.29559 49.64384
# Shear Modulus (GPa) = 11.95041 20.77999 16.36520
#
# Velocity S-wave (km/s) = 2.49715 3.29288 2.92222
# Velocity P-wave (km/s) = 4.89533 7.11449 6.10656
#
# Compressibility (1/GPa) = 0.03334211
#
# Stress axis : x y z
#
# Youngs Moduli (GPa) = 20.19176 71.78493 90.42405
#
# Poissons Ratio (x) = 0.15343 1.26928
# Poissons Ratio (y) = 0.04316 0.39895
# Poissons Ratio (z) = 0.28343 0.31671
#
# Static dielectric constant tensor:
#      x y z
#    x 3.420440 0.000000 0.000000 
#    y 0.000000 3.451530 0.000000 
#    z 0.000000 0.000000 3.769970 
# 
# 
# High freq. dielectric constant tensor:
#      x y z
#    x 1.744420 0.000000 0.000000 
#    y 0.000000 1.726890 0.000000 
#    z 0.000000 0.000000 1.732120 
# 
# From -- ./inp_files/30827.got.cif
#   From: 2010.03.12/outbox.cif.g09.slc.cpg/sg47_16_cif.got.tgz:30827.got - 2010.04.14 03:12:58.
