data_PCOD8195136
_publ_section_title
;
Structure prediction by ZEFSAII (Michael W. Deem and Ramdas Pophale) SiO2 
 PCOD8195136
Probable space group: P M M M
;
_chemical_formula_sum "Si O2"
_cell_formula_units_Z 52
_cell_length_a 13.688562
_cell_length_b 8.304790
_cell_length_c 23.104024
_cell_angle_alpha 90.000000
_cell_angle_beta 90.000000
_cell_angle_gamma 90.000000
_cell_volume 2626.480069
_symmetry_space_group_name_H-M "P M M M"
_symmetry_group_IT_number 47
_symmetry_cell_setting 'orthorhombic'
loop_
_space_group_symop_operation_xyz
x,y,z
-x,-y,z
x,-y,-z
-x,y,-z
-x,-y,-z
x,y,-z
-x,y,z
x,-y,z
loop_
_atom_site_type_symbol
_atom_site_label
_atom_site_fract_x
_atom_site_fract_y
_atom_site_fract_z
Si Si1 0.891834 0.308894 0.566061
Si Si2 0.213928 0.807948 0.936090
Si Si3 0.696830 0.312538 0.625880
Si Si4 0.106456 0.191530 0.175109
Si Si5 0.606172 0.191065 0.865400
Si Si6 0.500000 0.308448 0.433786
Si Si7 0.285579 0.810424 0.248527
O O1 0.876851 0.253953 0.500000
O O2 0.891185 0.500000 0.570722
O O3 0.799647 0.236270 0.602309
O O4 0.000000 0.247220 0.587822
O O5 0.135472 0.745335 0.889078
O O6 0.319371 0.744611 0.914018
O O7 0.213193 0.000000 0.938774
O O8 0.191827 0.736450 0.000000
O O9 0.698889 0.500000 0.611521
O O10 0.599225 0.238317 0.595938
O O11 0.688252 0.284993 0.694021
O O12 0.179864 0.248299 0.225184
O O13 0.000000 0.260268 0.190564
O O14 0.108441 0.000000 0.172651
O O15 0.500000 0.265593 0.878410
O O16 0.637053 0.239952 0.800506
O O17 0.604463 0.000000 0.868532
O O18 0.500000 0.500000 0.428311
O O19 0.500000 0.251316 0.500000
O O20 0.287128 0.000000 0.261516
#
# Coordination Sequence:
#
# PCOD8195136 Si02
#       7
#     8   8   8   8   8   4   8
#     4   8  14  26  45  67  88 110 138 173 213 256
#     4   8  13  20  31  52  80 107 141 182 219 257
#     4  10  19  30  47  70  91 112 143 182 218 254
#     4   8  14  25  39  55  80 115 149 178 214 263
#     4   8  14  24  37  52  74 108 144 175 211 257
#     4   9  18  32  49  69  93 119 144 175 220 270
#     4   9  18  30  43  61  85 116 150 178 208 254
#
# _framework density 19.798361
#
# number of rings (size 3 to 8) (size 9 to 14) (size 15 to 20)
#    0.000    3.462    0.000    2.769    1.077    3.077 
#    0.000    3.077    0.000    2.308    0.000    1.077 
#    0.000    9.846    0.000   11.077    0.000   12.308 
#
# Total GULP energy -644203.613063 kJ/mol
# GULP energy per Si atom -12388.531020 kJ/mol
# Density = 1.975330 g / cm^3
# Si number density = 19.798361 Si / 1000 Ang^3
#
#
#
# Elastic Constant Matrix: (Units=GPa)
#
#
# Indices 1 2 3 4 5 6 
#
# 1 144.3188 5.1787 44.3273 0.0000 0.0000 0.0000
# 2 5.1787 3.3058 0.3816 0.0000 0.0000 0.0000
# 3 44.3273 0.3816 115.8945 0.0000 0.0000 0.0000
# 4 0.0000 0.0000 0.0000 25.7867 0.0000 0.0000
# 5 0.0000 0.0000 0.0000 0.0000 16.8785 0.0000
# 6 0.0000 0.0000 0.0000 0.0000 0.0000 4.1827
#
#
#
# Elastic Compliance Matrix: (Units=1/GPa)
#
#
# Indices 1 2 3 4 5 6 
#
# 1 0.008354 -0.012723 -0.003153 0.000000 0.000000 0.000000
# 2 -0.012723 0.321992 0.003806 0.000000 0.000000 0.000000
# 3 -0.003153 0.003806 0.009822 0.000000 0.000000 0.000000
# 4 0.000000 0.000000 0.000000 0.038780 0.000000 0.000000
# 5 0.000000 0.000000 0.000000 0.000000 0.059247 0.000000
# 6 0.000000 0.000000 0.000000 0.000000 0.000000 0.239082
#
#
# Mechanical properties :
#
#
# Convention : Reuss Voigt Hill
#
# Bulk Modulus (GPa) = 3.16429 40.36605 21.76517
# Shear Modulus (GPa) = 6.19762 23.61165 14.90464
#
# Velocity S-wave (km/s) = 1.77121 3.45716 2.74674
# Velocity P-wave (km/s) = 2.40512 6.03065 4.59094
#
# Compressibility (1/GPa) = 0.31602707
#
# Stress axis : x y z
#
# Youngs Moduli (GPa) = 119.69956 3.10567 101.81085
#
# Poissons Ratio (x) = 0.03951 0.32105
# Poissons Ratio (y) = 1.52299 -0.38751
# Poissons Ratio (z) = 0.37747 -0.01182
#
# Static dielectric constant tensor:
#      x y z
#    x 4.366810 0.000000 0.000000 
#    y 0.000000 2.769380 0.000000 
#    z 0.000000 0.000000 3.607930 
# 
# 
# High freq. dielectric constant tensor:
#      x y z
#    x 1.788310 0.000000 0.000000 
#    y 0.000000 1.691190 0.000000 
#    z 0.000000 0.000000 1.770350 
# 
# From -- ./inp_files/11002.got.cif
#   From: 2010.03.12/outbox.cif.g09.slc.cpg/sg47_6_cif.got.tgz:11002.got - 2010.04.14 03:12:58.
