data_PCOD8195487
_publ_section_title
;
Structure prediction by ZEFSAII (Michael W. Deem and Ramdas Pophale) SiO2 
 PCOD8195487
Probable space group: P M M M
;
_chemical_formula_sum "Si O2"
_cell_formula_units_Z 64
_cell_length_a 23.176596
_cell_length_b 15.604223
_cell_length_c 9.152164
_cell_angle_alpha 90.000000
_cell_angle_beta 90.000000
_cell_angle_gamma 90.000000
_cell_volume 3309.905484
_symmetry_space_group_name_H-M "P M M M"
_symmetry_group_IT_number 47
_symmetry_cell_setting 'orthorhombic'
loop_
_space_group_symop_operation_xyz
x,y,z
-x,-y,z
x,-y,-z
-x,y,-z
-x,-y,-z
x,y,-z
-x,y,z
x,-y,z
loop_
_atom_site_type_symbol
_atom_site_label
_atom_site_fract_x
_atom_site_fract_y
_atom_site_fract_z
Si Si1 0.843841 0.902182 0.329557
Si Si2 0.935097 0.241645 0.331910
Si Si3 0.564675 0.731140 0.172838
Si Si4 0.111142 0.599630 0.171297
Si Si5 0.269880 0.155612 0.168538
Si Si6 0.392928 0.909673 0.167270
Si Si7 0.218932 0.597664 0.342790
Si Si8 0.327452 0.311008 0.668804
O O1 0.829675 0.888918 0.500000
O O2 0.892389 0.834046 0.276607
O O3 0.786166 0.887721 0.236803
O O4 0.865413 0.000000 0.301472
O O5 0.922205 0.262579 0.500000
O O6 0.931116 0.332167 0.246317
O O7 0.000000 0.206839 0.309918
O O8 0.500000 0.701590 0.213278
O O9 0.576455 0.826698 0.238351
O O10 0.611855 0.670582 0.249541
O O11 0.575284 0.728197 0.000000
O O12 0.097423 0.500000 0.215787
O O13 0.175505 0.631183 0.218513
O O14 0.105566 0.610017 0.000000
O O15 0.323742 0.091249 0.179321
O O16 0.288034 0.237916 0.260805
O O17 0.257914 0.180768 0.000000
O O18 0.413604 0.000000 0.239978
O O19 0.412564 0.909615 0.000000
O O20 0.206599 0.644430 0.500000
O O21 0.204513 0.500000 0.362690
O O22 0.286807 0.606631 0.306081
O O23 0.340799 0.290991 0.500000
#
# Coordination Sequence:
#
# PCOD8195487 Si02
#       8
#     8   8   8   8   8   8   8   8
#     4  10  21  36  54  77 105 136 173 222 273 312
#     4  10  22  39  57  77 103 140 184 221 256 307
#     4   9  18  31  46  66  93 127 167 208 249 294
#     4  10  21  36  56  84 114 140 167 206 260 317
#     4  10  19  31  49  74 103 132 164 202 249 309
#     4   8  14  25  42  65  91 118 151 192 235 280
#     4   9  18  33  53  77 104 131 160 198 246 303
#     4  10  19  31  50  74  99 129 165 206 253 302
#
# _framework density 19.335899000000001
#
# number of rings (size 3 to 8) (size 9 to 14) (size 15 to 20)
#    0.000    2.500    0.000    3.000    0.000    7.250 
#    0.000    3.750    0.000    3.750    0.000    7.875 
#    0.000    0.000    0.000    0.000    0.000    0.000 
#
# Total GULP energy -792868.571064 kJ/mol
# GULP energy per Si atom -12388.571423 kJ/mol
# Density = 1.929189 g / cm^3
# Si number density = 19.335899 Si / 1000 Ang^3
#
#
#
# Elastic Constant Matrix: (Units=GPa)
#
#
# Indices 1 2 3 4 5 6 
#
# 1 98.6317 28.1401 34.6705 0.0000 0.0000 0.0000
# 2 28.1401 53.0658 28.8005 0.0000 0.0000 0.0000
# 3 34.6705 28.8005 66.6562 0.0000 0.0000 0.0000
# 4 0.0000 0.0000 0.0000 20.0814 0.0000 0.0000
# 5 0.0000 0.0000 0.0000 0.0000 27.0450 0.0000
# 6 0.0000 0.0000 0.0000 0.0000 0.0000 15.5467
#
#
#
# Elastic Compliance Matrix: (Units=1/GPa)
#
#
# Indices 1 2 3 4 5 6 
#
# 1 0.013100 -0.004244 -0.004980 0.000000 0.000000 0.000000
# 2 -0.004244 0.025992 -0.009023 0.000000 0.000000 0.000000
# 3 -0.004980 -0.009023 0.021491 0.000000 0.000000 0.000000
# 4 0.000000 0.000000 0.000000 0.049797 0.000000 0.000000
# 5 0.000000 0.000000 0.000000 0.000000 0.036975 0.000000
# 6 0.000000 0.000000 0.000000 0.000000 0.000000 0.064322
#
#
# Mechanical properties :
#
#
# Convention : Reuss Voigt Hill
#
# Bulk Modulus (GPa) = 41.51238 44.61955 43.06597
# Shear Modulus (GPa) = 19.51575 20.98412 20.24993
#
# Velocity S-wave (km/s) = 3.18040 3.29787 3.23967
# Velocity P-wave (km/s) = 5.91627 6.13412 6.02618
#
# Compressibility (1/GPa) = 0.02408920
#
# Stress axis : x y z
#
# Youngs Moduli (GPa) = 76.33500 38.47313 46.53011
#
# Poissons Ratio (x) = 0.16328 0.23173
# Poissons Ratio (y) = 0.32396 0.41985
# Poissons Ratio (z) = 0.38017 0.34715
#
# Static dielectric constant tensor:
#      x y z
#    x 3.572740 0.000000 0.000000 
#    y 0.000000 3.584150 0.000000 
#    z 0.000000 0.000000 3.503920 
# 
# 
# High freq. dielectric constant tensor:
#      x y z
#    x 1.750410 0.000000 0.000000 
#    y 0.000000 1.739050 0.000000 
#    z 0.000000 0.000000 1.736070 
# 
# From -- ./inp_files/12663.got.cif
#   From: 2010.03.12/outbox.cif.g09.slc.cpg/sg47_7_cif.got.tgz:12663.got - 2010.04.14 03:12:58.
