data_PCOD8195081
_publ_section_title
;
Structure prediction by ZEFSAII (Michael W. Deem and Ramdas Pophale) SiO2 
 PCOD8195081
Probable space group: P M M M
;
_chemical_formula_sum "Si O2"
_cell_formula_units_Z 52
_cell_length_a 18.075429
_cell_length_b 18.837004
_cell_length_c 9.048018
_cell_angle_alpha 90.000000
_cell_angle_beta 90.000000
_cell_angle_gamma 90.000000
_cell_volume 3080.731857
_symmetry_space_group_name_H-M "P M M M"
_symmetry_group_IT_number 47
_symmetry_cell_setting 'orthorhombic'
loop_
_space_group_symop_operation_xyz
x,y,z
-x,-y,z
x,-y,-z
-x,y,-z
-x,-y,-z
x,y,-z
-x,y,z
x,-y,z
loop_
_atom_site_type_symbol
_atom_site_label
_atom_site_fract_x
_atom_site_fract_y
_atom_site_fract_z
Si Si1 0.794786 0.212075 0.663200
Si Si2 0.650273 0.138741 0.676067
Si Si3 0.827605 0.420992 0.170792
Si Si4 0.082559 0.714398 0.825700
Si Si5 0.298870 0.645063 0.665351
Si Si6 0.585648 0.273165 0.168877
Si Si7 0.586622 0.000000 0.174631
O O1 0.825228 0.194922 0.500000
O O2 0.737540 0.150759 0.715066
O O3 0.865671 0.221228 0.768824
O O4 0.748044 0.283521 0.662036
O O5 0.638736 0.134870 0.500000
O O6 0.600391 0.202176 0.738401
O O7 0.624994 0.067487 0.753607
O O8 0.860715 0.500000 0.195455
O O9 0.886967 0.362656 0.226321
O O10 0.750856 0.415718 0.259987
O O11 0.809033 0.407039 0.000000
O O12 0.000000 0.723181 0.760358
O O13 0.080806 0.719436 0.000000
O O14 0.321147 0.621362 0.500000
O O15 0.372097 0.659283 0.761590
O O16 0.500000 0.292102 0.176414
O O17 0.611844 0.261165 0.000000
O O18 0.500000 0.000000 0.212726
O O19 0.600107 0.000000 0.000000
#
# Coordination Sequence:
#
# PCOD8195081 Si02
#       7
#     8   8   8   8   8   8   4
#     4   8  16  30  46  65  88 117 154 191 227 268
#     4  10  20  33  49  69  94 126 162 195 227 269
#     4   9  17  29  45  64  89 123 156 185 224 275
#     4   9  17  28  44  69  97 122 151 188 228 271
#     4   9  17  29  45  64  86 114 151 193 231 271
#     4  10  19  30  46  68  92 117 148 189 235 279
#     4  11  23  35  47  69 102 135 164 193 229 274
#
# _framework density 16.879106
#
# number of rings (size 3 to 8) (size 9 to 14) (size 15 to 20)
#    0.000    2.692    0.000    3.000    0.000    8.923 
#    0.000    1.538    0.000    0.462    0.000    8.077 
#    0.000    4.308    0.000    0.000    0.000    0.000 
#
# Total GULP energy -644585.861607 kJ/mol
# GULP energy per Si atom -12395.881954 kJ/mol
# Density = 1.684069 g / cm^3
# Si number density = 16.879106 Si / 1000 Ang^3
#
#
#
# Elastic Constant Matrix: (Units=GPa)
#
#
# Indices 1 2 3 4 5 6 
#
# 1 120.4334 46.2388 54.7330 0.0000 0.0000 0.0000
# 2 46.2388 53.3196 29.8638 0.0000 0.0000 0.0000
# 3 54.7330 29.8638 83.8113 0.0000 0.0000 0.0000
# 4 0.0000 0.0000 0.0000 20.6257 0.0000 0.0000
# 5 0.0000 0.0000 0.0000 0.0000 22.8232 0.0000
# 6 0.0000 0.0000 0.0000 0.0000 0.0000 21.1152
#
#
#
# Elastic Compliance Matrix: (Units=1/GPa)
#
#
# Indices 1 2 3 4 5 6 
#
# 1 0.014719 -0.009221 -0.006327 0.000000 0.000000 0.000000
# 2 -0.009221 0.029207 -0.004386 0.000000 0.000000 0.000000
# 3 -0.006327 -0.004386 0.017626 0.000000 0.000000 0.000000
# 4 0.000000 0.000000 0.000000 0.048483 0.000000 0.000000
# 5 0.000000 0.000000 0.000000 0.000000 0.043815 0.000000
# 6 0.000000 0.000000 0.000000 0.000000 0.000000 0.047359
#
#
# Mechanical properties :
#
#
# Convention : Reuss Voigt Hill
#
# Bulk Modulus (GPa) = 46.11234 57.69283 51.90258
# Shear Modulus (GPa) = 20.13661 21.36139 20.74900
#
# Velocity S-wave (km/s) = 3.45772 3.56132 3.50990
# Velocity P-wave (km/s) = 6.58176 7.15296 6.87330
#
# Compressibility (1/GPa) = 0.02168617
#
# Stress axis : x y z
#
# Youngs Moduli (GPa) = 67.94093 34.23794 56.73490
#
# Poissons Ratio (x) = 0.31569 0.35893
# Poissons Ratio (y) = 0.62646 0.24882
# Poissons Ratio (z) = 0.42983 0.15016
#
# Static dielectric constant tensor:
#      x y z
#    x 3.307600 0.000000 0.000000 
#    y 0.000000 3.101580 0.000000 
#    z 0.000000 0.000000 3.344490 
# 
# 
# High freq. dielectric constant tensor:
#      x y z
#    x 1.642730 0.000000 0.000000 
#    y 0.000000 1.617220 0.000000 
#    z 0.000000 0.000000 1.659960 
# 
# From -- ./inp_files/9568.got.cif
#   From: 2010.03.12/outbox.cif.g09.slc.cpg/sg47_5_cif.got.tgz:9568.got - 2010.04.14 03:12:58.
