data_PCOD8195347
_publ_section_title
;
Structure prediction by ZEFSAII (Michael W. Deem and Ramdas Pophale) SiO2 
 PCOD8195347
Probable space group: P M M M
;
_chemical_formula_sum "Si O2"
_cell_formula_units_Z 44
_cell_length_a 9.852767
_cell_length_b 19.324633
_cell_length_c 13.804803
_cell_angle_alpha 90.000000
_cell_angle_beta 90.000000
_cell_angle_gamma 90.000000
_cell_volume 2628.449764
_symmetry_space_group_name_H-M "P M M M"
_symmetry_group_IT_number 47
_symmetry_cell_setting 'orthorhombic'
loop_
_space_group_symop_operation_xyz
x,y,z
-x,-y,z
x,-y,-z
-x,y,-z
-x,-y,-z
x,y,-z
-x,y,z
x,-y,z
loop_
_atom_site_type_symbol
_atom_site_label
_atom_site_fract_x
_atom_site_fract_y
_atom_site_fract_z
Si Si1 0.500000 0.423648 0.114789
Si Si2 0.153712 0.000000 0.614667
Si Si3 0.252357 0.666573 0.885148
Si Si4 0.346770 0.877024 0.609661
Si Si5 0.152593 0.078160 0.114683
Si Si6 0.343061 0.193235 0.799714
Si Si7 0.000000 0.421982 0.114890
O O1 0.500000 0.500000 0.161626
O O2 0.373040 0.381085 0.151578
O O3 0.500000 0.430619 0.000000
O O4 0.237014 0.932566 0.647948
O O5 0.147466 0.000000 0.500000
O O6 0.000000 0.000000 0.657938
O O7 0.259372 0.739878 0.832304
O O8 0.125179 0.623017 0.848728
O O9 0.252521 0.679960 0.000000
O O10 0.313788 0.852415 0.500000
O O11 0.500000 0.908535 0.613901
O O12 0.337331 0.811937 0.682609
O O13 0.270289 0.126429 0.156074
O O14 0.000000 0.103472 0.143683
O O15 0.175047 0.000000 0.155102
O O16 0.166119 0.077947 0.000000
O O17 0.500000 0.196700 0.836047
O O18 0.000000 0.500000 0.159077
O O19 0.000000 0.428975 0.000000
#
# Coordination Sequence:
#
# PCOD8195347 Si02
#       7
#     4   4   8   8   8   8   4
#     4   9  16  28  48  70  98 132 157 188 238 286
#     4   9  17  31  51  73  92 113 150 205 259 302
#     4  10  19  31  47  72 103 131 163 199 236 283
#     4   9  19  35  52  69  95 129 163 203 254 309
#     4   9  20  37  52  67  92 130 172 207 243 288
#     4  11  22  33  49  73 100 129 167 209 249 296
#     4   9  18  32  50  72 100 134 167 194 228 286
#
# _framework density 16.739906999999999
#
# number of rings (size 3 to 8) (size 9 to 14) (size 15 to 20)
#    0.000    2.455    0.909    1.909    2.545    5.455 
#    0.000    0.909    0.000    0.000    0.000    0.000 
#    0.000    4.364    0.000    0.000    0.000    0.000 
#
# Total GULP energy -545351.027877 kJ/mol
# GULP energy per Si atom -12394.341543 kJ/mol
# Density = 1.670181 g / cm^3
# Si number density = 16.739907 Si / 1000 Ang^3
#
#
#
# Elastic Constant Matrix: (Units=GPa)
#
#
# Indices 1 2 3 4 5 6 
#
# 1 129.2200 65.1442 27.2012 0.0000 0.0000 0.0000
# 2 65.1442 126.1942 40.0662 0.0000 0.0000 0.0000
# 3 27.2012 40.0662 39.3852 0.0000 0.0000 0.0000
# 4 0.0000 0.0000 0.0000 12.3066 0.0000 0.0000
# 5 0.0000 0.0000 0.0000 0.0000 15.2529 0.0000
# 6 0.0000 0.0000 0.0000 0.0000 0.0000 -54.2497
#
#
#
# Elastic Compliance Matrix: (Units=1/GPa)
#
#
# Indices 1 2 3 4 5 6 
#
# 1 0.010639 -0.004666 -0.002601 0.000000 0.000000 0.000000
# 2 -0.004666 0.013751 -0.010766 0.000000 0.000000 0.000000
# 3 -0.002601 -0.010766 0.038139 0.000000 0.000000 0.000000
# 4 0.000000 0.000000 0.000000 0.081257 0.000000 0.000000
# 5 0.000000 0.000000 0.000000 0.000000 0.065561 0.000000
# 6 0.000000 0.000000 0.000000 0.000000 0.000000 -0.018433
#
#
# Mechanical properties :
#
#
# Convention : Reuss Voigt Hill
#
# Bulk Modulus (GPa) = 37.78949 62.18029 49.98489
# Shear Modulus (GPa) = 21.20428 5.48780 13.34604
#
# Velocity S-wave (km/s) = 3.56292 1.81257 2.82664
# Velocity P-wave (km/s) = 6.28883 6.45028 6.37007
#
# Compressibility (1/GPa) = 0.02646238
#
# Stress axis : x y z
#
# Youngs Moduli (GPa) = 93.99776 72.71991 26.21988
#
# Poissons Ratio (x) = 0.33932 0.06819
# Poissons Ratio (y) = 0.43861 0.28230
# Poissons Ratio (z) = 0.24445 0.78294
#
# Static dielectric constant tensor:
#      x y z
#    x 3.420310 0.000000 0.000000 
#    y 0.000000 3.115110 0.000000 
#    z 0.000000 0.000000 2.944230 
# 
# 
# High freq. dielectric constant tensor:
#      x y z
#    x 1.662080 0.000000 0.000000 
#    y 0.000000 1.632230 0.000000 
#    z 0.000000 0.000000 1.612250 
# 
# From -- ./inp_files/20988.got.cif
#   From: 2010.03.12/outbox.cif.g09.slc.cpg/sg47_11_cif.got.tgz:20988.got - 2010.04.14 03:12:58.
