data_PCOD8195329
_publ_section_title
;
Structure prediction by ZEFSAII (Michael W. Deem and Ramdas Pophale) SiO2 
 PCOD8195329
Probable space group: P M M M
;
_chemical_formula_sum "Si O2"
_cell_formula_units_Z 64
_cell_length_a 14.159673
_cell_length_b 13.927838
_cell_length_c 18.591613
_cell_angle_alpha 90.000000
_cell_angle_beta 90.000000
_cell_angle_gamma 90.000000
_cell_volume 3666.519518
_symmetry_space_group_name_H-M "P M M M"
_symmetry_group_IT_number 47
_symmetry_cell_setting 'orthorhombic'
loop_
_space_group_symop_operation_xyz
x,y,z
-x,-y,z
x,-y,-z
-x,y,-z
-x,-y,-z
x,y,-z
-x,y,z
x,-y,z
loop_
_atom_site_type_symbol
_atom_site_label
_atom_site_fract_x
_atom_site_fract_y
_atom_site_fract_z
Si Si1 0.388581 0.745373 0.080760
Si Si2 0.897268 0.114110 0.080335
Si Si3 0.728379 0.109596 0.663615
Si Si4 0.226711 0.605265 0.415823
Si Si5 0.724502 0.889607 0.167349
Si Si6 0.611537 0.606306 0.799871
Si Si7 0.109835 0.785990 0.585316
Si Si8 0.388760 0.290089 0.345395
O O1 0.500000 0.745019 0.074443
O O2 0.362742 0.837321 0.129181
O O3 0.353124 0.651135 0.124430
O O4 0.344443 0.746894 0.000000
O O5 0.819911 0.156067 0.134368
O O6 0.000000 0.154684 0.102746
O O7 0.899307 0.000000 0.084400
O O8 0.871599 0.147837 0.000000
O O9 0.733894 0.124415 0.748389
O O10 0.829051 0.133326 0.626585
O O11 0.645685 0.181400 0.637427
O O12 0.701109 0.000000 0.643934
O O13 0.217934 0.596340 0.500000
O O14 0.206879 0.500000 0.381237
O O15 0.148757 0.682036 0.388571
O O16 0.333225 0.638431 0.398058
O O17 0.711776 0.000000 0.146359
O O18 0.500000 0.596375 0.800279
O O19 0.656745 0.500000 0.790266
O O20 0.640121 0.677858 0.735276
O O21 0.123580 0.799997 0.500000
O O22 0.000000 0.795846 0.606971
O O23 0.500000 0.297877 0.360530
#
# Coordination Sequence:
#
# PCOD8195329 Si02
#       8
#     8   8   8   8   8   8   8   8
#     4  10  20  32  46  68  98 130 165 204 246 298
#     4   8  14  25  41  61  85 114 148 186 232 287
#     4  10  21  34  50  73  99 131 173 217 257 299
#     4   9  18  32  52  81 111 135 165 207 253 304
#     4  10  19  31  47  67  94 128 162 201 250 297
#     4   9  17  30  48  68  90 122 163 204 249 298
#     4   9  19  36  56  78 106 139 172 208 253 303
#     4  10  19  33  51  71 100 137 174 210 254 306
#
# _framework density 17.455245999999999
#
# number of rings (size 3 to 8) (size 9 to 14) (size 15 to 20)
#    0.000    2.625    1.250    1.125    0.000    3.750 
#    0.000    6.875    0.000    0.000    0.000    3.500 
#    0.000    0.500    0.000    2.625    0.000    0.250 
#
# Total GULP energy -793120.957107 kJ/mol
# GULP energy per Si atom -12392.514955 kJ/mol
# Density = 1.741552 g / cm^3
# Si number density = 17.455246 Si / 1000 Ang^3
#
#
#
# Elastic Constant Matrix: (Units=GPa)
#
#
# Indices 1 2 3 4 5 6 
#
# 1 53.2850 22.0163 6.4588 0.0000 0.0000 0.0000
# 2 22.0163 102.5694 22.6918 0.0000 0.0000 0.0000
# 3 6.4588 22.6918 22.6323 0.0000 0.0000 0.0000
# 4 0.0000 0.0000 0.0000 1.6182 0.0000 0.0000
# 5 0.0000 0.0000 0.0000 0.0000 24.9396 0.0000
# 6 0.0000 0.0000 0.0000 0.0000 0.0000 11.8978
#
#
#
# Elastic Compliance Matrix: (Units=1/GPa)
#
#
# Indices 1 2 3 4 5 6 
#
# 1 0.020654 -0.004021 -0.001862 0.000000 0.000000 0.000000
# 2 -0.004021 0.013311 -0.012199 0.000000 0.000000 0.000000
# 3 -0.001862 -0.012199 0.056947 0.000000 0.000000 0.000000
# 4 0.000000 0.000000 0.000000 0.617961 0.000000 0.000000
# 5 0.000000 0.000000 0.000000 0.000000 0.040097 0.000000
# 6 0.000000 0.000000 0.000000 0.000000 0.000000 0.084049
#
#
# Mechanical properties :
#
#
# Convention : Reuss Voigt Hill
#
# Bulk Modulus (GPa) = 18.26561 31.20227 24.73394
# Shear Modulus (GPa) = 5.63422 16.17913 10.90668
#
# Velocity S-wave (km/s) = 1.79856 3.04779 2.50238
# Velocity P-wave (km/s) = 3.84708 5.50452 4.74868
#
# Compressibility (1/GPa) = 0.05474770
#
# Stress axis : x y z
#
# Youngs Moduli (GPa) = 48.41605 75.12306 17.56017
#
# Poissons Ratio (x) = 0.30210 0.03270
# Poissons Ratio (y) = 0.19470 0.21421
# Poissons Ratio (z) = 0.09017 0.91642
#
# Static dielectric constant tensor:
#      x y z
#    x 3.257530 0.000000 0.000000 
#    y 0.000000 3.465340 0.000000 
#    z 0.000000 0.000000 3.322570 
# 
# 
# High freq. dielectric constant tensor:
#      x y z
#    x 1.656590 0.000000 0.000000 
#    y 0.000000 1.665600 0.000000 
#    z 0.000000 0.000000 1.671600 
# 
# From -- ./inp_files/28346.got.cif
#   From: 2010.03.12/outbox.cif.g09.slc.cpg/sg47_15_cif.got.tgz:28346.got - 2010.04.14 03:12:58.
