data_PCOD8195216
_publ_section_title
;
Structure prediction by ZEFSAII (Michael W. Deem and Ramdas Pophale) SiO2 
 PCOD8195216
Probable space group: P M M M
;
_chemical_formula_sum "Si O2"
_cell_formula_units_Z 48
_cell_length_a 9.359646
_cell_length_b 34.321407
_cell_length_c 7.853574
_cell_angle_alpha 90.000000
_cell_angle_beta 90.000000
_cell_angle_gamma 90.000000
_cell_volume 2522.852423
_symmetry_space_group_name_H-M "P M M M"
_symmetry_group_IT_number 47
_symmetry_cell_setting 'orthorhombic'
loop_
_space_group_symop_operation_xyz
x,y,z
-x,-y,z
x,-y,-z
-x,y,-z
-x,-y,-z
x,y,-z
-x,y,z
x,-y,z
loop_
_atom_site_type_symbol
_atom_site_label
_atom_site_fract_x
_atom_site_fract_y
_atom_site_fract_z
Si Si1 0.670587 0.095420 0.500000
Si Si2 0.161309 0.376147 0.693092
Si Si3 0.669620 0.043663 0.189121
Si Si4 0.165547 0.824742 0.500000
Si Si5 0.343438 0.693885 0.804957
Si Si6 0.169059 0.541891 0.193846
Si Si7 0.165450 0.766864 0.196996
O O1 0.500000 0.098485 0.500000
O O2 0.728564 0.072889 0.332585
O O3 0.735060 0.137984 0.500000
O O4 0.160184 0.362345 0.500000
O O5 0.262918 0.347115 0.793241
O O6 0.224521 0.420245 0.704443
O O7 0.000000 0.374514 0.769476
O O8 0.500000 0.042956 0.197357
O O9 0.727239 0.000000 0.225670
O O10 0.719665 0.057342 0.000000
O O11 0.202648 0.801678 0.326166
O O12 0.000000 0.836943 0.500000
O O13 0.500000 0.691681 0.715235
O O14 0.251078 0.729495 0.730828
O O15 0.366472 0.703402 0.000000
O O16 0.228712 0.500000 0.264555
O O17 0.000000 0.540404 0.208563
O O18 0.218438 0.546913 0.000000
O O19 0.000000 0.755475 0.209875
O O20 0.204033 0.778180 0.000000
#
# Coordination Sequence:
#
# PCOD8195216 Si02
#       7
#     4   8   8   4   8   8   8
#     4  10  19  30  48  76 104 134 174 217 261 306
#     4  10  20  31  47  74 104 133 163 196 240 295
#     4   8  14  26  46  73 104 137 175 220 264 303
#     4  10  22  37  53  75 104 138 173 209 256 316
#     4  10  21  36  54  76 100 126 159 204 256 304
#     4   8  14  26  45  68  94 126 164 203 239 277
#     4   9  19  37  58  76  97 130 171 213 255 305
#
# _framework density 19.026081999999999
#
# number of rings (size 3 to 8) (size 9 to 14) (size 15 to 20)
#    0.000    2.833    0.000    2.250    1.167    4.667 
#    0.000    1.667    0.000    1.500    0.000    4.667 
#    0.000    0.000    0.000    0.000    0.000    0.000 
#
# Total GULP energy -594777.378096 kJ/mol
# GULP energy per Si atom -12391.195377 kJ/mol
# Density = 1.898278 g / cm^3
# Si number density = 19.026082 Si / 1000 Ang^3
#
#
#
# Elastic Constant Matrix: (Units=GPa)
#
#
# Indices 1 2 3 4 5 6 
#
# 1 59.1482 55.2758 28.2283 0.0000 0.0000 0.0000
# 2 55.2758 151.6648 61.3195 0.0000 0.0000 0.0000
# 3 28.2283 61.3195 91.7325 0.0000 0.0000 0.0000
# 4 0.0000 0.0000 0.0000 24.9960 0.0000 0.0000
# 5 0.0000 0.0000 0.0000 0.0000 11.5748 0.0000
# 6 0.0000 0.0000 0.0000 0.0000 0.0000 16.2901
#
#
#
# Elastic Compliance Matrix: (Units=1/GPa)
#
#
# Indices 1 2 3 4 5 6 
#
# 1 0.025984 -0.008547 -0.002282 0.000000 0.000000 0.000000
# 2 -0.008547 0.011847 -0.005289 0.000000 0.000000 0.000000
# 3 -0.002282 -0.005289 0.015139 0.000000 0.000000 0.000000
# 4 0.000000 0.000000 0.000000 0.040006 0.000000 0.000000
# 5 0.000000 0.000000 0.000000 0.000000 0.086394 0.000000
# 6 0.000000 0.000000 0.000000 0.000000 0.000000 0.061387
#
#
# Mechanical properties :
#
#
# Convention : Reuss Voigt Hill
#
# Bulk Modulus (GPa) = 48.23343 65.79917 57.01630
# Shear Modulus (GPa) = 17.86317 21.08697 19.47507
#
# Velocity S-wave (km/s) = 3.06744 3.33275 3.20284
# Velocity P-wave (km/s) = 6.16050 7.03338 6.61136
#
# Compressibility (1/GPa) = 0.02073251
#
# Stress axis : x y z
#
# Youngs Moduli (GPa) = 38.48593 84.40932 66.05402
#
# Poissons Ratio (x) = 0.72146 0.15075
# Poissons Ratio (y) = 0.32895 0.34937
# Poissons Ratio (z) = 0.08784 0.44645
#
# Static dielectric constant tensor:
#      x y z
#    x 3.239900 0.000000 0.000000 
#    y 0.000000 3.091990 0.000000 
#    z 0.000000 0.000000 3.639620 
# 
# 
# High freq. dielectric constant tensor:
#      x y z
#    x 1.691040 0.000000 0.000000 
#    y 0.000000 1.742490 0.000000 
#    z 0.000000 0.000000 1.740820 
# 
# From -- ./inp_files/2667.got.cif
#   From: 2010.03.12/outbox.cif.g09.slc.cpg/sg47_2_cif.got.tgz:2667.got - 2010.04.14 03:12:58.
