data_PCOD8195029
_publ_section_title
;
Structure prediction by ZEFSAII (Michael W. Deem and Ramdas Pophale) SiO2 
 PCOD8195029
Probable space group: P M M M
;
_chemical_formula_sum "Si O2"
_cell_formula_units_Z 44
_cell_length_a 17.067152
_cell_length_b 9.281970
_cell_length_c 15.645373
_cell_angle_alpha 90.000000
_cell_angle_beta 90.000000
_cell_angle_gamma 90.000000
_cell_volume 2478.489814
_symmetry_space_group_name_H-M "P M M M"
_symmetry_group_IT_number 47
_symmetry_cell_setting 'orthorhombic'
loop_
_space_group_symop_operation_xyz
x,y,z
-x,-y,z
x,-y,-z
-x,y,-z
-x,-y,-z
x,y,-z
-x,y,z
x,-y,z
loop_
_atom_site_type_symbol
_atom_site_label
_atom_site_fract_x
_atom_site_fract_y
_atom_site_fract_z
Si Si1 0.293873 0.332123 0.738912
Si Si2 0.411354 0.328845 0.404751
Si Si3 0.915512 0.163111 0.857584
Si Si4 0.000000 0.842624 0.401755
Si Si5 0.255018 0.167021 0.906225
Si Si6 0.118536 0.666992 0.694902
O O1 0.308412 0.500000 0.756882
O O2 0.357085 0.267347 0.671759
O O3 0.298309 0.254803 0.831236
O O4 0.211010 0.303830 0.694105
O O5 0.385404 0.274405 0.500000
O O6 0.500000 0.277991 0.386428
O O7 0.405602 0.500000 0.404001
O O8 0.838616 0.199302 0.913092
O O9 0.920106 0.275795 0.781133
O O10 0.000000 0.177572 0.907185
O O11 0.906754 0.000000 0.822360
O O12 0.921324 0.753717 0.381504
O O13 0.000000 0.871812 0.500000
O O14 0.000000 0.000000 0.355297
O O15 0.270701 0.000000 0.887377
O O16 0.289055 0.210003 0.000000
O O17 0.098768 0.500000 0.684852
#
# Coordination Sequence:
#
# PCOD8195029 Si02
#       6
#     8   8   8   4   8   8
#     4   9  18  31  50  76 101 127 158 197 245 293
#     4   8  14  27  50  79 106 128 153 191 240 295
#     4   9  16  27  45  64  85 117 155 199 244 285
#     4  11  23  35  45  59  84 121 164 205 241 280
#     4   9  18  31  46  67  96 131 170 206 241 287
#     4  10  19  30  45  65  90 120 155 196 240 287
#
# _framework density 17.752745000000001
#
# number of rings (size 3 to 8) (size 9 to 14) (size 15 to 20)
#    0.000    2.818    0.909    1.364    0.000    2.909 
#    0.000    3.636    0.000    1.636    0.000   10.182 
#    0.000    0.000    0.000    0.000    0.000    0.000 
#
# Total GULP energy -545090.269889 kJ/mol
# GULP energy per Si atom -12388.415225 kJ/mol
# Density = 1.771234 g / cm^3
# Si number density = 17.752745 Si / 1000 Ang^3
#
#
#
# Elastic Constant Matrix: (Units=GPa)
#
#
# Indices 1 2 3 4 5 6 
#
# 1 86.8345 30.2095 64.4615 0.0000 0.0000 0.0000
# 2 30.2095 70.7136 45.7232 0.0000 0.0000 0.0000
# 3 64.4615 45.7232 132.7125 0.0000 0.0000 0.0000
# 4 0.0000 0.0000 0.0000 21.9909 0.0000 0.0000
# 5 0.0000 0.0000 0.0000 0.0000 4.5472 0.0000
# 6 0.0000 0.0000 0.0000 0.0000 0.0000 13.7343
#
#
#
# Elastic Compliance Matrix: (Units=1/GPa)
#
#
# Indices 1 2 3 4 5 6 
#
# 1 0.018396 -0.002678 -0.008013 0.000000 0.000000 0.000000
# 2 -0.002678 0.018585 -0.005102 0.000000 0.000000 0.000000
# 3 -0.008013 -0.005102 0.013185 0.000000 0.000000 0.000000
# 4 0.000000 0.000000 0.000000 0.045473 0.000000 0.000000
# 5 0.000000 0.000000 0.000000 0.000000 0.219914 0.000000
# 6 0.000000 0.000000 0.000000 0.000000 0.000000 0.072810
#
#
# Mechanical properties :
#
#
# Convention : Reuss Voigt Hill
#
# Bulk Modulus (GPa) = 53.82175 63.44986 58.63581
# Shear Modulus (GPa) = 11.73315 18.04557 14.88936
#
# Velocity S-wave (km/s) = 2.57363 3.19171 2.89919
# Velocity P-wave (km/s) = 6.26216 7.02860 6.65642
#
# Compressibility (1/GPa) = 0.01857985
#
# Stress axis : x y z
#
# Youngs Moduli (GPa) = 54.35936 53.80782 75.84419
#
# Poissons Ratio (x) = 0.14409 0.60772
# Poissons Ratio (y) = 0.14557 0.38697
# Poissons Ratio (z) = 0.43557 0.27454
#
# Static dielectric constant tensor:
#      x y z
#    x 3.428990 0.000000 0.000000 
#    y 0.000000 3.171600 0.000000 
#    z 0.000000 0.000000 3.293270 
# 
# 
# High freq. dielectric constant tensor:
#      x y z
#    x 1.669050 0.000000 0.000000 
#    y 0.000000 1.667830 0.000000 
#    z 0.000000 0.000000 1.678840 
# 
# From -- ./inp_files/6173.got.cif
#   From: 2010.03.12/outbox.cif.g09.slc.cpg/sg47_4_cif.got.tgz:6173.got - 2010.04.14 03:12:58.
