data_PCOD8195310
_publ_section_title
;
Structure prediction by ZEFSAII (Michael W. Deem and Ramdas Pophale) SiO2 
 PCOD8195310
Probable space group: P M M M
;
_chemical_formula_sum "Si O2"
_cell_formula_units_Z 64
_cell_length_a 9.035629
_cell_length_b 23.502175
_cell_length_c 19.080956
_cell_angle_alpha 90.000000
_cell_angle_beta 90.000000
_cell_angle_gamma 90.000000
_cell_volume 4051.973314
_symmetry_space_group_name_H-M "P M M M"
_symmetry_group_IT_number 47
_symmetry_cell_setting 'orthorhombic'
loop_
_space_group_symop_operation_xyz
x,y,z
-x,-y,z
x,-y,-z
-x,y,-z
-x,-y,-z
x,y,-z
-x,y,z
x,-y,z
loop_
_atom_site_type_symbol
_atom_site_label
_atom_site_fract_x
_atom_site_fract_y
_atom_site_fract_z
Si Si1 0.174717 0.336173 0.344936
Si Si2 0.674233 0.063854 0.203802
Si Si3 0.669647 0.834729 0.706170
Si Si4 0.671007 0.762414 0.077921
Si Si5 0.670489 0.434201 0.580442
Si Si6 0.668658 0.283315 0.220143
Si Si7 0.324748 0.766139 0.420784
Si Si8 0.171375 0.119445 0.079671
O O1 0.225034 0.398863 0.367665
O O2 0.226204 0.324505 0.264973
O O3 0.247190 0.292310 0.399325
O O4 0.000000 0.330861 0.348720
O O5 0.500000 0.073552 0.194857
O O6 0.743369 0.108586 0.260523
O O7 0.747027 0.074017 0.128432
O O8 0.710626 0.000000 0.229355
O O9 0.500000 0.849717 0.695039
O O10 0.693125 0.782143 0.758288
O O11 0.734200 0.817128 0.629638
O O12 0.500000 0.780942 0.085597
O O13 0.707705 0.714404 0.136907
O O14 0.768723 0.817426 0.092282
O O15 0.702644 0.737314 0.000000
O O16 0.713113 0.421262 0.500000
O O17 0.500000 0.417679 0.593538
O O18 0.697560 0.500000 0.597837
O O19 0.500000 0.302209 0.234552
O O20 0.283142 0.782203 0.500000
O O21 0.500000 0.756810 0.410702
O O22 0.000000 0.119932 0.099045
O O23 0.199232 0.100000 0.000000
#
# Coordination Sequence:
#
# PCOD8195310 Si02
#       8
#     8   8   8   8   8   8   8   8
#     4  11  21  29  42  68  99 125 152 189 225 259
#     4  10  19  31  47  63  80 107 146 188 223 262
#     4   8  14  27  44  63  82 104 137 176 221 267
#     4   9  16  28  48  69  88 114 149 185 221 265
#     4   9  18  33  51  68  90 126 167 197 223 262
#     4   9  16  29  47  64  88 120 150 183 222 266
#     4   9  17  30  48  65  84 114 148 182 223 272
#     4  10  20  31  43  61  87 115 141 175 219 267
#
# _framework density 15.794772999999999
#
# number of rings (size 3 to 8) (size 9 to 14) (size 15 to 20)
#    0.000    2.625    1.250    3.000    0.000    4.000 
#    0.000    1.875    0.000    0.375    0.000    2.625 
#    0.000    0.500    0.000   10.125    0.000    7.125 
#
# Total GULP energy -793280.078554 kJ/mol
# GULP energy per Si atom -12395.001227 kJ/mol
# Density = 1.575882 g / cm^3
# Si number density = 15.794773 Si / 1000 Ang^3
#
#
#
# Elastic Constant Matrix: (Units=GPa)
#
#
# Indices 1 2 3 4 5 6 
#
# 1 56.7714 33.2554 37.5238 0.0000 0.0000 0.0000
# 2 33.2554 74.9862 49.2365 0.0000 0.0000 0.0000
# 3 37.5238 49.2365 116.4468 0.0000 0.0000 0.0000
# 4 0.0000 0.0000 0.0000 24.8977 0.0000 0.0000
# 5 0.0000 0.0000 0.0000 0.0000 13.3105 0.0000
# 6 0.0000 0.0000 0.0000 0.0000 0.0000 8.7784
#
#
#
# Elastic Compliance Matrix: (Units=1/GPa)
#
#
# Indices 1 2 3 4 5 6 
#
# 1 0.025577 -0.008211 -0.004770 0.000000 0.000000 0.000000
# 2 -0.008211 0.021097 -0.006274 0.000000 0.000000 0.000000
# 3 -0.004770 -0.006274 0.012778 0.000000 0.000000 0.000000
# 4 0.000000 0.000000 0.000000 0.040164 0.000000 0.000000
# 5 0.000000 0.000000 0.000000 0.000000 0.075129 0.000000
# 6 0.000000 0.000000 0.000000 0.000000 0.000000 0.113916
#
#
# Mechanical properties :
#
#
# Convention : Reuss Voigt Hill
#
# Bulk Modulus (GPa) = 47.75369 54.24842 51.00105
# Shear Modulus (GPa) = 14.96320 17.94322 16.45321
#
# Velocity S-wave (km/s) = 3.08125 3.37415 3.23102
# Velocity P-wave (km/s) = 6.55426 7.04274 6.80288
#
# Compressibility (1/GPa) = 0.02094079
#
# Stress axis : x y z
#
# Youngs Moduli (GPa) = 39.09724 47.39984 78.26102
#
# Poissons Ratio (x) = 0.38920 0.37332
# Poissons Ratio (y) = 0.32103 0.49105
# Poissons Ratio (z) = 0.18650 0.29741
#
# Static dielectric constant tensor:
#      x y z
#    x 2.872880 0.000000 0.000000 
#    y 0.000000 2.823690 0.000000 
#    z 0.000000 0.000000 3.287870 
# 
# 
# High freq. dielectric constant tensor:
#      x y z
#    x 1.591880 0.000000 0.000000 
#    y 0.000000 1.572230 0.000000 
#    z 0.000000 0.000000 1.609330 
# 
# From -- ./inp_files/11829.got.cif
#   From: 2010.03.12/outbox.cif.g09.slc.cpg/sg47_6_cif.got.tgz:11829.got - 2010.04.14 03:12:58.
