data_PCOD8195066
_publ_section_title
;
Structure prediction by ZEFSAII (Michael W. Deem and Ramdas Pophale) SiO2 
 PCOD8195066
Probable space group: P M M M
;
_chemical_formula_sum "Si O2"
_cell_formula_units_Z 56
_cell_length_a 29.330274
_cell_length_b 9.232315
_cell_length_c 13.563249
_cell_angle_alpha 90.000000
_cell_angle_beta 90.000000
_cell_angle_gamma 90.000000
_cell_volume 3672.742401
_symmetry_space_group_name_H-M "P M M M"
_symmetry_group_IT_number 47
_symmetry_cell_setting 'orthorhombic'
loop_
_space_group_symop_operation_xyz
x,y,z
-x,-y,z
x,-y,-z
-x,y,-z
-x,-y,-z
x,y,-z
-x,y,z
x,-y,z
loop_
_atom_site_type_symbol
_atom_site_label
_atom_site_fract_x
_atom_site_fract_y
_atom_site_fract_z
Si Si1 0.950330 0.661860 0.882896
Si Si2 0.133120 0.840812 0.883256
Si Si3 0.402852 0.330589 0.107104
Si Si4 0.313570 0.671059 0.222861
Si Si5 0.551981 0.670488 0.697531
Si Si6 0.365755 0.833052 0.613324
Si Si7 0.234752 0.828947 0.113657
O O1 0.947381 0.500000 0.841153
O O2 0.907871 0.747924 0.835607
O O3 0.000000 0.729090 0.853726
O O4 0.945725 0.660305 0.000000
O O5 0.183312 0.778785 0.858972
O O6 0.128497 0.000000 0.837181
O O7 0.127533 0.849241 0.000000
O O8 0.408553 0.500000 0.094144
O O9 0.351821 0.292878 0.141534
O O10 0.438777 0.277514 0.189657
O O11 0.411956 0.256169 0.000000
O O12 0.308335 0.500000 0.240677
O O13 0.327777 0.746727 0.325011
O O14 0.266538 0.737356 0.185452
O O15 0.500000 0.703894 0.669096
O O16 0.563446 0.500000 0.686713
O O17 0.584450 0.760337 0.625348
O O18 0.351152 0.822362 0.500000
O O19 0.368120 0.000000 0.648247
O O20 0.241034 0.000000 0.131687
O O21 0.245647 0.791126 0.000000
#
# Coordination Sequence:
#
# PCOD8195066 Si02
#       7
#     8   8   8   8   8   8   8
#     4   8  13  20  29  42  62  90 127 173 219 253
#     4   8  14  23  33  47  69  99 135 171 206 244
#     4   8  14  25  41  62  87 111 135 163 192 226
#     4  10  19  30  46  67  87 107 136 172 209 251
#     4   9  18  31  47  69  93 114 137 166 201 239
#     4  10  21  36  52  67  83 106 136 169 207 252
#     4   9  17  28  41  59  86 116 142 172 210 248
#
# _framework density 15.247462000000001
#
# number of rings (size 3 to 8) (size 9 to 14) (size 15 to 20)
#    0.000    3.143    0.000    3.429    0.000    3.714 
#    0.000    5.714    0.000    3.857    0.000    4.000 
#    0.000    0.000    0.000    0.000    0.000    0.714 
#
# Total GULP energy -693949.946465 kJ/mol
# GULP energy per Si atom -12391.963330 kJ/mol
# Density = 1.521276 g / cm^3
# Si number density = 15.247462 Si / 1000 Ang^3
#
#
#
# Elastic Constant Matrix: (Units=GPa)
#
#
# Indices 1 2 3 4 5 6 
#
# 1 121.3734 57.7098 28.7222 0.0000 0.0000 0.0000
# 2 57.7098 73.7566 30.3375 0.0000 0.0000 0.0000
# 3 28.7222 30.3375 54.4719 0.0000 0.0000 0.0000
# 4 0.0000 0.0000 0.0000 16.1421 0.0000 0.0000
# 5 0.0000 0.0000 0.0000 0.0000 12.9624 0.0000
# 6 0.0000 0.0000 0.0000 0.0000 0.0000 27.7947
#
#
#
# Elastic Compliance Matrix: (Units=1/GPa)
#
#
# Indices 1 2 3 4 5 6 
#
# 1 0.013223 -0.009700 -0.001570 0.000000 0.000000 0.000000
# 2 -0.009700 0.024703 -0.008643 0.000000 0.000000 0.000000
# 3 -0.001570 -0.008643 0.024000 0.000000 0.000000 0.000000
# 4 0.000000 0.000000 0.000000 0.061950 0.000000 0.000000
# 5 0.000000 0.000000 0.000000 0.000000 0.077146 0.000000
# 6 0.000000 0.000000 0.000000 0.000000 0.000000 0.035978
#
#
# Mechanical properties :
#
#
# Convention : Reuss Voigt Hill
#
# Bulk Modulus (GPa) = 45.25122 53.68232 49.46677
# Shear Modulus (GPa) = 17.59373 20.23533 18.91453
#
# Velocity S-wave (km/s) = 3.40056 3.64693 3.52590
# Velocity P-wave (km/s) = 6.72017 7.28130 7.00635
#
# Compressibility (1/GPa) = 0.02209885
#
# Stress axis : x y z
#
# Youngs Moduli (GPa) = 75.62735 40.48067 41.66740
#
# Poissons Ratio (x) = 0.39267 0.06540
# Poissons Ratio (y) = 0.73361 0.36014
# Poissons Ratio (z) = 0.11871 0.34989
#
# Static dielectric constant tensor:
#      x y z
#    x 3.061710 0.000000 0.000000 
#    y 0.000000 2.962410 0.000000 
#    z 0.000000 0.000000 2.647200 
# 
# 
# High freq. dielectric constant tensor:
#      x y z
#    x 1.585780 0.000000 0.000000 
#    y 0.000000 1.577310 0.000000 
#    z 0.000000 0.000000 1.535580 
# 
# From -- ./inp_files/25787.got.cif
#   From: 2010.03.12/outbox.cif.g09.slc.cpg/sg47_13_cif.got.tgz:25787.got - 2010.04.14 03:12:58.
