data_PCOD8195901
_publ_section_title
;
Structure prediction by ZEFSAII (Michael W. Deem and Ramdas Pophale) SiO2 
 PCOD8195901
Probable space group: P M M M
;
_chemical_formula_sum "Si O2"
_cell_formula_units_Z 52
_cell_length_a 7.694537
_cell_length_b 14.231750
_cell_length_c 24.884881
_cell_angle_alpha 90.000000
_cell_angle_beta 90.000000
_cell_angle_gamma 90.000000
_cell_volume 2725.061869
_symmetry_space_group_name_H-M "P M M M"
_symmetry_group_IT_number 47
_symmetry_cell_setting 'orthorhombic'
loop_
_space_group_symop_operation_xyz
x,y,z
-x,-y,z
x,-y,-z
-x,y,-z
-x,-y,-z
x,y,-z
-x,y,z
x,-y,z
loop_
_atom_site_type_symbol
_atom_site_label
_atom_site_fract_x
_atom_site_fract_y
_atom_site_fract_z
Si Si1 0.000000 0.108113 0.436488
Si Si2 0.703423 0.395984 0.783708
Si Si3 0.293691 0.786643 0.839053
Si Si4 0.293704 0.104782 0.735925
Si Si5 0.706733 0.105979 0.940775
Si Si6 0.802124 0.395518 0.335764
Si Si7 0.302075 0.797412 0.372737
O O1 0.174186 0.161359 0.417507
O O2 0.000000 0.112004 0.500000
O O3 0.000000 0.000000 0.416132
O O4 0.500000 0.385277 0.771927
O O5 0.751149 0.500000 0.805041
O O6 0.763134 0.321561 0.829153
O O7 0.796354 0.373909 0.727700
O O8 0.500000 0.796096 0.840952
O O9 0.218565 0.847970 0.789826
O O10 0.215060 0.824365 0.895381
O O11 0.500000 0.103332 0.738547
O O12 0.233457 0.163210 0.684153
O O13 0.217440 0.000000 0.731558
O O14 0.500000 0.109048 0.940011
O O15 0.769503 0.000000 0.928218
O O16 0.773986 0.137070 0.000000
O O17 0.722671 0.500000 0.346935
O O18 0.701313 0.316327 0.369801
O O19 0.000000 0.392712 0.354860
O O20 0.500000 0.829207 0.385688
#
# Coordination Sequence:
#
# PCOD8195901 Si02
#       7
#     4   8   8   8   8   8   8
#     4  11  26  46  65  87 117 155 197 235 271 318
#     4   9  16  26  41  64  95 130 168 208 257 324
#     4   9  14  21  35  56  86 124 162 207 259 314
#     4   9  16  25  41  69 100 130 166 210 266 327
#     4   8  13  20  30  47  76 118 166 211 255 308
#     4  10  19  32  53  82 115 148 181 220 273 337
#     4  11  21  37  61  87 116 149 187 233 284 335
#
# _framework density 19.082135999999998
#
# number of rings (size 3 to 8) (size 9 to 14) (size 15 to 20)
#    0.000    2.538    2.308    1.846    0.000    4.000 
#    0.000    0.769    0.000    1.385    0.000    4.308 
#    0.000    0.615    0.000    5.538    1.846    5.538 
#
# Total GULP energy -644504.502427 kJ/mol
# GULP energy per Si atom -12394.317354 kJ/mol
# Density = 1.903870 g / cm^3
# Si number density = 19.082136 Si / 1000 Ang^3
#
#
#
# Elastic Constant Matrix: (Units=GPa)
#
#
# Indices 1 2 3 4 5 6 
#
# 1 49.4828 21.4387 22.6889 0.0000 0.0000 0.0000
# 2 21.4387 151.0613 59.4147 0.0000 0.0000 0.0000
# 3 22.6889 59.4147 95.1668 0.0000 0.0000 0.0000
# 4 0.0000 0.0000 0.0000 27.4905 0.0000 0.0000
# 5 0.0000 0.0000 0.0000 0.0000 1.2772 0.0000
# 6 0.0000 0.0000 0.0000 0.0000 0.0000 12.4525
#
#
#
# Elastic Compliance Matrix: (Units=1/GPa)
#
#
# Indices 1 2 3 4 5 6 
#
# 1 0.022931 -0.001463 -0.004553 0.000000 0.000000 0.000000
# 2 -0.001463 0.008868 -0.005187 0.000000 0.000000 0.000000
# 3 -0.004553 -0.005187 0.014832 0.000000 0.000000 0.000000
# 4 0.000000 0.000000 0.000000 0.036376 0.000000 0.000000
# 5 0.000000 0.000000 0.000000 0.000000 0.782986 0.000000
# 6 0.000000 0.000000 0.000000 0.000000 0.000000 0.080305
#
#
# Mechanical properties :
#
#
# Convention : Reuss Voigt Hill
#
# Bulk Modulus (GPa) = 41.28431 55.86617 48.57524
# Shear Modulus (GPa) = 5.11886 21.05527 13.08707
#
# Velocity S-wave (km/s) = 1.63962 3.32535 2.62167
# Velocity P-wave (km/s) = 5.02658 6.63959 5.88858
#
# Compressibility (1/GPa) = 0.02422227
#
# Stress axis : x y z
#
# Youngs Moduli (GPa) = 43.60934 112.76697 67.42141
#
# Poissons Ratio (x) = 0.16503 0.30699
# Poissons Ratio (y) = 0.06382 0.34975
# Poissons Ratio (z) = 0.19857 0.58498
#
# Static dielectric constant tensor:
#      x y z
#    x 3.132150 0.000000 0.000000 
#    y 0.000000 3.835260 0.000000 
#    z 0.000000 0.000000 3.406420 
# 
# 
# High freq. dielectric constant tensor:
#      x y z
#    x 1.717290 0.000000 0.000000 
#    y 0.000000 1.750100 0.000000 
#    z 0.000000 0.000000 1.706610 
# 
# From -- ./inp_files/32015.got.cif
#   From: 2010.03.12/outbox.cif.g09.slc.cpg/sg47_17_cif.got.tgz:32015.got - 2010.04.14 03:12:58.
