data_PCOD8195849
_publ_section_title
;
Structure prediction by ZEFSAII (Michael W. Deem and Ramdas Pophale) SiO2 
 PCOD8195849
Probable space group: P M M M
;
_chemical_formula_sum "Si O2"
_cell_formula_units_Z 48
_cell_length_a 14.197232
_cell_length_b 10.076569
_cell_length_c 17.804646
_cell_angle_alpha 90.000000
_cell_angle_beta 90.000000
_cell_angle_gamma 90.000000
_cell_volume 2547.121758
_symmetry_space_group_name_H-M "P M M M"
_symmetry_group_IT_number 47
_symmetry_cell_setting 'orthorhombic'
loop_
_space_group_symop_operation_xyz
x,y,z
-x,-y,z
x,-y,-z
-x,y,-z
-x,-y,-z
x,y,-z
-x,y,z
x,-y,z
loop_
_atom_site_type_symbol
_atom_site_label
_atom_site_fract_x
_atom_site_fract_y
_atom_site_fract_z
Si Si1 0.105696 0.342958 0.500000
Si Si2 0.393923 0.741809 0.328038
Si Si3 0.890702 0.154888 0.229241
Si Si4 0.610937 0.000000 0.416849
Si Si5 0.786397 0.843629 0.082032
Si Si6 0.396730 0.153163 0.836314
Si Si7 0.800326 0.351304 0.652632
O O1 0.101933 0.500000 0.500000
O O2 0.160537 0.294319 0.425992
O O3 0.000000 0.282992 0.500000
O O4 0.500000 0.697633 0.353439
O O5 0.393326 0.763073 0.239363
O O6 0.313764 0.635148 0.349081
O O7 0.357584 0.872067 0.370833
O O8 0.864423 0.195639 0.143766
O O9 0.831048 0.247999 0.283709
O O10 0.000000 0.183119 0.242121
O O11 0.865839 0.000000 0.244029
O O12 0.500000 0.000000 0.424189
O O13 0.657233 0.000000 0.500000
O O14 0.682922 0.792676 0.107367
O O15 0.782980 0.000000 0.073282
O O16 0.810728 0.780841 0.000000
O O17 0.500000 0.169716 0.874128
O O18 0.377838 0.000000 0.815085
O O19 0.840109 0.500000 0.668422
#
# Coordination Sequence:
#
# PCOD8195849 Si02
#       7
#     4   8   8   4   8   8   8
#     4   9  20  40  60  78 105 142 185 229 272 325
#     4  10  19  32  52  79 113 148 183 225 271 325
#     4  10  21  37  58  83 110 141 182 233 282 329
#     4   9  18  30  48  78 111 147 186 223 276 332
#     4   9  17  29  48  78 113 144 175 217 273 333
#     4   9  15  26  46  73 106 143 179 218 265 316
#     4  11  23  38  59  84 110 147 188 225 275 332
#
# _framework density 18.844801
#
# number of rings (size 3 to 8) (size 9 to 14) (size 15 to 20)
#    0.000    2.333    2.500    0.500    2.333    2.000 
#    0.000    3.750    0.000    3.500    0.000    1.167 
#    0.000    2.667    0.000    0.000    0.000    0.000 
#
# Total GULP energy -594860.705333 kJ/mol
# GULP energy per Si atom -12392.931361 kJ/mol
# Density = 1.880191 g / cm^3
# Si number density = 18.844801 Si / 1000 Ang^3
#
#
#
# Elastic Constant Matrix: (Units=GPa)
#
#
# Indices 1 2 3 4 5 6 
#
# 1 116.6342 22.6530 38.8867 0.0000 0.0000 0.0000
# 2 22.6530 44.9021 30.0925 0.0000 0.0000 0.0000
# 3 38.8867 30.0925 122.8012 0.0000 0.0000 0.0000
# 4 0.0000 0.0000 0.0000 12.7032 0.0000 0.0000
# 5 0.0000 0.0000 0.0000 0.0000 25.6006 0.0000
# 6 0.0000 0.0000 0.0000 0.0000 0.0000 19.8393
#
#
#
# Elastic Compliance Matrix: (Units=1/GPa)
#
#
# Indices 1 2 3 4 5 6 
#
# 1 0.010027 -0.003507 -0.002316 0.000000 0.000000 0.000000
# 2 -0.003507 0.027873 -0.005720 0.000000 0.000000 0.000000
# 3 -0.002316 -0.005720 0.010278 0.000000 0.000000 0.000000
# 4 0.000000 0.000000 0.000000 0.078720 0.000000 0.000000
# 5 0.000000 0.000000 0.000000 0.000000 0.039062 0.000000
# 6 0.000000 0.000000 0.000000 0.000000 0.000000 0.050405
#
#
# Mechanical properties :
#
#
# Convention : Reuss Voigt Hill
#
# Bulk Modulus (GPa) = 39.85072 51.95577 45.90325
# Shear Modulus (GPa) = 20.17640 24.47565 22.32603
#
# Velocity S-wave (km/s) = 3.27565 3.60780 3.44573
# Velocity P-wave (km/s) = 5.95812 6.70710 6.34367
#
# Compressibility (1/GPa) = 0.02509365
#
# Stress axis : x y z
#
# Youngs Moduli (GPa) = 99.73067 35.87692 97.29256
#
# Poissons Ratio (x) = 0.12580 0.22532
# Poissons Ratio (y) = 0.34971 0.55650
# Poissons Ratio (z) = 0.23097 0.20521
#
# Static dielectric constant tensor:
#      x y z
#    x 3.676680 0.000000 0.000000 
#    y 0.000000 3.009230 0.000000 
#    z 0.000000 0.000000 3.737620 
# 
# 
# High freq. dielectric constant tensor:
#      x y z
#    x 1.742350 0.000000 0.000000 
#    y 0.000000 1.678440 0.000000 
#    z 0.000000 0.000000 1.731410 
# 
# From -- ./inp_files/23604.got.cif
#   From: 2010.03.12/outbox.cif.g09.slc.cpg/sg47_12_cif.got.tgz:23604.got - 2010.04.14 03:12:58.
