data_PCOD8195743
_publ_section_title
;
Structure prediction by ZEFSAII (Michael W. Deem and Ramdas Pophale) SiO2 
 PCOD8195743
Probable space group: P M M M
;
_chemical_formula_sum "Si O2"
_cell_formula_units_Z 56
_cell_length_a 25.986330
_cell_length_b 9.128440
_cell_length_c 14.162661
_cell_angle_alpha 90.000000
_cell_angle_beta 90.000000
_cell_angle_gamma 90.000000
_cell_volume 3359.590732
_symmetry_space_group_name_H-M "P M M M"
_symmetry_group_IT_number 47
_symmetry_cell_setting 'orthorhombic'
loop_
_space_group_symop_operation_xyz
x,y,z
-x,-y,z
x,-y,-z
-x,y,-z
-x,-y,-z
x,y,-z
-x,y,z
x,-y,z
loop_
_atom_site_type_symbol
_atom_site_label
_atom_site_fract_x
_atom_site_fract_y
_atom_site_fract_z
Si Si1 0.655170 0.827532 0.607272
Si Si2 0.556173 0.334333 0.612171
Si Si3 0.246399 0.172295 0.723984
Si Si4 0.901383 0.829141 0.106766
Si Si5 0.057918 0.668653 0.278298
Si Si6 0.855477 0.170200 0.609043
Si Si7 0.793890 0.669688 0.106751
O O1 0.663004 0.772433 0.500000
O O2 0.602861 0.762592 0.652897
O O3 0.704043 0.773396 0.666419
O O4 0.650105 0.000000 0.610524
O O5 0.556495 0.324813 0.500000
O O6 0.500000 0.278267 0.648661
O O7 0.564841 0.500000 0.646251
O O8 0.195789 0.214941 0.664902
O O9 0.247647 0.260836 0.822349
O O10 0.248665 0.000000 0.744625
O O11 0.940570 0.752370 0.178054
O O12 0.846112 0.757980 0.122462
O O13 0.896706 0.000000 0.131360
O O14 0.921312 0.804880 0.000000
O O15 0.072930 0.500000 0.261983
O O16 0.096349 0.737817 0.354010
O O17 0.000000 0.683480 0.318056
O O18 0.846132 0.207896 0.500000
O O19 0.868220 0.000000 0.623774
O O20 0.803671 0.500000 0.130349
O O21 0.773474 0.689355 0.000000
#
# Coordination Sequence:
#
# PCOD8195743 Si02
#       7
#     8   8   8   8   8   8   8
#     4   9  17  28  43  67  99 132 166 203 241 280
#     4   8  14  25  40  59  88 128 171 210 244 278
#     4  10  19  32  51  74 100 129 160 197 240 286
#     4  10  20  35  56  79 100 123 153 190 235 290
#     4  11  24  39  54  74 100 127 157 197 242 288
#     4  10  21  37  56  75  95 125 164 201 239 285
#     4  10  20  33  51  75 101 127 155 190 235 288
#
# _framework density 16.668697999999999
#
# number of rings (size 3 to 8) (size 9 to 14) (size 15 to 20)
#    0.000    2.286    1.429    2.143    0.000    6.286 
#    0.000    4.286    0.000    2.571    0.000    0.000 
#    0.000    0.571    0.000    6.286    0.000    4.857 
#
# Total GULP energy -694348.200743 kJ/mol
# GULP energy per Si atom -12399.075013 kJ/mol
# Density = 1.663076 g / cm^3
# Si number density = 16.668698 Si / 1000 Ang^3
#
#
#
# Elastic Constant Matrix: (Units=GPa)
#
#
# Indices 1 2 3 4 5 6 
#
# 1 120.2068 49.0226 46.5745 0.0000 0.0000 0.0000
# 2 49.0226 74.6391 40.7772 0.0000 0.0000 0.0000
# 3 46.5745 40.7772 83.5624 0.0000 0.0000 0.0000
# 4 0.0000 0.0000 0.0000 23.2788 0.0000 0.0000
# 5 0.0000 0.0000 0.0000 0.0000 14.1515 0.0000
# 6 0.0000 0.0000 0.0000 0.0000 0.0000 25.1912
#
#
#
# Elastic Compliance Matrix: (Units=1/GPa)
#
#
# Indices 1 2 3 4 5 6 
#
# 1 0.012252 -0.005885 -0.003957 0.000000 0.000000 0.000000
# 2 -0.005885 0.021095 -0.007014 0.000000 0.000000 0.000000
# 3 -0.003957 -0.007014 0.017595 0.000000 0.000000 0.000000
# 4 0.000000 0.000000 0.000000 0.042958 0.000000 0.000000
# 5 0.000000 0.000000 0.000000 0.000000 0.070664 0.000000
# 6 0.000000 0.000000 0.000000 0.000000 0.000000 0.039696
#
#
# Mechanical properties :
#
#
# Convention : Reuss Voigt Hill
#
# Bulk Modulus (GPa) = 58.03751 61.23966 59.63858
# Shear Modulus (GPa) = 20.51563 21.99323 21.25443
#
# Velocity S-wave (km/s) = 3.51206 3.63634 3.57474
# Velocity P-wave (km/s) = 7.16519 7.37900 7.27288
#
# Compressibility (1/GPa) = 0.01723024
#
# Stress axis : x y z
#
# Youngs Moduli (GPa) = 81.61708 47.40425 56.83373
#
# Poissons Ratio (x) = 0.27900 0.22489
# Poissons Ratio (y) = 0.48036 0.39862
# Poissons Ratio (z) = 0.32296 0.33248
#
# Static dielectric constant tensor:
#      x y z
#    x 3.235460 0.000000 0.000000 
#    y 0.000000 3.167720 0.000000 
#    z 0.000000 0.000000 3.096500 
# 
# 
# High freq. dielectric constant tensor:
#      x y z
#    x 1.631100 0.000000 0.000000 
#    y 0.000000 1.647110 0.000000 
#    z 0.000000 0.000000 1.621110 
# 
# From -- ./inp_files/8152.got.cif
#   From: 2010.03.12/outbox.cif.g09.slc.cpg/sg47_5_cif.got.tgz:8152.got - 2010.04.14 03:12:58.
