data_PCOD8195532
_publ_section_title
;
Structure prediction by ZEFSAII (Michael W. Deem and Ramdas Pophale) SiO2 
 PCOD8195532
Probable space group: P M M M
;
_chemical_formula_sum "Si O2"
_cell_formula_units_Z 64
_cell_length_a 23.003780
_cell_length_b 15.772060
_cell_length_c 9.368129
_cell_angle_alpha 90.000000
_cell_angle_beta 90.000000
_cell_angle_gamma 90.000000
_cell_volume 3398.916444
_symmetry_space_group_name_H-M "P M M M"
_symmetry_group_IT_number 47
_symmetry_cell_setting 'orthorhombic'
loop_
_space_group_symop_operation_xyz
x,y,z
-x,-y,z
x,-y,-z
-x,y,-z
-x,-y,-z
x,y,-z
-x,y,z
x,-y,z
loop_
_atom_site_type_symbol
_atom_site_label
_atom_site_fract_x
_atom_site_fract_y
_atom_site_fract_z
Si Si1 0.609964 0.902202 0.832236
Si Si2 0.936758 0.742178 0.333816
Si Si3 0.261261 0.902583 0.846049
Si Si4 0.652303 0.596008 0.665931
Si Si5 0.764105 0.350014 0.832344
Si Si6 0.109488 0.594638 0.159879
Si Si7 0.814461 0.804545 0.667316
Si Si8 0.434071 0.254458 0.663491
O O1 0.675412 0.869399 0.798555
O O2 0.570954 0.833408 0.750735
O O3 0.598582 0.000000 0.779856
O O4 0.596459 0.897033 0.000000
O O5 0.934599 0.724725 0.500000
O O6 0.929263 0.651274 0.262561
O O7 0.882860 0.802479 0.290015
O O8 0.000000 0.781451 0.290383
O O9 0.212143 0.892360 0.723063
O O10 0.270838 0.000000 0.872313
O O11 0.242424 0.862134 0.000000
O O12 0.667995 0.609951 0.500000
O O13 0.627670 0.500000 0.688985
O O14 0.710496 0.603491 0.759171
O O15 0.606169 0.667234 0.717982
O O16 0.822112 0.404552 0.803258
O O17 0.774759 0.259900 0.757279
O O18 0.751422 0.338698 0.000000
O O19 0.085900 0.500000 0.176764
O O20 0.100221 0.629151 0.000000
O O21 0.805220 0.790575 0.500000
O O22 0.418666 0.233364 0.500000
O O23 0.500000 0.286871 0.679281
#
# Coordination Sequence:
#
# PCOD8195532 Si02
#       8
#     8   8   8   8   8   8   8   8
#     4   9  19  36  57  81 108 137 167 201 249 309
#     4   9  19  34  48  64  90 126 166 204 242 285
#     4   9  18  33  53  78 107 134 159 193 243 301
#     4  10  21  36  54  76 102 134 174 220 265 307
#     4  10  19  32  51  74 101 131 163 202 253 309
#     4   9  18  31  46  67  95 124 155 195 244 296
#     4  10  19  31  50  75 101 130 166 207 249 295
#     4  10  22  38  54  75 104 138 176 215 255 301
#
# _framework density 18.829530999999999
#
# number of rings (size 3 to 8) (size 9 to 14) (size 15 to 20)
#    0.000    2.500    0.000    2.625    0.000    6.750 
#    0.000    5.000    0.000    0.375    0.000    4.375 
#    0.000    0.000    0.000    0.000    0.000    0.000 
#
# Total GULP energy -793076.055399 kJ/mol
# GULP energy per Si atom -12391.813366 kJ/mol
# Density = 1.878667 g / cm^3
# Si number density = 18.829531 Si / 1000 Ang^3
#
#
#
# Elastic Constant Matrix: (Units=GPa)
#
#
# Indices 1 2 3 4 5 6 
#
# 1 90.5413 30.4913 36.0982 0.0000 0.0000 0.0000
# 2 30.4913 58.3622 24.1918 0.0000 0.0000 0.0000
# 3 36.0982 24.1918 54.4272 0.0000 0.0000 0.0000
# 4 0.0000 0.0000 0.0000 27.8797 0.0000 0.0000
# 5 0.0000 0.0000 0.0000 0.0000 24.7327 0.0000
# 6 0.0000 0.0000 0.0000 0.0000 0.0000 15.8523
#
#
#
# Elastic Compliance Matrix: (Units=1/GPa)
#
#
# Indices 1 2 3 4 5 6 
#
# 1 0.016073 -0.004877 -0.008492 0.000000 0.000000 0.000000
# 2 -0.004877 0.022484 -0.006759 0.000000 0.000000 0.000000
# 3 -0.008492 -0.006759 0.027010 0.000000 0.000000 0.000000
# 4 0.000000 0.000000 0.000000 0.035868 0.000000 0.000000
# 5 0.000000 0.000000 0.000000 0.000000 0.040432 0.000000
# 6 0.000000 0.000000 0.000000 0.000000 0.000000 0.063082
#
#
# Mechanical properties :
#
#
# Convention : Reuss Voigt Hill
#
# Bulk Modulus (GPa) = 39.51032 42.76593 41.13812
# Shear Modulus (GPa) = 19.71267 21.19624 20.45446
#
# Velocity S-wave (km/s) = 3.23910 3.35877 3.29948
# Velocity P-wave (km/s) = 5.91758 6.14844 6.03411
#
# Compressibility (1/GPa) = 0.02530984
#
# Stress axis : x y z
#
# Youngs Moduli (GPa) = 62.21600 44.47575 37.02333
#
# Poissons Ratio (x) = 0.21691 0.31442
# Poissons Ratio (y) = 0.30344 0.25024
# Poissons Ratio (z) = 0.52837 0.30061
#
# Static dielectric constant tensor:
#      x y z
#    x 3.591690 0.000000 0.000000 
#    y 0.000000 3.441150 0.000000 
#    z 0.000000 0.000000 3.442090 
# 
# 
# High freq. dielectric constant tensor:
#      x y z
#    x 1.729430 0.000000 0.000000 
#    y 0.000000 1.717060 0.000000 
#    z 0.000000 0.000000 1.729650 
# 
# From -- ./inp_files/11607.got.cif
#   From: 2010.03.12/outbox.cif.g09.slc.cpg/sg47_6_cif.got.tgz:11607.got - 2010.04.14 03:12:58.
