data_PCOD8195060
_publ_section_title
;
Structure prediction by ZEFSAII (Michael W. Deem and Ramdas Pophale) SiO2 
 PCOD8195060
Probable space group: P M M M
;
_chemical_formula_sum "Si O2"
_cell_formula_units_Z 52
_cell_length_a 13.455213
_cell_length_b 9.208618
_cell_length_c 24.019967
_cell_angle_alpha 90.000000
_cell_angle_beta 90.000000
_cell_angle_gamma 90.000000
_cell_volume 2976.167989
_symmetry_space_group_name_H-M "P M M M"
_symmetry_group_IT_number 47
_symmetry_cell_setting 'orthorhombic'
loop_
_space_group_symop_operation_xyz
x,y,z
-x,-y,z
x,-y,-z
-x,y,-z
-x,-y,-z
x,y,-z
-x,y,z
x,-y,z
loop_
_atom_site_type_symbol
_atom_site_label
_atom_site_fract_x
_atom_site_fract_y
_atom_site_fract_z
Si Si1 0.678348 0.330845 0.124770
Si Si2 0.500000 0.832490 0.934332
Si Si3 0.614006 0.162728 0.773457
Si Si4 0.889714 0.331780 0.153428
Si Si5 0.612123 0.670537 0.562700
Si Si6 0.890356 0.831177 0.732293
Si Si7 0.291015 0.167890 0.339299
O O1 0.651409 0.500000 0.118287
O O2 0.602110 0.240718 0.086801
O O3 0.668203 0.281763 0.188826
O O4 0.796539 0.301881 0.110732
O O5 0.500000 0.000000 0.914830
O O6 0.500000 0.817764 0.000000
O O7 0.500000 0.167587 0.790257
O O8 0.627524 0.201220 0.708535
O O9 0.657214 0.000000 0.784382
O O10 0.888363 0.500000 0.169588
O O11 0.869267 0.245674 0.209654
O O12 0.000000 0.290580 0.128304
O O13 0.644757 0.711449 0.500000
O O14 0.500000 0.726316 0.573546
O O15 0.617067 0.500000 0.571731
O O16 0.687296 0.744156 0.605186
O O17 0.814960 0.779172 0.684612
O O18 0.000000 0.795655 0.709840
O O19 0.874462 0.000000 0.744441
O O20 0.290285 0.000000 0.355966
#
# Coordination Sequence:
#
# PCOD8195060 Si02
#       7
#     8   4   8   8   8   8   8
#     4  11  21  33  54  82 109 139 176 217 256 303
#     4  11  25  43  61  79 105 145 184 219 264 311
#     4  10  19  30  45  70 107 142 165 200 255 308
#     4   9  18  32  50  76 110 143 174 210 256 309
#     4   9  19  35  51  67  90 123 163 208 257 307
#     4   9  17  29  46  70 101 135 169 204 246 299
#     4  10  19  30  47  72  99 129 166 206 250 301
#
# _framework density 17.472131999999998
#
# number of rings (size 3 to 8) (size 9 to 14) (size 15 to 20)
#    0.000    2.231    2.308    1.615    0.000    3.692 
#    0.000    0.769    0.000    0.923    0.000    6.462 
#    0.000    0.000    0.000    0.000    0.000    0.000 
#
# Total GULP energy -644382.046385 kJ/mol
# GULP energy per Si atom -12391.962430 kJ/mol
# Density = 1.743236 g / cm^3
# Si number density = 17.472132 Si / 1000 Ang^3
#
#
#
# Elastic Constant Matrix: (Units=GPa)
#
#
# Indices 1 2 3 4 5 6 
#
# 1 141.6235 47.8083 48.6333 0.0000 0.0000 0.0000
# 2 47.8083 66.6004 36.0513 0.0000 0.0000 0.0000
# 3 48.6333 36.0513 61.1908 0.0000 0.0000 0.0000
# 4 0.0000 0.0000 0.0000 58.3663 0.0000 0.0000
# 5 0.0000 0.0000 0.0000 0.0000 18.0903 0.0000
# 6 0.0000 0.0000 0.0000 0.0000 0.0000 21.4576
#
#
#
# Elastic Compliance Matrix: (Units=1/GPa)
#
#
# Indices 1 2 3 4 5 6 
#
# 1 0.010539 -0.004451 -0.005754 0.000000 0.000000 0.000000
# 2 -0.004451 0.023925 -0.010558 0.000000 0.000000 0.000000
# 3 -0.005754 -0.010558 0.027136 0.000000 0.000000 0.000000
# 4 0.000000 0.000000 0.000000 0.017133 0.000000 0.000000
# 5 0.000000 0.000000 0.000000 0.000000 0.055278 0.000000
# 6 0.000000 0.000000 0.000000 0.000000 0.000000 0.046604
#
#
# Mechanical properties :
#
#
# Convention : Reuss Voigt Hill
#
# Bulk Modulus (GPa) = 49.81575 59.37782 54.59678
# Shear Modulus (GPa) = 21.84984 28.71095 25.28040
#
# Velocity S-wave (km/s) = 3.54015 4.05809 3.80794
# Velocity P-wave (km/s) = 6.72932 7.48435 7.11685
#
# Compressibility (1/GPa) = 0.02007397
#
# Stress axis : x y z
#
# Youngs Moduli (GPa) = 94.88149 41.79687 36.85078
#
# Poissons Ratio (x) = 0.18603 0.21205
# Poissons Ratio (y) = 0.42229 0.38909
# Poissons Ratio (z) = 0.54598 0.44131
#
# Static dielectric constant tensor:
#      x y z
#    x 3.709600 0.000000 0.000000 
#    y 0.000000 3.235950 0.000000 
#    z 0.000000 0.000000 2.966010 
# 
# 
# High freq. dielectric constant tensor:
#      x y z
#    x 1.689940 0.000000 0.000000 
#    y 0.000000 1.674280 0.000000 
#    z 0.000000 0.000000 1.640360 
# 
# From -- ./inp_files/25444.got.cif
#   From: 2010.03.12/outbox.cif.g09.slc.cpg/sg47_13_cif.got.tgz:25444.got - 2010.04.14 03:12:58.
