data_PCOD8195478
_publ_section_title
;
Structure prediction by ZEFSAII (Michael W. Deem and Ramdas Pophale) SiO2 
 PCOD8195478
Probable space group: P M M M
;
_chemical_formula_sum "Si O2"
_cell_formula_units_Z 52
_cell_length_a 7.949413
_cell_length_b 27.843054
_cell_length_c 12.746571
_cell_angle_alpha 90.000000
_cell_angle_beta 90.000000
_cell_angle_gamma 90.000000
_cell_volume 2821.274216
_symmetry_space_group_name_H-M "P M M M"
_symmetry_group_IT_number 47
_symmetry_cell_setting 'orthorhombic'
loop_
_space_group_symop_operation_xyz
x,y,z
-x,-y,z
x,-y,-z
-x,y,-z
-x,-y,-z
x,y,-z
-x,y,z
x,-y,z
loop_
_atom_site_type_symbol
_atom_site_label
_atom_site_fract_x
_atom_site_fract_y
_atom_site_fract_z
Si Si1 0.197661 0.383447 0.618580
Si Si2 0.811203 0.117201 0.122113
Si Si3 0.197494 0.725226 0.380500
Si Si4 0.307422 0.784126 0.189738
Si Si5 0.306026 0.446971 0.195549
Si Si6 0.699789 0.280473 0.000000
Si Si7 0.701513 0.388084 0.000000
Si Si8 0.500000 0.946319 0.875453
O O1 0.249329 0.396583 0.500000
O O2 0.255648 0.329167 0.644432
O O3 0.288904 0.420668 0.693725
O O4 0.000000 0.388137 0.633980
O O5 0.797396 0.166798 0.185672
O O6 0.670325 0.080027 0.164006
O O7 0.000000 0.096126 0.139642
O O8 0.778537 0.128414 0.000000
O O9 0.244384 0.738466 0.500000
O O10 0.294983 0.761373 0.304873
O O11 0.000000 0.730514 0.361855
O O12 0.500000 0.796770 0.163879
O O13 0.234877 0.746958 0.103663
O O14 0.500000 0.453483 0.169443
O O15 0.221197 0.500000 0.199971
O O16 0.225373 0.415334 0.102313
O O17 0.775602 0.334134 0.000000
O O18 0.500000 0.283238 0.000000
O O19 0.500000 0.386340 0.000000
O O20 0.500000 0.000000 0.827891
O O21 0.500000 0.948777 0.000000
#
# Coordination Sequence:
#
# PCOD8195478 Si02
#       8
#     8   8   8   8   8   4   4   4
#     4   9  19  36  54  70  93 125 158 199 251 305
#     4  10  19  31  49  73 106 146 186 226 270 319
#     4   9  19  35  51  69  97 131 168 211 257 308
#     4  11  19  30  49  74 107 139 172 213 259 312
#     4  10  20  33  51  72  93 119 154 200 249 300
#     4   9  18  27  45  72  98 130 163 204 250 299
#     4   9  17  32  48  68  96 126 160 194 243 304
#     4   9  18  32  50  72 105 147 189 235 276 312
#
# _framework density 18.431388999999999
#
# number of rings (size 3 to 8) (size 9 to 14) (size 15 to 20)
#    0.000    2.385    1.538    2.538    0.000    4.308 
#    0.000    5.000    0.000    3.692    0.000    0.000 
#    0.000    1.231    0.000    3.231    0.000    0.154 
#
# Total GULP energy -644769.958361 kJ/mol
# GULP energy per Si atom -12399.422276 kJ/mol
# Density = 1.838944 g / cm^3
# Si number density = 18.431389 Si / 1000 Ang^3
#
#
#
# Elastic Constant Matrix: (Units=GPa)
#
#
# Indices 1 2 3 4 5 6 
#
# 1 62.1640 38.9919 17.5053 0.0000 0.0000 0.0000
# 2 38.9919 141.5925 54.2608 0.0000 0.0000 0.0000
# 3 17.5053 54.2608 90.6608 0.0000 0.0000 0.0000
# 4 0.0000 0.0000 0.0000 15.0695 0.0000 0.0000
# 5 0.0000 0.0000 0.0000 0.0000 15.4386 0.0000
# 6 0.0000 0.0000 0.0000 0.0000 0.0000 18.3098
#
#
#
# Elastic Compliance Matrix: (Units=1/GPa)
#
#
# Indices 1 2 3 4 5 6 
#
# 1 0.019481 -0.005091 -0.000715 0.000000 0.000000 0.000000
# 2 -0.005091 0.010495 -0.005298 0.000000 0.000000 0.000000
# 3 -0.000715 -0.005298 0.014339 0.000000 0.000000 0.000000
# 4 0.000000 0.000000 0.000000 0.066359 0.000000 0.000000
# 5 0.000000 0.000000 0.000000 0.000000 0.064773 0.000000
# 6 0.000000 0.000000 0.000000 0.000000 0.000000 0.054616
#
#
# Mechanical properties :
#
#
# Convention : Reuss Voigt Hill
#
# Bulk Modulus (GPa) = 45.23347 57.32591 51.27969
# Shear Modulus (GPa) = 19.25753 22.00753 20.63253
#
# Velocity S-wave (km/s) = 3.23588 3.45921 3.34941
# Velocity P-wave (km/s) = 6.20935 6.86475 6.54526
#
# Compressibility (1/GPa) = 0.02210752
#
# Stress axis : x y z
#
# Youngs Moduli (GPa) = 51.33237 95.28518 69.73934
#
# Poissons Ratio (x) = 0.48508 0.04984
# Poissons Ratio (y) = 0.26132 0.36949
# Poissons Ratio (z) = 0.03668 0.50484
#
# Static dielectric constant tensor:
#      x y z
#    x 3.194480 0.000000 0.000000 
#    y 0.000000 3.428960 0.000000 
#    z 0.000000 0.000000 3.247200 
# 
# 
# High freq. dielectric constant tensor:
#      x y z
#    x 1.703610 0.000000 0.000000 
#    y 0.000000 1.704090 0.000000 
#    z 0.000000 0.000000 1.692740 
# 
# From -- ./inp_files/15528.got.cif
#   From: 2010.03.12/outbox.cif.g09.slc.cpg/sg47_8_cif.got.tgz:15528.got - 2010.04.14 03:12:58.
