data_PCOD8195260
_publ_section_title
;
Structure prediction by ZEFSAII (Michael W. Deem and Ramdas Pophale) SiO2 
 PCOD8195260
Probable space group: P M M M
;
_chemical_formula_sum "Si O2"
_cell_formula_units_Z 60
_cell_length_a 24.309041
_cell_length_b 18.617651
_cell_length_c 8.945688
_cell_angle_alpha 90.000000
_cell_angle_beta 90.000000
_cell_angle_gamma 90.000000
_cell_volume 4048.614798
_symmetry_space_group_name_H-M "P M M M"
_symmetry_group_IT_number 47
_symmetry_cell_setting 'orthorhombic'
loop_
_space_group_symop_operation_xyz
x,y,z
-x,-y,z
x,-y,-z
-x,y,-z
-x,-y,-z
x,y,-z
-x,y,z
x,-y,z
loop_
_atom_site_type_symbol
_atom_site_label
_atom_site_fract_x
_atom_site_fract_y
_atom_site_fract_z
Si Si1 0.726018 0.169535 0.823141
Si Si2 0.379907 0.080079 0.824019
Si Si3 0.058111 0.914933 0.333330
Si Si4 0.177403 0.917203 0.678588
Si Si5 0.500000 0.584861 0.332933
Si Si6 0.664741 0.292547 0.323507
Si Si7 0.388150 0.416642 0.824877
Si Si8 0.438942 0.800132 0.327324
O O1 0.677524 0.115749 0.775147
O O2 0.781747 0.136807 0.759535
O O3 0.714643 0.247225 0.748378
O O4 0.730526 0.179273 0.000000
O O5 0.430658 0.125089 0.759216
O O6 0.381561 0.000000 0.756968
O O7 0.385704 0.078492 0.000000
O O8 0.056312 0.882843 0.500000
O O9 0.116544 0.892354 0.260459
O O10 0.000000 0.890856 0.251581
O O11 0.059565 0.000000 0.343509
O O12 0.181176 0.908967 0.500000
O O13 0.189920 0.000000 0.723998
O O14 0.500000 0.500000 0.346376
O O15 0.500000 0.619649 0.500000
O O16 0.445731 0.609755 0.245851
O O17 0.673751 0.298262 0.500000
O O18 0.661716 0.371934 0.250821
O O19 0.606628 0.256861 0.276659
O O20 0.376845 0.500000 0.790739
O O21 0.390513 0.401106 0.000000
O O22 0.431784 0.818220 0.500000
O O23 0.500000 0.769663 0.291472
#
# Coordination Sequence:
#
# PCOD8195260 Si02
#       8
#     8   8   8   8   4   8   8   8
#     4  10  19  31  44  58  80 107 137 171 211 254
#     4   9  18  31  44  57  73  95 125 161 199 241
#     4   7  10  18  33  54  80 108 138 174 214 251
#     4   9  16  25  40  62  84 108 143 184 219 252
#     4   9  17  29  45  65  87 109 132 157 186 225
#     4  10  20  33  49  64  81 105 133 166 202 244
#     4  10  20  33  48  68  91 110 130 158 196 244
#     4   9  19  33  45  59  77  96 120 153 196 243
#
# _framework density 14.819883000000001
#
# number of rings (size 3 to 8) (size 9 to 14) (size 15 to 20)
#    0.000    2.867    0.000    3.000    0.933    4.267 
#    0.000    1.333    0.000    0.400    0.000    1.867 
#    0.000    0.000    0.000    0.000    0.000    0.667 
#
# Total GULP energy -743506.583846 kJ/mol
# GULP energy per Si atom -12391.776397 kJ/mol
# Density = 1.478615 g / cm^3
# Si number density = 14.819883 Si / 1000 Ang^3
#
#
#
# Elastic Constant Matrix: (Units=GPa)
#
#
# Indices 1 2 3 4 5 6 
#
# 1 94.7349 33.2580 30.9443 0.0000 0.0000 0.0000
# 2 33.2580 64.3107 32.0842 0.0000 0.0000 0.0000
# 3 30.9443 32.0842 54.7568 0.0000 0.0000 0.0000
# 4 0.0000 0.0000 0.0000 21.8746 0.0000 0.0000
# 5 0.0000 0.0000 0.0000 0.0000 11.8394 0.0000
# 6 0.0000 0.0000 0.0000 0.0000 0.0000 12.9926
#
#
#
# Elastic Compliance Matrix: (Units=1/GPa)
#
#
# Indices 1 2 3 4 5 6 
#
# 1 0.013847 -0.004602 -0.005128 0.000000 0.000000 0.000000
# 2 -0.004602 0.023502 -0.011170 0.000000 0.000000 0.000000
# 3 -0.005128 -0.011170 0.027706 0.000000 0.000000 0.000000
# 4 0.000000 0.000000 0.000000 0.045715 0.000000 0.000000
# 5 0.000000 0.000000 0.000000 0.000000 0.084464 0.000000
# 6 0.000000 0.000000 0.000000 0.000000 0.000000 0.076967
#
#
# Mechanical properties :
#
#
# Convention : Reuss Voigt Hill
#
# Bulk Modulus (GPa) = 43.00486 45.15281 44.07884
# Shear Modulus (GPa) = 15.53988 17.17571 16.35779
#
# Velocity S-wave (km/s) = 3.24170 3.40805 3.32591
# Velocity P-wave (km/s) = 6.56451 6.78382 6.67507
#
# Compressibility (1/GPa) = 0.02325318
#
# Stress axis : x y z
#
# Youngs Moduli (GPa) = 72.22009 42.54918 36.09356
#
# Poissons Ratio (x) = 0.19582 0.18510
# Poissons Ratio (y) = 0.33237 0.40317
# Poissons Ratio (z) = 0.37037 0.47528
#
# Static dielectric constant tensor:
#      x y z
#    x 3.053240 0.000000 0.000000 
#    y 0.000000 2.776040 0.000000 
#    z 0.000000 0.000000 2.780510 
# 
# 
# High freq. dielectric constant tensor:
#      x y z
#    x 1.545530 0.000000 0.000000 
#    y 0.000000 1.541690 0.000000 
#    z 0.000000 0.000000 1.562580 
# 
# From -- ./inp_files/12902.got.cif
#   From: 2010.03.12/outbox.cif.g09.slc.cpg/sg47_7_cif.got.tgz:12902.got - 2010.04.14 03:12:58.
