data_PCOD8195119
_publ_section_title
;
Structure prediction by ZEFSAII (Michael W. Deem and Ramdas Pophale) SiO2 
 PCOD8195119
Probable space group: P M M M
;
_chemical_formula_sum "Si O2"
_cell_formula_units_Z 48
_cell_length_a 9.471124
_cell_length_b 7.816448
_cell_length_c 34.310575
_cell_angle_alpha 90.000000
_cell_angle_beta 90.000000
_cell_angle_gamma 90.000000
_cell_volume 2540.030678
_symmetry_space_group_name_H-M "P M M M"
_symmetry_group_IT_number 47
_symmetry_cell_setting 'orthorhombic'
loop_
_space_group_symop_operation_xyz
x,y,z
-x,-y,z
x,-y,-z
-x,y,-z
-x,-y,-z
x,y,-z
-x,y,z
x,-y,z
loop_
_atom_site_type_symbol
_atom_site_label
_atom_site_fract_x
_atom_site_fract_y
_atom_site_fract_z
Si Si1 0.331504 0.000000 0.177101
Si Si2 0.832601 0.309985 0.956480
Si Si3 0.658675 0.299599 0.317642
Si Si4 0.168753 0.000000 0.096695
Si Si5 0.844945 0.802943 0.388030
Si Si6 0.342068 0.796484 0.543133
Si Si7 0.332480 0.689276 0.230585
O O1 0.249234 0.000000 0.137030
O O2 0.279744 0.168412 0.200279
O O3 0.500000 0.000000 0.170523
O O4 0.782969 0.500000 0.942927
O O5 0.777467 0.167270 0.926632
O O6 0.000000 0.302259 0.957922
O O7 0.774066 0.271726 0.000000
O O8 0.500000 0.225642 0.322985
O O9 0.657610 0.500000 0.325486
O O10 0.762922 0.210417 0.347542
O O11 0.716761 0.260353 0.274161
O O12 0.000000 0.000000 0.102996
O O13 0.759162 0.715599 0.423737
O O14 0.000000 0.716310 0.384575
O O15 0.864168 0.000000 0.398156
O O16 0.289050 0.740797 0.500000
O O17 0.500000 0.725649 0.550288
O O18 0.344810 0.000000 0.546218
O O19 0.500000 0.681747 0.231080
O O20 0.273705 0.500000 0.218894
#
# Coordination Sequence:
#
# PCOD8195119 Si02
#       7
#     4   8   8   4   8   8   8
#     4  10  20  33  51  73  98 134 169 199 248 302
#     4   8  14  26  46  71  97 128 168 211 252 293
#     4   9  18  33  53  73  90 114 154 202 245 282
#     4  10  19  30  46  72 102 128 160 207 253 292
#     4  10  20  30  43  70 102 128 153 184 231 291
#     4   8  14  26  44  65  90 122 160 198 232 269
#     4   8  16  32  52  73  94 120 163 210 245 289
#
# _framework density 18.897407999999999
#
# number of rings (size 3 to 8) (size 9 to 14) (size 15 to 20)
#    0.000    3.167    0.000    2.750    1.167    3.333 
#    0.000    2.500    0.000    2.500    0.000    4.667 
#    0.000    0.000    0.000    0.000    0.000    0.000 
#
# Total GULP energy -594852.083125 kJ/mol
# GULP energy per Si atom -12392.751732 kJ/mol
# Density = 1.885440 g / cm^3
# Si number density = 18.897408 Si / 1000 Ang^3
#
#
#
# Elastic Constant Matrix: (Units=GPa)
#
#
# Indices 1 2 3 4 5 6 
#
# 1 70.6207 29.5583 58.1147 0.0000 0.0000 0.0000
# 2 29.5583 89.3944 72.1753 0.0000 0.0000 0.0000
# 3 58.1147 72.1753 164.6540 0.0000 0.0000 0.0000
# 4 0.0000 0.0000 0.0000 -30.6759 0.0000 0.0000
# 5 0.0000 0.0000 0.0000 0.0000 11.1965 0.0000
# 6 0.0000 0.0000 0.0000 0.0000 0.0000 9.2397
#
#
#
# Elastic Compliance Matrix: (Units=1/GPa)
#
#
# Indices 1 2 3 4 5 6 
#
# 1 0.020072 -0.001419 -0.006462 0.000000 0.000000 0.000000
# 2 -0.001419 0.017414 -0.007133 0.000000 0.000000 0.000000
# 3 -0.006462 -0.007133 0.011481 0.000000 0.000000 0.000000
# 4 0.000000 0.000000 0.000000 -0.032599 0.000000 0.000000
# 5 0.000000 0.000000 0.000000 0.000000 0.089313 0.000000
# 6 0.000000 0.000000 0.000000 0.000000 0.000000 0.108229
#
#
# Mechanical properties :
#
#
# Convention : Reuss Voigt Hill
#
# Bulk Modulus (GPa) = 52.80148 71.59621 62.19885
# Shear Modulus (GPa) = 19.97985 8.94011 14.45998
#
# Velocity S-wave (km/s) = 3.25511 2.17742 2.76920
# Velocity P-wave (km/s) = 6.49072 6.65511 6.57343
#
# Compressibility (1/GPa) = 0.01893886
#
# Stress axis : x y z
#
# Youngs Moduli (GPa) = 49.82031 57.42386 87.10229
#
# Poissons Ratio (x) = 0.08150 0.56288
# Poissons Ratio (y) = 0.07071 0.62126
# Poissons Ratio (z) = 0.32196 0.40958
#
# Static dielectric constant tensor:
#      x y z
#    x 3.272650 0.000000 0.000000 
#    y 0.000000 3.616730 0.000000 
#    z 0.000000 0.000000 3.574950 
# 
# 
# High freq. dielectric constant tensor:
#      x y z
#    x 1.689570 0.000000 0.000000 
#    y 0.000000 1.726730 0.000000 
#    z 0.000000 0.000000 1.736490 
# 
# From -- ./inp_files/34178.got.cif
#   From: 2010.03.12/outbox.cif.g09.slc.cpg/sg47_18_cif.got.tgz:34178.got - 2010.04.14 03:12:58.
