data_PCOD8195614
_publ_section_title
;
Structure prediction by ZEFSAII (Michael W. Deem and Ramdas Pophale) SiO2 
 PCOD8195614
Probable space group: P M M M
;
_chemical_formula_sum "Si O2"
_cell_formula_units_Z 40
_cell_length_a 16.586509
_cell_length_b 18.096492
_cell_length_c 9.484802
_cell_angle_alpha 90.000000
_cell_angle_beta 90.000000
_cell_angle_gamma 90.000000
_cell_volume 2846.935665
_symmetry_space_group_name_H-M "P M M M"
_symmetry_group_IT_number 47
_symmetry_cell_setting 'orthorhombic'
loop_
_space_group_symop_operation_xyz
x,y,z
-x,-y,z
x,-y,-z
-x,y,-z
-x,-y,-z
x,y,-z
-x,y,z
x,-y,z
loop_
_atom_site_type_symbol
_atom_site_label
_atom_site_fract_x
_atom_site_fract_y
_atom_site_fract_z
Si Si1 0.149372 0.585547 0.339388
Si Si2 0.000000 0.411974 0.840269
Si Si3 0.326341 0.369282 0.336259
Si Si4 0.404190 0.081147 0.158869
Si Si5 0.404703 0.500000 0.836404
Si Si6 0.407170 0.783023 0.663469
O O1 0.120137 0.595499 0.500000
O O2 0.167861 0.500000 0.306914
O O3 0.230750 0.630457 0.309453
O O4 0.079756 0.617657 0.238336
O O5 0.000000 0.500000 0.833338
O O6 0.000000 0.382515 0.000000
O O7 0.346069 0.387485 0.500000
O O8 0.370311 0.427709 0.237972
O O9 0.357234 0.288824 0.292135
O O10 0.500000 0.081936 0.166734
O O11 0.369480 0.146254 0.256586
O O12 0.373309 0.000000 0.209448
O O13 0.374772 0.095903 0.000000
O O14 0.500000 0.500000 0.819600
O O15 0.378576 0.500000 0.000000
O O16 0.398194 0.800482 0.500000
O O17 0.500000 0.769005 0.705410
#
# Coordination Sequence:
#
# PCOD8195614 Si02
#       6
#     8   4   8   8   4   8
#     4   9  16  28  44  60  76  99 132 165 198 241
#     4   9  17  27  41  61  81  99 120 155 204 247
#     4  10  19  32  46  59  77 106 140 172 207 244
#     4   8  14  25  40  56  75 101 131 162 199 243
#     4  11  23  33  41  56  77 104 141 181 214 239
#     4   9  17  27  40  59  80 103 134 171 206 238
#
# _framework density 14.050193999999999
#
# number of rings (size 3 to 8) (size 9 to 14) (size 15 to 20)
#    0.000    2.800    1.000    1.800    0.000    4.800 
#    0.000    4.000    0.000    0.000    0.000    0.000 
#    0.000    0.000    0.000    0.900    0.000   18.800 
#
# Total GULP energy -495907.189409 kJ/mol
# GULP energy per Si atom -12397.679735 kJ/mol
# Density = 1.401822 g / cm^3
# Si number density = 14.050194 Si / 1000 Ang^3
#
#
#
# Elastic Constant Matrix: (Units=GPa)
#
#
# Indices 1 2 3 4 5 6 
#
# 1 68.5619 45.4105 45.7058 0.0000 0.0000 0.0000
# 2 45.4105 111.6434 61.6182 0.0000 0.0000 0.0000
# 3 45.7058 61.6182 84.9292 0.0000 0.0000 0.0000
# 4 0.0000 0.0000 0.0000 18.8611 0.0000 0.0000
# 5 0.0000 0.0000 0.0000 0.0000 16.7397 0.0000
# 6 0.0000 0.0000 0.0000 0.0000 0.0000 -1.1041
#
#
#
# Elastic Compliance Matrix: (Units=1/GPa)
#
#
# Indices 1 2 3 4 5 6 
#
# 1 0.023968 -0.004386 -0.009716 0.000000 0.000000 0.000000
# 2 -0.004386 0.015742 -0.009061 0.000000 0.000000 0.000000
# 3 -0.009716 -0.009061 0.023577 0.000000 0.000000 0.000000
# 4 0.000000 0.000000 0.000000 0.053019 0.000000 0.000000
# 5 0.000000 0.000000 0.000000 0.000000 0.059738 0.000000
# 6 0.000000 0.000000 0.000000 0.000000 0.000000 -0.905742
#
#
# Mechanical properties :
#
#
# Convention : Reuss Voigt Hill
#
# Bulk Modulus (GPa) = 58.96022 63.40037 61.18030
# Shear Modulus (GPa) = -7.37769 14.39269 3.50750
#
# Velocity S-wave (km/s) = -2.29398 3.20406 1.58172
# Velocity P-wave (km/s) = 5.91934 7.67530 6.85379
#
# Compressibility (1/GPa) = 0.01696059
#
# Stress axis : x y z
#
# Youngs Moduli (GPa) = 41.72300 63.52477 42.41398
#
# Poissons Ratio (x) = 0.27863 0.41210
# Poissons Ratio (y) = 0.18300 0.38430
# Poissons Ratio (z) = 0.40539 0.57558
#
# Static dielectric constant tensor:
#      x y z
#    x 2.604630 0.000000 0.000000 
#    y 0.000000 2.833860 0.000000 
#    z 0.000000 0.000000 2.880180 
# 
# 
# High freq. dielectric constant tensor:
#      x y z
#    x 1.507180 0.000000 0.000000 
#    y 0.000000 1.514150 0.000000 
#    z 0.000000 0.000000 1.542600 
# 
# From -- ./inp_files/9338.got.cif
#   From: 2010.03.12/outbox.cif.g09.slc.cpg/sg47_5_cif.got.tgz:9338.got - 2010.04.14 03:12:58.
