data_PCOD8195000
_publ_section_title
;
Structure prediction by ZEFSAII (Michael W. Deem and Ramdas Pophale) SiO2 
 PCOD8195000
Probable space group: P M M M
;
_chemical_formula_sum "Si O2"
_cell_formula_units_Z 52
_cell_length_a 10.408266
_cell_length_b 13.773257
_cell_length_c 23.518321
_cell_angle_alpha 90.000000
_cell_angle_beta 90.000000
_cell_angle_gamma 90.000000
_cell_volume 3371.485900
_symmetry_space_group_name_H-M "P M M M"
_symmetry_group_IT_number 47
_symmetry_cell_setting 'orthorhombic'
loop_
_space_group_symop_operation_xyz
x,y,z
-x,-y,z
x,-y,-z
-x,y,-z
-x,-y,-z
x,y,-z
-x,y,z
x,-y,z
loop_
_atom_site_type_symbol
_atom_site_label
_atom_site_fract_x
_atom_site_fract_y
_atom_site_fract_z
Si Si1 0.000000 0.391824 0.933111
Si Si2 0.645679 0.605617 0.172496
Si Si3 0.351382 0.114821 0.653809
Si Si4 0.856633 0.884792 0.436339
Si Si5 0.263125 0.299072 0.065166
Si Si6 0.652166 0.205301 0.771031
Si Si7 0.651864 0.891369 0.114364
O O1 0.122409 0.330418 0.913548
O O2 0.000000 0.500000 0.905590
O O3 0.000000 0.403220 0.000000
O O4 0.500000 0.591901 0.191492
O O5 0.715572 0.500000 0.177845
O O6 0.641880 0.643688 0.107238
O O7 0.709565 0.687413 0.213703
O O8 0.500000 0.142022 0.639710
O O9 0.257214 0.154157 0.604276
O O10 0.298553 0.167010 0.710576
O O11 0.338971 0.000000 0.662726
O O12 0.830315 0.845165 0.500000
O O13 0.000000 0.851238 0.416178
O O14 0.851779 0.000000 0.436924
O O15 0.278415 0.183060 0.071639
O O16 0.290682 0.329301 0.000000
O O17 0.500000 0.211466 0.769224
O O18 0.692898 0.130731 0.820627
O O19 0.500000 0.879633 0.106468
O O20 0.696891 0.000000 0.098923
#
# Coordination Sequence:
#
# PCOD8195000 Si02
#       7
#     4   8   8   8   8   8   8
#     4   9  18  32  47  59  73  99 134 168 204 249
#     4   9  17  28  43  63  84 104 126 161 214 266
#     4   9  15  22  37  59  79 105 142 176 200 229
#     4   8  14  24  36  52  80 116 144 165 197 239
#     4  10  19  30  44  62  81 103 136 173 206 249
#     4   8  14  25  40  58  80 105 135 167 198 240
#     4   9  17  29  45  63  85 113 138 164 205 255
#
# _framework density 15.423467
#
# number of rings (size 3 to 8) (size 9 to 14) (size 15 to 20)
#    0.000    3.154    0.000    2.769    0.000    4.615 
#    0.000    3.462    6.769    1.385    0.000    0.000 
#    0.000    0.615    0.000    7.692    0.000    1.538 
#
# Total GULP energy -644250.934405 kJ/mol
# GULP energy per Si atom -12389.441046 kJ/mol
# Density = 1.538836 g / cm^3
# Si number density = 15.423467 Si / 1000 Ang^3
#
#
#
# Elastic Constant Matrix: (Units=GPa)
#
#
# Indices 1 2 3 4 5 6 
#
# 1 52.1246 26.2898 31.7172 0.0000 0.0000 0.0000
# 2 26.2898 99.8266 23.8887 0.0000 0.0000 0.0000
# 3 31.7172 23.8887 84.4491 0.0000 0.0000 0.0000
# 4 0.0000 0.0000 0.0000 13.5281 0.0000 0.0000
# 5 0.0000 0.0000 0.0000 0.0000 10.5962 0.0000
# 6 0.0000 0.0000 0.0000 0.0000 0.0000 12.8888
#
#
#
# Elastic Compliance Matrix: (Units=1/GPa)
#
#
# Indices 1 2 3 4 5 6 
#
# 1 0.027034 -0.005030 -0.008731 0.000000 0.000000 0.000000
# 2 -0.005030 0.011681 -0.001415 0.000000 0.000000 0.000000
# 3 -0.008731 -0.001415 0.015521 0.000000 0.000000 0.000000
# 4 0.000000 0.000000 0.000000 0.073920 0.000000 0.000000
# 5 0.000000 0.000000 0.000000 0.000000 0.094374 0.000000
# 6 0.000000 0.000000 0.000000 0.000000 0.000000 0.077587
#
#
# Mechanical properties :
#
#
# Convention : Reuss Voigt Hill
#
# Bulk Modulus (GPa) = 41.86879 44.46576 43.16727
# Shear Modulus (GPa) = 14.77412 17.70291 16.23851
#
# Velocity S-wave (km/s) = 3.09835 3.39158 3.24828
# Velocity P-wave (km/s) = 6.32493 6.65054 6.48978
#
# Compressibility (1/GPa) = 0.02388414
#
# Stress axis : x y z
#
# Youngs Moduli (GPa) = 36.98986 85.61095 64.43005
#
# Poissons Ratio (x) = 0.43066 0.56251
# Poissons Ratio (y) = 0.18607 0.09116
# Poissons Ratio (z) = 0.32294 0.12113
#
# Static dielectric constant tensor:
#      x y z
#    x 2.898930 0.000000 0.000000 
#    y 0.000000 3.106270 0.000000 
#    z 0.000000 0.000000 3.008310 
# 
# 
# High freq. dielectric constant tensor:
#      x y z
#    x 1.565440 0.000000 0.000000 
#    y 0.000000 1.573850 0.000000 
#    z 0.000000 0.000000 1.573940 
# 
# From -- ./inp_files/23014.got.cif
#   From: 2010.03.12/outbox.cif.g09.slc.cpg/sg47_12_cif.got.tgz:23014.got - 2010.04.14 03:12:58.
