data_PCOD8195889
_publ_section_title
;
Structure prediction by ZEFSAII (Michael W. Deem and Ramdas Pophale) SiO2 
 PCOD8195889
Probable space group: P M M M
;
_chemical_formula_sum "Si O2"
_cell_formula_units_Z 48
_cell_length_a 32.456152
_cell_length_b 9.265870
_cell_length_c 8.083936
_cell_angle_alpha 90.000000
_cell_angle_beta 90.000000
_cell_angle_gamma 90.000000
_cell_volume 2431.118331
_symmetry_space_group_name_H-M "P M M M"
_symmetry_group_IT_number 47
_symmetry_cell_setting 'orthorhombic'
loop_
_space_group_symop_operation_xyz
x,y,z
-x,-y,z
x,-y,-z
-x,y,-z
-x,-y,-z
x,y,-z
-x,y,z
x,-y,z
loop_
_atom_site_type_symbol
_atom_site_label
_atom_site_fract_x
_atom_site_fract_y
_atom_site_fract_z
Si Si1 0.423053 0.159750 0.808386
Si Si2 0.500000 0.662630 0.802156
Si Si3 0.173733 0.668291 0.689241
Si Si4 0.652361 0.335635 0.691205
Si Si5 0.901742 0.168195 0.185631
Si Si6 0.046197 0.828474 0.500000
Si Si7 0.739426 0.671253 0.185891
O O1 0.459680 0.255918 0.730564
O O2 0.379298 0.236401 0.788458
O O3 0.422348 0.000000 0.725886
O O4 0.432433 0.141972 0.000000
O O5 0.500000 0.500000 0.731707
O O6 0.500000 0.658877 0.000000
O O7 0.162096 0.698188 0.500000
O O8 0.171104 0.500000 0.733839
O O9 0.141819 0.751546 0.804835
O O10 0.219680 0.728898 0.722748
O O11 0.641475 0.327783 0.500000
O O12 0.648706 0.500000 0.757487
O O13 0.698394 0.274426 0.721180
O O14 0.931837 0.227204 0.330991
O O15 0.893581 0.000000 0.214399
O O16 0.920192 0.195253 0.000000
O O17 0.000000 0.764981 0.500000
O O18 0.044962 0.000000 0.500000
O O19 0.740210 0.500000 0.189718
O O20 0.738909 0.731370 0.000000
#
# Coordination Sequence:
#
# PCOD8195889 Si02
#       7
#     8   4   8   8   8   4   8
#     4  10  20  34  53  77 105 135 167 207 256 310
#     4   9  17  31  54  81 104 129 166 210 256 307
#     4  10  19  32  53  80 110 145 182 221 269 324
#     4  10  20  34  52  74 101 134 172 213 256 304
#     4  10  20  34  54  80 109 142 181 226 277 331
#     4   9  18  34  55  79 109 143 181 229 281 332
#     4   9  17  30  50  76 104 135 174 219 262 308
#
# _framework density 19.743998999999999
#
# number of rings (size 3 to 8) (size 9 to 14) (size 15 to 20)
#    0.000    2.333    0.833    2.250    0.000    6.333 
#    0.000    2.917    0.000    8.500    0.000    1.167 
#    0.000    0.000    0.000    0.000    0.000    0.000 
#
# Total GULP energy -595109.056381 kJ/mol
# GULP energy per Si atom -12398.105341 kJ/mol
# Density = 1.969906 g / cm^3
# Si number density = 19.743999 Si / 1000 Ang^3
#
#
#
# Elastic Constant Matrix: (Units=GPa)
#
#
# Indices 1 2 3 4 5 6 
#
# 1 152.5589 51.0976 39.0081 0.0000 0.0000 0.0000
# 2 51.0976 75.6398 25.6627 0.0000 0.0000 0.0000
# 3 39.0081 25.6627 81.4664 0.0000 0.0000 0.0000
# 4 0.0000 0.0000 0.0000 16.5456 0.0000 0.0000
# 5 0.0000 0.0000 0.0000 0.0000 23.3120 0.0000
# 6 0.0000 0.0000 0.0000 0.0000 0.0000 18.7890
#
#
#
# Elastic Compliance Matrix: (Units=1/GPa)
#
#
# Indices 1 2 3 4 5 6 
#
# 1 0.008962 -0.005148 -0.002669 0.000000 0.000000 0.000000
# 2 -0.005148 0.017760 -0.003129 0.000000 0.000000 0.000000
# 3 -0.002669 -0.003129 0.014539 0.000000 0.000000 0.000000
# 4 0.000000 0.000000 0.000000 0.060439 0.000000 0.000000
# 5 0.000000 0.000000 0.000000 0.000000 0.042896 0.000000
# 6 0.000000 0.000000 0.000000 0.000000 0.000000 0.053223
#
#
# Mechanical properties :
#
#
# Convention : Reuss Voigt Hill
#
# Bulk Modulus (GPa) = 51.63528 60.13354 55.88441
# Shear Modulus (GPa) = 22.10739 24.65577 23.38158
#
# Velocity S-wave (km/s) = 3.34982 3.53763 3.44501
# Velocity P-wave (km/s) = 6.41646 6.87089 6.64756
#
# Compressibility (1/GPa) = 0.01936660
#
# Stress axis : x y z
#
# Youngs Moduli (GPa) = 111.58535 56.30559 68.78076
#
# Poissons Ratio (x) = 0.28988 0.18360
# Poissons Ratio (y) = 0.57448 0.21525
# Poissons Ratio (z) = 0.29786 0.17621
#
# Static dielectric constant tensor:
#      x y z
#    x 3.721080 0.000000 0.000000 
#    y 0.000000 3.366700 0.000000 
#    z 0.000000 0.000000 3.543760 
# 
# 
# High freq. dielectric constant tensor:
#      x y z
#    x 1.775380 0.000000 0.000000 
#    y 0.000000 1.734510 0.000000 
#    z 0.000000 0.000000 1.765370 
# 
# From -- ./inp_files/13829.got.cif
#   From: 2010.03.12/outbox.cif.g09.slc.cpg/sg47_7_cif.got.tgz:13829.got - 2010.04.14 03:12:58.
