data_PCOD8195376
_publ_section_title
;
Structure prediction by ZEFSAII (Michael W. Deem and Ramdas Pophale) SiO2 
 PCOD8195376
Probable space group: P M M M
;
_chemical_formula_sum "Si O2"
_cell_formula_units_Z 64
_cell_length_a 9.155210
_cell_length_b 29.313240
_cell_length_c 13.773052
_cell_angle_alpha 90.000000
_cell_angle_beta 90.000000
_cell_angle_gamma 90.000000
_cell_volume 3696.258374
_symmetry_space_group_name_H-M "P M M M"
_symmetry_group_IT_number 47
_symmetry_cell_setting 'orthorhombic'
loop_
_space_group_symop_operation_xyz
x,y,z
-x,-y,z
x,-y,-z
-x,y,-z
-x,-y,-z
x,y,-z
-x,y,z
x,-y,z
loop_
_atom_site_type_symbol
_atom_site_label
_atom_site_fract_x
_atom_site_fract_y
_atom_site_fract_z
Si Si1 0.329860 0.824668 0.889211
Si Si2 0.170385 0.870683 0.720819
Si Si3 0.329347 0.732968 0.217967
Si Si4 0.829462 0.220852 0.388353
Si Si5 0.832476 0.450834 0.756074
Si Si6 0.667852 0.947544 0.388956
Si Si7 0.671541 0.398680 0.611943
Si Si8 0.168705 0.646589 0.771723
O O1 0.500000 0.834842 0.874954
O O2 0.241394 0.860593 0.825096
O O3 0.293201 0.773096 0.857210
O O4 0.280515 0.830699 0.000000
O O5 0.207679 0.830578 0.644881
O O6 0.232114 0.917807 0.680765
O O7 0.000000 0.876373 0.737248
O O8 0.500000 0.724803 0.230403
O O9 0.261495 0.743811 0.323460
O O10 0.255550 0.686968 0.173755
O O11 0.781197 0.226239 0.500000
O O12 0.000000 0.231241 0.374038
O O13 0.797100 0.500000 0.807807
O O14 0.728113 0.445946 0.661465
O O15 0.810196 0.404395 0.821967
O O16 0.000000 0.450758 0.720459
O O17 0.716454 0.939928 0.500000
O O18 0.500000 0.932985 0.375514
O O19 0.689949 0.000000 0.359270
O O20 0.712659 0.399164 0.500000
O O21 0.500000 0.392531 0.629682
O O22 0.760210 0.357229 0.663476
O O23 0.000000 0.660510 0.765598
#
# Coordination Sequence:
#
# PCOD8195376 Si02
#       8
#     8   8   8   8   8   8   8   8
#     4   9  19  36  56  76  98 127 162 199 245 302
#     4  10  19  31  50  76 104 132 165 208 256 297
#     4  10  19  31  48  69  92 117 150 194 237 279
#     4   9  18  31  45  63  91 127 161 191 229 282
#     4   8  16  29  42  56  76 107 147 185 224 275
#     4   9  18  32  50  74 106 145 185 218 248 288
#     4   9  17  27  38  54  76 104 142 187 229 265
#     4   9  18  30  43  57  79 111 142 177 224 276
#
# _framework density 17.314806000000001
#
# number of rings (size 3 to 8) (size 9 to 14) (size 15 to 20)
#    0.750    2.125    0.000    1.875    0.000    4.500 
#    0.000    1.875    0.000    0.375    0.000    2.625 
#    0.000    0.500    0.000    6.250    0.000    0.000 
#
# Total GULP energy -792877.803124 kJ/mol
# GULP energy per Si atom -12388.715674 kJ/mol
# Density = 1.727540 g / cm^3
# Si number density = 17.314806 Si / 1000 Ang^3
#
#
#
# Elastic Constant Matrix: (Units=GPa)
#
#
# Indices 1 2 3 4 5 6 
#
# 1 71.2945 47.0465 34.3215 0.0000 0.0000 0.0000
# 2 47.0465 107.8919 37.9651 0.0000 0.0000 0.0000
# 3 34.3215 37.9651 69.8005 0.0000 0.0000 0.0000
# 4 0.0000 0.0000 0.0000 13.4820 0.0000 0.0000
# 5 0.0000 0.0000 0.0000 0.0000 15.6999 0.0000
# 6 0.0000 0.0000 0.0000 0.0000 0.0000 30.2680
#
#
#
# Elastic Compliance Matrix: (Units=1/GPa)
#
#
# Indices 1 2 3 4 5 6 
#
# 1 0.022130 -0.007199 -0.006966 0.000000 0.000000 0.000000
# 2 -0.007199 0.013804 -0.003968 0.000000 0.000000 0.000000
# 3 -0.006966 -0.003968 0.019910 0.000000 0.000000 0.000000
# 4 0.000000 0.000000 0.000000 0.074173 0.000000 0.000000
# 5 0.000000 0.000000 0.000000 0.000000 0.063695 0.000000
# 6 0.000000 0.000000 0.000000 0.000000 0.000000 0.033038
#
#
# Mechanical properties :
#
#
# Convention : Reuss Voigt Hill
#
# Bulk Modulus (GPa) = 51.07799 54.18369 52.63084
# Shear Modulus (GPa) = 18.54989 20.53354 19.54171
#
# Velocity S-wave (km/s) = 3.27667 3.44742 3.36313
# Velocity P-wave (km/s) = 6.62413 6.87077 6.74857
#
# Compressibility (1/GPa) = 0.01957791
#
# Stress axis : x y z
#
# Youngs Moduli (GPa) = 45.18710 72.44297 50.22504
#
# Poissons Ratio (x) = 0.52149 0.34988
# Poissons Ratio (y) = 0.32529 0.19932
# Poissons Ratio (z) = 0.31478 0.28749
#
# Static dielectric constant tensor:
#      x y z
#    x 3.228790 0.000000 0.000000 
#    y 0.000000 3.302620 0.000000 
#    z 0.000000 0.000000 2.845400 
# 
# 
# High freq. dielectric constant tensor:
#      x y z
#    x 1.676490 0.000000 0.000000 
#    y 0.000000 1.671270 0.000000 
#    z 0.000000 0.000000 1.620900 
# 
# From -- ./inp_files/22183.got.cif
#   From: 2010.03.12/outbox.cif.g09.slc.cpg/sg47_12_cif.got.tgz:22183.got - 2010.04.14 03:12:58.
