data_PCOD8195202
_publ_section_title
;
Structure prediction by ZEFSAII (Michael W. Deem and Ramdas Pophale) SiO2 
 PCOD8195202
Probable space group: P M M M
;
_chemical_formula_sum "Si O2"
_cell_formula_units_Z 56
_cell_length_a 18.370043
_cell_length_b 9.037159
_cell_length_c 18.914918
_cell_angle_alpha 90.000000
_cell_angle_beta 90.000000
_cell_angle_gamma 90.000000
_cell_volume 3140.122271
_symmetry_space_group_name_H-M "P M M M"
_symmetry_group_IT_number 47
_symmetry_cell_setting 'orthorhombic'
loop_
_space_group_symop_operation_xyz
x,y,z
-x,-y,z
x,-y,-z
-x,y,-z
-x,-y,-z
x,y,-z
-x,y,z
x,-y,z
loop_
_atom_site_type_symbol
_atom_site_label
_atom_site_fract_x
_atom_site_fract_y
_atom_site_fract_z
Si Si1 0.696989 0.671408 0.420622
Si Si2 0.704170 0.828046 0.919666
Si Si3 0.583309 0.670398 0.161982
Si Si4 0.149506 0.170756 0.420656
Si Si5 0.200966 0.831422 0.208777
Si Si6 0.349255 0.170032 0.290156
Si Si7 0.082705 0.329905 0.706273
O O1 0.666337 0.693490 0.500000
O O2 0.703496 0.500000 0.400772
O O3 0.775775 0.742605 0.413459
O O4 0.642311 0.750791 0.366104
O O5 0.632110 0.736646 0.900818
O O6 0.771245 0.782159 0.868996
O O7 0.685484 0.000000 0.906727
O O8 0.727235 0.795137 0.000000
O O9 0.500000 0.689691 0.138687
O O10 0.604295 0.500000 0.173112
O O11 0.595941 0.754679 0.235448
O O12 0.117665 0.186581 0.500000
O O13 0.092084 0.237935 0.365948
O O14 0.164259 0.000000 0.401411
O O15 0.266418 0.811555 0.264128
O O16 0.134338 0.728118 0.231098
O O17 0.173347 0.000000 0.207870
O O18 0.371722 0.000000 0.297801
O O19 0.101600 0.500000 0.690789
O O20 0.000000 0.310610 0.732169
#
# Coordination Sequence:
#
# PCOD8195202 Si02
#       7
#     8   8   8   8   8   8   8
#     4  10  19  30  48  74 102 133 170 215 265 312
#     4   9  19  36  58  83 109 137 169 207 253 305
#     4  10  21  35  52  78 112 146 176 207 247 299
#     4  10  20  33  49  70  98 133 173 216 263 314
#     4   9  18  33  53  76 100 129 168 212 255 305
#     4  10  19  32  53  77 101 134 176 219 260 304
#     4  11  23  35  49  71 100 136 175 217 267 318
#
# _framework density 17.8337
#
# number of rings (size 3 to 8) (size 9 to 14) (size 15 to 20)
#    0.000    2.143    1.429    3.000    0.000    7.143 
#    0.000    2.857    0.000    0.857    0.000    6.000 
#    0.000    0.000    0.000    0.000    0.000    0.000 
#
# Total GULP energy -694494.456940 kJ/mol
# GULP energy per Si atom -12401.686731 kJ/mol
# Density = 1.779311 g / cm^3
# Si number density = 17.833700 Si / 1000 Ang^3
#
#
#
# Elastic Constant Matrix: (Units=GPa)
#
#
# Indices 1 2 3 4 5 6 
#
# 1 59.0131 38.4630 41.9027 0.0000 0.0000 0.0000
# 2 38.4630 119.9676 61.1064 0.0000 0.0000 0.0000
# 3 41.9027 61.1064 131.9774 0.0000 0.0000 0.0000
# 4 0.0000 0.0000 0.0000 27.0929 0.0000 0.0000
# 5 0.0000 0.0000 0.0000 0.0000 18.0928 0.0000
# 6 0.0000 0.0000 0.0000 0.0000 0.0000 20.0247
#
#
#
# Elastic Compliance Matrix: (Units=1/GPa)
#
#
# Indices 1 2 3 4 5 6 
#
# 1 0.023955 -0.004981 -0.005299 0.000000 0.000000 0.000000
# 2 -0.004981 0.011944 -0.003949 0.000000 0.000000 0.000000
# 3 -0.005299 -0.003949 0.011088 0.000000 0.000000 0.000000
# 4 0.000000 0.000000 0.000000 0.036910 0.000000 0.000000
# 5 0.000000 0.000000 0.000000 0.000000 0.055271 0.000000
# 6 0.000000 0.000000 0.000000 0.000000 0.000000 0.049938
#
#
# Mechanical properties :
#
#
# Convention : Reuss Voigt Hill
#
# Bulk Modulus (GPa) = 53.97091 65.98915 59.98003
# Shear Modulus (GPa) = 22.34743 24.34113 23.34428
#
# Velocity S-wave (km/s) = 3.54376 3.69846 3.62193
# Velocity P-wave (km/s) = 6.86101 7.43781 7.15522
#
# Compressibility (1/GPa) = 0.01852850
#
# Stress axis : x y z
#
# Youngs Moduli (GPa) = 41.74552 83.72572 90.18873
#
# Poissons Ratio (x) = 0.41702 0.47795
# Poissons Ratio (y) = 0.20793 0.35612
# Poissons Ratio (z) = 0.22123 0.33060
#
# Static dielectric constant tensor:
#      x y z
#    x 2.960940 0.000000 0.000000 
#    y 0.000000 3.471810 0.000000 
#    z 0.000000 0.000000 3.437160 
# 
# 
# High freq. dielectric constant tensor:
#      x y z
#    x 1.655220 0.000000 0.000000 
#    y 0.000000 1.704690 0.000000 
#    z 0.000000 0.000000 1.689830 
# 
# From -- ./inp_files/26948.got.cif
#   From: 2010.03.12/outbox.cif.g09.slc.cpg/sg47_14_cif.got.tgz:26948.got - 2010.04.14 03:12:58.
