data_PCOD8195572
_publ_section_title
;
Structure prediction by ZEFSAII (Michael W. Deem and Ramdas Pophale) SiO2 
 PCOD8195572
Probable space group: P M M M
;
_chemical_formula_sum "Si O2"
_cell_formula_units_Z 64
_cell_length_a 18.432121
_cell_length_b 20.327414
_cell_length_c 9.144394
_cell_angle_alpha 90.000000
_cell_angle_beta 90.000000
_cell_angle_gamma 90.000000
_cell_volume 3426.197352
_symmetry_space_group_name_H-M "P M M M"
_symmetry_group_IT_number 47
_symmetry_cell_setting 'orthorhombic'
loop_
_space_group_symop_operation_xyz
x,y,z
-x,-y,z
x,-y,-z
-x,y,-z
-x,-y,-z
x,y,-z
-x,y,z
x,-y,z
loop_
_atom_site_type_symbol
_atom_site_label
_atom_site_fract_x
_atom_site_fract_y
_atom_site_fract_z
Si Si1 0.653788 0.927498 0.335506
Si Si2 0.828906 0.576304 0.330571
Si Si3 0.318302 0.423179 0.169865
Si Si4 0.916383 0.320545 0.169570
Si Si5 0.173873 0.928463 0.335734
Si Si6 0.177088 0.197936 0.170136
Si Si7 0.345595 0.800105 0.171533
Si Si8 0.585521 0.678314 0.331954
O O1 0.626497 0.911992 0.500000
O O2 0.739895 0.927832 0.332293
O O3 0.625239 0.871246 0.225765
O O4 0.625204 0.000000 0.286419
O O5 0.817246 0.593471 0.500000
O O6 0.846549 0.500000 0.307475
O O7 0.757364 0.597569 0.242626
O O8 0.896637 0.615807 0.265095
O O9 0.334171 0.500000 0.191503
O O10 0.382278 0.384404 0.248670
O O11 0.314905 0.403286 0.000000
O O12 0.868610 0.259727 0.228134
O O13 0.000000 0.303138 0.194815
O O14 0.899850 0.335606 0.000000
O O15 0.145396 0.918590 0.500000
O O16 0.143982 0.868367 0.240077
O O17 0.146947 0.000000 0.276022
O O18 0.261012 0.209364 0.210676
O O19 0.166074 0.188770 0.000000
O O20 0.389917 0.745100 0.255760
O O21 0.360254 0.793950 0.000000
O O22 0.611553 0.678334 0.500000
O O23 0.500000 0.672176 0.320130
#
# Coordination Sequence:
#
# PCOD8195572 Si02
#       8
#     8   8   8   8   8   8   8   8
#     4   8  14  26  45  70 101 134 167 208 261 319
#     4  10  21  37  58  83 109 137 171 213 260 311
#     4  10  21  38  61  86 110 137 171 212 258 310
#     4  10  21  36  53  74 104 142 181 221 264 311
#     4   8  14  25  43  69  98 127 162 205 254 307
#     4   9  18  31  48  73 101 130 169 214 259 308
#     4  10  19  31  51  77 104 135 173 220 268 315
#     4  11  24  39  55  77 107 143 180 217 258 307
#
# _framework density 18.679601000000002
#
# number of rings (size 3 to 8) (size 9 to 14) (size 15 to 20)
#    0.000    2.500    0.000    3.000    0.000    5.750 
#    0.000    5.000    0.000    0.750    0.000    5.250 
#    0.000    0.000    0.000    0.000    0.000    0.000 
#
# Total GULP energy -793568.174857 kJ/mol
# GULP energy per Si atom -12399.502732 kJ/mol
# Density = 1.863709 g / cm^3
# Si number density = 18.679601 Si / 1000 Ang^3
#
#
#
# Elastic Constant Matrix: (Units=GPa)
#
#
# Indices 1 2 3 4 5 6 
#
# 1 38.6000 25.8082 28.7332 0.0000 0.0000 0.0000
# 2 25.8082 98.0812 50.9640 0.0000 0.0000 0.0000
# 3 28.7332 50.9640 95.5950 0.0000 0.0000 0.0000
# 4 0.0000 0.0000 0.0000 38.1121 0.0000 0.0000
# 5 0.0000 0.0000 0.0000 0.0000 22.6109 0.0000
# 6 0.0000 0.0000 0.0000 0.0000 0.0000 5.1514
#
#
#
# Elastic Compliance Matrix: (Units=1/GPa)
#
#
# Indices 1 2 3 4 5 6 
#
# 1 0.035197 -0.005207 -0.007803 0.000000 0.000000 0.000000
# 2 -0.005207 0.014872 -0.006364 0.000000 0.000000 0.000000
# 3 -0.007803 -0.006364 0.016199 0.000000 0.000000 0.000000
# 4 0.000000 0.000000 0.000000 0.026238 0.000000 0.000000
# 5 0.000000 0.000000 0.000000 0.000000 0.044226 0.000000
# 6 0.000000 0.000000 0.000000 0.000000 0.000000 0.194123
#
#
# Mechanical properties :
#
#
# Convention : Reuss Voigt Hill
#
# Bulk Modulus (GPa) = 36.33679 49.25414 42.79546
# Shear Modulus (GPa) = 13.20037 21.62626 17.41332
#
# Velocity S-wave (km/s) = 2.66122 3.40626 3.05652
# Velocity P-wave (km/s) = 5.37937 6.47266 5.95117
#
# Compressibility (1/GPa) = 0.02752032
#
# Stress axis : x y z
#
# Youngs Moduli (GPa) = 28.41181 67.23870 61.73221
#
# Poissons Ratio (x) = 0.35009 0.48172
# Poissons Ratio (y) = 0.14793 0.39286
# Poissons Ratio (z) = 0.22171 0.42790
#
# Static dielectric constant tensor:
#      x y z
#    x 3.097350 0.000000 0.000000 
#    y 0.000000 3.780690 0.000000 
#    z 0.000000 0.000000 3.531770 
# 
# 
# High freq. dielectric constant tensor:
#      x y z
#    x 1.687930 0.000000 0.000000 
#    y 0.000000 1.741400 0.000000 
#    z 0.000000 0.000000 1.728460 
# 
# From -- ./inp_files/9936.got.cif
#   From: 2010.03.12/outbox.cif.g09.slc.cpg/sg47_5_cif.got.tgz:9936.got - 2010.04.14 03:12:58.
