data_PCOD8195728
_publ_section_title
;
Structure prediction by ZEFSAII (Michael W. Deem and Ramdas Pophale) SiO2 
 PCOD8195728
Probable space group: P M M M
;
_chemical_formula_sum "Si O2"
_cell_formula_units_Z 56
_cell_length_a 23.389303
_cell_length_b 13.996293
_cell_length_c 8.921474
_cell_angle_alpha 90.000000
_cell_angle_beta 90.000000
_cell_angle_gamma 90.000000
_cell_volume 2920.565292
_symmetry_space_group_name_H-M "P M M M"
_symmetry_group_IT_number 47
_symmetry_cell_setting 'orthorhombic'
loop_
_space_group_symop_operation_xyz
x,y,z
-x,-y,z
x,-y,-z
-x,y,-z
-x,-y,-z
x,y,-z
-x,y,z
x,-y,z
loop_
_atom_site_type_symbol
_atom_site_label
_atom_site_fract_x
_atom_site_fract_y
_atom_site_fract_z
Si Si1 0.216533 0.392674 0.176303
Si Si2 0.668784 0.606150 0.673092
Si Si3 0.500000 0.108488 0.321717
Si Si4 0.105197 0.279452 0.822123
Si Si5 0.615466 0.203396 0.325524
Si Si6 0.723626 0.887536 0.169522
Si Si7 0.159066 0.889540 0.676116
Si Si8 0.000000 0.611721 0.322635
O O1 0.206687 0.500000 0.235862
O O2 0.275375 0.352195 0.243878
O O3 0.163457 0.330213 0.229660
O O4 0.222535 0.390438 0.000000
O O5 0.684838 0.600286 0.500000
O O6 0.651264 0.500000 0.732756
O O7 0.617408 0.681529 0.699830
O O8 0.500000 0.109879 0.500000
O O9 0.555814 0.163638 0.260566
O O10 0.500000 0.000000 0.260892
O O11 0.109239 0.171730 0.757397
O O12 0.054691 0.337884 0.747355
O O13 0.096173 0.277433 0.000000
O O14 0.621856 0.177069 0.500000
O O15 0.666850 0.155361 0.238601
O O16 0.779234 0.856289 0.262783
O O17 0.716082 0.000000 0.173417
O O18 0.732010 0.849856 0.000000
O O19 0.157237 0.870779 0.500000
O O20 0.147263 0.000000 0.715390
O O21 0.000000 0.500000 0.278640
O O22 0.000000 0.625981 0.500000
#
# Coordination Sequence:
#
# PCOD8195728 Si02
#       8
#     8   8   4   8   8   8   8   4
#     4   9  18  32  51  77 107 138 171 208 257 316
#     4   9  18  31  47  71 102 132 165 209 258 307
#     4   9  18  32  50  72  96 125 169 221 266 315
#     4  11  22  37  59  84 112 146 184 229 277 323
#     4  10  19  32  51  72  97 134 176 216 262 317
#     4  10  20  33  51  78 110 140 172 215 267 320
#     4  10  21  37  57  82 113 147 182 222 269 324
#     4  11  25  43  62  85 114 149 189 230 270 319
#
# _framework density 19.174371000000001
#
# number of rings (size 3 to 8) (size 9 to 14) (size 15 to 20)
#    0.000    2.143    0.000    3.214    0.000    7.429 
#    0.000    2.500    0.000    5.571    0.000    0.000 
#    0.000    3.429    0.000    0.000    0.000    0.000 
#
# Total GULP energy -694396.818346 kJ/mol
# GULP energy per Si atom -12399.943185 kJ/mol
# Density = 1.913073 g / cm^3
# Si number density = 19.174371 Si / 1000 Ang^3
#
#
#
# Elastic Constant Matrix: (Units=GPa)
#
#
# Indices 1 2 3 4 5 6 
#
# 1 115.8004 95.2232 44.3036 0.0000 0.0000 0.0000
# 2 95.2232 107.5388 48.1316 0.0000 0.0000 0.0000
# 3 44.3036 48.1316 68.4203 0.0000 0.0000 0.0000
# 4 0.0000 0.0000 0.0000 25.6258 0.0000 0.0000
# 5 0.0000 0.0000 0.0000 0.0000 441.9323 0.0000
# 6 0.0000 0.0000 0.0000 0.0000 0.0000 33.8356
#
#
#
# Elastic Compliance Matrix: (Units=1/GPa)
#
#
# Indices 1 2 3 4 5 6 
#
# 1 0.031825 -0.027669 -0.001143 0.000000 0.000000 0.000000
# 2 -0.027669 0.037627 -0.008554 0.000000 0.000000 0.000000
# 3 -0.001143 -0.008554 0.021373 0.000000 0.000000 0.000000
# 4 0.000000 0.000000 0.000000 0.039023 0.000000 0.000000
# 5 0.000000 0.000000 0.000000 0.000000 0.002263 0.000000
# 6 0.000000 0.000000 0.000000 0.000000 0.000000 0.029555
#
#
# Mechanical properties :
#
#
# Convention : Reuss Voigt Hill
#
# Bulk Modulus (GPa) = 62.13408 74.11959 68.12684
# Shear Modulus (GPa) = 20.68152 107.21881 63.95017
#
# Velocity S-wave (km/s) = 3.28777 7.48593 5.78138
# Velocity P-wave (km/s) = 6.84746 10.65168 8.95394
#
# Compressibility (1/GPa) = 0.01609423
#
# Stress axis : x y z
#
# Youngs Moduli (GPa) = 31.42190 26.57653 46.78775
#
# Poissons Ratio (x) = 0.73533 0.05350
# Poissons Ratio (y) = 0.86940 0.40020
# Poissons Ratio (z) = 0.03593 0.22733
#
# Static dielectric constant tensor:
#      x y z
#    x 3.483870 0.000000 0.000000 
#    y 0.000000 3.895420 0.000000 
#    z 0.000000 0.000000 3.440780 
# 
# 
# High freq. dielectric constant tensor:
#      x y z
#    x 1.727620 0.000000 0.000000 
#    y 0.000000 1.764660 0.000000 
#    z 0.000000 0.000000 1.738980 
# 
# From -- ./inp_files/11327.got.cif
#   From: 2010.03.12/outbox.cif.g09.slc.cpg/sg47_6_cif.got.tgz:11327.got - 2010.04.14 03:12:58.
