data_PCOD8195254
_publ_section_title
;
Structure prediction by ZEFSAII (Michael W. Deem and Ramdas Pophale) SiO2 
 PCOD8195254
Probable space group: P M M M
;
_chemical_formula_sum "Si O2"
_cell_formula_units_Z 40
_cell_length_a 10.030496
_cell_length_b 18.919686
_cell_length_c 11.648861
_cell_angle_alpha 90.000000
_cell_angle_beta 90.000000
_cell_angle_gamma 90.000000
_cell_volume 2210.649022
_symmetry_space_group_name_H-M "P M M M"
_symmetry_group_IT_number 47
_symmetry_cell_setting 'orthorhombic'
loop_
_space_group_symop_operation_xyz
x,y,z
-x,-y,z
x,-y,-z
-x,y,-z
-x,-y,-z
x,y,-z
-x,y,z
x,-y,z
loop_
_atom_site_type_symbol
_atom_site_label
_atom_site_fract_x
_atom_site_fract_y
_atom_site_fract_z
Si Si1 0.340169 0.256886 0.000000
Si Si2 0.745925 0.165253 0.790723
Si Si3 0.000000 0.082344 0.865132
Si Si4 0.500000 0.083614 0.134779
Si Si5 0.848160 0.575620 0.747980
Si Si6 0.155842 0.717627 0.634439
Si Si7 0.852219 0.618731 0.000000
O O1 0.278569 0.219877 0.109190
O O2 0.500000 0.260263 0.000000
O O3 0.278063 0.333539 0.000000
O O4 0.623687 0.110736 0.790584
O O5 0.763579 0.212895 0.676668
O O6 0.873388 0.117255 0.807977
O O7 0.000000 0.000000 0.836016
O O8 0.000000 0.096182 0.000000
O O9 0.500000 0.000000 0.130944
O O10 0.500000 0.111776 0.000000
O O11 0.784477 0.500000 0.705733
O O12 0.782367 0.646422 0.693527
O O13 0.840719 0.572510 0.885724
O O14 0.000000 0.577196 0.705351
O O15 0.178069 0.710765 0.500000
O O16 0.000000 0.727065 0.667348
O O17 0.000000 0.657203 0.000000
#
# Coordination Sequence:
#
# PCOD8195254 Si02
#       7
#     4   8   4   4   8   8   4
#     4  12  22  33  52  86 113 149 181 222 276 336
#     4  12  20  36  56  80 115 147 180 227 278 328
#     4  11  22  32  53  87 114 137 175 222 276 344
#     4  11  22  38  59  87 120 147 173 218 284 346
#     4   9  17  29  49  81 116 145 178 227 283 334
#     4  10  21  35  54  80 109 149 196 237 274 314
#     4  10  19  30  54  81 115 143 182 228 281 340
#
# _framework density 18.094232999999999
#
# number of rings (size 3 to 8) (size 9 to 14) (size 15 to 20)
#    0.000    1.400    6.000    0.900    1.400    3.200 
#    0.000    2.500    0.000    4.800    0.000    0.000 
#    0.000    3.200    0.000    0.000    0.000    0.000 
#
# Total GULP energy -495599.468019 kJ/mol
# GULP energy per Si atom -12389.986700 kJ/mol
# Density = 1.805305 g / cm^3
# Si number density = 18.094233 Si / 1000 Ang^3
#
#
#
# Elastic Constant Matrix: (Units=GPa)
#
#
# Indices 1 2 3 4 5 6 
#
# 1 88.8459 48.6600 23.6835 0.0000 0.0000 0.0000
# 2 48.6600 132.8184 46.6310 0.0000 0.0000 0.0000
# 3 23.6835 46.6310 86.9051 0.0000 0.0000 0.0000
# 4 0.0000 0.0000 0.0000 15.1919 0.0000 0.0000
# 5 0.0000 0.0000 0.0000 0.0000 21.7465 0.0000
# 6 0.0000 0.0000 0.0000 0.0000 0.0000 25.5108
#
#
#
# Elastic Compliance Matrix: (Units=1/GPa)
#
#
# Indices 1 2 3 4 5 6 
#
# 1 0.014204 -0.004737 -0.001329 0.000000 0.000000 0.000000
# 2 -0.004737 0.010857 -0.004534 0.000000 0.000000 0.000000
# 3 -0.001329 -0.004534 0.014302 0.000000 0.000000 0.000000
# 4 0.000000 0.000000 0.000000 0.065825 0.000000 0.000000
# 5 0.000000 0.000000 0.000000 0.000000 0.045984 0.000000
# 6 0.000000 0.000000 0.000000 0.000000 0.000000 0.039199
#
#
# Mechanical properties :
#
#
# Convention : Reuss Voigt Hill
#
# Bulk Modulus (GPa) = 55.06163 60.72427 57.89295
# Shear Modulus (GPa) = 22.97516 25.12950 24.05233
#
# Velocity S-wave (km/s) = 3.56722 3.73072 3.64989
# Velocity P-wave (km/s) = 6.88936 7.22430 7.05882
#
# Compressibility (1/GPa) = 0.01816147
#
# Stress axis : x y z
#
# Youngs Moduli (GPa) = 70.40111 92.10957 69.92025
#
# Poissons Ratio (x) = 0.43636 0.09293
# Poissons Ratio (y) = 0.33352 0.31704
# Poissons Ratio (z) = 0.09357 0.41766
#
# Static dielectric constant tensor:
#      x y z
#    x 3.298680 0.000000 0.000000 
#    y 0.000000 3.561620 0.000000 
#    z 0.000000 0.000000 -2.216520 
# 
# 
# High freq. dielectric constant tensor:
#      x y z
#    x 1.670050 0.000000 0.000000 
#    y 0.000000 1.720120 0.000000 
#    z 0.000000 0.000000 1.677310 
# 
# From -- ./inp_files/15145.got.cif
#   From: 2010.03.12/outbox.cif.g09.slc.cpg/sg47_8_cif.got.tgz:15145.got - 2010.04.14 03:12:58.
