data_PCOD8195078
_publ_section_title
;
Structure prediction by ZEFSAII (Michael W. Deem and Ramdas Pophale) SiO2 
 PCOD8195078
Probable space group: P M M M
;
_chemical_formula_sum "Si O2"
_cell_formula_units_Z 64
_cell_length_a 33.746597
_cell_length_b 9.400017
_cell_length_c 13.634769
_cell_angle_alpha 90.000000
_cell_angle_beta 90.000000
_cell_angle_gamma 90.000000
_cell_volume 4325.202136
_symmetry_space_group_name_H-M "P M M M"
_symmetry_group_IT_number 47
_symmetry_cell_setting 'orthorhombic'
loop_
_space_group_symop_operation_xyz
x,y,z
-x,-y,z
x,-y,-z
-x,y,-z
-x,-y,-z
x,y,-z
-x,y,z
x,-y,z
loop_
_atom_site_type_symbol
_atom_site_label
_atom_site_fract_x
_atom_site_fract_y
_atom_site_fract_z
Si Si1 0.692304 0.165673 0.886551
Si Si2 0.850310 0.835251 0.887009
Si Si3 0.543869 0.159702 0.116640
Si Si4 0.189984 0.665813 0.611892
Si Si5 0.616600 0.660106 0.883152
Si Si6 0.228970 0.164963 0.775160
Si Si7 0.889731 0.666894 0.276528
Si Si8 0.954223 0.162217 0.613075
O O1 0.655032 0.254435 0.846520
O O2 0.730209 0.214426 0.824398
O O3 0.682684 0.000000 0.872180
O O4 0.701143 0.199572 0.000000
O O5 0.805779 0.801663 0.852264
O O6 0.881477 0.739375 0.828109
O O7 0.860803 0.000000 0.869541
O O8 0.853681 0.792588 0.000000
O O9 0.500000 0.210118 0.150821
O O10 0.577088 0.265249 0.160067
O O11 0.552226 0.000000 0.154998
O O12 0.545955 0.160062 0.000000
O O13 0.193265 0.716949 0.500000
O O14 0.198937 0.500000 0.622819
O O15 0.222721 0.748786 0.674904
O O16 0.145982 0.702469 0.649257
O O17 0.618466 0.500000 0.842084
O O18 0.615196 0.661207 0.000000
O O19 0.230069 0.000000 0.747530
O O20 0.895326 0.500000 0.260496
O O21 0.929790 0.730416 0.320086
O O22 0.947274 0.202298 0.500000
O O23 0.000000 0.180911 0.641198
O O24 0.940657 0.000000 0.632464
#
# Coordination Sequence:
#
# PCOD8195078 Si02
#       8
#     8   8   8   8   8   8   8   8
#     4   9  16  26  39  53  73 101 130 163 202 240
#     4   9  17  30  47  65  86 112 142 175 209 244
#     4   8  13  21  32  44  59  83 117 156 197 239
#     4   9  18  31  44  60  85 113 136 160 195 239
#     4   9  16  23  31  46  67  91 122 159 197 236
#     4   9  17  28  43  63  81 101 135 173 205 237
#     4  10  19  30  46  68  92 116 141 169 202 241
#     4   9  18  32  49  69  92 116 141 169 202 242
#
# _framework density 14.796996
#
# number of rings (size 3 to 8) (size 9 to 14) (size 15 to 20)
#    0.000    3.000    0.000    2.250    0.000    5.750 
#    0.000    1.875    0.000    2.625    0.000    2.625 
#    0.000    0.000    0.000    0.000    0.000    0.625 
#
# Total GULP energy -793545.827753 kJ/mol
# GULP energy per Si atom -12399.153559 kJ/mol
# Density = 1.476332 g / cm^3
# Si number density = 14.796996 Si / 1000 Ang^3
#
#
#
# Elastic Constant Matrix: (Units=GPa)
#
#
# Indices 1 2 3 4 5 6 
#
# 1 104.2604 59.6659 45.5531 0.0000 0.0000 0.0000
# 2 59.6659 80.4560 44.6892 0.0000 0.0000 0.0000
# 3 45.5531 44.6892 80.2768 0.0000 0.0000 0.0000
# 4 0.0000 0.0000 0.0000 18.4579 0.0000 0.0000
# 5 0.0000 0.0000 0.0000 0.0000 12.4304 0.0000
# 6 0.0000 0.0000 0.0000 0.0000 0.0000 23.2509
#
#
#
# Elastic Compliance Matrix: (Units=1/GPa)
#
#
# Indices 1 2 3 4 5 6 
#
# 1 0.017472 -0.010785 -0.003911 0.000000 0.000000 0.000000
# 2 -0.010785 0.024650 -0.007602 0.000000 0.000000 0.000000
# 3 -0.003911 -0.007602 0.018908 0.000000 0.000000 0.000000
# 4 0.000000 0.000000 0.000000 0.054177 0.000000 0.000000
# 5 0.000000 0.000000 0.000000 0.000000 0.080448 0.000000
# 6 0.000000 0.000000 0.000000 0.000000 0.000000 0.043009
#
#
# Mechanical properties :
#
#
# Convention : Reuss Voigt Hill
#
# Bulk Modulus (GPa) = 60.84913 62.75663 61.80288
# Shear Modulus (GPa) = 17.31670 18.50018 17.90844
#
# Velocity S-wave (km/s) = 3.42465 3.53975 3.48268
# Velocity P-wave (km/s) = 7.53987 7.69482 7.61774
#
# Compressibility (1/GPa) = 0.01643409
#
# Stress axis : x y z
#
# Youngs Moduli (GPa) = 57.23440 40.56782 52.88720
#
# Poissons Ratio (x) = 0.43753 0.20682
# Poissons Ratio (y) = 0.61728 0.40207
# Poissons Ratio (z) = 0.22382 0.30841
#
# Static dielectric constant tensor:
#      x y z
#    x 2.908860 0.000000 0.000000 
#    y 0.000000 2.927570 0.000000 
#    z 0.000000 0.000000 2.577910 
# 
# 
# High freq. dielectric constant tensor:
#      x y z
#    x 1.564030 0.000000 0.000000 
#    y 0.000000 1.571620 0.000000 
#    z 0.000000 0.000000 1.520860 
# 
# From -- ./inp_files/25840.got.cif
#   From: 2010.03.12/outbox.cif.g09.slc.cpg/sg47_13_cif.got.tgz:25840.got - 2010.04.14 03:12:58.
