data_PCOD8195403
_publ_section_title
;
Structure prediction by ZEFSAII (Michael W. Deem and Ramdas Pophale) SiO2 
 PCOD8195403
Probable space group: P M M M
;
_chemical_formula_sum "Si O2"
_cell_formula_units_Z 48
_cell_length_a 16.413483
_cell_length_b 9.011561
_cell_length_c 18.421156
_cell_angle_alpha 90.000000
_cell_angle_beta 90.000000
_cell_angle_gamma 90.000000
_cell_volume 2724.693508
_symmetry_space_group_name_H-M "P M M M"
_symmetry_group_IT_number 47
_symmetry_cell_setting 'orthorhombic'
loop_
_space_group_symop_operation_xyz
x,y,z
-x,-y,z
x,-y,-z
-x,y,-z
-x,-y,-z
x,y,-z
-x,y,z
x,-y,z
loop_
_atom_site_type_symbol
_atom_site_label
_atom_site_fract_x
_atom_site_fract_y
_atom_site_fract_z
Si Si1 0.163264 0.826686 0.345627
Si Si2 0.407248 0.827769 0.701584
Si Si3 0.000000 0.676284 0.152061
Si Si4 0.309747 0.329152 0.416737
Si Si5 0.834169 0.324182 0.081873
Si Si6 0.000000 0.676239 0.682190
Si Si7 0.739587 0.829670 0.798489
O O1 0.227680 0.762994 0.402834
O O2 0.195020 0.796269 0.264361
O O3 0.078831 0.741457 0.357824
O O4 0.151029 0.000000 0.360701
O O5 0.500000 0.794791 0.723795
O O6 0.384187 0.732608 0.631102
O O7 0.350075 0.784103 0.769648
O O8 0.392591 0.000000 0.681851
O O9 0.920081 0.739173 0.111622
O O10 0.000000 0.731925 0.234694
O O11 0.000000 0.500000 0.149016
O O12 0.335745 0.310799 0.500000
O O13 0.293759 0.500000 0.396294
O O14 0.834354 0.500000 0.084979
O O15 0.759948 0.266864 0.131012
O O16 0.821513 0.266719 0.000000
O O17 0.000000 0.500000 0.675709
O O18 0.741918 0.000000 0.822097
#
# Coordination Sequence:
#
# PCOD8195403 Si02
#       7
#     8   8   4   8   8   4   8
#     4  10  20  34  52  74 101 136 177 217 255 300
#     4   9  19  36  57  80 104 133 169 207 251 306
#     4   9  17  29  46  70 100 134 169 208 251 295
#     4  10  21  36  54  78 108 137 166 205 254 306
#     4  10  19  31  48  71 101 137 175 211 251 303
#     4  11  19  30  52  76 100 135 176 219 264 303
#     4   9  18  32  50  72  99 130 166 211 255 299
#
# _framework density 17.61666
#
# number of rings (size 3 to 8) (size 9 to 14) (size 15 to 20)
#    0.000    2.333    1.667    2.500    0.000    6.000 
#    0.000    2.500    0.000    4.000    0.000    3.500 
#    0.000    0.000    0.000    0.000    0.000    0.000 
#
# Total GULP energy -595294.669994 kJ/mol
# GULP energy per Si atom -12401.972292 kJ/mol
# Density = 1.757656 g / cm^3
# Si number density = 17.616660 Si / 1000 Ang^3
#
#
#
# Elastic Constant Matrix: (Units=GPa)
#
#
# Indices 1 2 3 4 5 6 
#
# 1 128.2214 37.3736 40.0565 0.0000 0.0000 0.0000
# 2 37.3736 64.7627 29.9121 0.0000 0.0000 0.0000
# 3 40.0565 29.9121 80.0936 0.0000 0.0000 0.0000
# 4 0.0000 0.0000 0.0000 25.1453 0.0000 0.0000
# 5 0.0000 0.0000 0.0000 0.0000 18.1600 0.0000
# 6 0.0000 0.0000 0.0000 0.0000 0.0000 26.7588
#
#
#
# Elastic Compliance Matrix: (Units=1/GPa)
#
#
# Indices 1 2 3 4 5 6 
#
# 1 0.010120 -0.004233 -0.003481 0.000000 0.000000 0.000000
# 2 -0.004233 0.020430 -0.005513 0.000000 0.000000 0.000000
# 3 -0.003481 -0.005513 0.016285 0.000000 0.000000 0.000000
# 4 0.000000 0.000000 0.000000 0.039769 0.000000 0.000000
# 5 0.000000 0.000000 0.000000 0.000000 0.055066 0.000000
# 6 0.000000 0.000000 0.000000 0.000000 0.000000 0.037371
#
#
# Mechanical properties :
#
#
# Convention : Reuss Voigt Hill
#
# Bulk Modulus (GPa) = 49.06134 54.19577 51.62855
# Shear Modulus (GPa) = 23.55302 25.06187 24.30744
#
# Velocity S-wave (km/s) = 3.66043 3.77586 3.71859
# Velocity P-wave (km/s) = 6.76571 7.05976 6.91430
#
# Compressibility (1/GPa) = 0.02038265
#
# Stress axis : x y z
#
# Youngs Moduli (GPa) = 98.81397 48.94800 61.40617
#
# Poissons Ratio (x) = 0.20717 0.21373
# Poissons Ratio (y) = 0.41823 0.33853
# Poissons Ratio (z) = 0.34393 0.26985
#
# Static dielectric constant tensor:
#      x y z
#    x 3.263570 0.000000 0.000000 
#    y 0.000000 3.200670 0.000000 
#    z 0.000000 0.000000 3.143090 
# 
# 
# High freq. dielectric constant tensor:
#      x y z
#    x 1.676950 0.000000 0.000000 
#    y 0.000000 1.677690 0.000000 
#    z 0.000000 0.000000 1.663580 
# 
# From -- ./inp_files/9217.got.cif
#   From: 2010.03.12/outbox.cif.g09.slc.cpg/sg47_5_cif.got.tgz:9217.got - 2010.04.14 03:12:58.
