data_PCOD8195871
_publ_section_title
;
Structure prediction by ZEFSAII (Michael W. Deem and Ramdas Pophale) SiO2 
 PCOD8195871
Probable space group: P M M M
;
_chemical_formula_sum "Si O2"
_cell_formula_units_Z 56
_cell_length_a 10.487770
_cell_length_b 20.703751
_cell_length_c 13.493836
_cell_angle_alpha 90.000000
_cell_angle_beta 90.000000
_cell_angle_gamma 90.000000
_cell_volume 2929.999984
_symmetry_space_group_name_H-M "P M M M"
_symmetry_group_IT_number 47
_symmetry_cell_setting 'orthorhombic'
loop_
_space_group_symop_operation_xyz
x,y,z
-x,-y,z
x,-y,-z
-x,y,-z
-x,-y,-z
x,y,-z
-x,y,z
x,-y,z
loop_
_atom_site_type_symbol
_atom_site_label
_atom_site_fract_x
_atom_site_fract_y
_atom_site_fract_z
Si Si1 0.353622 0.573421 0.269977
Si Si2 0.137915 0.227630 0.314764
Si Si3 0.351199 0.327028 0.107461
Si Si4 0.355620 0.138658 0.610764
Si Si5 0.142346 0.367085 0.613778
Si Si6 0.352401 0.928752 0.190154
Si Si7 0.223658 0.194935 0.888323
O O1 0.500000 0.590442 0.301690
O O2 0.347436 0.500000 0.231731
O O3 0.298822 0.620865 0.185219
O O4 0.254565 0.582060 0.360750
O O5 0.254443 0.195543 0.373073
O O6 0.161341 0.303966 0.318421
O O7 0.122984 0.204054 0.200160
O O8 0.000000 0.210934 0.364132
O O9 0.500000 0.336735 0.102730
O O10 0.325066 0.252107 0.133522
O O11 0.289765 0.342903 0.000000
O O12 0.337714 0.109799 0.500000
O O13 0.500000 0.166382 0.623035
O O14 0.330514 0.083720 0.692473
O O15 0.157629 0.346517 0.500000
O O16 0.000000 0.396617 0.632040
O O17 0.500000 0.927396 0.163365
O O18 0.287201 0.875356 0.121324
O O19 0.295600 0.000000 0.166907
O O20 0.165303 0.200104 0.000000
#
# Coordination Sequence:
#
# PCOD8195871 Si02
#       7
#     8   8   8   8   8   8   8
#     4  10  21  36  55  81 112 144 179 221 267 315
#     4  10  20  35  55  80 110 140 175 223 274 323
#     4   9  17  31  53  80 108 139 176 219 266 316
#     4   9  18  32  52  79 108 140 180 224 271 320
#     4  10  21  37  56  78 106 142 181 220 268 324
#     4   9  18  31  48  76 114 149 180 219 268 320
#     4  10  19  32  53  78 104 139 180 221 266 317
#
# _framework density 19.112627
#
# number of rings (size 3 to 8) (size 9 to 14) (size 15 to 20)
#    0.000    2.429    1.429    0.857    0.000    4.857 
#    0.000    5.000    0.000    7.286    0.000    9.000 
#    0.000    0.000    0.000    0.000    0.000    0.000 
#
# Total GULP energy -693815.808844 kJ/mol
# GULP energy per Si atom -12389.568015 kJ/mol
# Density = 1.906913 g / cm^3
# Si number density = 19.112627 Si / 1000 Ang^3
#
#
#
# Elastic Constant Matrix: (Units=GPa)
#
#
# Indices 1 2 3 4 5 6 
#
# 1 82.5133 41.7793 25.3575 0.0000 0.0000 0.0000
# 2 41.7793 111.8144 32.0139 0.0000 0.0000 0.0000
# 3 25.3575 32.0139 79.1378 0.0000 0.0000 0.0000
# 4 0.0000 0.0000 0.0000 18.0874 0.0000 0.0000
# 5 0.0000 0.0000 0.0000 0.0000 17.5239 0.0000
# 6 0.0000 0.0000 0.0000 0.0000 0.0000 18.5876
#
#
#
# Elastic Compliance Matrix: (Units=1/GPa)
#
#
# Indices 1 2 3 4 5 6 
#
# 1 0.015543 -0.004956 -0.002976 0.000000 0.000000 0.000000
# 2 -0.004956 0.011695 -0.003143 0.000000 0.000000 0.000000
# 3 -0.002976 -0.003143 0.014861 0.000000 0.000000 0.000000
# 4 0.000000 0.000000 0.000000 0.055287 0.000000 0.000000
# 5 0.000000 0.000000 0.000000 0.000000 0.057065 0.000000
# 6 0.000000 0.000000 0.000000 0.000000 0.000000 0.053799
#
#
# Mechanical properties :
#
#
# Convention : Reuss Voigt Hill
#
# Bulk Modulus (GPa) = 50.12440 52.41852 51.27146
# Shear Modulus (GPa) = 21.09266 22.46076 21.77671
#
# Velocity S-wave (km/s) = 3.32565 3.43181 3.37914
# Velocity P-wave (km/s) = 6.40541 6.57181 6.48915
#
# Compressibility (1/GPa) = 0.01995036
#
# Stress axis : x y z
#
# Youngs Moduli (GPa) = 64.33805 85.50684 67.28972
#
# Poissons Ratio (x) = 0.42374 0.20022
# Poissons Ratio (y) = 0.31884 0.21150
# Poissons Ratio (z) = 0.19144 0.26876
#
# Static dielectric constant tensor:
#      x y z
#    x 3.376010 0.000000 0.000000 
#    y 0.000000 3.372570 0.000000 
#    z 0.000000 0.000000 3.691470 
# 
# 
# High freq. dielectric constant tensor:
#      x y z
#    x 1.726190 0.000000 0.000000 
#    y 0.000000 1.728110 0.000000 
#    z 0.000000 0.000000 1.746400 
# 
# From -- ./inp_files/21586.got.cif
#   From: 2010.03.12/outbox.cif.g09.slc.cpg/sg47_11_cif.got.tgz:21586.got - 2010.04.14 03:12:58.
