data_PCOD8195374
_publ_section_title
;
Structure prediction by ZEFSAII (Michael W. Deem and Ramdas Pophale) SiO2 
 PCOD8195374
Probable space group: P M M M
;
_chemical_formula_sum "Si O2"
_cell_formula_units_Z 36
_cell_length_a 18.446510
_cell_length_b 7.939428
_cell_length_c 15.371200
_cell_angle_alpha 90.000000
_cell_angle_beta 90.000000
_cell_angle_gamma 90.000000
_cell_volume 2251.185069
_symmetry_space_group_name_H-M "P M M M"
_symmetry_group_IT_number 47
_symmetry_cell_setting 'orthorhombic'
loop_
_space_group_symop_operation_xyz
x,y,z
-x,-y,z
x,-y,-z
-x,y,-z
-x,-y,-z
x,y,-z
-x,y,z
x,-y,z
loop_
_atom_site_type_symbol
_atom_site_label
_atom_site_fract_x
_atom_site_fract_y
_atom_site_fract_z
Si Si1 0.082709 0.193636 0.814882
Si Si2 0.419125 0.500000 0.396873
Si Si3 0.174466 0.692709 0.659201
Si Si4 0.919593 0.700421 0.500000
Si Si5 0.677659 0.810764 0.398835
Si Si6 0.914177 0.688072 0.000000
O O1 0.135388 0.296729 0.752068
O O2 0.000000 0.261902 0.806065
O O3 0.086291 0.000000 0.788532
O O4 0.112169 0.216493 0.913232
O O5 0.500000 0.500000 0.356789
O O6 0.423569 0.500000 0.500000
O O7 0.379196 0.329254 0.364936
O O8 0.194115 0.500000 0.638552
O O9 0.121091 0.766838 0.585738
O O10 0.248994 0.796676 0.657340
O O11 0.923940 0.500000 0.500000
O O12 0.000000 0.778740 0.500000
O O13 0.696404 0.777253 0.500000
O O14 0.645756 0.000000 0.385872
O O15 0.882064 0.500000 0.000000
O O16 0.000000 0.685522 0.000000
#
# Coordination Sequence:
#
# PCOD8195374 Si02
#       6
#     8   4   8   4   8   4
#     4  10  20  32  45  64  90 119 156 203 249 291
#     4   9  18  32  50  70  92 119 154 193 231 274
#     4  11  19  30  47  64  90 125 162 200 239 282
#     4   9  18  28  41  61  85 119 163 206 241 270
#     4  10  19  31  48  68  93 125 158 192 236 284
#     4   9  17  31  49  65  81 109 151 198 249 298
#
# _framework density 15.991578000000001
#
# number of rings (size 3 to 8) (size 9 to 14) (size 15 to 20)
#    0.000    2.111    2.222    2.333    0.000    4.000 
#    0.000    2.222    0.000    2.667    0.000    0.000 
#    0.000    0.000    0.000    2.000    0.000    8.000 
#
# Total GULP energy -446383.918815 kJ/mol
# GULP energy per Si atom -12399.553300 kJ/mol
# Density = 1.595518 g / cm^3
# Si number density = 15.991578 Si / 1000 Ang^3
#
#
#
# Elastic Constant Matrix: (Units=GPa)
#
#
# Indices 1 2 3 4 5 6 
#
# 1 100.3490 37.9968 31.6934 0.0000 0.0000 0.0000
# 2 37.9968 84.9690 13.3781 0.0000 0.0000 0.0000
# 3 31.6934 13.3781 77.1164 0.0000 0.0000 0.0000
# 4 0.0000 0.0000 0.0000 18.3472 0.0000 0.0000
# 5 0.0000 0.0000 0.0000 0.0000 8.2718 0.0000
# 6 0.0000 0.0000 0.0000 0.0000 0.0000 16.1484
#
#
#
# Elastic Compliance Matrix: (Units=1/GPa)
#
#
# Indices 1 2 3 4 5 6 
#
# 1 0.013415 -0.005275 -0.004598 0.000000 0.000000 0.000000
# 2 -0.005275 0.014174 -0.000291 0.000000 0.000000 0.000000
# 3 -0.004598 -0.000291 0.014908 0.000000 0.000000 0.000000
# 4 0.000000 0.000000 0.000000 0.054504 0.000000 0.000000
# 5 0.000000 0.000000 0.000000 0.000000 0.120893 0.000000
# 6 0.000000 0.000000 0.000000 0.000000 0.000000 0.061926
#
#
# Mechanical properties :
#
#
# Convention : Reuss Voigt Hill
#
# Bulk Modulus (GPa) = 45.10990 47.61899 46.36444
# Shear Modulus (GPa) = 16.25824 20.51122 18.38473
#
# Velocity S-wave (km/s) = 3.19199 3.58526 3.39433
# Velocity P-wave (km/s) = 6.46953 6.85427 6.66468
#
# Compressibility (1/GPa) = 0.02216808
#
# Stress axis : x y z
#
# Youngs Moduli (GPa) = 74.54462 70.55336 67.07978
#
# Poissons Ratio (x) = 0.37216 0.30844
# Poissons Ratio (y) = 0.39322 0.01952
# Poissons Ratio (z) = 0.34277 0.02053
#
# Static dielectric constant tensor:
#      x y z
#    x 2.880890 0.000000 0.000000 
#    y 0.000000 3.059630 0.000000 
#    z 0.000000 0.000000 2.860730 
# 
# 
# High freq. dielectric constant tensor:
#      x y z
#    x 1.580280 0.000000 0.000000 
#    y 0.000000 1.625320 0.000000 
#    z 0.000000 0.000000 1.581990 
# 
# From -- ./inp_files/5600.got.cif
#   From: 2010.03.12/outbox.cif.g09.slc.cpg/sg47_3_cif.got.tgz:5600.got - 2010.04.14 03:12:58.
