data_PCOD8195655
_publ_section_title
;
Structure prediction by ZEFSAII (Michael W. Deem and Ramdas Pophale) SiO2 
 PCOD8195655
Probable space group: P M M M
;
_chemical_formula_sum "Si O2"
_cell_formula_units_Z 36
_cell_length_a 10.354023
_cell_length_b 13.682128
_cell_length_c 13.629673
_cell_angle_alpha 90.000000
_cell_angle_beta 90.000000
_cell_angle_gamma 90.000000
_cell_volume 1930.848552
_symmetry_space_group_name_H-M "P M M M"
_symmetry_group_IT_number 47
_symmetry_cell_setting 'orthorhombic'
loop_
_space_group_symop_operation_xyz
x,y,z
-x,-y,z
x,-y,-z
-x,y,-z
-x,-y,-z
x,y,-z
-x,y,z
x,-y,z
loop_
_atom_site_type_symbol
_atom_site_label
_atom_site_fract_x
_atom_site_fract_y
_atom_site_fract_z
Si Si1 0.143327 0.112310 0.284015
Si Si2 0.245430 0.221424 0.113875
Si Si3 0.500000 0.891072 0.116245
Si Si4 0.353847 0.236543 0.387260
Si Si5 0.350891 0.610315 0.777370
O O1 0.136476 0.171660 0.180654
O O2 0.250351 0.154303 0.357873
O O3 0.000000 0.121944 0.331024
O O4 0.177093 0.000000 0.261970
O O5 0.375158 0.167322 0.151894
O O6 0.266305 0.335866 0.138213
O O7 0.212238 0.206445 0.000000
O O8 0.500000 0.000000 0.161322
O O9 0.500000 0.896150 0.000000
O O10 0.332876 0.264693 0.500000
O O11 0.500000 0.196788 0.369269
O O12 0.330010 0.335467 0.326082
O O13 0.500000 0.610760 0.809911
O O14 0.299052 0.500000 0.767068
#
# Coordination Sequence:
#
# PCOD8195655 Si02
#       5
#     8   8   4   8   8
#     4  10  22  37  53  77 108 142 178 217 263 314
#     4  10  19  32  49  73 106 142 180 218 259 308
#     4   9  16  26  43  69  98 131 171 213 255 297
#     4   9  19  36  57  81 107 135 172 217 265 318
#     4   9  17  30  50  78 111 141 171 216 271 320
#
# _framework density 18.644652000000001
#
# number of rings (size 3 to 8) (size 9 to 14) (size 15 to 20)
#    0.000    2.556    1.111    0.667    1.556    4.000 
#    0.000    6.667    0.000   10.667    0.000   12.444 
#    0.000    0.000    0.000    0.000    0.000    0.000 
#
# Total GULP energy -446301.829141 kJ/mol
# GULP energy per Si atom -12397.273032 kJ/mol
# Density = 1.860222 g / cm^3
# Si number density = 18.644652 Si / 1000 Ang^3
#
#
#
# Elastic Constant Matrix: (Units=GPa)
#
#
# Indices 1 2 3 4 5 6 
#
# 1 68.3424 39.8004 17.2352 0.0000 0.0000 0.0000
# 2 39.8004 138.4246 19.4970 0.0000 0.0000 0.0000
# 3 17.2352 19.4970 69.0969 0.0000 0.0000 0.0000
# 4 0.0000 0.0000 0.0000 17.2168 0.0000 0.0000
# 5 0.0000 0.0000 0.0000 0.0000 18.1952 0.0000
# 6 0.0000 0.0000 0.0000 0.0000 0.0000 18.6321
#
#
#
# Elastic Compliance Matrix: (Units=1/GPa)
#
#
# Indices 1 2 3 4 5 6 
#
# 1 0.018228 -0.004791 -0.003195 0.000000 0.000000 0.000000
# 2 -0.004791 0.008782 -0.001283 0.000000 0.000000 0.000000
# 3 -0.003195 -0.001283 0.015631 0.000000 0.000000 0.000000
# 4 0.000000 0.000000 0.000000 0.058083 0.000000 0.000000
# 5 0.000000 0.000000 0.000000 0.000000 0.054959 0.000000
# 6 0.000000 0.000000 0.000000 0.000000 0.000000 0.053671
#
#
# Mechanical properties :
#
#
# Convention : Reuss Voigt Hill
#
# Bulk Modulus (GPa) = 41.48695 47.65880 44.57288
# Shear Modulus (GPa) = 21.19299 24.09760 22.64530
#
# Velocity S-wave (km/s) = 3.37513 3.59899 3.48885
# Velocity P-wave (km/s) = 6.12277 6.54885 6.33939
#
# Compressibility (1/GPa) = 0.02410396
#
# Stress axis : x y z
#
# Youngs Moduli (GPa) = 54.86052 113.86411 63.97392
#
# Poissons Ratio (x) = 0.54552 0.20439
# Poissons Ratio (y) = 0.26284 0.08208
# Poissons Ratio (z) = 0.17527 0.14610
#
# Static dielectric constant tensor:
#      x y z
#    x 3.302570 0.000000 0.000000 
#    y 0.000000 3.464300 0.000000 
#    z 0.000000 0.000000 3.290410 
# 
# 
# High freq. dielectric constant tensor:
#      x y z
#    x 1.704040 0.000000 0.000000 
#    y 0.000000 1.719950 0.000000 
#    z 0.000000 0.000000 1.717360 
# 
# From -- ./inp_files/16108.got.cif
#   From: 2010.03.12/outbox.cif.g09.slc.cpg/sg47_9_cif.got.tgz:16108.got - 2010.04.14 03:12:58.
