data_PCOD8195834
_publ_section_title
;
Structure prediction by ZEFSAII (Michael W. Deem and Ramdas Pophale) SiO2 
 PCOD8195834
Probable space group: P M M M
;
_chemical_formula_sum "Si O2"
_cell_formula_units_Z 52
_cell_length_a 38.678416
_cell_length_b 7.775992
_cell_length_c 9.594417
_cell_angle_alpha 90.000000
_cell_angle_beta 90.000000
_cell_angle_gamma 90.000000
_cell_volume 2885.646152
_symmetry_space_group_name_H-M "P M M M"
_symmetry_group_IT_number 47
_symmetry_cell_setting 'orthorhombic'
loop_
_space_group_symop_operation_xyz
x,y,z
-x,-y,z
x,-y,-z
-x,y,-z
-x,-y,-z
x,y,-z
-x,y,z
x,-y,z
loop_
_atom_site_type_symbol
_atom_site_label
_atom_site_fract_x
_atom_site_fract_y
_atom_site_fract_z
Si Si1 0.600175 0.304783 0.846142
Si Si2 0.086460 0.692723 0.666033
Si Si3 0.210457 0.500000 0.334427
Si Si4 0.719217 0.500000 0.166682
Si Si5 0.038890 0.000000 0.333811
Si Si6 0.327780 0.811050 0.164665
Si Si7 0.160974 0.192430 0.334847
Si Si8 0.461258 0.201690 0.341799
O O1 0.612127 0.500000 0.859879
O O2 0.633070 0.208594 0.776202
O O3 0.566120 0.296556 0.753649
O O4 0.591603 0.229144 0.000000
O O5 0.087352 0.695248 0.500000
O O6 0.077361 0.500000 0.719186
O O7 0.058066 0.828280 0.721711
O O8 0.123849 0.748993 0.725163
O O9 0.217870 0.500000 0.500000
O O10 0.245029 0.500000 0.246487
O O11 0.189713 0.329373 0.287566
O O12 0.698546 0.332104 0.220689
O O13 0.725132 0.500000 0.000000
O O14 0.038855 0.000000 0.500000
O O15 0.000000 0.000000 0.274467
O O16 0.313690 0.000000 0.206730
O O17 0.330862 0.787920 0.000000
O O18 0.158627 0.190812 0.500000
O O19 0.170192 0.000000 0.279673
O O20 0.455674 0.262637 0.500000
O O21 0.500000 0.251290 0.292983
O O22 0.455440 0.000000 0.328759
#
# Coordination Sequence:
#
# PCOD8195834 Si02
#       8
#     8   8   4   4   4   8   8   8
#     4  10  19  32  52  78 102 124 162 211 246 281
#     4   9  14  21  34  49  69 103 147 190 232 279
#     4  10  20  32  48  72  97 119 153 200 240 275
#     4  10  20  36  54  74 101 130 159 190 236 300
#     4   9  16  22  28  44  72 106 149 199 239 275
#     4   9  17  32  55  77  98 128 163 198 237 285
#     4   9  15  25  42  62  84 114 151 192 235 280
#     4   9  19  35  51  69  99 137 172 205 245 295
#
# _framework density 18.020226000000001
#
# number of rings (size 3 to 8) (size 9 to 14) (size 15 to 20)
#    0.000    2.692    2.308    0.923    0.000    2.769 
#    0.000    4.615    0.000    0.923    0.000    0.000 
#    0.000    0.000    0.000    0.000    0.000    2.308 
#
# Total GULP energy -644505.559488 kJ/mol
# GULP energy per Si atom -12394.337682 kJ/mol
# Density = 1.797921 g / cm^3
# Si number density = 18.020226 Si / 1000 Ang^3
#
#
#
# Elastic Constant Matrix: (Units=GPa)
#
#
# Indices 1 2 3 4 5 6 
#
# 1 155.9074 79.5318 33.0818 0.0000 0.0000 0.0000
# 2 79.5318 157.0799 19.2136 0.0000 0.0000 0.0000
# 3 33.0818 19.2136 24.9932 0.0000 0.0000 0.0000
# 4 0.0000 0.0000 0.0000 10.3060 0.0000 0.0000
# 5 0.0000 0.0000 0.0000 0.0000 324.8397 0.0000
# 6 0.0000 0.0000 0.0000 0.0000 0.0000 28.1890
#
#
#
# Elastic Compliance Matrix: (Units=1/GPa)
#
#
# Indices 1 2 3 4 5 6 
#
# 1 0.010923 -0.004152 -0.011265 0.000000 0.000000 0.000000
# 2 -0.004152 0.008605 -0.001119 0.000000 0.000000 0.000000
# 3 -0.011265 -0.001119 0.055783 0.000000 0.000000 0.000000
# 4 0.000000 0.000000 0.000000 0.097031 0.000000 0.000000
# 5 0.000000 0.000000 0.000000 0.000000 0.003078 0.000000
# 6 0.000000 0.000000 0.000000 0.000000 0.000000 0.035475
#
#
# Mechanical properties :
#
#
# Convention : Reuss Voigt Hill
#
# Bulk Modulus (GPa) = 23.67613 66.84832 45.26222
# Shear Modulus (GPa) = 19.37622 86.41049 52.89335
#
# Velocity S-wave (km/s) = 3.28266 6.93225 5.42365
# Velocity P-wave (km/s) = 5.24737 10.06238 8.02454
#
# Compressibility (1/GPa) = 0.04223664
#
# Stress axis : x y z
#
# Youngs Moduli (GPa) = 91.55265 116.20487 17.92667
#
# Poissons Ratio (x) = 0.48252 0.20195
# Poissons Ratio (y) = 0.38016 0.02007
# Poissons Ratio (z) = 1.03139 0.13007
#
# Static dielectric constant tensor:
#      x y z
#    x 3.367970 0.000000 0.000000 
#    y 0.000000 3.633750 0.000000 
#    z 0.000000 0.000000 2.720010 
# 
# 
# High freq. dielectric constant tensor:
#      x y z
#    x 1.699690 0.000000 0.000000 
#    y 0.000000 1.716930 0.000000 
#    z 0.000000 0.000000 1.622780 
# 
# From -- ./inp_files/19907.got.cif
#   From: 2010.03.12/outbox.cif.g09.slc.cpg/sg47_10_cif.got.tgz:19907.got - 2010.04.14 03:12:58.
