data_PCOD8195240
_publ_section_title
;
Structure prediction by ZEFSAII (Michael W. Deem and Ramdas Pophale) SiO2 
 PCOD8195240
Probable space group: P M M M
;
_chemical_formula_sum "Si O2"
_cell_formula_units_Z 48
_cell_length_a 9.262392
_cell_length_b 7.735131
_cell_length_c 34.324100
_cell_angle_alpha 90.000000
_cell_angle_beta 90.000000
_cell_angle_gamma 90.000000
_cell_volume 2459.178136
_symmetry_space_group_name_H-M "P M M M"
_symmetry_group_IT_number 47
_symmetry_cell_setting 'orthorhombic'
loop_
_space_group_symop_operation_xyz
x,y,z
-x,-y,z
x,-y,-z
-x,y,-z
-x,-y,-z
x,y,-z
-x,y,z
x,-y,z
loop_
_atom_site_type_symbol
_atom_site_label
_atom_site_fract_x
_atom_site_fract_y
_atom_site_fract_z
Si Si1 0.168832 0.000000 0.178084
Si Si2 0.671457 0.307923 0.956484
Si Si3 0.666935 0.203356 0.308984
Si Si4 0.327744 0.000000 0.097039
Si Si5 0.837786 0.793969 0.384322
Si Si6 0.337902 0.794410 0.542999
Si Si7 0.164126 0.693556 0.234637
O O1 0.214063 0.829483 0.202061
O O2 0.261534 0.000000 0.139445
O O3 0.000000 0.000000 0.167757
O O4 0.500000 0.299893 0.957166
O O5 0.723285 0.500000 0.943848
O O6 0.731001 0.168302 0.925912
O O7 0.729051 0.265143 0.000000
O O8 0.500000 0.253550 0.312499
O O9 0.746677 0.272877 0.347510
O O10 0.733762 0.297134 0.271902
O O11 0.689684 0.000000 0.303918
O O12 0.500000 0.000000 0.100429
O O13 0.767263 0.718243 0.423896
O O14 0.000000 0.721841 0.381041
O O15 0.836792 0.000000 0.385376
O O16 0.285597 0.733286 0.500000
O O17 0.500000 0.726641 0.550824
O O18 0.337468 0.000000 0.544892
O O19 0.175615 0.500000 0.217085
O O20 0.000000 0.736290 0.247596
#
# Coordination Sequence:
#
# PCOD8195240 Si02
#       7
#     4   8   8   4   8   8   8
#     4  10  22  39  55  75 108 144 175 215 266 322
#     4   8  14  26  46  74 107 140 176 222 272 314
#     4  10  19  31  50  74 100 128 161 207 263 317
#     4  10  19  30  50  78 104 134 178 223 261 310
#     4   9  16  24  37  59  87 122 163 205 251 305
#     4   8  13  21  32  48  77 118 161 205 253 304
#     4  10  21  38  59  78  98 132 176 217 261 316
#
# _framework density 19.518715
#
# number of rings (size 3 to 8) (size 9 to 14) (size 15 to 20)
#    0.000    2.833    0.833    2.250    0.000    5.667 
#    0.000    1.667    0.000    1.000    0.000    1.167 
#    0.000    0.667    0.000    7.000    0.000    9.667 
#
# Total GULP energy -595070.688694 kJ/mol
# GULP energy per Si atom -12397.306014 kJ/mol
# Density = 1.947429 g / cm^3
# Si number density = 19.518715 Si / 1000 Ang^3
#
#
#
# Elastic Constant Matrix: (Units=GPa)
#
#
# Indices 1 2 3 4 5 6 
#
# 1 90.3501 34.4602 67.7510 0.0000 0.0000 0.0000
# 2 34.4602 92.2481 67.2853 0.0000 0.0000 0.0000
# 3 67.7510 67.2853 167.8854 0.0000 0.0000 0.0000
# 4 0.0000 0.0000 0.0000 -4.6553 0.0000 0.0000
# 5 0.0000 0.0000 0.0000 0.0000 13.8007 0.0000
# 6 0.0000 0.0000 0.0000 0.0000 0.0000 9.0760
#
#
#
# Elastic Compliance Matrix: (Units=1/GPa)
#
#
# Indices 1 2 3 4 5 6 
#
# 1 0.016080 -0.001800 -0.005768 0.000000 0.000000 0.000000
# 2 -0.001800 0.015520 -0.005494 0.000000 0.000000 0.000000
# 3 -0.005768 -0.005494 0.010486 0.000000 0.000000 0.000000
# 4 0.000000 0.000000 0.000000 -0.214807 0.000000 0.000000
# 5 0.000000 0.000000 0.000000 0.000000 0.072460 0.000000
# 6 0.000000 0.000000 0.000000 0.000000 0.000000 0.110180
#
#
# Mechanical properties :
#
#
# Convention : Reuss Voigt Hill
#
# Bulk Modulus (GPa) = 62.64577 76.60850 69.62714
# Shear Modulus (GPa) = 120.88393 15.71008 68.29700
#
# Velocity S-wave (km/s) = 7.87825 2.84011 5.92170
# Velocity P-wave (km/s) = 10.72010 7.07735 9.08321
#
# Compressibility (1/GPa) = 0.01596277
#
# Stress axis : x y z
#
# Youngs Moduli (GPa) = 62.19097 64.43409 95.36715
#
# Poissons Ratio (x) = 0.11597 0.55005
# Poissons Ratio (y) = 0.11193 0.52392
# Poissons Ratio (z) = 0.35870 0.35398
#
# Static dielectric constant tensor:
#      x y z
#    x 3.408640 0.000000 0.000000 
#    y 0.000000 3.487770 0.000000 
#    z 0.000000 0.000000 3.593720 
# 
# 
# High freq. dielectric constant tensor:
#      x y z
#    x 1.736570 0.000000 0.000000 
#    y 0.000000 1.745520 0.000000 
#    z 0.000000 0.000000 1.758390 
# 
# From -- ./inp_files/34179.got.cif
#   From: 2010.03.12/outbox.cif.g09.slc.cpg/sg47_18_cif.got.tgz:34179.got - 2010.04.14 03:12:58.
