data_PCOD8195577
_publ_section_title
;
Structure prediction by ZEFSAII (Michael W. Deem and Ramdas Pophale) SiO2 
 PCOD8195577
Probable space group: P M M M
;
_chemical_formula_sum "Si O2"
_cell_formula_units_Z 44
_cell_length_a 8.672917
_cell_length_b 17.164885
_cell_length_c 15.081480
_cell_angle_alpha 90.000000
_cell_angle_beta 90.000000
_cell_angle_gamma 90.000000
_cell_volume 2245.174241
_symmetry_space_group_name_H-M "P M M M"
_symmetry_group_IT_number 47
_symmetry_cell_setting 'orthorhombic'
loop_
_space_group_symop_operation_xyz
x,y,z
-x,-y,z
x,-y,-z
-x,y,-z
-x,-y,-z
x,y,-z
-x,y,z
x,-y,z
loop_
_atom_site_type_symbol
_atom_site_label
_atom_site_fract_x
_atom_site_fract_y
_atom_site_fract_z
Si Si1 0.669487 0.090639 0.403363
Si Si2 0.682882 0.585932 0.097285
Si Si3 0.820805 0.867113 0.772750
Si Si4 0.682756 0.000000 0.896235
Si Si5 0.316832 0.587199 0.599384
Si Si6 0.683514 0.301687 0.753802
O O1 0.721892 0.124740 0.500000
O O2 0.500000 0.126446 0.378045
O O3 0.794462 0.105954 0.328091
O O4 0.648661 0.000000 0.413578
O O5 0.500000 0.582442 0.105291
O O6 0.750476 0.500000 0.115355
O O7 0.750334 0.644690 0.168427
O O8 0.732577 0.615218 0.000000
O O9 0.756502 0.780670 0.775721
O O10 0.000000 0.869087 0.794390
O O11 0.740731 0.922731 0.845410
O O12 0.500000 0.000000 0.891217
O O13 0.737037 0.000000 0.000000
O O14 0.257860 0.605658 0.500000
O O15 0.500000 0.586428 0.602508
O O16 0.259526 0.500000 0.628266
O O17 0.256878 0.656671 0.663292
O O18 0.500000 0.293436 0.754045
#
# Coordination Sequence:
#
# PCOD8195577 Si02
#       6
#     8   8   8   4   8   8
#     4   9  18  35  61  87 110 141 183 230 275 322
#     4   8  14  26  47  76 105 131 169 227 285 328
#     4  12  25  39  57  85 121 155 186 229 284 345
#     4  11  25  47  72  89 104 137 189 244 294 347
#     4   8  14  26  47  77 110 144 188 241 288 324
#     4  10  19  31  51  78 108 145 187 231 277 329
#
# _framework density 19.597587999999998
#
# number of rings (size 3 to 8) (size 9 to 14) (size 15 to 20)
#    0.000    2.455    0.909    4.091    0.000    4.727 
#    0.000    4.545    0.000    2.182    0.000    2.545 
#    0.000    0.000    0.000    0.000    0.000    0.000 
#
# Total GULP energy -545119.367708 kJ/mol
# GULP energy per Si atom -12389.076539 kJ/mol
# Density = 1.955298 g / cm^3
# Si number density = 19.597588 Si / 1000 Ang^3
#
#
#
# Elastic Constant Matrix: (Units=GPa)
#
#
# Indices 1 2 3 4 5 6 
#
# 1 54.3929 31.4602 36.7447 0.0000 0.0000 0.0000
# 2 31.4602 138.2931 88.6901 0.0000 0.0000 0.0000
# 3 36.7447 88.6901 166.7597 0.0000 0.0000 0.0000
# 4 0.0000 0.0000 0.0000 11.3642 0.0000 0.0000
# 5 0.0000 0.0000 0.0000 0.0000 -0.6585 0.0000
# 6 0.0000 0.0000 0.0000 0.0000 0.0000 -20.1626
#
#
#
# Elastic Compliance Matrix: (Units=1/GPa)
#
#
# Indices 1 2 3 4 5 6 
#
# 1 0.022353 -0.002923 -0.003370 0.000000 0.000000 0.000000
# 2 -0.002923 0.011356 -0.005396 0.000000 0.000000 0.000000
# 3 -0.003370 -0.005396 0.009609 0.000000 0.000000 0.000000
# 4 0.000000 0.000000 0.000000 0.087995 0.000000 0.000000
# 5 0.000000 0.000000 0.000000 0.000000 -1.518703 0.000000
# 6 0.000000 0.000000 0.000000 0.000000 0.000000 -0.049597
#
#
# Mechanical properties :
#
#
# Convention : Reuss Voigt Hill
#
# Bulk Modulus (GPa) = 50.15350 74.80396 62.47873
# Shear Modulus (GPa) = -3.55376 11.61201 4.02912
#
# Velocity S-wave (km/s) = -1.34807 2.43682 1.43541
# Velocity P-wave (km/s) = 4.81914 6.79487 5.89044
#
# Compressibility (1/GPa) = 0.01993879
#
# Stress axis : x y z
#
# Youngs Moduli (GPa) = 44.73771 88.05595 104.06929
#
# Poissons Ratio (x) = 0.25742 0.35076
# Poissons Ratio (y) = 0.13079 0.56152
# Poissons Ratio (z) = 0.15079 0.47512
#
# Static dielectric constant tensor:
#      x y z
#    x 3.125760 0.000000 0.000000 
#    y 0.000000 3.550630 0.000000 
#    z 0.000000 0.000000 4.296000 
# 
# 
# High freq. dielectric constant tensor:
#      x y z
#    x 1.710250 0.000000 0.000000 
#    y 0.000000 1.765170 0.000000 
#    z 0.000000 0.000000 1.778300 
# 
# From -- ./inp_files/20915.got.cif
#   From: 2010.03.12/outbox.cif.g09.slc.cpg/sg47_11_cif.got.tgz:20915.got - 2010.04.14 03:12:58.
