data_PCOD8195913
_publ_section_title
;
Structure prediction by ZEFSAII (Michael W. Deem and Ramdas Pophale) SiO2 
 PCOD8195913
Probable space group: P M M M
;
_chemical_formula_sum "Si O2"
_cell_formula_units_Z 48
_cell_length_a 9.257291
_cell_length_b 34.083535
_cell_length_c 7.745633
_cell_angle_alpha 90.000000
_cell_angle_beta 90.000000
_cell_angle_gamma 90.000000
_cell_volume 2443.911433
_symmetry_space_group_name_H-M "P M M M"
_symmetry_group_IT_number 47
_symmetry_cell_setting 'orthorhombic'
loop_
_space_group_symop_operation_xyz
x,y,z
-x,-y,z
x,-y,-z
-x,y,-z
-x,-y,-z
x,y,-z
-x,y,z
x,-y,z
loop_
_atom_site_type_symbol
_atom_site_label
_atom_site_fract_x
_atom_site_fract_y
_atom_site_fract_z
Si Si1 0.826489 0.818655 0.000000
Si Si2 0.157401 0.616854 0.801483
Si Si3 0.662632 0.543804 0.703239
Si Si4 0.332396 0.774897 0.695690
Si Si5 0.328789 0.043675 0.691784
Si Si6 0.664678 0.310914 0.798365
Si Si7 0.672792 0.098640 0.000000
O O1 0.771006 0.797589 0.173180
O O2 0.761672 0.861786 0.000000
O O3 0.000000 0.819267 0.000000
O O4 0.234509 0.575175 0.789918
O O5 0.245124 0.652921 0.716994
O O6 0.000000 0.614020 0.712459
O O7 0.140340 0.627433 0.000000
O O8 0.668740 0.549192 0.500000
O O9 0.500000 0.550595 0.770428
O O10 0.714284 0.500000 0.755162
O O11 0.306216 0.790122 0.500000
O O12 0.500000 0.781306 0.750221
O O13 0.293425 0.728888 0.700366
O O14 0.277361 0.056769 0.500000
O O15 0.500000 0.041997 0.698797
O O16 0.268668 0.000000 0.733918
O O17 0.274103 0.074694 0.832082
O O18 0.500000 0.322393 0.764218
O O19 0.694614 0.303970 0.000000
O O20 0.500000 0.106388 0.000000
#
# Coordination Sequence:
#
# PCOD8195913 Si02
#       7
#     4   8   8   8   8   8   4
#     4  12  26  41  57  81 122 164 197 243 296 352
#     4  10  21  34  50  78 113 143 171 206 256 318
#     4   9  19  36  55  73  96 131 177 225 267 309
#     4  10  21  40  66  90 111 143 193 247 297 350
#     4   8  14  26  48  81 115 143 181 241 303 347
#     4   9  17  33  57  82 110 139 173 221 276 331
#     4  10  19  32  54  80 108 148 198 241 287 344
#
# _framework density 19.640646
#
# number of rings (size 3 to 8) (size 9 to 14) (size 15 to 20)
#    0.000    2.500    0.833    2.500    0.000    5.333 
#    0.000    5.833    0.000    1.000    0.000    1.167 
#    0.000    0.000    0.000    0.000    0.000    0.000 
#
# Total GULP energy -595002.409452 kJ/mol
# GULP energy per Si atom -12395.883530 kJ/mol
# Density = 1.959594 g / cm^3
# Si number density = 19.640646 Si / 1000 Ang^3
#
#
#
# Elastic Constant Matrix: (Units=GPa)
#
#
# Indices 1 2 3 4 5 6 
#
# 1 103.2461 71.4401 45.3081 0.0000 0.0000 0.0000
# 2 71.4401 136.5230 61.3557 0.0000 0.0000 0.0000
# 3 45.3081 61.3557 90.5511 0.0000 0.0000 0.0000
# 4 0.0000 0.0000 0.0000 -231.0565 0.0000 0.0000
# 5 0.0000 0.0000 0.0000 0.0000 11.6656 0.0000
# 6 0.0000 0.0000 0.0000 0.0000 0.0000 1.1279
#
#
#
# Elastic Compliance Matrix: (Units=1/GPa)
#
#
# Indices 1 2 3 4 5 6 
#
# 1 0.015849 -0.006800 -0.003322 0.000000 0.000000 0.000000
# 2 -0.006800 0.013450 -0.005711 0.000000 0.000000 0.000000
# 3 -0.003322 -0.005711 0.016575 0.000000 0.000000 0.000000
# 4 0.000000 0.000000 0.000000 -0.004328 0.000000 0.000000
# 5 0.000000 0.000000 0.000000 0.000000 0.085722 0.000000
# 6 0.000000 0.000000 0.000000 0.000000 0.000000 0.886609
#
#
# Mechanical properties :
#
#
# Convention : Reuss Voigt Hill
#
# Bulk Modulus (GPa) = 70.38675 76.28087 73.33381
# Shear Modulus (GPa) = 4.76063 -33.50485 -14.37211
#
# Velocity S-wave (km/s) = 1.55857 -4.13473 -2.70803
# Velocity P-wave (km/s) = 6.25731 4.01596 5.25747
#
# Compressibility (1/GPa) = 0.01420722
#
# Stress axis : x y z
#
# Youngs Moduli (GPa) = 63.09537 74.35077 60.33061
#
# Poissons Ratio (x) = 0.50561 0.20044
# Poissons Ratio (y) = 0.42907 0.34453
# Poissons Ratio (z) = 0.20963 0.42459
#
# Static dielectric constant tensor:
#      x y z
#    x 3.513070 0.000000 0.000000 
#    y 0.000000 3.748610 0.000000 
#    z 0.000000 0.000000 3.666530 
# 
# 
# High freq. dielectric constant tensor:
#      x y z
#    x 1.732720 0.000000 0.000000 
#    y 0.000000 1.769290 0.000000 
#    z 0.000000 0.000000 1.764380 
# 
# From -- ./inp_files/2586.got.cif
#   From: 2010.03.12/outbox.cif.g09.slc.cpg/sg47_2_cif.got.tgz:2586.got - 2010.04.14 03:12:58.
