data_PCOD8195729
_publ_section_title
;
Structure prediction by ZEFSAII (Michael W. Deem and Ramdas Pophale) SiO2 
 PCOD8195729
Probable space group: P M M M
;
_chemical_formula_sum "Si O2"
_cell_formula_units_Z 52
_cell_length_a 10.807187
_cell_length_b 29.610135
_cell_length_c 8.955351
_cell_angle_alpha 90.000000
_cell_angle_beta 90.000000
_cell_angle_gamma 90.000000
_cell_volume 2865.732613
_symmetry_space_group_name_H-M "P M M M"
_symmetry_group_IT_number 47
_symmetry_cell_setting 'orthorhombic'
loop_
_space_group_symop_operation_xyz
x,y,z
-x,-y,z
x,-y,-z
-x,y,-z
-x,-y,-z
x,y,-z
-x,y,z
x,-y,z
loop_
_atom_site_type_symbol
_atom_site_label
_atom_site_fract_x
_atom_site_fract_y
_atom_site_fract_z
Si Si1 0.361858 0.449097 0.677228
Si Si2 0.000000 0.051593 0.323604
Si Si3 0.147168 0.797114 0.670153
Si Si4 0.643559 0.049284 0.335394
Si Si5 0.204614 0.111814 0.173473
Si Si6 0.853933 0.291879 0.833025
Si Si7 0.141979 0.615406 0.322928
O O1 0.357243 0.448693 0.500000
O O2 0.500000 0.431693 0.728285
O O3 0.342873 0.500000 0.736967
O O4 0.245409 0.419842 0.738072
O O5 0.883160 0.077791 0.261157
O O6 0.000000 0.054862 0.500000
O O7 0.000000 0.000000 0.267544
O O8 0.193479 0.799477 0.500000
O O9 0.203529 0.837808 0.764151
O O10 0.198719 0.750884 0.742239
O O11 0.000000 0.799889 0.678486
O O12 0.696079 0.063243 0.500000
O O13 0.500000 0.043043 0.347554
O O14 0.665215 0.088156 0.210500
O O15 0.701445 0.000000 0.291359
O O16 0.172127 0.113637 0.000000
O O17 0.817301 0.337226 0.747086
O O18 0.000000 0.287471 0.842071
O O19 0.797259 0.292655 0.000000
O O20 0.148220 0.620080 0.500000
O O21 0.000000 0.601740 0.275709
#
# Coordination Sequence:
#
# PCOD8195729 Si02
#       7
#     8   4   8   8   8   8   8
#     4   8  14  25  42  66  97 132 168 206 248 294
#     4  11  23  37  51  69  99 137 171 201 238 291
#     4  10  19  32  51  72  98 131 166 200 240 295
#     4   9  19  37  58  75  93 124 166 205 241 289
#     4  12  23  33  50  76 105 131 159 200 250 299
#     4   9  17  29  46  68  96 126 157 197 246 294
#     4   9  16  26  43  69  97 124 161 207 252 296
#
# _framework density 18.145447999999998
#
# number of rings (size 3 to 8) (size 9 to 14) (size 15 to 20)
#    0.000    2.385    0.769    3.923    0.000    5.846 
#    0.000    2.308    0.000    1.846    0.000    5.385 
#    0.000    0.000    0.000    0.000    0.000    0.000 
#
# Total GULP energy -644340.268982 kJ/mol
# GULP energy per Si atom -12391.159019 kJ/mol
# Density = 1.810415 g / cm^3
# Si number density = 18.145448 Si / 1000 Ang^3
#
#
#
# Elastic Constant Matrix: (Units=GPa)
#
#
# Indices 1 2 3 4 5 6 
#
# 1 68.6109 57.2220 24.3927 0.0000 0.0000 0.0000
# 2 57.2220 148.9836 48.3728 0.0000 0.0000 0.0000
# 3 24.3927 48.3728 75.5606 0.0000 0.0000 0.0000
# 4 0.0000 0.0000 0.0000 8.7030 0.0000 0.0000
# 5 0.0000 0.0000 0.0000 0.0000 -101.7664 0.0000
# 6 0.0000 0.0000 0.0000 0.0000 0.0000 11.4545
#
#
#
# Elastic Compliance Matrix: (Units=1/GPa)
#
#
# Indices 1 2 3 4 5 6 
#
# 1 0.021707 -0.007653 -0.002108 0.000000 0.000000 0.000000
# 2 -0.007653 0.011171 -0.004681 0.000000 0.000000 0.000000
# 3 -0.002108 -0.004681 0.016912 0.000000 0.000000 0.000000
# 4 0.000000 0.000000 0.000000 0.114903 0.000000 0.000000
# 5 0.000000 0.000000 0.000000 0.000000 -0.009826 0.000000
# 6 0.000000 0.000000 0.000000 0.000000 0.000000 0.087302
#
#
# Mechanical properties :
#
#
# Convention : Reuss Voigt Hill
#
# Bulk Modulus (GPa) = 47.83418 61.45890 54.64654
# Shear Modulus (GPa) = 17.98421 -5.44393 6.27014
#
# Velocity S-wave (km/s) = 3.15161 -1.73398 1.86091
# Velocity P-wave (km/s) = 6.29780 5.47127 5.89903
#
# Compressibility (1/GPa) = 0.02090555
#
# Stress axis : x y z
#
# Youngs Moduli (GPa) = 46.06821 89.51462 59.12990
#
# Poissons Ratio (x) = 0.68503 0.12467
# Poissons Ratio (y) = 0.35255 0.27680
# Poissons Ratio (z) = 0.09713 0.41904
#
# Static dielectric constant tensor:
#      x y z
#    x 1.415750 0.000000 0.000000 
#    y 0.000000 3.530090 0.000000 
#    z 0.000000 0.000000 3.305860 
# 
# 
# High freq. dielectric constant tensor:
#      x y z
#    x 1.675130 0.000000 0.000000 
#    y 0.000000 1.707530 0.000000 
#    z 0.000000 0.000000 1.689940 
# 
# From -- ./inp_files/4550.got.cif
#   From: 2010.03.12/outbox.cif.g09.slc.cpg/sg47_3_cif.got.tgz:4550.got - 2010.04.14 03:12:58.
