data_PCOD8195740
_publ_section_title
;
Structure prediction by ZEFSAII (Michael W. Deem and Ramdas Pophale) SiO2 
 PCOD8195740
Probable space group: P M M M
;
_chemical_formula_sum "Si O2"
_cell_formula_units_Z 48
_cell_length_a 8.834916
_cell_length_b 19.968192
_cell_length_c 15.082215
_cell_angle_alpha 90.000000
_cell_angle_beta 90.000000
_cell_angle_gamma 90.000000
_cell_volume 2660.763633
_symmetry_space_group_name_H-M "P M M M"
_symmetry_group_IT_number 47
_symmetry_cell_setting 'orthorhombic'
loop_
_space_group_symop_operation_xyz
x,y,z
-x,-y,z
x,-y,-z
-x,y,-z
-x,-y,-z
x,y,-z
-x,y,z
x,-y,z
loop_
_atom_site_type_symbol
_atom_site_label
_atom_site_fract_x
_atom_site_fract_y
_atom_site_fract_z
Si Si1 0.821284 0.422262 0.500000
Si Si2 0.323966 0.241612 0.901657
Si Si3 0.323080 0.188237 0.711966
Si Si4 0.822415 0.361944 0.825238
Si Si5 0.821257 0.075525 0.401137
Si Si6 0.324764 0.330296 0.353286
Si Si7 0.177808 0.500000 0.905007
O O1 0.758248 0.500000 0.500000
O O2 0.770776 0.378803 0.584002
O O3 0.000000 0.426643 0.500000
O O4 0.500000 0.260732 0.890461
O O5 0.274273 0.196888 0.816100
O O6 0.220500 0.308232 0.900673
O O7 0.297699 0.207898 0.000000
O O8 0.500000 0.176221 0.707165
O O9 0.242695 0.123062 0.674694
O O10 0.278939 0.251249 0.647691
O O11 0.708468 0.351976 0.745308
O O12 0.772130 0.434907 0.853621
O O13 0.000000 0.356271 0.800114
O O14 0.764381 0.096088 0.500000
O O15 0.000000 0.080019 0.398144
O O16 0.767431 0.000000 0.380079
O O17 0.500000 0.339240 0.378233
O O18 0.000000 0.500000 0.918627
O O19 0.259175 0.500000 0.000000
#
# Coordination Sequence:
#
# PCOD8195740 Si02
#       7
#     4   8   8   8   8   8   4
#     4  11  25  41  57  77 102 135 182 229 273 322
#     4   9  18  34  53  74 104 139 175 219 269 318
#     4   9  19  34  54  81 109 138 176 220 261 311
#     4  10  19  32  51  73  99 130 171 218 265 318
#     4   9  19  35  54  79 111 144 176 212 260 317
#     4  10  22  39  55  76 105 138 176 219 270 319
#     4   9  18  30  45  68  97 126 157 205 266 315
#
# _framework density 18.039933999999999
#
# number of rings (size 3 to 8) (size 9 to 14) (size 15 to 20)
#    0.000    2.500    0.000    3.250    2.333    5.667 
#    0.000    2.083    0.000    3.500    0.000    3.500 
#    0.000    0.000    0.000    0.000    0.000    0.000 
#
# Total GULP energy -594648.144155 kJ/mol
# GULP energy per Si atom -12388.503003 kJ/mol
# Density = 1.799887 g / cm^3
# Si number density = 18.039934 Si / 1000 Ang^3
#
#
#
# Elastic Constant Matrix: (Units=GPa)
#
#
# Indices 1 2 3 4 5 6 
#
# 1 31.8906 35.5131 24.6622 0.0000 0.0000 0.0000
# 2 35.5131 125.8801 66.6687 0.0000 0.0000 0.0000
# 3 24.6622 66.6687 102.2991 0.0000 0.0000 0.0000
# 4 0.0000 0.0000 0.0000 20.0781 0.0000 0.0000
# 5 0.0000 0.0000 0.0000 0.0000 22.3186 0.0000
# 6 0.0000 0.0000 0.0000 0.0000 0.0000 20.7613
#
#
#
# Elastic Compliance Matrix: (Units=1/GPa)
#
#
# Indices 1 2 3 4 5 6 
#
# 1 0.046816 -0.011041 -0.004091 0.000000 0.000000 0.000000
# 2 -0.011041 0.014735 -0.006941 0.000000 0.000000 0.000000
# 3 -0.004091 -0.006941 0.015285 0.000000 0.000000 0.000000
# 4 0.000000 0.000000 0.000000 0.049806 0.000000 0.000000
# 5 0.000000 0.000000 0.000000 0.000000 0.044806 0.000000
# 6 0.000000 0.000000 0.000000 0.000000 0.000000 0.048167
#
#
# Mechanical properties :
#
#
# Convention : Reuss Voigt Hill
#
# Bulk Modulus (GPa) = 30.59032 57.08418 43.83725
# Shear Modulus (GPa) = 18.20450 21.51330 19.85890
#
# Velocity S-wave (km/s) = 3.18012 3.45706 3.32148
# Velocity P-wave (km/s) = 5.52069 6.90268 6.25000
#
# Compressibility (1/GPa) = 0.03269008
#
# Stress axis : x y z
#
# Youngs Moduli (GPa) = 21.36014 67.86498 65.42325
#
# Poissons Ratio (x) = 0.74930 0.26764
# Poissons Ratio (y) = 0.23584 0.45411
# Poissons Ratio (z) = 0.08738 0.47106
#
# Static dielectric constant tensor:
#      x y z
#    x 3.188340 0.000000 0.000000 
#    y 0.000000 3.635890 0.000000 
#    z 0.000000 0.000000 4.568150 
# 
# 
# High freq. dielectric constant tensor:
#      x y z
#    x 1.691050 0.000000 0.000000 
#    y 0.000000 1.685080 0.000000 
#    z 0.000000 0.000000 1.705320 
# 
# From -- ./inp_files/21151.got.cif
#   From: 2010.03.12/outbox.cif.g09.slc.cpg/sg47_11_cif.got.tgz:21151.got - 2010.04.14 03:12:58.
