data_PCOD8195816
_publ_section_title
;
Structure prediction by ZEFSAII (Michael W. Deem and Ramdas Pophale) SiO2 
 PCOD8195816
Probable space group: P M M M
;
_chemical_formula_sum "Si O2"
_cell_formula_units_Z 64
_cell_length_a 8.880126
_cell_length_b 23.167671
_cell_length_c 15.635059
_cell_angle_alpha 90.000000
_cell_angle_beta 90.000000
_cell_angle_gamma 90.000000
_cell_volume 3216.629419
_symmetry_space_group_name_H-M "P M M M"
_symmetry_group_IT_number 47
_symmetry_cell_setting 'orthorhombic'
loop_
_space_group_symop_operation_xyz
x,y,z
-x,-y,z
x,-y,-z
-x,y,-z
-x,-y,-z
x,y,-z
-x,y,z
x,-y,z
loop_
_atom_site_type_symbol
_atom_site_label
_atom_site_fract_x
_atom_site_fract_y
_atom_site_fract_z
Si Si1 0.321350 0.183193 0.313541
Si Si2 0.835656 0.726782 0.402803
Si Si3 0.678086 0.387939 0.400875
Si Si4 0.173001 0.565749 0.238507
Si Si5 0.677226 0.062578 0.747434
Si Si6 0.829906 0.109991 0.095194
Si Si7 0.176101 0.235599 0.849595
Si Si8 0.323653 0.647320 0.097382
O O1 0.500000 0.184688 0.308687
O O2 0.255859 0.212456 0.398544
O O3 0.261201 0.116894 0.307759
O O4 0.250213 0.225207 0.242540
O O5 0.865818 0.713367 0.500000
O O6 0.734005 0.674603 0.367570
O O7 0.000000 0.729626 0.356428
O O8 0.725191 0.401897 0.500000
O O9 0.500000 0.390421 0.392610
O O10 0.751060 0.431689 0.332863
O O11 0.185917 0.500000 0.206993
O O12 0.251310 0.604544 0.166348
O O13 0.000000 0.585412 0.247274
O O14 0.500000 0.060601 0.739940
O O15 0.719064 0.073296 0.845801
O O16 0.742560 0.000000 0.716806
O O17 0.792978 0.178072 0.095268
O O18 0.000000 0.100066 0.128177
O O19 0.808394 0.086122 0.000000
O O20 0.254674 0.288951 0.895418
O O21 0.000000 0.248750 0.840242
O O22 0.500000 0.650800 0.116750
O O23 0.293627 0.625404 0.000000
#
# Coordination Sequence:
#
# PCOD8195816 Si02
#       8
#     8   8   8   8   8   8   8   8
#     4  10  19  32  52  76 104 137 173 217 265 314
#     4  10  20  34  54  81 112 141 169 206 255 313
#     4  10  21  38  62  91 121 151 182 219 267 325
#     4  11  25  43  62  84 112 149 191 232 273 322
#     4   9  19  34  49  67  93 129 173 215 256 304
#     4   9  18  31  47  70  99 130 165 207 256 308
#     4  10  19  33  54  78 106 138 173 215 265 322
#     4  11  24  40  59  83 111 145 186 234 285 332
#
# _framework density 19.896604
#
# number of rings (size 3 to 8) (size 9 to 14) (size 15 to 20)
#    0.000    2.000    0.000    3.375    0.000    6.250 
#    0.000    3.750    0.000    0.375    0.000    2.625 
#    0.000    0.000    0.000    0.000    0.000    0.000 
#
# Total GULP energy -793197.799659 kJ/mol
# GULP energy per Si atom -12393.715620 kJ/mol
# Density = 1.985132 g / cm^3
# Si number density = 19.896604 Si / 1000 Ang^3
#
#
#
# Elastic Constant Matrix: (Units=GPa)
#
#
# Indices 1 2 3 4 5 6 
#
# 1 96.8300 36.5552 33.4400 0.0000 0.0000 0.0000
# 2 36.5552 95.4045 26.4626 0.0000 0.0000 0.0000
# 3 33.4400 26.4626 60.7761 0.0000 0.0000 0.0000
# 4 0.0000 0.0000 0.0000 12.9898 0.0000 0.0000
# 5 0.0000 0.0000 0.0000 0.0000 27.8983 0.0000
# 6 0.0000 0.0000 0.0000 0.0000 0.0000 27.3076
#
#
#
# Elastic Compliance Matrix: (Units=1/GPa)
#
#
# Indices 1 2 3 4 5 6 
#
# 1 0.013762 -0.003609 -0.006001 0.000000 0.000000 0.000000
# 2 -0.003609 0.012868 -0.003617 0.000000 0.000000 0.000000
# 3 -0.006001 -0.003617 0.021331 0.000000 0.000000 0.000000
# 4 0.000000 0.000000 0.000000 0.076984 0.000000 0.000000
# 5 0.000000 0.000000 0.000000 0.000000 0.035844 0.000000
# 6 0.000000 0.000000 0.000000 0.000000 0.000000 0.036620
#
#
# Mechanical properties :
#
#
# Convention : Reuss Voigt Hill
#
# Bulk Modulus (GPa) = 46.49661 49.54734 48.02198
# Shear Modulus (GPa) = 21.64212 24.07597 22.85905
#
# Velocity S-wave (km/s) = 3.30165 3.48236 3.39321
# Velocity P-wave (km/s) = 6.16071 6.41292 6.28808
#
# Compressibility (1/GPa) = 0.02150694
#
# Stress axis : x y z
#
# Youngs Moduli (GPa) = 72.66332 77.71409 46.88097
#
# Poissons Ratio (x) = 0.28044 0.28133
# Poissons Ratio (y) = 0.26221 0.16958
# Poissons Ratio (z) = 0.43605 0.28111
#
# Static dielectric constant tensor:
#      x y z
#    x 3.752480 0.000000 0.000000 
#    y 0.000000 3.830330 0.000000 
#    z 0.000000 0.000000 3.613720 
# 
# 
# High freq. dielectric constant tensor:
#      x y z
#    x 1.783640 0.000000 0.000000 
#    y 0.000000 1.776030 0.000000 
#    z 0.000000 0.000000 1.761090 
# 
# From -- ./inp_files/21959.got.cif
#   From: 2010.03.12/outbox.cif.g09.slc.cpg/sg47_11_cif.got.tgz:21959.got - 2010.04.14 03:12:58.
