data_PCOD8195921
_publ_section_title
;
Structure prediction by ZEFSAII (Michael W. Deem and Ramdas Pophale) SiO2 
 PCOD8195921
Probable space group: P M M M
;
_chemical_formula_sum "Si O2"
_cell_formula_units_Z 52
_cell_length_a 7.835262
_cell_length_b 27.970433
_cell_length_c 12.879080
_cell_angle_alpha 90.000000
_cell_angle_beta 90.000000
_cell_angle_gamma 90.000000
_cell_volume 2822.523417
_symmetry_space_group_name_H-M "P M M M"
_symmetry_group_IT_number 47
_symmetry_cell_setting 'orthorhombic'
loop_
_space_group_symop_operation_xyz
x,y,z
-x,-y,z
x,-y,-z
-x,y,-z
-x,-y,-z
x,y,-z
-x,y,z
x,-y,z
loop_
_atom_site_type_symbol
_atom_site_label
_atom_site_fract_x
_atom_site_fract_y
_atom_site_fract_z
Si Si1 0.500000 0.852541 0.377044
Si Si2 0.306362 0.733469 0.882142
Si Si3 0.297712 0.445017 0.276836
Si Si4 0.500000 0.052870 0.249846
Si Si5 0.805261 0.631916 0.115252
Si Si6 0.190073 0.182017 0.248385
Si Si7 0.805774 0.089374 0.878917
Si Si8 0.700709 0.554691 0.500000
O O1 0.500000 0.851584 0.500000
O O2 0.500000 0.907589 0.340073
O O3 0.669176 0.825115 0.337798
O O4 0.500000 0.751481 0.877872
O O5 0.298070 0.678254 0.844791
O O6 0.199387 0.765933 0.803575
O O7 0.234234 0.737353 0.000000
O O8 0.500000 0.441327 0.269785
O O9 0.239760 0.500000 0.261746
O O10 0.215153 0.413579 0.188067
O O11 0.231935 0.424334 0.389771
O O12 0.329325 0.056356 0.180386
O O13 0.500000 0.000000 0.300675
O O14 0.000000 0.647909 0.112886
O O15 0.741800 0.617154 0.000000
O O16 0.221147 0.143824 0.157075
O O17 0.000000 0.176092 0.296946
O O18 0.000000 0.072065 0.855468
O O19 0.765071 0.086722 0.000000
O O20 0.754490 0.500000 0.500000
O O21 0.500000 0.560008 0.500000
#
# Coordination Sequence:
#
# PCOD8195921 Si02
#       8
#     4   8   8   4   8   8   8   4
#     4  10  22  40  59  80 106 139 184 234 280 321
#     4  10  19  32  54  82 109 137 169 208 257 317
#     4   9  17  31  52  73  94 125 169 219 266 316
#     4  10  21  35  52  77 107 144 187 228 268 315
#     4  10  21  34  47  69 104 141 173 208 256 315
#     4  10  19  34  57  82 108 139 177 222 270 323
#     4   9  18  31  49  77 112 146 178 215 263 322
#     4   7  12  26  49  73  91 113 153 205 259 305
#
# _framework density 18.423231000000001
#
# number of rings (size 3 to 8) (size 9 to 14) (size 15 to 20)
#    0.000    2.538    0.769    2.538    0.000    4.462 
#    0.000    2.692    1.692    1.385    0.000    4.308 
#    0.000    0.000    0.000    0.000    0.000    0.000 
#
# Total GULP energy -644492.970315 kJ/mol
# GULP energy per Si atom -12394.095583 kJ/mol
# Density = 1.838130 g / cm^3
# Si number density = 18.423231 Si / 1000 Ang^3
#
#
#
# Elastic Constant Matrix: (Units=GPa)
#
#
# Indices 1 2 3 4 5 6 
#
# 1 90.9081 27.0614 40.8155 0.0000 0.0000 0.0000
# 2 27.0614 96.8450 57.7260 0.0000 0.0000 0.0000
# 3 40.8155 57.7260 118.5650 0.0000 0.0000 0.0000
# 4 0.0000 0.0000 0.0000 17.2350 0.0000 0.0000
# 5 0.0000 0.0000 0.0000 0.0000 13.2527 0.0000
# 6 0.0000 0.0000 0.0000 0.0000 0.0000 21.1173
#
#
#
# Elastic Compliance Matrix: (Units=1/GPa)
#
#
# Indices 1 2 3 4 5 6 
#
# 1 0.013140 -0.001374 -0.003854 0.000000 0.000000 0.000000
# 2 -0.001374 0.014691 -0.006680 0.000000 0.000000 0.000000
# 3 -0.003854 -0.006680 0.013013 0.000000 0.000000 0.000000
# 4 0.000000 0.000000 0.000000 0.058021 0.000000 0.000000
# 5 0.000000 0.000000 0.000000 0.000000 0.075457 0.000000
# 6 0.000000 0.000000 0.000000 0.000000 0.000000 0.047354
#
#
# Mechanical properties :
#
#
# Convention : Reuss Voigt Hill
#
# Bulk Modulus (GPa) = 58.72748 61.94711 60.33729
# Shear Modulus (GPa) = 19.90692 22.36868 21.13780
#
# Velocity S-wave (km/s) = 3.29071 3.48825 3.39092
# Velocity P-wave (km/s) = 6.81061 7.06550 6.93923
#
# Compressibility (1/GPa) = 0.01702780
#
# Stress axis : x y z
#
# Youngs Moduli (GPa) = 76.10558 68.06732 76.84533
#
# Poissons Ratio (x) = 0.09354 0.29618
# Poissons Ratio (y) = 0.10459 0.51331
# Poissons Ratio (z) = 0.29332 0.45467
#
# Static dielectric constant tensor:
#      x y z
#    x 3.506770 0.000000 0.000000 
#    y 0.000000 3.216370 0.000000 
#    z 0.000000 0.000000 3.379630 
# 
# 
# High freq. dielectric constant tensor:
#      x y z
#    x 1.721800 0.000000 0.000000 
#    y 0.000000 1.698460 0.000000 
#    z 0.000000 0.000000 1.693760 
# 
# From -- ./inp_files/15591.got.cif
#   From: 2010.03.12/outbox.cif.g09.slc.cpg/sg47_8_cif.got.tgz:15591.got - 2010.04.14 03:12:58.
