data_PCOD8195123
_publ_section_title
;
Structure prediction by ZEFSAII (Michael W. Deem and Ramdas Pophale) SiO2 
 PCOD8195123
Probable space group: P M M M
;
_chemical_formula_sum "Si O2"
_cell_formula_units_Z 64
_cell_length_a 18.905998
_cell_length_b 9.112392
_cell_length_c 23.917933
_cell_angle_alpha 90.000000
_cell_angle_beta 90.000000
_cell_angle_gamma 90.000000
_cell_volume 4120.554349
_symmetry_space_group_name_H-M "P M M M"
_symmetry_group_IT_number 47
_symmetry_cell_setting 'orthorhombic'
loop_
_space_group_symop_operation_xyz
x,y,z
-x,-y,z
x,-y,-z
-x,y,-z
-x,-y,-z
x,y,-z
-x,y,z
x,-y,z
loop_
_atom_site_type_symbol
_atom_site_label
_atom_site_fract_x
_atom_site_fract_y
_atom_site_fract_z
Si Si1 0.220791 0.828162 0.064246
Si Si2 0.582089 0.169691 0.224964
Si Si3 0.301790 0.673030 0.840630
Si Si4 0.579387 0.325876 0.561176
Si Si5 0.921599 0.827823 0.758329
Si Si6 0.788026 0.668931 0.732919
Si Si7 0.351147 0.326722 0.327061
Si Si8 0.076651 0.174088 0.115199
O O1 0.276717 0.737992 0.100502
O O2 0.141064 0.770082 0.076793
O O3 0.227208 0.000000 0.078889
O O4 0.238384 0.796940 0.000000
O O5 0.500000 0.187045 0.210781
O O6 0.624421 0.251465 0.175750
O O7 0.597629 0.242835 0.284703
O O8 0.605097 0.000000 0.227180
O O9 0.313996 0.500000 0.845939
O O10 0.244043 0.711151 0.793281
O O11 0.605512 0.269013 0.500000
O O12 0.500000 0.267449 0.572749
O O13 0.578360 0.500000 0.560864
O O14 0.631390 0.270873 0.610257
O O15 0.860451 0.755543 0.720760
O O16 0.912870 0.768942 0.821606
O O17 0.000000 0.785509 0.735817
O O18 0.910549 0.000000 0.755828
O O19 0.807789 0.500000 0.730310
O O20 0.730767 0.710617 0.685416
O O21 0.365009 0.500000 0.318952
O O22 0.000000 0.231083 0.092387
O O23 0.075138 0.000000 0.115749
#
# Coordination Sequence:
#
# PCOD8195123 Si02
#       8
#     8   8   8   8   8   8   8   8
#     4  10  19  30  47  68  88 113 144 178 215 256
#     4  10  20  32  48  70  92 113 140 178 222 265
#     4  10  20  33  48  65  87 115 144 175 215 263
#     4   8  13  22  39  63  90 123 160 190 213 242
#     4   9  16  26  42  61  81 110 145 178 214 258
#     4   9  17  27  40  61  86 113 143 176 218 260
#     4   9  17  28  43  66  95 122 151 185 217 254
#     4   8  14  25  41  62  86 111 142 178 212 249
#
# _framework density 15.531890000000001
#
# number of rings (size 3 to 8) (size 9 to 14) (size 15 to 20)
#    0.000    2.875    1.250    3.000    0.000    4.250 
#    0.000    1.250    0.000    1.125    0.000    5.250 
#    0.000    0.500    0.000    6.250    0.000    1.000 
#
# Total GULP energy -793258.836164 kJ/mol
# GULP energy per Si atom -12394.669315 kJ/mol
# Density = 1.549654 g / cm^3
# Si number density = 15.531890 Si / 1000 Ang^3
#
#
#
# Elastic Constant Matrix: (Units=GPa)
#
#
# Indices 1 2 3 4 5 6 
#
# 1 114.3684 48.4616 62.8172 0.0000 0.0000 0.0000
# 2 48.4616 51.2239 33.5502 0.0000 0.0000 0.0000
# 3 62.8172 33.5502 101.5383 0.0000 0.0000 0.0000
# 4 0.0000 0.0000 0.0000 12.4810 0.0000 0.0000
# 5 0.0000 0.0000 0.0000 0.0000 24.4708 0.0000
# 6 0.0000 0.0000 0.0000 0.0000 0.0000 23.2540
#
#
#
# Elastic Compliance Matrix: (Units=1/GPa)
#
#
# Indices 1 2 3 4 5 6 
#
# 1 0.017736 -0.012242 -0.006927 0.000000 0.000000 0.000000
# 2 -0.012242 0.033364 -0.003450 0.000000 0.000000 0.000000
# 3 -0.006927 -0.003450 0.015274 0.000000 0.000000 0.000000
# 4 0.000000 0.000000 0.000000 0.080122 0.000000 0.000000
# 5 0.000000 0.000000 0.000000 0.000000 0.040865 0.000000
# 6 0.000000 0.000000 0.000000 0.000000 0.000000 0.043003
#
#
# Mechanical properties :
#
#
# Convention : Reuss Voigt Hill
#
# Bulk Modulus (GPa) = 47.31659 61.86538 54.59099
# Shear Modulus (GPa) = 17.68975 20.19460 18.94217
#
# Velocity S-wave (km/s) = 3.37847 3.60974 3.49602
# Velocity P-wave (km/s) = 6.76380 7.56910 7.17776
#
# Compressibility (1/GPa) = 0.02113424
#
# Stress axis : x y z
#
# Youngs Moduli (GPa) = 56.38234 29.97226 65.46971
#
# Poissons Ratio (x) = 0.36693 0.45353
# Poissons Ratio (y) = 0.69025 0.22589
# Poissons Ratio (z) = 0.39058 0.10342
#
# Static dielectric constant tensor:
#      x y z
#    x 3.081730 0.000000 0.000000 
#    y 0.000000 2.764890 0.000000 
#    z 0.000000 0.000000 2.929790 
# 
# 
# High freq. dielectric constant tensor:
#      x y z
#    x 1.595020 0.000000 0.000000 
#    y 0.000000 1.577110 0.000000 
#    z 0.000000 0.000000 1.565460 
# 
# From -- ./inp_files/32895.got.cif
#   From: 2010.03.12/outbox.cif.g09.slc.cpg/sg47_17_cif.got.tgz:32895.got - 2010.04.14 03:12:58.
