data_PCOD8195824
_publ_section_title
;
Structure prediction by ZEFSAII (Michael W. Deem and Ramdas Pophale) SiO2 
 PCOD8195824
Probable space group: P M M M
;
_chemical_formula_sum "Si O2"
_cell_formula_units_Z 36
_cell_length_a 14.749053
_cell_length_b 13.992442
_cell_length_c 9.852168
_cell_angle_alpha 90.000000
_cell_angle_beta 90.000000
_cell_angle_gamma 90.000000
_cell_volume 2033.243818
_symmetry_space_group_name_H-M "P M M M"
_symmetry_group_IT_number 47
_symmetry_cell_setting 'orthorhombic'
loop_
_space_group_symop_operation_xyz
x,y,z
-x,-y,z
x,-y,-z
-x,y,-z
-x,-y,-z
x,y,-z
-x,y,z
x,-y,z
loop_
_atom_site_type_symbol
_atom_site_label
_atom_site_fract_x
_atom_site_fract_y
_atom_site_fract_z
Si Si1 0.000000 0.106754 0.160855
Si Si2 0.895463 0.607738 0.651156
Si Si3 0.372715 0.223073 0.155411
Si Si4 0.500000 0.607155 0.842602
Si Si5 0.836288 0.761251 0.154173
Si Si6 0.500000 0.112808 0.344459
O O1 0.091277 0.161110 0.210591
O O2 0.000000 0.000000 0.224142
O O3 0.000000 0.099004 0.000000
O O4 0.881065 0.649300 0.500000
O O5 0.859879 0.500000 0.657216
O O6 0.838143 0.665986 0.758344
O O7 0.000000 0.613093 0.692638
O O8 0.409971 0.329710 0.195506
O O9 0.266124 0.204080 0.166467
O O10 0.412351 0.148257 0.262423
O O11 0.403890 0.201844 0.000000
O O12 0.500000 0.500000 0.772104
O O13 0.500000 0.586531 0.000000
O O14 0.861739 0.735301 0.000000
O O15 0.500000 0.151790 0.500000
O O16 0.500000 0.000000 0.345940
#
# Coordination Sequence:
#
# PCOD8195824 Si02
#       6
#     4   8   8   4   8   4
#     4   9  18  32  48  69 100 134 167 209 264 315
#     4   9  18  32  49  70 100 140 179 212 252 300
#     4   9  19  33  52  79 104 132 172 212 257 314
#     4   8  14  28  48  69  98 131 161 200 248 300
#     4  10  19  32  52  77 103 133 173 219 261 304
#     4  10  21  37  56  77 102 133 169 214 266 314
#
# _framework density 17.705697000000001
#
# number of rings (size 3 to 8) (size 9 to 14) (size 15 to 20)
#    0.000    2.778    1.111    1.667    0.000    4.000 
#    0.000    5.556    0.000    6.667    0.000    0.000 
#    0.000    0.000    0.000    0.000    0.000    0.000 
#
# Total GULP energy -446074.483059 kJ/mol
# GULP energy per Si atom -12390.957863 kJ/mol
# Density = 1.766540 g / cm^3
# Si number density = 17.705697 Si / 1000 Ang^3
#
#
#
# Elastic Constant Matrix: (Units=GPa)
#
#
# Indices 1 2 3 4 5 6 
#
# 1 115.3346 43.7996 36.8950 0.0000 0.0000 0.0000
# 2 43.7996 91.3921 46.5078 0.0000 0.0000 0.0000
# 3 36.8950 46.5078 90.6505 0.0000 0.0000 0.0000
# 4 0.0000 0.0000 0.0000 24.4929 0.0000 0.0000
# 5 0.0000 0.0000 0.0000 0.0000 14.2917 0.0000
# 6 0.0000 0.0000 0.0000 0.0000 0.0000 13.2226
#
#
#
# Elastic Compliance Matrix: (Units=1/GPa)
#
#
# Indices 1 2 3 4 5 6 
#
# 1 0.010970 -0.004040 -0.002392 0.000000 0.000000 0.000000
# 2 -0.004040 0.016296 -0.006716 0.000000 0.000000 0.000000
# 3 -0.002392 -0.006716 0.015451 0.000000 0.000000 0.000000
# 4 0.000000 0.000000 0.000000 0.040828 0.000000 0.000000
# 5 0.000000 0.000000 0.000000 0.000000 0.069971 0.000000
# 6 0.000000 0.000000 0.000000 0.000000 0.000000 0.075628
#
#
# Mechanical properties :
#
#
# Convention : Reuss Voigt Hill
#
# Bulk Modulus (GPa) = 60.90208 61.30913 61.10560
# Shear Modulus (GPa) = 19.16347 21.74642 20.45494
#
# Velocity S-wave (km/s) = 3.29345 3.50839 3.40262
# Velocity P-wave (km/s) = 6.99528 7.14939 7.07275
#
# Compressibility (1/GPa) = 0.01641980
#
# Stress axis : x y z
#
# Youngs Moduli (GPa) = 91.15875 61.36556 64.72222
#
# Poissons Ratio (x) = 0.24792 0.15482
# Poissons Ratio (y) = 0.36828 0.43469
# Poissons Ratio (z) = 0.21806 0.41214
#
# Static dielectric constant tensor:
#      x y z
#    x 3.325240 0.000000 0.000000 
#    y 0.000000 3.331880 0.000000 
#    z 0.000000 0.000000 3.182320 
# 
# 
# High freq. dielectric constant tensor:
#      x y z
#    x 1.682700 0.000000 0.000000 
#    y 0.000000 1.676530 0.000000 
#    z 0.000000 0.000000 1.664230 
# 
# From -- ./inp_files/5623.got.cif
#   From: 2010.03.12/outbox.cif.g09.slc.cpg/sg47_3_cif.got.tgz:5623.got - 2010.04.14 03:12:58.
