data_PCOD8195852
_publ_section_title
;
Structure prediction by ZEFSAII (Michael W. Deem and Ramdas Pophale) SiO2 
 PCOD8195852
Probable space group: P M M M
;
_chemical_formula_sum "Si O2"
_cell_formula_units_Z 40
_cell_length_a 8.780713
_cell_length_b 7.745076
_cell_length_c 29.763286
_cell_angle_alpha 90.000000
_cell_angle_beta 90.000000
_cell_angle_gamma 90.000000
_cell_volume 2024.120408
_symmetry_space_group_name_H-M "P M M M"
_symmetry_group_IT_number 47
_symmetry_cell_setting 'orthorhombic'
loop_
_space_group_symop_operation_xyz
x,y,z
-x,-y,z
x,-y,-z
-x,y,-z
-x,-y,-z
x,y,-z
-x,y,z
x,-y,z
loop_
_atom_site_type_symbol
_atom_site_label
_atom_site_fract_x
_atom_site_fract_y
_atom_site_fract_z
Si Si1 0.680024 0.000000 0.289932
Si Si2 0.821381 0.701289 0.767845
Si Si3 0.668621 0.301005 0.857773
Si Si4 0.180683 0.308141 0.550097
Si Si5 0.818118 0.000000 0.387553
Si Si6 0.673806 0.796759 0.952140
O O1 0.740394 0.176600 0.267980
O O2 0.500000 0.000000 0.286533
O O3 0.733632 0.000000 0.340755
O O4 0.776622 0.500000 0.759474
O O5 0.772277 0.769479 0.817358
O O6 0.000000 0.727015 0.763157
O O7 0.500000 0.211649 0.856819
O O8 0.646975 0.500000 0.849283
O O9 0.752065 0.271667 0.906275
O O10 0.243172 0.266494 0.500000
O O11 0.234561 0.500000 0.565062
O O12 0.000000 0.300082 0.548644
O O13 0.240624 0.167963 0.585422
O O14 0.000000 0.000000 0.380619
O O15 0.500000 0.731752 0.951186
O O16 0.683402 0.000000 0.951554
O O17 0.746857 0.730459 0.000000
#
# Coordination Sequence:
#
# PCOD8195852 Si02
#       6
#     4   8   8   8   4   8
#     4  12  26  41  59  83 113 151 192 234 287 345
#     4  10  22  41  62  83 109 141 183 235 287 342
#     4   9  17  29  48  75 102 131 172 219 269 323
#     4   8  14  26  48  80 114 147 185 229 274 317
#     4  10  19  32  52  80 112 145 187 234 279 326
#     4   8  14  24  39  64  99 135 170 208 252 307
#
# _framework density 19.761669999999999
#
# number of rings (size 3 to 8) (size 9 to 14) (size 15 to 20)
#    0.000    2.800    0.000    3.000    1.400    3.600 
#    0.000    4.000    0.000    1.800    0.000    5.600 
#    0.000    0.000    0.000    0.000    0.000    0.000 
#
# Total GULP energy -495526.491268 kJ/mol
# GULP energy per Si atom -12388.162282 kJ/mol
# Density = 1.971669 g / cm^3
# Si number density = 19.761670 Si / 1000 Ang^3
#
#
#
# Elastic Constant Matrix: (Units=GPa)
#
#
# Indices 1 2 3 4 5 6 
#
# 1 62.5193 39.1695 49.3048 0.0000 0.0000 0.0000
# 2 39.1695 105.1080 86.0924 0.0000 0.0000 0.0000
# 3 49.3048 86.0924 191.7222 0.0000 0.0000 0.0000
# 4 0.0000 0.0000 0.0000 22.7062 0.0000 0.0000
# 5 0.0000 0.0000 0.0000 0.0000 26.3687 0.0000
# 6 0.0000 0.0000 0.0000 0.0000 0.0000 15.0472
#
#
#
# Elastic Compliance Matrix: (Units=1/GPa)
#
#
# Indices 1 2 3 4 5 6 
#
# 1 0.021990 -0.005636 -0.003124 0.000000 0.000000 0.000000
# 2 -0.005636 0.016494 -0.005957 0.000000 0.000000 0.000000
# 3 -0.003124 -0.005957 0.008694 0.000000 0.000000 0.000000
# 4 0.000000 0.000000 0.000000 0.044041 0.000000 0.000000
# 5 0.000000 0.000000 0.000000 0.000000 0.037924 0.000000
# 6 0.000000 0.000000 0.000000 0.000000 0.000000 0.066458
#
#
# Mechanical properties :
#
#
# Convention : Reuss Voigt Hill
#
# Bulk Modulus (GPa) = 56.35826 78.72033 67.53930
# Shear Modulus (GPa) = 21.64982 25.14328 23.39655
#
# Velocity S-wave (km/s) = 3.31349 3.57084 3.44457
# Velocity P-wave (km/s) = 6.57418 7.54470 7.07610
#
# Compressibility (1/GPa) = 0.01774363
#
# Stress axis : x y z
#
# Youngs Moduli (GPa) = 45.47541 60.62977 115.01632
#
# Poissons Ratio (x) = 0.34168 0.35937
# Poissons Ratio (y) = 0.25628 0.68516
# Poissons Ratio (z) = 0.14209 0.36118
#
# Static dielectric constant tensor:
#      x y z
#    x 3.210260 0.000000 0.000000 
#    y 0.000000 3.714980 0.000000 
#    z 0.000000 0.000000 3.919900 
# 
# 
# High freq. dielectric constant tensor:
#      x y z
#    x 1.710010 0.000000 0.000000 
#    y 0.000000 1.772220 0.000000 
#    z 0.000000 0.000000 1.785150 
# 
# From -- ./inp_files/33052.got.cif
#   From: 2010.03.12/outbox.cif.g09.slc.cpg/sg47_17_cif.got.tgz:33052.got - 2010.04.14 03:12:58.
