data_PCOD8195283
_publ_section_title
;
Structure prediction by ZEFSAII (Michael W. Deem and Ramdas Pophale) SiO2 
 PCOD8195283
Probable space group: P M M M
;
_chemical_formula_sum "Si O2"
_cell_formula_units_Z 36
_cell_length_a 18.420007
_cell_length_b 7.744548
_cell_length_c 17.033172
_cell_angle_alpha 90.000000
_cell_angle_beta 90.000000
_cell_angle_gamma 90.000000
_cell_volume 2429.860822
_symmetry_space_group_name_H-M "P M M M"
_symmetry_group_IT_number 47
_symmetry_cell_setting 'orthorhombic'
loop_
_space_group_symop_operation_xyz
x,y,z
-x,-y,z
x,-y,-z
-x,y,-z
-x,-y,-z
x,y,-z
-x,y,z
x,-y,z
loop_
_atom_site_type_symbol
_atom_site_label
_atom_site_fract_x
_atom_site_fract_y
_atom_site_fract_z
Si Si1 0.916519 0.306827 0.696649
Si Si2 0.086189 0.000000 0.587476
Si Si3 0.085753 0.301243 0.000000
Si Si4 0.166305 0.802075 0.152927
Si Si5 0.580824 0.000000 0.093114
Si Si6 0.317048 0.694347 0.909265
O O1 0.908871 0.500000 0.661711
O O2 0.886451 0.171255 0.632696
O O3 0.871827 0.297804 0.776597
O O4 0.000000 0.263670 0.717055
O O5 0.120057 0.000000 0.500000
O O6 0.000000 0.000000 0.581655
O O7 0.116673 0.208348 0.076299
O O8 0.110714 0.500000 0.000000
O O9 0.000000 0.281376 0.000000
O O10 0.243991 0.714744 0.140001
O O11 0.177258 0.000000 0.176390
O O12 0.622567 0.828134 0.122016
O O13 0.500000 0.000000 0.129974
O O14 0.575256 0.000000 0.000000
O O15 0.347386 0.500000 0.898848
O O16 0.298284 0.734120 0.000000
#
# Coordination Sequence:
#
# PCOD8195283 Si02
#       6
#     8   4   4   8   4   8
#     4  10  20  33  48  66  89 116 147 187 230 270
#     4   9  18  33  50  67  85 106 140 186 234 281
#     4  11  23  33  41  59  85 116 155 193 227 267
#     4  12  21  31  46  62  87 119 153 188 225 266
#     4   9  18  31  46  64  82 103 139 186 232 269
#     4  10  19  31  46  63  85 114 147 182 222 265
#
# _framework density 14.815664
#
# number of rings (size 3 to 8) (size 9 to 14) (size 15 to 20)
#    0.000    1.667    3.333    3.000    0.000    4.444 
#    0.000    4.444    0.000    0.000    0.000    0.000 
#    0.000    0.000    0.000    0.000    0.000    8.889 
#
# Total GULP energy -446469.909806 kJ/mol
# GULP energy per Si atom -12401.941939 kJ/mol
# Density = 1.478194 g / cm^3
# Si number density = 14.815664 Si / 1000 Ang^3
#
#
#
# Elastic Constant Matrix: (Units=GPa)
#
#
# Indices 1 2 3 4 5 6 
#
# 1 78.9328 37.4290 27.7180 0.0000 0.0000 0.0000
# 2 37.4290 117.8928 31.4886 0.0000 0.0000 0.0000
# 3 27.7180 31.4886 77.7654 0.0000 0.0000 0.0000
# 4 0.0000 0.0000 0.0000 -83.3490 0.0000 0.0000
# 5 0.0000 0.0000 0.0000 0.0000 -5.5065 0.0000
# 6 0.0000 0.0000 0.0000 0.0000 0.0000 16.8881
#
#
#
# Elastic Compliance Matrix: (Units=1/GPa)
#
#
# Indices 1 2 3 4 5 6 
#
# 1 0.015994 -0.003986 -0.004087 0.000000 0.000000 0.000000
# 2 -0.003986 0.010504 -0.002833 0.000000 0.000000 0.000000
# 3 -0.004087 -0.002833 0.015463 0.000000 0.000000 0.000000
# 4 0.000000 0.000000 0.000000 -0.011998 0.000000 0.000000
# 5 0.000000 0.000000 0.000000 0.000000 -0.181603 0.000000
# 6 0.000000 0.000000 0.000000 0.000000 0.000000 0.059213
#
#
# Mechanical properties :
#
#
# Convention : Reuss Voigt Hill
#
# Bulk Modulus (GPa) = 49.62721 51.98469 50.80595
# Shear Modulus (GPa) = -78.24980 -2.52979 -40.38980
#
# Velocity S-wave (km/s) = -7.27532 -1.30814 -5.22692
# Velocity P-wave (km/s) = 6.08313 5.73430 1.43567
#
# Compressibility (1/GPa) = 0.02015024
#
# Stress axis : x y z
#
# Youngs Moduli (GPa) = 62.52186 95.19765 64.67139
#
# Poissons Ratio (x) = 0.37950 0.26429
# Poissons Ratio (y) = 0.24924 0.18319
# Poissons Ratio (z) = 0.25551 0.26965
#
# Static dielectric constant tensor:
#      x y z
#    x 2.746120 0.000000 0.000000 
#    y 0.000000 3.119310 0.000000 
#    z 0.000000 0.000000 2.664840 
# 
# 
# High freq. dielectric constant tensor:
#      x y z
#    x 1.538050 0.000000 0.000000 
#    y 0.000000 1.592890 0.000000 
#    z 0.000000 0.000000 1.523560 
# 
# From -- ./inp_files/23272.got.cif
#   From: 2010.03.12/outbox.cif.g09.slc.cpg/sg47_12_cif.got.tgz:23272.got - 2010.04.14 03:12:58.
