data_PCOD8195857
_publ_section_title
;
Structure prediction by ZEFSAII (Michael W. Deem and Ramdas Pophale) SiO2 
 PCOD8195857
Probable space group: P M M M
;
_chemical_formula_sum "Si O2"
_cell_formula_units_Z 48
_cell_length_a 17.284173
_cell_length_b 15.771171
_cell_length_c 8.867714
_cell_angle_alpha 90.000000
_cell_angle_beta 90.000000
_cell_angle_gamma 90.000000
_cell_volume 2417.264773
_symmetry_space_group_name_H-M "P M M M"
_symmetry_group_IT_number 47
_symmetry_cell_setting 'orthorhombic'
loop_
_space_group_symop_operation_xyz
x,y,z
-x,-y,z
x,-y,-z
-x,y,-z
-x,-y,-z
x,y,-z
-x,y,z
x,-y,z
loop_
_atom_site_type_symbol
_atom_site_label
_atom_site_fract_x
_atom_site_fract_y
_atom_site_fract_z
Si Si1 0.091640 0.762628 0.827969
Si Si2 0.408921 0.500000 0.167896
Si Si3 0.589675 0.328641 0.677917
Si Si4 0.908071 0.406578 0.670677
Si Si5 0.500000 0.098896 0.168023
Si Si6 0.343879 0.827804 0.179665
Si Si7 0.807575 0.097467 0.323151
O O1 0.124332 0.671632 0.769845
O O2 0.124747 0.841138 0.734004
O O3 0.000000 0.766334 0.810595
O O4 0.118604 0.772203 0.000000
O O5 0.500000 0.500000 0.150363
O O6 0.382660 0.419600 0.264336
O O7 0.371504 0.500000 0.000000
O O8 0.600122 0.323360 0.500000
O O9 0.500000 0.309183 0.723820
O O10 0.651078 0.267595 0.759946
O O11 0.878900 0.393329 0.500000
O O12 0.879944 0.500000 0.729868
O O13 0.000000 0.404805 0.675922
O O14 0.578426 0.129166 0.248225
O O15 0.500000 0.000000 0.163125
O O16 0.500000 0.138005 0.000000
O O17 0.271987 0.878601 0.243633
O O18 0.338820 0.830802 0.000000
O O19 0.797575 0.110147 0.500000
O O20 0.828858 0.000000 0.283635
#
# Coordination Sequence:
#
# PCOD8195857 Si02
#       7
#     8   4   8   8   4   8   8
#     4  10  21  37  60  90 120 152 193 240 288 341
#     4   9  17  29  49  77 109 145 192 239 282 333
#     4  10  19  32  52  80 115 151 189 233 284 339
#     4   8  14  27  51  84 120 156 191 227 273 333
#     4   9  18  32  53  82 111 140 179 227 278 335
#     4  11  21  36  59  84 114 149 190 236 287 344
#     4  11  25  43  61  83 114 153 195 240 295 353
#
# _framework density 19.857154000000001
#
# number of rings (size 3 to 8) (size 9 to 14) (size 15 to 20)
#    0.000    2.167    0.833    3.250    0.000    5.333 
#    0.000    3.333    1.833    2.000    0.000    0.000 
#    0.000    0.000    0.000    0.000    0.000    0.000 
#
# Total GULP energy -595013.378877 kJ/mol
# GULP energy per Si atom -12396.112060 kJ/mol
# Density = 1.981196 g / cm^3
# Si number density = 19.857154 Si / 1000 Ang^3
#
#
#
# Elastic Constant Matrix: (Units=GPa)
#
#
# Indices 1 2 3 4 5 6 
#
# 1 44.1215 35.4480 27.7658 0.0000 0.0000 0.0000
# 2 35.4480 154.6246 66.9025 0.0000 0.0000 0.0000
# 3 27.7658 66.9025 111.5406 0.0000 0.0000 0.0000
# 4 0.0000 0.0000 0.0000 32.2536 0.0000 0.0000
# 5 0.0000 0.0000 0.0000 0.0000 29.4620 0.0000
# 6 0.0000 0.0000 0.0000 0.0000 0.0000 18.9813
#
#
#
# Elastic Compliance Matrix: (Units=1/GPa)
#
#
# Indices 1 2 3 4 5 6 
#
# 1 0.029304 -0.004810 -0.004410 0.000000 0.000000 0.000000
# 2 -0.004810 0.009523 -0.004515 0.000000 0.000000 0.000000
# 3 -0.004410 -0.004515 0.012771 0.000000 0.000000 0.000000
# 4 0.000000 0.000000 0.000000 0.031004 0.000000 0.000000
# 5 0.000000 0.000000 0.000000 0.000000 0.033942 0.000000
# 6 0.000000 0.000000 0.000000 0.000000 0.000000 0.052683
#
#
# Mechanical properties :
#
#
# Convention : Reuss Voigt Hill
#
# Bulk Modulus (GPa) = 41.44280 63.39104 52.41692
# Shear Modulus (GPa) = 24.42114 28.15074 26.28594
#
# Velocity S-wave (km/s) = 3.51071 3.76927 3.64229
# Velocity P-wave (km/s) = 6.11140 7.13695 6.64399
#
# Compressibility (1/GPa) = 0.02412965
#
# Stress axis : x y z
#
# Youngs Moduli (GPa) = 34.12484 105.00369 78.30225
#
# Poissons Ratio (x) = 0.50508 0.34528
# Poissons Ratio (y) = 0.16415 0.35352
# Poissons Ratio (z) = 0.15048 0.47407
#
# Static dielectric constant tensor:
#      x y z
#    x 3.315590 0.000000 0.000000 
#    y 0.000000 3.921090 0.000000 
#    z 0.000000 0.000000 3.681650 
# 
# 
# High freq. dielectric constant tensor:
#      x y z
#    x 1.741710 0.000000 0.000000 
#    y 0.000000 1.792320 0.000000 
#    z 0.000000 0.000000 1.773740 
# 
# From -- ./inp_files/9189.got.cif
#   From: 2010.03.12/outbox.cif.g09.slc.cpg/sg47_5_cif.got.tgz:9189.got - 2010.04.14 03:12:58.
