data_PCOD8195225
_publ_section_title
;
Structure prediction by ZEFSAII (Michael W. Deem and Ramdas Pophale) SiO2 
 PCOD8195225
Probable space group: P M M M
;
_chemical_formula_sum "Si O2"
_cell_formula_units_Z 52
_cell_length_a 9.593811
_cell_length_b 20.818159
_cell_length_c 14.133303
_cell_angle_alpha 90.000000
_cell_angle_beta 90.000000
_cell_angle_gamma 90.000000
_cell_volume 2822.780765
_symmetry_space_group_name_H-M "P M M M"
_symmetry_group_IT_number 47
_symmetry_cell_setting 'orthorhombic'
loop_
_space_group_symop_operation_xyz
x,y,z
-x,-y,z
x,-y,-z
-x,y,-z
-x,-y,-z
x,y,-z
-x,y,z
x,-y,z
loop_
_atom_site_type_symbol
_atom_site_label
_atom_site_fract_x
_atom_site_fract_y
_atom_site_fract_z
Si Si1 0.662695 0.259524 0.608891
Si Si2 0.341847 0.070516 0.887902
Si Si3 0.160950 0.813014 0.109897
Si Si4 0.834668 0.571320 0.105547
Si Si5 0.842424 0.000000 0.613415
Si Si6 0.654440 0.114826 0.611746
Si Si7 0.835772 0.688431 0.770586
O O1 0.698278 0.273794 0.500000
O O2 0.500000 0.270935 0.628735
O O3 0.704860 0.186611 0.636360
O O4 0.755143 0.307261 0.671488
O O5 0.500000 0.084527 0.857534
O O6 0.246653 0.127248 0.845315
O O7 0.294652 0.000000 0.849909
O O8 0.326871 0.070495 0.000000
O O9 0.203352 0.748469 0.163599
O O10 0.000000 0.829800 0.123894
O O11 0.197431 0.802099 0.000000
O O12 0.789068 0.500000 0.139651
O O13 0.777949 0.624491 0.178060
O O14 0.000000 0.576475 0.101295
O O15 0.775511 0.584507 0.000000
O O16 0.763157 0.936881 0.653382
O O17 0.842883 0.000000 0.500000
O O18 0.000000 0.000000 0.652483
O O19 0.644834 0.107363 0.500000
O O20 0.500000 0.101558 0.654267
O O21 0.000000 0.684914 0.750325
#
# Coordination Sequence:
#
# PCOD8195225 Si02
#       7
#     8   8   8   8   4   8   8
#     4   9  19  35  52  69  92 127 170 211 251 299
#     4   8  14  25  41  61  86 119 161 205 242 278
#     4   9  17  28  43  67  99 129 155 189 239 297
#     4   8  14  27  50  80 112 143 170 195 231 287
#     4   9  15  21  35  63  91 111 138 185 248 307
#     4   8  14  26  43  60  80 111 152 195 239 292
#     4  10  19  30  49  77 104 128 161 206 250 290
#
# _framework density 18.421552999999999
#
# number of rings (size 3 to 8) (size 9 to 14) (size 15 to 20)
#    0.000    3.308    0.000    2.538    0.000    4.615 
#    0.000    3.077    1.692    2.308    0.000    4.308 
#    0.000    0.000    0.000    0.000    0.000    0.000 
#
# Total GULP energy -644583.371279 kJ/mol
# GULP energy per Si atom -12395.834063 kJ/mol
# Density = 1.837962 g / cm^3
# Si number density = 18.421553 Si / 1000 Ang^3
#
#
#
# Elastic Constant Matrix: (Units=GPa)
#
#
# Indices 1 2 3 4 5 6 
#
# 1 66.6819 62.8366 35.1150 0.0000 0.0000 0.0000
# 2 62.8366 152.2442 64.8152 0.0000 0.0000 0.0000
# 3 35.1150 64.8152 71.0924 0.0000 0.0000 0.0000
# 4 0.0000 0.0000 0.0000 23.0537 0.0000 0.0000
# 5 0.0000 0.0000 0.0000 0.0000 13.2755 0.0000
# 6 0.0000 0.0000 0.0000 0.0000 0.0000 12.6019
#
#
#
# Elastic Compliance Matrix: (Units=1/GPa)
#
#
# Indices 1 2 3 4 5 6 
#
# 1 0.025550 -0.008454 -0.004912 0.000000 0.000000 0.000000
# 2 -0.008454 0.013532 -0.008162 0.000000 0.000000 0.000000
# 3 -0.004912 -0.008162 0.023934 0.000000 0.000000 0.000000
# 4 0.000000 0.000000 0.000000 0.043377 0.000000 0.000000
# 5 0.000000 0.000000 0.000000 0.000000 0.075327 0.000000
# 6 0.000000 0.000000 0.000000 0.000000 0.000000 0.079353
#
#
# Mechanical properties :
#
#
# Convention : Reuss Voigt Hill
#
# Bulk Modulus (GPa) = 50.10121 68.39469 59.24795
# Shear Modulus (GPa) = 16.08840 18.26967 17.17904
#
# Velocity S-wave (km/s) = 2.95845 3.15263 3.05708
# Velocity P-wave (km/s) = 6.23907 7.10354 6.68529
#
# Compressibility (1/GPa) = 0.01995960
#
# Stress axis : x y z
#
# Youngs Moduli (GPa) = 39.13895 73.89675 41.78193
#
# Poissons Ratio (x) = 0.62472 0.20525
# Poissons Ratio (y) = 0.33088 0.34102
# Poissons Ratio (z) = 0.19227 0.60313
#
# Static dielectric constant tensor:
#      x y z
#    x 3.236240 0.000000 0.000000 
#    y 0.000000 3.597060 0.000000 
#    z 0.000000 0.000000 3.189540 
# 
# 
# High freq. dielectric constant tensor:
#      x y z
#    x 1.689320 0.000000 0.000000 
#    y 0.000000 1.703100 0.000000 
#    z 0.000000 0.000000 1.704240 
# 
# From -- ./inp_files/21386.got.cif
#   From: 2010.03.12/outbox.cif.g09.slc.cpg/sg47_11_cif.got.tgz:21386.got - 2010.04.14 03:12:58.
