data_PCOD8195624
_publ_section_title
;
Structure prediction by ZEFSAII (Michael W. Deem and Ramdas Pophale) SiO2 
 PCOD8195624
Probable space group: P M M M
;
_chemical_formula_sum "Si O2"
_cell_formula_units_Z 52
_cell_length_a 27.715343
_cell_length_b 8.039956
_cell_length_c 12.795913
_cell_angle_alpha 90.000000
_cell_angle_beta 90.000000
_cell_angle_gamma 90.000000
_cell_volume 2851.315063
_symmetry_space_group_name_H-M "P M M M"
_symmetry_group_IT_number 47
_symmetry_cell_setting 'orthorhombic'
loop_
_space_group_symop_operation_xyz
x,y,z
-x,-y,z
x,-y,-z
-x,y,-z
-x,-y,-z
x,y,-z
-x,y,z
x,-y,z
loop_
_atom_site_type_symbol
_atom_site_label
_atom_site_fract_x
_atom_site_fract_y
_atom_site_fract_z
Si Si1 0.727637 0.808942 0.117630
Si Si2 0.622791 0.693873 0.881936
Si Si3 0.223752 0.688444 0.318305
Si Si4 0.607520 0.690549 0.500000
Si Si5 0.554161 0.698301 0.701577
Si Si6 0.882689 0.689418 0.623651
Si Si7 0.288071 0.184539 0.500000
Si Si8 0.945824 0.000000 0.624203
O O1 0.671462 0.791370 0.146044
O O2 0.759934 0.706818 0.198622
O O3 0.742728 0.000000 0.125661
O O4 0.736969 0.740325 0.000000
O O5 0.633632 0.500000 0.863804
O O6 0.580541 0.759651 0.806821
O O7 0.605936 0.730151 0.000000
O O8 0.229686 0.500000 0.355906
O O9 0.167985 0.740400 0.324733
O O10 0.256135 0.795876 0.396250
O O11 0.592138 0.500000 0.500000
O O12 0.583976 0.772237 0.603287
O O13 0.665441 0.697705 0.500000
O O14 0.500000 0.770824 0.699887
O O15 0.552949 0.500000 0.699325
O O16 0.876461 0.698945 0.500000
O O17 0.898621 0.500000 0.655793
O O18 0.920433 0.829119 0.663676
O O19 0.309206 0.000000 0.500000
O O20 0.946406 0.000000 0.500000
O O21 0.000000 0.000000 0.669500
#
# Coordination Sequence:
#
# PCOD8195624 Si02
#       8
#     8   8   8   4   8   8   4   4
#     4  10  21  35  51  73 102 136 171 209 254 309
#     4   9  17  30  48  68  91 120 154 197 247 299
#     4  11  21  34  52  75 104 138 176 215 258 309
#     4  10  19  32  48  66  92 122 157 199 240 295
#     4   9  17  29  47  69  89 114 152 200 249 292
#     4   9  18  31  48  72 105 141 179 225 269 313
#     4  12  24  33  51  77 102 135 169 208 253 308
#     4   9  18  30  48  72 103 147 189 225 264 310
#
# _framework density 18.237200000000001
#
# number of rings (size 3 to 8) (size 9 to 14) (size 15 to 20)
#    0.000    2.231    0.769    2.769    2.154    3.692 
#    0.000    3.077    0.000    2.308    0.000    2.154 
#    0.000    1.231    0.000    3.385    0.000    0.154 
#
# Total GULP energy -644751.725644 kJ/mol
# GULP energy per Si atom -12399.071647 kJ/mol
# Density = 1.819569 g / cm^3
# Si number density = 18.237200 Si / 1000 Ang^3
#
#
#
# Elastic Constant Matrix: (Units=GPa)
#
#
# Indices 1 2 3 4 5 6 
#
# 1 133.3149 36.9145 59.3392 0.0000 0.0000 0.0000
# 2 36.9145 54.1485 20.4775 0.0000 0.0000 0.0000
# 3 59.3392 20.4775 97.1265 0.0000 0.0000 0.0000
# 4 0.0000 0.0000 0.0000 14.4028 0.0000 0.0000
# 5 0.0000 0.0000 0.0000 0.0000 16.1410 0.0000
# 6 0.0000 0.0000 0.0000 0.0000 0.0000 16.2868
#
#
#
# Elastic Compliance Matrix: (Units=1/GPa)
#
#
# Indices 1 2 3 4 5 6 
#
# 1 0.011749 -0.005754 -0.005965 0.000000 0.000000 0.000000
# 2 -0.005754 0.022886 -0.001310 0.000000 0.000000 0.000000
# 3 -0.005965 -0.001310 0.014216 0.000000 0.000000 0.000000
# 4 0.000000 0.000000 0.000000 0.069431 0.000000 0.000000
# 5 0.000000 0.000000 0.000000 0.000000 0.061954 0.000000
# 6 0.000000 0.000000 0.000000 0.000000 0.000000 0.061399
#
#
# Mechanical properties :
#
#
# Convention : Reuss Voigt Hill
#
# Bulk Modulus (GPa) = 43.87152 57.56136 50.71644
# Shear Modulus (GPa) = 18.16257 20.55670 19.35963
#
# Velocity S-wave (km/s) = 3.15922 3.36100 3.26167
# Velocity P-wave (km/s) = 6.11685 6.83322 6.48494
#
# Compressibility (1/GPa) = 0.02279383
#
# Stress axis : x y z
#
# Youngs Moduli (GPa) = 85.11037 43.69538 70.34149
#
# Poissons Ratio (x) = 0.25143 0.41960
# Poissons Ratio (y) = 0.48973 0.09212
# Poissons Ratio (z) = 0.50770 0.05722
#
# Static dielectric constant tensor:
#      x y z
#    x 3.321100 0.000000 0.000000 
#    y 0.000000 3.277410 0.000000 
#    z 0.000000 0.000000 3.332460 
# 
# 
# High freq. dielectric constant tensor:
#      x y z
#    x 1.691170 0.000000 0.000000 
#    y 0.000000 1.699690 0.000000 
#    z 0.000000 0.000000 1.689450 
# 
# From -- ./inp_files/19837.got.cif
#   From: 2010.03.12/outbox.cif.g09.slc.cpg/sg47_10_cif.got.tgz:19837.got - 2010.04.14 03:12:58.
