data_PCOD8195936
_publ_section_title
;
Structure prediction by ZEFSAII (Michael W. Deem and Ramdas Pophale) SiO2 
 PCOD8195936
Probable space group: P M M M
;
_chemical_formula_sum "Si O2"
_cell_formula_units_Z 64
_cell_length_a 14.234630
_cell_length_b 9.827514
_cell_length_c 23.653221
_cell_angle_alpha 90.000000
_cell_angle_beta 90.000000
_cell_angle_gamma 90.000000
_cell_volume 3308.873345
_symmetry_space_group_name_H-M "P M M M"
_symmetry_group_IT_number 47
_symmetry_cell_setting 'orthorhombic'
loop_
_space_group_symop_operation_xyz
x,y,z
-x,-y,z
x,-y,-z
-x,y,-z
-x,-y,-z
x,y,-z
-x,y,z
x,-y,z
loop_
_atom_site_type_symbol
_atom_site_label
_atom_site_fract_x
_atom_site_fract_y
_atom_site_fract_z
Si Si1 0.243859 0.154319 0.564189
Si Si2 0.761038 0.157386 0.064484
Si Si3 0.109541 0.343727 0.125307
Si Si4 0.600987 0.843621 0.854912
Si Si5 0.395933 0.702856 0.743672
Si Si6 0.108196 0.157399 0.335464
Si Si7 0.807323 0.353222 0.243172
Si Si8 0.605582 0.340739 0.382284
O O1 0.209602 0.173388 0.500000
O O2 0.153837 0.183576 0.603344
O O3 0.326215 0.263103 0.575045
O O4 0.281320 0.000000 0.574235
O O5 0.853927 0.246881 0.075146
O O6 0.681375 0.221666 0.105825
O O7 0.783535 0.000000 0.078441
O O8 0.728009 0.174201 0.000000
O O9 0.133899 0.500000 0.110982
O O10 0.158250 0.295457 0.183379
O O11 0.000000 0.320262 0.131942
O O12 0.500000 0.778086 0.871615
O O13 0.615054 0.829416 0.786977
O O14 0.600019 0.000000 0.870440
O O15 0.500000 0.632573 0.752896
O O16 0.304570 0.613728 0.758108
O O17 0.388990 0.740246 0.677433
O O18 0.165744 0.245456 0.290668
O O19 0.000000 0.204295 0.337847
O O20 0.116203 0.000000 0.317557
O O21 0.856375 0.500000 0.254764
O O22 0.500000 0.333135 0.406798
O O23 0.635108 0.500000 0.374398
#
# Coordination Sequence:
#
# PCOD8195936 Si02
#       8
#     8   8   8   8   8   8   8   8
#     4  10  22  39  58  81 110 146 188 232 277 326
#     4  10  21  37  58  83 110 143 187 236 279 322
#     4  10  22  39  57  80 111 147 185 226 279 338
#     4   9  18  33  54  83 117 150 183 222 273 332
#     4  10  19  32  55  86 116 146 179 218 268 329
#     4  10  22  39  59  84 112 144 184 230 281 333
#     4  11  21  36  60  87 116 147 180 224 275 332
#     4  10  21  37  57  83 115 149 185 225 273 330
#
# _framework density 19.341930000000001
#
# number of rings (size 3 to 8) (size 9 to 14) (size 15 to 20)
#    0.000    2.000    2.500    0.750    0.000    5.000 
#    0.000    6.250    0.000    0.375    0.000    2.625 
#    0.000    0.000    0.000    0.000    0.000    0.000 
#
# Total GULP energy -792972.592158 kJ/mol
# GULP energy per Si atom -12390.196752 kJ/mol
# Density = 1.929791 g / cm^3
# Si number density = 19.341930 Si / 1000 Ang^3
#
#
#
# Elastic Constant Matrix: (Units=GPa)
#
#
# Indices 1 2 3 4 5 6 
#
# 1 115.8517 47.3620 43.3387 0.0000 0.0000 0.0000
# 2 47.3620 66.3413 45.7486 0.0000 0.0000 0.0000
# 3 43.3387 45.7486 101.6953 0.0000 0.0000 0.0000
# 4 0.0000 0.0000 0.0000 16.4061 0.0000 0.0000
# 5 0.0000 0.0000 0.0000 0.0000 22.6937 0.0000
# 6 0.0000 0.0000 0.0000 0.0000 0.0000 17.3014
#
#
#
# Elastic Compliance Matrix: (Units=1/GPa)
#
#
# Indices 1 2 3 4 5 6 
#
# 1 0.012436 -0.007573 -0.001893 0.000000 0.000000 0.000000
# 2 -0.007573 0.026464 -0.008678 0.000000 0.000000 0.000000
# 3 -0.001893 -0.008678 0.014544 0.000000 0.000000 0.000000
# 4 0.000000 0.000000 0.000000 0.060953 0.000000 0.000000
# 5 0.000000 0.000000 0.000000 0.000000 0.044065 0.000000
# 6 0.000000 0.000000 0.000000 0.000000 0.000000 0.057799
#
#
# Mechanical properties :
#
#
# Convention : Reuss Voigt Hill
#
# Bulk Modulus (GPa) = 58.28702 61.86521 60.07611
# Shear Modulus (GPa) = 19.35987 21.10951 20.23469
#
# Velocity S-wave (km/s) = 3.16718 3.30720 3.23794
# Velocity P-wave (km/s) = 6.60115 6.82919 6.71614
#
# Compressibility (1/GPa) = 0.01715648
#
# Stress axis : x y z
#
# Youngs Moduli (GPa) = 80.41392 37.78720 68.75747
#
# Poissons Ratio (x) = 0.28615 0.13016
# Poissons Ratio (y) = 0.60894 0.59667
# Poissons Ratio (z) = 0.15222 0.32791
#
# Static dielectric constant tensor:
#      x y z
#    x 3.764260 0.000000 0.000000 
#    y 0.000000 3.363320 0.000000 
#    z 0.000000 0.000000 3.451450 
# 
# 
# High freq. dielectric constant tensor:
#      x y z
#    x 1.761280 0.000000 0.000000 
#    y 0.000000 1.734650 0.000000 
#    z 0.000000 0.000000 1.746540 
# 
# From -- ./inp_files/12678.got.cif
#   From: 2010.03.12/outbox.cif.g09.slc.cpg/sg47_7_cif.got.tgz:12678.got - 2010.04.14 03:12:58.
