data_PCOD8195228
_publ_section_title
;
Structure prediction by ZEFSAII (Michael W. Deem and Ramdas Pophale) SiO2 
 PCOD8195228
Probable space group: P M M M
;
_chemical_formula_sum "Si O2"
_cell_formula_units_Z 64
_cell_length_a 14.785721
_cell_length_b 8.643572
_cell_length_c 25.176397
_cell_angle_alpha 90.000000
_cell_angle_beta 90.000000
_cell_angle_gamma 90.000000
_cell_volume 3217.579892
_symmetry_space_group_name_H-M "P M M M"
_symmetry_group_IT_number 47
_symmetry_cell_setting 'orthorhombic'
loop_
_space_group_symop_operation_xyz
x,y,z
-x,-y,z
x,-y,-z
-x,y,-z
-x,-y,-z
x,y,-z
-x,y,z
x,-y,z
loop_
_atom_site_type_symbol
_atom_site_label
_atom_site_fract_x
_atom_site_fract_y
_atom_site_fract_z
Si Si1 0.398959 0.320330 0.582590
Si Si2 0.753812 0.184150 0.138825
Si Si3 0.600091 0.175058 0.306685
Si Si4 0.601594 0.816312 0.940797
Si Si5 0.786417 0.822282 0.441006
Si Si6 0.897223 0.317332 0.655649
Si Si7 0.762083 0.318367 0.252036
Si Si8 0.900780 0.816336 0.058089
O O1 0.500000 0.265876 0.563601
O O2 0.386308 0.500000 0.569929
O O3 0.389355 0.293481 0.645106
O O4 0.318475 0.228881 0.554359
O O5 0.662789 0.241405 0.108628
O O6 0.780862 0.275527 0.191692
O O7 0.832025 0.245648 0.100895
O O8 0.753189 0.000000 0.149360
O O9 0.500000 0.186557 0.281569
O O10 0.670486 0.224571 0.262510
O O11 0.619257 0.000000 0.326432
O O12 0.500000 0.757599 0.929632
O O13 0.606098 0.000000 0.941825
O O14 0.632912 0.758006 0.000000
O O15 0.828492 0.797550 0.500000
O O16 0.844788 0.730317 0.397880
O O17 0.789555 0.000000 0.423972
O O18 0.903040 0.500000 0.655572
O O19 0.841959 0.261234 0.707958
O O20 0.000000 0.248495 0.656784
O O21 0.746532 0.500000 0.259205
O O22 0.000000 0.756756 0.073982
O O23 0.898132 0.000000 0.056652
O O24 0.873810 0.752594 0.000000
#
# Coordination Sequence:
#
# PCOD8195228 Si02
#       8
#     8   8   8   8   8   8   8   8
#     4  10  20  35  58  88 121 157 193 227 269 326
#     4  10  19  30  49  77 106 137 178 227 277 332
#     4  10  20  35  58  85 112 144 183 228 276 327
#     4   8  14  26  46  73 104 138 179 227 275 322
#     4  11  24  40  61  91 124 154 188 236 290 342
#     4  10  23  44  66  84 106 145 196 244 292 349
#     4  11  23  38  56  80 112 150 189 231 281 339
#     4   8  14  26  46  73 103 133 170 222 280 332
#
# _framework density 19.890726000000001
#
# number of rings (size 3 to 8) (size 9 to 14) (size 15 to 20)
#    0.000    2.250    1.250    2.625    0.000    6.250 
#    0.000    3.750    0.000    1.500    0.000    1.750 
#    0.000    0.000    0.000    0.000    0.000    0.000 
#
# Total GULP energy -793099.079441 kJ/mol
# GULP energy per Si atom -12392.173116 kJ/mol
# Density = 1.984545 g / cm^3
# Si number density = 19.890726 Si / 1000 Ang^3
#
#
#
# Elastic Constant Matrix: (Units=GPa)
#
#
# Indices 1 2 3 4 5 6 
#
# 1 133.8644 23.2592 75.9871 0.0000 0.0000 0.0000
# 2 23.2592 30.5762 15.9120 0.0000 0.0000 0.0000
# 3 75.9871 15.9120 128.2402 0.0000 0.0000 0.0000
# 4 0.0000 0.0000 0.0000 6.3585 0.0000 0.0000
# 5 0.0000 0.0000 0.0000 0.0000 -38.0938 0.0000
# 6 0.0000 0.0000 0.0000 0.0000 0.0000 16.7050
#
#
#
# Elastic Compliance Matrix: (Units=1/GPa)
#
#
# Indices 1 2 3 4 5 6 
#
# 1 0.012173 -0.005886 -0.006482 0.000000 0.000000 0.000000
# 2 -0.005886 0.037809 -0.001204 0.000000 0.000000 0.000000
# 3 -0.006482 -0.001204 0.011788 0.000000 0.000000 0.000000
# 4 0.000000 0.000000 0.000000 0.157270 0.000000 0.000000
# 5 0.000000 0.000000 0.000000 0.000000 -0.026251 0.000000
# 6 0.000000 0.000000 0.000000 0.000000 0.000000 0.059862
#
#
# Mechanical properties :
#
#
# Convention : Reuss Voigt Hill
#
# Bulk Modulus (GPa) = 28.88027 58.11081 43.49554
# Shear Modulus (GPa) = 17.16225 8.82879 12.99552
#
# Velocity S-wave (km/s) = 2.94058 2.10909 2.55884
# Velocity P-wave (km/s) = 5.10689 5.93376 5.53578
#
# Compressibility (1/GPa) = 0.03462571
#
# Stress axis : x y z
#
# Youngs Moduli (GPa) = 82.15125 26.44867 84.83016
#
# Poissons Ratio (x) = 0.15568 0.54990
# Poissons Ratio (y) = 0.48356 0.10209
# Poissons Ratio (z) = 0.53254 0.03183
#
# Static dielectric constant tensor:
#      x y z
#    x 4.035820 0.000000 0.000000 
#    y 0.000000 3.258940 0.000000 
#    z 0.000000 0.000000 3.649030 
# 
# 
# High freq. dielectric constant tensor:
#      x y z
#    x 1.782980 0.000000 0.000000 
#    y 0.000000 1.742970 0.000000 
#    z 0.000000 0.000000 1.776590 
# 
# From -- ./inp_files/32795.got.cif
#   From: 2010.03.12/outbox.cif.g09.slc.cpg/sg47_17_cif.got.tgz:32795.got - 2010.04.14 03:12:58.
