data_PCOD8195784
_publ_section_title
;
Structure prediction by ZEFSAII (Michael W. Deem and Ramdas Pophale) SiO2 
 PCOD8195784
Probable space group: P M M M
;
_chemical_formula_sum "Si O2"
_cell_formula_units_Z 48
_cell_length_a 16.419408
_cell_length_b 18.527557
_cell_length_c 8.874576
_cell_angle_alpha 90.000000
_cell_angle_beta 90.000000
_cell_angle_gamma 90.000000
_cell_volume 2699.748233
_symmetry_space_group_name_H-M "P M M M"
_symmetry_group_IT_number 47
_symmetry_cell_setting 'orthorhombic'
loop_
_space_group_symop_operation_xyz
x,y,z
-x,-y,z
x,-y,-z
-x,y,-z
-x,-y,-z
x,y,-z
-x,y,z
x,-y,z
loop_
_atom_site_type_symbol
_atom_site_label
_atom_site_fract_x
_atom_site_fract_y
_atom_site_fract_z
Si Si1 0.000000 0.646654 0.322662
Si Si2 0.742451 0.299060 0.678443
Si Si3 0.160688 0.416114 0.824905
Si Si4 0.163601 0.828082 0.823275
Si Si5 0.591027 0.207990 0.677055
Si Si6 0.319068 0.919049 0.824209
Si Si7 0.000000 0.184954 0.322536
O O1 0.921140 0.608499 0.255965
O O2 0.000000 0.730675 0.280514
O O3 0.000000 0.634896 0.500000
O O4 0.749811 0.306403 0.500000
O O5 0.760456 0.375840 0.755187
O O6 0.810911 0.244163 0.736076
O O7 0.653135 0.270872 0.729735
O O8 0.175396 0.500000 0.796279
O O9 0.152967 0.397496 0.000000
O O10 0.228143 0.891167 0.790228
O O11 0.077950 0.853110 0.753727
O O12 0.156039 0.811256 0.000000
O O13 0.597064 0.197976 0.500000
O O14 0.500000 0.229965 0.728160
O O15 0.613804 0.131129 0.747201
O O16 0.326877 0.000000 0.759458
O O17 0.337420 0.917584 0.000000
O O18 0.000000 0.170690 0.500000
#
# Coordination Sequence:
#
# PCOD8195784 Si02
#       7
#     4   8   8   8   8   8   4
#     4  11  22  34  51  75 104 137 171 211 254 296
#     4  10  19  33  53  75 100 132 169 209 252 298
#     4  11  23  36  51  74 105 138 171 209 253 300
#     4  10  19  32  52  73  96 133 174 211 253 298
#     4   9  19  35  55  80 107 133 165 206 251 302
#     4   9  19  35  53  76 106 136 168 207 251 301
#     4  11  21  32  49  74 101 130 170 218 257 293
#
# _framework density 17.779434999999999
#
# number of rings (size 3 to 8) (size 9 to 14) (size 15 to 20)
#    0.000    2.000    1.667    2.250    0.000    5.333 
#    0.000    2.083    0.000    3.000    0.000    3.500 
#    0.000    0.000    0.000    0.000    0.000    0.000 
#
# Total GULP energy -595285.809951 kJ/mol
# GULP energy per Si atom -12401.787707 kJ/mol
# Density = 1.773897 g / cm^3
# Si number density = 17.779435 Si / 1000 Ang^3
#
#
#
# Elastic Constant Matrix: (Units=GPa)
#
#
# Indices 1 2 3 4 5 6 
#
# 1 131.8137 49.3000 39.4005 0.0000 0.0000 0.0000
# 2 49.3000 92.4490 38.5451 0.0000 0.0000 0.0000
# 3 39.4005 38.5451 63.8278 0.0000 0.0000 0.0000
# 4 0.0000 0.0000 0.0000 21.9484 0.0000 0.0000
# 5 0.0000 0.0000 0.0000 0.0000 25.8217 0.0000
# 6 0.0000 0.0000 0.0000 0.0000 0.0000 20.0572
#
#
#
# Elastic Compliance Matrix: (Units=1/GPa)
#
#
# Indices 1 2 3 4 5 6 
#
# 1 0.010195 -0.003759 -0.004023 0.000000 0.000000 0.000000
# 2 -0.003759 0.015843 -0.007247 0.000000 0.000000 0.000000
# 3 -0.004023 -0.007247 0.022527 0.000000 0.000000 0.000000
# 4 0.000000 0.000000 0.000000 0.045561 0.000000 0.000000
# 5 0.000000 0.000000 0.000000 0.000000 0.038727 0.000000
# 6 0.000000 0.000000 0.000000 0.000000 0.000000 0.049857
#
#
# Mechanical properties :
#
#
# Convention : Reuss Voigt Hill
#
# Bulk Modulus (GPa) = 54.03545 60.28688 57.16117
# Shear Modulus (GPa) = 22.83749 24.28844 23.56297
#
# Velocity S-wave (km/s) = 3.58787 3.70009 3.64441
# Velocity P-wave (km/s) = 6.90085 7.22745 7.06604
#
# Compressibility (1/GPa) = 0.01850637
#
# Stress axis : x y z
#
# Youngs Moduli (GPa) = 98.08683 63.11960 44.39132
#
# Poissons Ratio (x) = 0.23729 0.17859
# Poissons Ratio (y) = 0.36874 0.32170
# Poissons Ratio (z) = 0.39462 0.45742
#
# Static dielectric constant tensor:
#      x y z
#    x 3.370610 0.000000 0.000000 
#    y 0.000000 3.311700 0.000000 
#    z 0.000000 0.000000 3.350790 
# 
# 
# High freq. dielectric constant tensor:
#      x y z
#    x 1.686690 0.000000 0.000000 
#    y 0.000000 1.671070 0.000000 
#    z 0.000000 0.000000 1.697710 
# 
# From -- ./inp_files/6532.got.cif
#   From: 2010.03.12/outbox.cif.g09.slc.cpg/sg47_4_cif.got.tgz:6532.got - 2010.04.14 03:12:58.
