data_PCOD8195256
_publ_section_title
;
Structure prediction by ZEFSAII (Michael W. Deem and Ramdas Pophale) SiO2 
 PCOD8195256
Probable space group: P M M M
;
_chemical_formula_sum "Si O2"
_cell_formula_units_Z 48
_cell_length_a 8.052435
_cell_length_b 22.319524
_cell_length_c 20.034497
_cell_angle_alpha 90.000000
_cell_angle_beta 90.000000
_cell_angle_gamma 90.000000
_cell_volume 3600.730350
_symmetry_space_group_name_H-M "P M M M"
_symmetry_group_IT_number 47
_symmetry_cell_setting 'orthorhombic'
loop_
_space_group_symop_operation_xyz
x,y,z
-x,-y,z
x,-y,-z
-x,y,-z
-x,-y,-z
x,y,-z
-x,y,z
x,-y,z
loop_
_atom_site_type_symbol
_atom_site_label
_atom_site_fract_x
_atom_site_fract_y
_atom_site_fract_z
Si Si1 0.303206 0.270304 0.576519
Si Si2 0.500000 0.932009 0.420367
Si Si3 0.814847 0.141962 0.579280
Si Si4 0.693992 0.615797 0.654284
Si Si5 0.194024 0.500000 0.577490
Si Si6 0.194927 0.569083 0.928495
Si Si7 0.693471 0.567015 0.790144
O O1 0.254401 0.283457 0.500000
O O2 0.500000 0.262537 0.583356
O O3 0.217440 0.209833 0.603086
O O4 0.228858 0.324769 0.620712
O O5 0.500000 0.928813 0.500000
O O6 0.668249 0.900656 0.392087
O O7 0.500000 0.000000 0.394543
O O8 0.806469 0.139533 0.500000
O O9 0.000000 0.121688 0.603734
O O10 0.500000 0.627015 0.659195
O O11 0.725686 0.558524 0.608932
O O12 0.770019 0.605423 0.728825
O O13 0.237790 0.500000 0.500000
O O14 0.000000 0.500000 0.591681
O O15 0.249183 0.500000 0.928843
O O16 0.272887 0.599126 0.861961
O O17 0.000000 0.576336 0.923491
O O18 0.256210 0.597310 0.000000
O O19 0.500000 0.561287 0.777649
O O20 0.773237 0.500000 0.789108
#
# Coordination Sequence:
#
# PCOD8195256 Si02
#       7
#     8   4   8   8   4   8   8
#     4   9  16  27  42  55  67  90 124 157 188 224
#     4   9  16  26  40  58  80  99 117 143 176 222
#     4   9  16  26  40  56  75  97 120 149 183 218
#     4  10  19  31  44  55  68  91 120 149 189 236
#     4  11  23  33  39  51  70  87 112 155 197 234
#     4   8  14  24  37  52  68  87 109 129 159 212
#     4   9  16  26  38  53  71  87 108 141 181 224
#
# _framework density 13.330629
#
# number of rings (size 3 to 8) (size 9 to 14) (size 15 to 20)
#    0.000    2.833    1.667    1.250    0.000    3.333 
#    0.000    5.000    0.000    0.000    0.000    0.000 
#    0.000    0.000    0.000    0.000    0.000    0.000 
#
# Total GULP energy -594677.959980 kJ/mol
# GULP energy per Si atom -12389.124166 kJ/mol
# Density = 1.330029 g / cm^3
# Si number density = 13.330629 Si / 1000 Ang^3
#
#
#
# Elastic Constant Matrix: (Units=GPa)
#
#
# Indices 1 2 3 4 5 6 
#
# 1 41.5544 31.3189 16.9001 0.0000 0.0000 0.0000
# 2 31.3189 80.5246 30.5088 0.0000 0.0000 0.0000
# 3 16.9001 30.5088 83.1840 0.0000 0.0000 0.0000
# 4 0.0000 0.0000 0.0000 3.2459 0.0000 0.0000
# 5 0.0000 0.0000 0.0000 0.0000 10.8756 0.0000
# 6 0.0000 0.0000 0.0000 0.0000 0.0000 8.1667
#
#
#
# Elastic Compliance Matrix: (Units=1/GPa)
#
#
# Indices 1 2 3 4 5 6 
#
# 1 0.034459 -0.012485 -0.002422 0.000000 0.000000 0.000000
# 2 -0.012485 0.018946 -0.004412 0.000000 0.000000 0.000000
# 3 -0.002422 -0.004412 0.014132 0.000000 0.000000 0.000000
# 4 0.000000 0.000000 0.000000 0.308082 0.000000 0.000000
# 5 0.000000 0.000000 0.000000 0.000000 0.091949 0.000000
# 6 0.000000 0.000000 0.000000 0.000000 0.000000 0.122449
#
#
# Mechanical properties :
#
#
# Convention : Reuss Voigt Hill
#
# Bulk Modulus (GPa) = 34.60303 40.30207 37.45255
# Shear Modulus (GPa) = 7.83345 12.89331 10.36338
#
# Velocity S-wave (km/s) = 2.42673 3.11335 2.79123
# Velocity P-wave (km/s) = 5.81944 6.57436 6.20839
#
# Compressibility (1/GPa) = 0.02889921
#
# Stress axis : x y z
#
# Youngs Moduli (GPa) = 29.01960 52.78141 70.76213
#
# Poissons Ratio (x) = 0.65897 0.17139
# Poissons Ratio (y) = 0.36231 0.31222
# Poissons Ratio (z) = 0.07029 0.23288
#
# Static dielectric constant tensor:
#      x y z
#    x 2.694960 0.000000 0.000000 
#    y 0.000000 2.533750 0.000000 
#    z 0.000000 0.000000 2.779750 
# 
# 
# High freq. dielectric constant tensor:
#      x y z
#    x 1.512140 0.000000 0.000000 
#    y 0.000000 1.465150 0.000000 
#    z 0.000000 0.000000 1.478780 
# 
# From -- ./inp_files/26918.got.cif
#   From: 2010.03.12/outbox.cif.g09.slc.cpg/sg47_14_cif.got.tgz:26918.got - 2010.04.14 03:12:58.
