data_PCOD8195262
_publ_section_title
;
Structure prediction by ZEFSAII (Michael W. Deem and Ramdas Pophale) SiO2 
 PCOD8195262
Probable space group: P M M M
;
_chemical_formula_sum "Si O2"
_cell_formula_units_Z 52
_cell_length_a 18.414759
_cell_length_b 8.964213
_cell_length_c 24.554598
_cell_angle_alpha 90.000000
_cell_angle_beta 90.000000
_cell_angle_gamma 90.000000
_cell_volume 4053.321340
_symmetry_space_group_name_H-M "P M M M"
_symmetry_group_IT_number 47
_symmetry_cell_setting 'orthorhombic'
loop_
_space_group_symop_operation_xyz
x,y,z
-x,-y,z
x,-y,-z
-x,y,-z
-x,-y,-z
x,y,-z
-x,y,z
x,-y,z
loop_
_atom_site_type_symbol
_atom_site_label
_atom_site_fract_x
_atom_site_fract_y
_atom_site_fract_z
Si Si1 0.000000 0.168915 0.935623
Si Si2 0.576737 0.176767 0.939207
Si Si3 0.866305 0.676323 0.879522
Si Si4 0.265979 0.827517 0.935109
Si Si5 0.086348 0.167743 0.559781
Si Si6 0.085207 0.826687 0.226681
Si Si7 0.086323 0.333711 0.664453
O O1 0.071191 0.252018 0.915818
O O2 0.000000 0.000000 0.912218
O O3 0.000000 0.167041 0.000000
O O4 0.500000 0.227007 0.909560
O O5 0.653839 0.224586 0.912690
O O6 0.578955 0.000000 0.942742
O O7 0.574377 0.242805 0.000000
O O8 0.875916 0.500000 0.879452
O O9 0.789661 0.719734 0.905210
O O10 0.870017 0.736283 0.818133
O O11 0.249464 0.000000 0.920206
O O12 0.261052 0.806014 0.000000
O O13 0.110606 0.228227 0.500000
O O14 0.119002 0.269685 0.607901
O O15 0.000000 0.167244 0.563302
O O16 0.115465 0.000000 0.567950
O O17 0.111283 0.769345 0.285545
O O18 0.000000 0.796318 0.217239
O O19 0.104017 0.000000 0.222342
O O20 0.116999 0.500000 0.672949
O O21 0.000000 0.335661 0.661173
#
# Coordination Sequence:
#
# PCOD8195262 Si02
#       7
#     4   8   8   8   8   8   8
#     4  11  23  37  49  57  67  87 116 147 182 225
#     4   7  10  19  38  62  81  95 114 139 164 194
#     4  12  23  32  43  57  74  92 115 149 185 220
#     4   9  17  29  44  60  78  98 118 141 172 214
#     4   8  13  21  32  46  65  88 112 135 163 204
#     4  10  19  31  45  54  64  85 116 149 182 220
#     4   9  16  24  35  51  69  85 106 138 176 214
#
# _framework density 12.828986
#
# number of rings (size 3 to 8) (size 9 to 14) (size 15 to 20)
#    0.000    2.692    0.769    4.846    0.000    5.538 
#    0.000    1.538    0.000    0.462    0.000    2.154 
#    0.000    0.000    0.000    0.000    0.000    0.000 
#
# Total GULP energy -644266.709791 kJ/mol
# GULP energy per Si atom -12389.744419 kJ/mol
# Density = 1.279979 g / cm^3
# Si number density = 12.828986 Si / 1000 Ang^3
#
#
#
# Elastic Constant Matrix: (Units=GPa)
#
#
# Indices 1 2 3 4 5 6 
#
# 1 71.8333 29.9120 27.0407 0.0000 0.0000 0.0000
# 2 29.9120 85.3515 40.2146 0.0000 0.0000 0.0000
# 3 27.0407 40.2146 74.1669 0.0000 0.0000 0.0000
# 4 0.0000 0.0000 0.0000 13.6044 0.0000 0.0000
# 5 0.0000 0.0000 0.0000 0.0000 -7.1712 0.0000
# 6 0.0000 0.0000 0.0000 0.0000 0.0000 -1.3312
#
#
#
# Elastic Compliance Matrix: (Units=1/GPa)
#
#
# Indices 1 2 3 4 5 6 
#
# 1 0.017148 -0.004115 -0.004021 0.000000 0.000000 0.000000
# 2 -0.004115 0.016724 -0.007568 0.000000 0.000000 0.000000
# 3 -0.004021 -0.007568 0.019052 0.000000 0.000000 0.000000
# 4 0.000000 0.000000 0.000000 0.073506 0.000000 0.000000
# 5 0.000000 0.000000 0.000000 0.000000 -0.139447 0.000000
# 6 0.000000 0.000000 0.000000 0.000000 0.000000 -0.751214
#
#
# Mechanical properties :
#
#
# Convention : Reuss Voigt Hill
#
# Bulk Modulus (GPa) = 46.47424 47.29848 46.88636
# Shear Modulus (GPa) = -6.89037 9.96604 1.53783
#
# Velocity S-wave (km/s) = -2.32004 2.79020 1.09605
# Velocity P-wave (km/s) = 5.39702 6.87959 6.18290
#
# Compressibility (1/GPa) = 0.02151730
#
# Stress axis : x y z
#
# Youngs Moduli (GPa) = 58.31477 59.79389 52.48687
#
# Poissons Ratio (x) = 0.24607 0.21104
# Poissons Ratio (y) = 0.23998 0.39721
# Poissons Ratio (z) = 0.23447 0.45250
#
# Static dielectric constant tensor:
#      x y z
#    x 2.565490 0.000000 0.000000 
#    y 0.000000 2.626860 0.000000 
#    z 0.000000 0.000000 2.621870 
# 
# 
# High freq. dielectric constant tensor:
#      x y z
#    x 1.441300 0.000000 0.000000 
#    y 0.000000 1.488700 0.000000 
#    z 0.000000 0.000000 1.472340 
# 
# From -- ./inp_files/10085.got.cif
#   From: 2010.03.12/outbox.cif.g09.slc.cpg/sg47_6_cif.got.tgz:10085.got - 2010.04.14 03:12:58.
