data_PCOD8195466
_publ_section_title
;
Structure prediction by ZEFSAII (Michael W. Deem and Ramdas Pophale) SiO2 
 PCOD8195466
Probable space group: P M M M
;
_chemical_formula_sum "Si O2"
_cell_formula_units_Z 40
_cell_length_a 8.102181
_cell_length_b 7.924345
_cell_length_c 29.296775
_cell_angle_alpha 90.000000
_cell_angle_beta 90.000000
_cell_angle_gamma 90.000000
_cell_volume 1880.984131
_symmetry_space_group_name_H-M "P M M M"
_symmetry_group_IT_number 47
_symmetry_cell_setting 'orthorhombic'
loop_
_space_group_symop_operation_xyz
x,y,z
-x,-y,z
x,-y,-z
-x,y,-z
-x,-y,-z
x,y,-z
-x,y,z
x,-y,z
loop_
_atom_site_type_symbol
_atom_site_label
_atom_site_fract_x
_atom_site_fract_y
_atom_site_fract_z
Si Si1 0.688704 0.690376 0.201048
Si Si2 0.693423 0.809845 0.610867
Si Si3 0.179539 0.806008 0.293413
Si Si4 0.816722 0.298979 0.893221
Si Si5 0.302959 0.500000 0.551725
Si Si6 0.500000 0.298791 0.051753
O O1 0.500000 0.701017 0.185422
O O2 0.744250 0.500000 0.210786
O O3 0.712850 0.788968 0.247913
O O4 0.793232 0.766648 0.158826
O O5 0.500000 0.822319 0.604622
O O6 0.730414 0.735686 0.661541
O O7 0.766201 0.671212 0.575636
O O8 0.767656 0.000000 0.602373
O O9 0.000000 0.718434 0.287056
O O10 0.153887 0.000000 0.302953
O O11 0.804953 0.500000 0.893327
O O12 0.668258 0.227351 0.924776
O O13 0.000000 0.240637 0.910307
O O14 0.500000 0.500000 0.554319
O O15 0.238452 0.500000 0.500000
O O16 0.500000 0.500000 0.054033
O O17 0.500000 0.233255 0.000000
#
# Coordination Sequence:
#
# PCOD8195466 Si02
#       6
#     8   8   8   8   4   4
#     4  10  19  31  49  72  99 133 171 212 261 319
#     4   9  18  33  52  74 104 139 174 220 276 327
#     4  10  21  35  50  72 103 136 171 213 260 315
#     4   9  16  27  42  62  93 129 169 218 268 321
#     4   9  18  32  53  81 107 133 177 231 275 328
#     4   9  16  26  40  60  91 131 175 221 269 324
#
# _framework density 21.265463
#
# number of rings (size 3 to 8) (size 9 to 14) (size 15 to 20)
#    0.000    2.600    1.000    1.200    1.400    3.200 
#    0.000    4.000    0.000    1.200    0.000    2.800 
#    0.000    1.600    0.000    4.200    0.000    4.000 
#
# Total GULP energy -495639.079130 kJ/mol
# GULP energy per Si atom -12390.976978 kJ/mol
# Density = 2.121706 g / cm^3
# Si number density = 21.265463 Si / 1000 Ang^3
#
#
#
# Elastic Constant Matrix: (Units=GPa)
#
#
# Indices 1 2 3 4 5 6 
#
# 1 97.2482 21.8426 54.1598 0.0000 0.0000 0.0000
# 2 21.8426 57.6244 41.8259 0.0000 0.0000 0.0000
# 3 54.1598 41.8259 176.2572 0.0000 0.0000 0.0000
# 4 0.0000 0.0000 0.0000 3.0446 0.0000 0.0000
# 5 0.0000 0.0000 0.0000 0.0000 17.5935 0.0000
# 6 0.0000 0.0000 0.0000 0.0000 0.0000 7.9271
#
#
#
# Elastic Compliance Matrix: (Units=1/GPa)
#
#
# Indices 1 2 3 4 5 6 
#
# 1 0.012672 -0.002389 -0.003327 0.000000 0.000000 0.000000
# 2 -0.002389 0.021415 -0.004348 0.000000 0.000000 0.000000
# 3 -0.003327 -0.004348 0.007728 0.000000 0.000000 0.000000
# 4 0.000000 0.000000 0.000000 0.328452 0.000000 0.000000
# 5 0.000000 0.000000 0.000000 0.000000 0.056839 0.000000
# 6 0.000000 0.000000 0.000000 0.000000 0.000000 0.126149
#
#
# Mechanical properties :
#
#
# Convention : Reuss Voigt Hill
#
# Bulk Modulus (GPa) = 46.10850 62.97627 54.54239
# Shear Modulus (GPa) = 8.61162 19.93316 14.27239
#
# Velocity S-wave (km/s) = 2.01454 3.06494 2.59347
# Velocity P-wave (km/s) = 5.20966 6.49644 5.88831
#
# Compressibility (1/GPa) = 0.02168797
#
# Stress axis : x y z
#
# Youngs Moduli (GPa) = 78.91165 46.69635 129.40584
#
# Poissons Ratio (x) = 0.11153 0.43055
# Poissons Ratio (y) = 0.18848 0.56264
# Poissons Ratio (z) = 0.26255 0.20303
#
# Static dielectric constant tensor:
#      x y z
#    x 3.945070 0.000000 0.000000 
#    y 0.000000 3.628940 0.000000 
#    z 0.000000 0.000000 3.847120 
# 
# 
# High freq. dielectric constant tensor:
#      x y z
#    x 1.826310 0.000000 0.000000 
#    y 0.000000 1.797040 0.000000 
#    z 0.000000 0.000000 1.830550 
# 
# From -- ./inp_files/33096.got.cif
#   From: 2010.03.12/outbox.cif.g09.slc.cpg/sg47_17_cif.got.tgz:33096.got - 2010.04.14 03:12:58.
