data_PCOD8195107
_publ_section_title
;
Structure prediction by ZEFSAII (Michael W. Deem and Ramdas Pophale) SiO2 
 PCOD8195107
Probable space group: P M M M
;
_chemical_formula_sum "Si O2"
_cell_formula_units_Z 44
_cell_length_a 31.981733
_cell_length_b 7.787761
_cell_length_c 9.222856
_cell_angle_alpha 90.000000
_cell_angle_beta 90.000000
_cell_angle_gamma 90.000000
_cell_volume 2297.100710
_symmetry_space_group_name_H-M "P M M M"
_symmetry_group_IT_number 47
_symmetry_cell_setting 'orthorhombic'
loop_
_space_group_symop_operation_xyz
x,y,z
-x,-y,z
x,-y,-z
-x,y,-z
-x,-y,-z
x,y,-z
-x,y,z
x,-y,z
loop_
_atom_site_type_symbol
_atom_site_label
_atom_site_fract_x
_atom_site_fract_y
_atom_site_fract_z
Si Si1 0.691888 0.500000 0.672678
Si Si2 0.157898 0.796729 0.660859
Si Si3 0.081090 0.799648 0.839939
Si Si4 0.603759 0.500000 0.173116
Si Si5 0.250151 0.808959 0.327533
Si Si6 0.546714 0.809253 0.172044
Si Si7 0.000000 0.297747 0.336067
O O1 0.685904 0.500000 0.500000
O O2 0.648072 0.500000 0.751540
O O3 0.716421 0.669588 0.726725
O O4 0.152756 0.716298 0.500000
O O5 0.121888 0.716603 0.763084
O O6 0.203795 0.753606 0.726455
O O7 0.152904 0.000000 0.649492
O O8 0.040554 0.769932 0.744394
O O9 0.088645 0.000000 0.856982
O O10 0.075495 0.716725 0.000000
O O11 0.578973 0.667659 0.230314
O O12 0.608977 0.500000 0.000000
O O13 0.248624 0.814048 0.500000
O O14 0.262204 0.000000 0.268827
O O15 0.500000 0.769632 0.231214
O O16 0.560932 0.000000 0.223260
O O17 0.545532 0.801066 0.000000
O O18 0.000000 0.500000 0.335107
O O19 0.000000 0.225759 0.500000
#
# Coordination Sequence:
#
# PCOD8195107 Si02
#       7
#     4   8   8   4   8   8   4
#     4  10  20  33  49  71  98 133 173 206 244 301
#     4   8  14  28  51  74  94 119 155 199 241 280
#     4  10  20  34  54  79 104 130 159 193 243 305
#     4  10  19  30  46  70 100 128 159 205 254 297
#     4   8  15  30  51  72  95 126 166 210 249 287
#     4   8  14  26  46  71  96 125 165 209 250 294
#     4  11  24  39  52  70  98 133 172 207 238 280
#
# _framework density 19.154578999999998
#
# number of rings (size 3 to 8) (size 9 to 14) (size 15 to 20)
#    0.000    3.000    0.000    3.000    0.000    4.727 
#    1.636    0.909    0.000    2.182    0.000    1.273 
#    0.000    0.000    0.000    0.000    0.000    0.000 
#
# Total GULP energy -545321.379084 kJ/mol
# GULP energy per Si atom -12393.667706 kJ/mol
# Density = 1.911098 g / cm^3
# Si number density = 19.154579 Si / 1000 Ang^3
#
#
#
# Elastic Constant Matrix: (Units=GPa)
#
#
# Indices 1 2 3 4 5 6 
#
# 1 182.8259 78.0657 54.0848 0.0000 0.0000 0.0000
# 2 78.0657 99.2974 27.8911 0.0000 0.0000 0.0000
# 3 54.0848 27.8911 75.0699 0.0000 0.0000 0.0000
# 4 0.0000 0.0000 0.0000 9.7500 0.0000 0.0000
# 5 0.0000 0.0000 0.0000 0.0000 39.2314 0.0000
# 6 0.0000 0.0000 0.0000 0.0000 0.0000 700.2151
#
#
#
# Elastic Compliance Matrix: (Units=1/GPa)
#
#
# Indices 1 2 3 4 5 6 
#
# 1 0.009428 -0.006145 -0.004509 0.000000 0.000000 0.000000
# 2 -0.006145 0.015250 -0.001238 0.000000 0.000000 0.000000
# 3 -0.004509 -0.001238 0.017030 0.000000 0.000000 0.000000
# 4 0.000000 0.000000 0.000000 0.102564 0.000000 0.000000
# 5 0.000000 0.000000 0.000000 0.000000 0.025490 0.000000
# 6 0.000000 0.000000 0.000000 0.000000 0.000000 0.001428
#
#
# Mechanical properties :
#
#
# Convention : Reuss Voigt Hill
#
# Bulk Modulus (GPa) = 55.79852 75.25295 65.52573
# Shear Modulus (GPa) = 24.88198 162.98274 93.93236
#
# Velocity S-wave (km/s) = 3.60809 9.23433 7.01039
# Velocity P-wave (km/s) = 6.82287 12.37213 9.99053
#
# Compressibility (1/GPa) = 0.01792162
#
# Stress axis : x y z
#
# Youngs Moduli (GPa) = 106.07196 65.57417 58.72132
#
# Poissons Ratio (x) = 0.40297 0.26477
# Poissons Ratio (y) = 0.65184 0.07272
# Poissons Ratio (z) = 0.47828 0.08121
#
# Static dielectric constant tensor:
#      x y z
#    x 3.628140 0.000000 0.000000 
#    y 0.000000 3.691470 0.000000 
#    z 0.000000 0.000000 3.379020 
# 
# 
# High freq. dielectric constant tensor:
#      x y z
#    x 1.748770 0.000000 0.000000 
#    y 0.000000 1.740440 0.000000 
#    z 0.000000 0.000000 1.701190 
# 
# From -- ./inp_files/13726.got.cif
#   From: 2010.03.12/outbox.cif.g09.slc.cpg/sg47_7_cif.got.tgz:13726.got - 2010.04.14 03:12:58.
