data_PCOD8195583
_publ_section_title
;
Structure prediction by ZEFSAII (Michael W. Deem and Ramdas Pophale) SiO2 
 PCOD8195583
Probable space group: P M M M
;
_chemical_formula_sum "Si O2"
_cell_formula_units_Z 64
_cell_length_a 9.053848
_cell_length_b 14.084569
_cell_length_c 27.677342
_cell_angle_alpha 90.000000
_cell_angle_beta 90.000000
_cell_angle_gamma 90.000000
_cell_volume 3529.402110
_symmetry_space_group_name_H-M "P M M M"
_symmetry_group_IT_number 47
_symmetry_cell_setting 'orthorhombic'
loop_
_space_group_symop_operation_xyz
x,y,z
-x,-y,z
x,-y,-z
-x,y,-z
-x,-y,-z
x,y,-z
-x,y,z
x,-y,z
loop_
_atom_site_type_symbol
_atom_site_label
_atom_site_fract_x
_atom_site_fract_y
_atom_site_fract_z
Si Si1 0.827511 0.244164 0.379999
Si Si2 0.326741 0.762781 0.720140
Si Si3 0.673863 0.890271 0.189588
Si Si4 0.664340 0.889975 0.445842
Si Si5 0.169362 0.608763 0.776495
Si Si6 0.329836 0.392963 0.056527
Si Si7 0.170263 0.733640 0.131054
Si Si8 0.668774 0.610465 0.554531
O O1 0.754038 0.216237 0.329590
O O2 0.792693 0.157365 0.415167
O O3 0.764847 0.339249 0.404435
O O4 0.000000 0.256801 0.372133
O O5 0.500000 0.760620 0.711086
O O6 0.282201 0.844258 0.758777
O O7 0.274614 0.659813 0.738204
O O8 0.500000 0.882373 0.181185
O O9 0.751864 0.832265 0.146408
O O10 0.726358 0.000000 0.188885
O O11 0.672228 0.849082 0.500000
O O12 0.500000 0.869120 0.424706
O O13 0.697894 0.000000 0.445922
O O14 0.218248 0.500000 0.779283
O O15 0.193835 0.653764 0.828692
O O16 0.000000 0.619979 0.759590
O O17 0.500000 0.382683 0.071746
O O18 0.274784 0.500000 0.069703
O O19 0.237881 0.310626 0.082661
O O20 0.309322 0.375319 0.000000
O O21 0.000000 0.757261 0.121938
O O22 0.725814 0.632484 0.500000
O O23 0.500000 0.645246 0.559270
O O24 0.680910 0.500000 0.565362
#
# Coordination Sequence:
#
# PCOD8195583 Si02
#       8
#     8   8   8   8   8   8   8   8
#     4  12  24  35  51  77 108 138 164 198 251 308
#     4  10  21  36  53  74  99 130 171 213 252 300
#     4   9  19  37  59  79  99 129 173 222 267 311
#     4   9  19  37  59  79  99 127 163 200 239 288
#     4   9  18  33  51  72 102 136 167 205 255 307
#     4   9  18  32  50  75 110 151 190 225 261 302
#     4  10  19  31  51  80 110 140 175 214 261 316
#     4   9  19  37  59  79  99 129 172 216 253 295
#
# _framework density 18.133382999999998
#
# number of rings (size 3 to 8) (size 9 to 14) (size 15 to 20)
#    0.000    2.375    0.000    3.750    0.000    6.000 
#    0.000    3.125    0.000    0.375    0.000    2.625 
#    0.000    0.000    0.000    0.000    0.000    0.000 
#
# Total GULP energy -793564.588045 kJ/mol
# GULP energy per Si atom -12399.446688 kJ/mol
# Density = 1.809211 g / cm^3
# Si number density = 18.133383 Si / 1000 Ang^3
#
#
#
# Elastic Constant Matrix: (Units=GPa)
#
#
# Indices 1 2 3 4 5 6 
#
# 1 83.3421 46.1170 45.1313 0.0000 0.0000 0.0000
# 2 46.1170 127.0047 48.8977 0.0000 0.0000 0.0000
# 3 45.1313 48.8977 82.3151 0.0000 0.0000 0.0000
# 4 0.0000 0.0000 0.0000 32.5860 0.0000 0.0000
# 5 0.0000 0.0000 0.0000 0.0000 28.0996 0.0000
# 6 0.0000 0.0000 0.0000 0.0000 0.0000 -11.7687
#
#
#
# Elastic Compliance Matrix: (Units=1/GPa)
#
#
# Indices 1 2 3 4 5 6 
#
# 1 0.018251 -0.003597 -0.007870 0.000000 0.000000 0.000000
# 2 -0.003597 0.010917 -0.004513 0.000000 0.000000 0.000000
# 3 -0.007870 -0.004513 0.019144 0.000000 0.000000 0.000000
# 4 0.000000 0.000000 0.000000 0.030688 0.000000 0.000000
# 5 0.000000 0.000000 0.000000 0.000000 0.035588 0.000000
# 6 0.000000 0.000000 0.000000 0.000000 0.000000 -0.084971
#
#
# Mechanical properties :
#
#
# Convention : Reuss Voigt Hill
#
# Bulk Modulus (GPa) = 61.15252 63.66155 62.40704
# Shear Modulus (GPa) = 74.59666 19.95111 47.27389
#
# Velocity S-wave (km/s) = 6.42083 3.32059 5.11143
# Velocity P-wave (km/s) = 9.42159 7.06296 8.32621
#
# Compressibility (1/GPa) = 0.01635256
#
# Stress axis : x y z
#
# Youngs Moduli (GPa) = 54.79220 91.59626 52.23564
#
# Poissons Ratio (x) = 0.32949 0.41107
# Poissons Ratio (y) = 0.19710 0.23574
# Poissons Ratio (z) = 0.43119 0.41338
#
# Static dielectric constant tensor:
#      x y z
#    x 3.291470 0.000000 0.000000 
#    y 0.000000 3.357360 0.000000 
#    z 0.000000 0.000000 3.282210 
# 
# 
# High freq. dielectric constant tensor:
#      x y z
#    x 1.698310 0.000000 0.000000 
#    y 0.000000 1.703960 0.000000 
#    z 0.000000 0.000000 1.693900 
# 
# From -- ./inp_files/32136.got.cif
#   From: 2010.03.12/outbox.cif.g09.slc.cpg/sg47_17_cif.got.tgz:32136.got - 2010.04.14 03:12:58.
