data_PCOD8195818
_publ_section_title
;
Structure prediction by ZEFSAII (Michael W. Deem and Ramdas Pophale) SiO2 
 PCOD8195818
Probable space group: P M M M
;
_chemical_formula_sum "Si O2"
_cell_formula_units_Z 64
_cell_length_a 9.061940
_cell_length_b 24.832784
_cell_length_c 14.898734
_cell_angle_alpha 90.000000
_cell_angle_beta 90.000000
_cell_angle_gamma 90.000000
_cell_volume 3352.709768
_symmetry_space_group_name_H-M "P M M M"
_symmetry_group_IT_number 47
_symmetry_cell_setting 'orthorhombic'
loop_
_space_group_symop_operation_xyz
x,y,z
-x,-y,z
x,-y,-z
-x,y,-z
-x,-y,-z
x,y,-z
-x,y,z
x,-y,z
loop_
_atom_site_type_symbol
_atom_site_label
_atom_site_fract_x
_atom_site_fract_y
_atom_site_fract_z
Si Si1 0.333037 0.338620 0.162356
Si Si2 0.167729 0.758660 0.900565
Si Si3 0.665809 0.297992 0.360901
Si Si4 0.169952 0.559763 0.772615
Si Si5 0.824851 0.854321 0.774373
Si Si6 0.330751 0.062876 0.897790
Si Si7 0.674187 0.181443 0.601268
Si Si8 0.327310 0.412456 0.401952
O O1 0.500000 0.349328 0.131440
O O2 0.255209 0.297764 0.094486
O O3 0.324137 0.307128 0.255411
O O4 0.253488 0.396684 0.166102
O O5 0.231379 0.801534 0.828932
O O6 0.000000 0.744866 0.874971
O O7 0.178734 0.784573 0.000000
O O8 0.500000 0.292350 0.395854
O O9 0.742936 0.241988 0.388706
O O10 0.733999 0.350967 0.407735
O O11 0.186324 0.500000 0.815520
O O12 0.236760 0.555576 0.672403
O O13 0.000000 0.576985 0.765717
O O14 0.773385 0.906668 0.828070
O O15 0.755348 0.855709 0.674510
O O16 0.000000 0.855409 0.766594
O O17 0.500000 0.080112 0.881883
O O18 0.310313 0.000000 0.879272
O O19 0.284244 0.076626 0.000000
O O20 0.706575 0.160544 0.500000
O O21 0.500000 0.180382 0.622127
O O22 0.306679 0.439523 0.500000
O O23 0.500000 0.412257 0.372874
#
# Coordination Sequence:
#
# PCOD8195818 Si02
#       8
#     8   8   8   8   8   8   8   8
#     4  10  19  33  55  78 101 131 172 222 269 316
#     4  10  21  36  54  80 116 152 179 209 262 332
#     4   8  14  27  47  70  97 130 171 218 265 313
#     4  10  21  35  50  68  94 131 171 212 265 329
#     4  11  22  35  54  83 122 158 188 228 275 327
#     4   9  19  37  61  88 117 151 193 238 280 326
#     4  10  19  32  52  76 107 150 197 239 277 322
#     4   9  17  29  46  69  96 126 166 218 270 319
#
# _framework density 19.089036
#
# number of rings (size 3 to 8) (size 9 to 14) (size 15 to 20)
#    0.000    2.375    1.250    3.000    0.000    5.000 
#    0.000    1.875    0.000    2.250    0.000    5.250 
#    0.000    0.000    0.000    0.000    0.000    0.000 
#
# Total GULP energy -793248.667059 kJ/mol
# GULP energy per Si atom -12394.510423 kJ/mol
# Density = 1.904559 g / cm^3
# Si number density = 19.089036 Si / 1000 Ang^3
#
#
#
# Elastic Constant Matrix: (Units=GPa)
#
#
# Indices 1 2 3 4 5 6 
#
# 1 86.9504 41.3449 36.0607 0.0000 0.0000 0.0000
# 2 41.3449 83.8096 39.4529 0.0000 0.0000 0.0000
# 3 36.0607 39.4529 88.7873 0.0000 0.0000 0.0000
# 4 0.0000 0.0000 0.0000 9.2497 0.0000 0.0000
# 5 0.0000 0.0000 0.0000 0.0000 23.8060 0.0000
# 6 0.0000 0.0000 0.0000 0.0000 0.0000 28.2261
#
#
#
# Elastic Compliance Matrix: (Units=1/GPa)
#
#
# Indices 1 2 3 4 5 6 
#
# 1 0.015967 -0.006100 -0.003774 0.000000 0.000000 0.000000
# 2 -0.006100 0.017418 -0.005262 0.000000 0.000000 0.000000
# 3 -0.003774 -0.005262 0.015134 0.000000 0.000000 0.000000
# 4 0.000000 0.000000 0.000000 0.108111 0.000000 0.000000
# 5 0.000000 0.000000 0.000000 0.000000 0.042006 0.000000
# 6 0.000000 0.000000 0.000000 0.000000 0.000000 0.035428
#
#
# Mechanical properties :
#
#
# Convention : Reuss Voigt Hill
#
# Bulk Modulus (GPa) = 54.80701 54.80714 54.80708
# Shear Modulus (GPa) = 18.48978 21.76896 20.12937
#
# Velocity S-wave (km/s) = 3.11562 3.38063 3.25083
# Velocity P-wave (km/s) = 6.45882 6.63414 6.54707
#
# Compressibility (1/GPa) = 0.01824584
#
# Stress axis : x y z
#
# Youngs Moduli (GPa) = 62.63063 57.41106 66.07585
#
# Poissons Ratio (x) = 0.35020 0.24939
# Poissons Ratio (y) = 0.38204 0.34772
# Poissons Ratio (z) = 0.23639 0.30212
#
# Static dielectric constant tensor:
#      x y z
#    x 3.328290 0.000000 0.000000 
#    y 0.000000 3.350340 0.000000 
#    z 0.000000 0.000000 3.353340 
# 
# 
# High freq. dielectric constant tensor:
#      x y z
#    x 1.724560 0.000000 0.000000 
#    y 0.000000 1.728090 0.000000 
#    z 0.000000 0.000000 1.730530 
# 
# From -- ./inp_files/21908.got.cif
#   From: 2010.03.12/outbox.cif.g09.slc.cpg/sg47_11_cif.got.tgz:21908.got - 2010.04.14 03:12:58.
