data_PCOD8195201
_publ_section_title
;
Structure prediction by ZEFSAII (Michael W. Deem and Ramdas Pophale) SiO2 
 PCOD8195201
Probable space group: P M M M
;
_chemical_formula_sum "Si O2"
_cell_formula_units_Z 48
_cell_length_a 9.346244
_cell_length_b 7.731276
_cell_length_c 34.146820
_cell_angle_alpha 90.000000
_cell_angle_beta 90.000000
_cell_angle_gamma 90.000000
_cell_volume 2467.394303
_symmetry_space_group_name_H-M "P M M M"
_symmetry_group_IT_number 47
_symmetry_cell_setting 'orthorhombic'
loop_
_space_group_symop_operation_xyz
x,y,z
-x,-y,z
x,-y,-z
-x,y,-z
-x,-y,-z
x,y,-z
-x,y,z
x,-y,z
loop_
_atom_site_type_symbol
_atom_site_label
_atom_site_fract_x
_atom_site_fract_y
_atom_site_fract_z
Si Si1 0.838996 0.795999 0.455945
Si Si2 0.334737 0.698196 0.762852
Si Si3 0.160053 0.705244 0.686863
Si Si4 0.334760 0.000000 0.177754
Si Si5 0.829296 0.000000 0.097557
Si Si6 0.830066 0.692168 0.043746
Si Si7 0.657423 0.301609 0.384072
O O1 0.798046 0.738857 0.500000
O O2 0.728818 0.709281 0.426523
O O3 0.000000 0.733350 0.446151
O O4 0.828901 0.000000 0.451711
O O5 0.500000 0.715132 0.750432
O O6 0.298787 0.500000 0.775189
O O7 0.241171 0.760388 0.726204
O O8 0.298065 0.826017 0.798352
O O9 0.152870 0.500000 0.683515
O O10 0.243666 0.785599 0.649425
O O11 0.000000 0.783410 0.687516
O O12 0.500000 0.000000 0.164973
O O13 0.234652 0.000000 0.140410
O O14 0.770855 0.168377 0.074506
O O15 0.000000 0.000000 0.100712
O O16 0.778595 0.500000 0.056409
O O17 0.000000 0.700087 0.043107
O O18 0.773136 0.735159 0.000000
O O19 0.500000 0.213016 0.384907
O O20 0.637983 0.500000 0.372757
#
# Coordination Sequence:
#
# PCOD8195201 Si02
#       7
#     8   8   8   4   4   8   8
#     4   9  19  36  54  71  96 131 169 208 250 296
#     4   9  18  35  56  73  95 131 171 210 254 306
#     4   9  17  31  53  78 101 126 158 200 251 300
#     4  10  22  37  51  73 104 138 175 211 254 314
#     4  10  19  30  48  74 102 132 170 217 261 302
#     4   8  14  26  46  73 103 134 171 216 264 310
#     4  10  20  33  51  77 106 133 164 202 244 298
#
# _framework density 19.453721000000002
#
# number of rings (size 3 to 8) (size 9 to 14) (size 15 to 20)
#    0.000    2.833    0.000    2.250    0.000    6.333 
#    1.500    2.500    0.000    1.000    0.000    1.167 
#    0.000    0.000    0.000    0.000    0.000    0.000 
#
# Total GULP energy -595046.634442 kJ/mol
# GULP energy per Si atom -12396.804884 kJ/mol
# Density = 1.940944 g / cm^3
# Si number density = 19.453721 Si / 1000 Ang^3
#
#
#
# Elastic Constant Matrix: (Units=GPa)
#
#
# Indices 1 2 3 4 5 6 
#
# 1 107.0643 33.7940 77.3730 0.0000 0.0000 0.0000
# 2 33.7940 78.8206 57.5163 0.0000 0.0000 0.0000
# 3 77.3730 57.5163 153.5444 0.0000 0.0000 0.0000
# 4 0.0000 0.0000 0.0000 -194.2774 0.0000 0.0000
# 5 0.0000 0.0000 0.0000 0.0000 15.4652 0.0000
# 6 0.0000 0.0000 0.0000 0.0000 0.0000 12.4880
#
#
#
# Elastic Compliance Matrix: (Units=1/GPa)
#
#
# Indices 1 2 3 4 5 6 
#
# 1 0.014777 -0.001241 -0.006982 0.000000 0.000000 0.000000
# 2 -0.001241 0.017564 -0.005954 0.000000 0.000000 0.000000
# 3 -0.006982 -0.005954 0.012261 0.000000 0.000000 0.000000
# 4 0.000000 0.000000 0.000000 -0.005147 0.000000 0.000000
# 5 0.000000 0.000000 0.000000 0.000000 0.064661 0.000000
# 6 0.000000 0.000000 0.000000 0.000000 0.000000 0.080077
#
#
# Mechanical properties :
#
#
# Convention : Reuss Voigt Hill
#
# Bulk Modulus (GPa) = 61.54171 75.19954 68.37063
# Shear Modulus (GPa) = 22.93970 -21.88177 0.52896
#
# Velocity S-wave (km/s) = 3.43766 -3.35746 0.52201
# Velocity P-wave (km/s) = 6.88915 4.86924 5.96531
#
# Compressibility (1/GPa) = 0.01624914
#
# Stress axis : x y z
#
# Youngs Moduli (GPa) = 67.67099 56.93560 81.55888
#
# Poissons Ratio (x) = 0.07067 0.56941
# Poissons Ratio (y) = 0.08399 0.48558
# Poissons Ratio (z) = 0.47245 0.33898
#
# Static dielectric constant tensor:
#      x y z
#    x 3.531270 0.000000 0.000000 
#    y 0.000000 3.552270 0.000000 
#    z 0.000000 0.000000 3.528260 
# 
# 
# High freq. dielectric constant tensor:
#      x y z
#    x 1.738370 0.000000 0.000000 
#    y 0.000000 1.749690 0.000000 
#    z 0.000000 0.000000 1.753520 
# 
# From -- ./inp_files/34117.got.cif
#   From: 2010.03.12/outbox.cif.g09.slc.cpg/sg47_18_cif.got.tgz:34117.got - 2010.04.14 03:12:58.
