data_PCOD8195393
_publ_section_title
;
Structure prediction by ZEFSAII (Michael W. Deem and Ramdas Pophale) SiO2 
 PCOD8195393
Probable space group: P M M M
;
_chemical_formula_sum "Si O2"
_cell_formula_units_Z 48
_cell_length_a 12.138757
_cell_length_b 14.586811
_cell_length_c 14.641856
_cell_angle_alpha 90.000000
_cell_angle_beta 90.000000
_cell_angle_gamma 90.000000
_cell_volume 2592.571275
_symmetry_space_group_name_H-M "P M M M"
_symmetry_group_IT_number 47
_symmetry_cell_setting 'orthorhombic'
loop_
_space_group_symop_operation_xyz
x,y,z
-x,-y,z
x,-y,-z
-x,y,-z
-x,-y,-z
x,y,-z
-x,y,z
x,-y,z
loop_
_atom_site_type_symbol
_atom_site_label
_atom_site_fract_x
_atom_site_fract_y
_atom_site_fract_z
Si Si1 0.758995 0.274510 0.105695
Si Si2 0.000000 0.892488 0.719733
Si Si3 0.375930 0.101458 0.108395
Si Si4 0.000000 0.783091 0.103525
Si Si5 0.626489 0.741572 0.602863
Si Si6 0.372400 0.394075 0.760949
Si Si7 0.204254 0.895013 0.394617
O O1 0.708911 0.178419 0.145015
O O2 0.703994 0.359446 0.156859
O O3 0.890903 0.277850 0.119919
O O4 0.727834 0.285076 0.000000
O O5 0.892937 0.853994 0.667998
O O6 0.000000 0.866939 0.826208
O O7 0.000000 0.000000 0.709450
O O8 0.500000 0.125706 0.141437
O O9 0.341340 0.000000 0.145198
O O10 0.372417 0.099149 0.000000
O O11 0.000000 0.823369 0.000000
O O12 0.653411 0.708890 0.500000
O O13 0.500000 0.767618 0.614823
O O14 0.660693 0.658538 0.668590
O O15 0.689531 0.834521 0.628120
O O16 0.500000 0.377908 0.787016
O O17 0.346919 0.500000 0.743895
O O18 0.167854 0.886394 0.500000
O O19 0.233131 0.000000 0.370230
#
# Coordination Sequence:
#
# PCOD8195393 Si02
#       7
#     8   4   8   4   8   8   8
#     4  10  20  35  53  73 101 134 169 212 258 305
#     4  10  19  31  48  70 101 139 176 215 252 286
#     4   8  14  26  46  71  97 127 162 199 243 293
#     4  10  22  36  50  70  97 135 179 216 255 305
#     4   9  18  33  53  77 106 138 167 198 243 299
#     4  10  21  36  55  79 103 128 164 210 257 306
#     4   9  17  30  51  79 107 135 169 207 248 296
#
# _framework density 18.514437999999998
#
# number of rings (size 3 to 8) (size 9 to 14) (size 15 to 20)
#    0.000    2.667    0.000    2.250    0.000    3.833 
#    0.000    7.083    0.000    2.500    0.000    0.000 
#    0.000    6.667    0.000    0.000    0.000    0.000 
#
# Total GULP energy -595150.813227 kJ/mol
# GULP energy per Si atom -12398.975276 kJ/mol
# Density = 1.847230 g / cm^3
# Si number density = 18.514438 Si / 1000 Ang^3
#
#
#
# Elastic Constant Matrix: (Units=GPa)
#
#
# Indices 1 2 3 4 5 6 
#
# 1 106.3082 62.2032 53.4202 0.0000 0.0000 0.0000
# 2 62.2032 109.8939 50.0245 0.0000 0.0000 0.0000
# 3 53.4202 50.0245 84.6577 0.0000 0.0000 0.0000
# 4 0.0000 0.0000 0.0000 29.7953 0.0000 0.0000
# 5 0.0000 0.0000 0.0000 0.0000 22.9045 0.0000
# 6 0.0000 0.0000 0.0000 0.0000 0.0000 18.0286
#
#
#
# Elastic Compliance Matrix: (Units=1/GPa)
#
#
# Indices 1 2 3 4 5 6 
#
# 1 0.016416 -0.006261 -0.006659 0.000000 0.000000 0.000000
# 2 -0.006261 0.014836 -0.004816 0.000000 0.000000 0.000000
# 3 -0.006659 -0.004816 0.018860 0.000000 0.000000 0.000000
# 4 0.000000 0.000000 0.000000 0.033562 0.000000 0.000000
# 5 0.000000 0.000000 0.000000 0.000000 0.043660 0.000000
# 6 0.000000 0.000000 0.000000 0.000000 0.000000 0.055467
#
#
# Mechanical properties :
#
#
# Convention : Reuss Voigt Hill
#
# Bulk Modulus (GPa) = 68.30535 70.23952 69.27244
# Shear Modulus (GPa) = 22.40613 23.15981 22.78297
#
# Velocity S-wave (km/s) = 3.48256 3.54065 3.51173
# Velocity P-wave (km/s) = 7.29000 7.39831 7.34436
#
# Compressibility (1/GPa) = 0.01464014
#
# Stress axis : x y z
#
# Youngs Moduli (GPa) = 60.91529 67.40541 53.02172
#
# Poissons Ratio (x) = 0.42200 0.35310
# Poissons Ratio (y) = 0.38137 0.25535
# Poissons Ratio (z) = 0.40566 0.32461
#
# Static dielectric constant tensor:
#      x y z
#    x 3.500450 0.000000 0.000000 
#    y 0.000000 3.250470 0.000000 
#    z 0.000000 0.000000 3.445430 
# 
# 
# High freq. dielectric constant tensor:
#      x y z
#    x 1.717850 0.000000 0.000000 
#    y 0.000000 1.691830 0.000000 
#    z 0.000000 0.000000 1.720220 
# 
# From -- ./inp_files/17594.got.cif
#   From: 2010.03.12/outbox.cif.g09.slc.cpg/sg47_9_cif.got.tgz:17594.got - 2010.04.14 03:12:58.
