data_PCOD8195872
_publ_section_title
;
Structure prediction by ZEFSAII (Michael W. Deem and Ramdas Pophale) SiO2 
 PCOD8195872
Probable space group: P M M M
;
_chemical_formula_sum "Si O2"
_cell_formula_units_Z 64
_cell_length_a 8.533403
_cell_length_b 20.714328
_cell_length_c 18.796372
_cell_angle_alpha 90.000000
_cell_angle_beta 90.000000
_cell_angle_gamma 90.000000
_cell_volume 3322.516425
_symmetry_space_group_name_H-M "P M M M"
_symmetry_group_IT_number 47
_symmetry_cell_setting 'orthorhombic'
loop_
_space_group_symop_operation_xyz
x,y,z
-x,-y,z
x,-y,-z
-x,y,-z
-x,-y,-z
x,y,-z
-x,y,z
x,-y,z
loop_
_atom_site_type_symbol
_atom_site_label
_atom_site_fract_x
_atom_site_fract_y
_atom_site_fract_z
Si Si1 0.180618 0.067918 0.836976
Si Si2 0.321640 0.930990 0.312475
Si Si3 0.318718 0.683508 0.081899
Si Si4 0.184455 0.794036 0.824986
Si Si5 0.318569 0.426661 0.679430
Si Si6 0.181693 0.678329 0.581289
Si Si7 0.181583 0.574496 0.171600
Si Si8 0.680441 0.790840 0.330700
O O1 0.200859 0.068344 0.752164
O O2 0.244355 0.138130 0.862379
O O3 0.000000 0.063922 0.856822
O O4 0.258837 0.000000 0.867022
O O5 0.500000 0.926439 0.282827
O O6 0.289574 0.865301 0.357041
O O7 0.301284 0.000000 0.355011
O O8 0.500000 0.700764 0.091461
O O9 0.214977 0.737224 0.120198
O O10 0.283947 0.613961 0.115530
O O11 0.268951 0.681298 0.000000
O O12 0.276490 0.781519 0.751985
O O13 0.000000 0.798280 0.807847
O O14 0.500000 0.420521 0.699155
O O15 0.274749 0.500000 0.658119
O O16 0.278642 0.380740 0.613919
O O17 0.220751 0.403693 0.748109
O O18 0.234892 0.686007 0.500000
O O19 0.214037 0.745375 0.620900
O O20 0.000000 0.661378 0.587915
O O21 0.226719 0.500000 0.160996
O O22 0.000000 0.587900 0.157100
O O23 0.500000 0.770691 0.340582
#
# Coordination Sequence:
#
# PCOD8195872 Si02
#       8
#     8   8   8   8   8   8   8   8
#     4   8  14  25  43  70 101 130 163 206 256 306
#     4   8  14  25  43  70 101 130 163 206 256 306
#     4  11  24  39  54  74 104 141 178 217 259 304
#     4  10  19  32  53  78 105 137 173 215 260 309
#     4  10  21  38  61  86 110 136 168 208 253 304
#     4  11  24  39  54  74 104 141 178 217 259 304
#     4  10  21  38  61  86 110 136 168 208 253 304
#     4  10  19  32  53  78 105 137 173 215 260 309
#
# _framework density 19.262508
#
# number of rings (size 3 to 8) (size 9 to 14) (size 15 to 20)
#    0.000    2.250    0.000    3.000    0.000    5.000 
#    0.000    2.500    0.000    0.750    0.000    5.250 
#    0.000    0.000    0.000    0.000    0.000    0.000 
#
# Total GULP energy -793041.219446 kJ/mol
# GULP energy per Si atom -12391.269054 kJ/mol
# Density = 1.921867 g / cm^3
# Si number density = 19.262508 Si / 1000 Ang^3
#
#
#
# Elastic Constant Matrix: (Units=GPa)
#
#
# Indices 1 2 3 4 5 6 
#
# 1 35.1796 16.9678 10.5519 0.0000 0.0000 0.0000
# 2 16.9678 138.7908 54.1789 0.0000 0.0000 0.0000
# 3 10.5519 54.1789 79.5839 0.0000 0.0000 0.0000
# 4 0.0000 0.0000 0.0000 1.7222 0.0000 0.0000
# 5 0.0000 0.0000 0.0000 0.0000 23.8734 0.0000
# 6 0.0000 0.0000 0.0000 0.0000 0.0000 22.0051
#
#
#
# Elastic Compliance Matrix: (Units=1/GPa)
#
#
# Indices 1 2 3 4 5 6 
#
# 1 0.030450 -0.002924 -0.002047 0.000000 0.000000 0.000000
# 2 -0.002924 0.010094 -0.006484 0.000000 0.000000 0.000000
# 3 -0.002047 -0.006484 0.017251 0.000000 0.000000 0.000000
# 4 0.000000 0.000000 0.000000 0.580667 0.000000 0.000000
# 5 0.000000 0.000000 0.000000 0.000000 0.041888 0.000000
# 6 0.000000 0.000000 0.000000 0.000000 0.000000 0.045444
#
#
# Mechanical properties :
#
#
# Convention : Reuss Voigt Hill
#
# Bulk Modulus (GPa) = 28.66540 46.32793 37.49667
# Shear Modulus (GPa) = 6.57610 20.97717 13.77663
#
# Velocity S-wave (km/s) = 1.84969 3.30360 2.67723
# Velocity P-wave (km/s) = 4.41311 6.21730 5.39121
#
# Compressibility (1/GPa) = 0.03488526
#
# Stress axis : x y z
#
# Youngs Moduli (GPa) = 32.84114 99.07306 57.96825
#
# Poissons Ratio (x) = 0.28964 0.11866
# Poissons Ratio (y) = 0.09601 0.37586
# Poissons Ratio (z) = 0.06723 0.64237
#
# Static dielectric constant tensor:
#      x y z
#    x 3.480720 0.000000 0.000000 
#    y 0.000000 4.062680 0.000000 
#    z 0.000000 0.000000 3.095700 
# 
# 
# High freq. dielectric constant tensor:
#      x y z
#    x 1.751640 0.000000 0.000000 
#    y 0.000000 1.781380 0.000000 
#    z 0.000000 0.000000 1.695360 
# 
# From -- ./inp_files/10041.got.cif
#   From: 2010.03.12/outbox.cif.g09.slc.cpg/sg47_6_cif.got.tgz:10041.got - 2010.04.14 03:12:58.
