data_PCOD8195533
_publ_section_title
;
Structure prediction by ZEFSAII (Michael W. Deem and Ramdas Pophale) SiO2 
 PCOD8195533
Probable space group: P M M M
;
_chemical_formula_sum "Si O2"
_cell_formula_units_Z 64
_cell_length_a 9.140512
_cell_length_b 24.447200
_cell_length_c 15.031341
_cell_angle_alpha 90.000000
_cell_angle_beta 90.000000
_cell_angle_gamma 90.000000
_cell_volume 3358.902332
_symmetry_space_group_name_H-M "P M M M"
_symmetry_group_IT_number 47
_symmetry_cell_setting 'orthorhombic'
loop_
_space_group_symop_operation_xyz
x,y,z
-x,-y,z
x,-y,-z
-x,y,-z
-x,-y,-z
x,y,-z
-x,y,z
x,-y,z
loop_
_atom_site_type_symbol
_atom_site_label
_atom_site_fract_x
_atom_site_fract_y
_atom_site_fract_z
Si Si1 0.325456 0.358810 0.250308
Si Si2 0.171269 0.835265 0.899535
Si Si3 0.673671 0.560484 0.598832
Si Si4 0.329754 0.833566 0.604902
Si Si5 0.164038 0.060232 0.605537
Si Si6 0.673663 0.560583 0.098986
Si Si7 0.173537 0.243023 0.258556
Si Si8 0.335783 0.059556 0.894336
O O1 0.500000 0.349191 0.250544
O O2 0.269409 0.393153 0.335029
O O3 0.269674 0.392684 0.164850
O O4 0.241404 0.302431 0.251392
O O5 0.217327 0.786845 0.833474
O O6 0.235623 0.891429 0.858625
O O7 0.000000 0.843430 0.902012
O O8 0.229924 0.822619 0.000000
O O9 0.729435 0.575308 0.500000
O O10 0.500000 0.559201 0.601656
O O11 0.731477 0.500000 0.626467
O O12 0.300235 0.825796 0.500000
O O13 0.500000 0.828569 0.627693
O O14 0.274307 0.892928 0.639278
O O15 0.241750 0.786785 0.656126
O O16 0.164278 0.059266 0.500000
O O17 0.000000 0.073560 0.639864
O O18 0.213935 0.000000 0.640534
O O19 0.500000 0.559338 0.101854
O O20 0.731013 0.500000 0.126897
O O21 0.729622 0.575054 0.000000
O O22 0.000000 0.246039 0.271252
O O23 0.500000 0.069520 0.859892
O O24 0.279018 0.000000 0.860202
O O25 0.332096 0.059752 0.000000
#
# Coordination Sequence:
#
# PCOD8195533 Si02
#       8
#     8   8   8   8   8   8   8   8
#     4  10  19  31  50  75 101 131 170 214 253 294
#     4   9  19  36  55  73  96 131 175 218 256 298
#     4   8  14  26  47  76 105 129 156 195 244 294
#     4  10  21  37  57  79 103 133 172 221 269 309
#     4   8  14  27  50  79 108 137 168 204 254 317
#     4   8  14  26  47  77 109 136 165 207 259 310
#     4  11  24  39  53  72 102 141 181 218 260 313
#     4   8  14  26  47  76 105 129 156 198 258 320
#
# _framework density 19.053844000000002
#
# number of rings (size 3 to 8) (size 9 to 14) (size 15 to 20)
#    0.000    3.000    0.000    2.625    0.000    4.750 
#    0.000    4.375    0.000    2.250    0.000    1.750 
#    0.000    0.000    0.000    0.000    0.000    0.000 
#
# Total GULP energy -793200.096995 kJ/mol
# GULP energy per Si atom -12393.751516 kJ/mol
# Density = 1.901048 g / cm^3
# Si number density = 19.053844 Si / 1000 Ang^3
#
#
#
# Elastic Constant Matrix: (Units=GPa)
#
#
# Indices 1 2 3 4 5 6 
#
# 1 55.2419 59.7924 40.5349 0.0000 0.0000 0.0000
# 2 59.7924 191.7633 83.4260 0.0000 0.0000 0.0000
# 3 40.5349 83.4260 93.8338 0.0000 0.0000 0.0000
# 4 0.0000 0.0000 0.0000 -0.1432 0.0000 0.0000
# 5 0.0000 0.0000 0.0000 0.0000 15.3081 0.0000
# 6 0.0000 0.0000 0.0000 0.0000 0.0000 -5.5166
#
#
#
# Elastic Compliance Matrix: (Units=1/GPa)
#
#
# Indices 1 2 3 4 5 6 
#
# 1 0.030365 -0.006134 -0.007664 0.000000 0.000000 0.000000
# 2 -0.006134 0.009743 -0.006013 0.000000 0.000000 0.000000
# 3 -0.007664 -0.006013 0.019314 0.000000 0.000000 0.000000
# 4 0.000000 0.000000 0.000000 -6.981930 0.000000 0.000000
# 5 0.000000 0.000000 0.000000 0.000000 0.065325 0.000000
# 6 0.000000 0.000000 0.000000 0.000000 0.000000 -0.181273
#
#
# Mechanical properties :
#
#
# Convention : Reuss Voigt Hill
#
# Bulk Modulus (GPa) = 50.50261 78.70508 64.60385
# Shear Modulus (GPa) = -0.71508 12.40205 5.84348
#
# Velocity S-wave (km/s) = -0.61328 2.55403 1.75314
# Velocity P-wave (km/s) = 5.10502 7.07770 6.17070
#
# Compressibility (1/GPa) = 0.01980096
#
# Stress axis : x y z
#
# Youngs Moduli (GPa) = 32.93310 102.63677 51.77703
#
# Poissons Ratio (x) = 0.62954 0.39680
# Poissons Ratio (y) = 0.20200 0.31132
# Poissons Ratio (z) = 0.25239 0.61713
#
# Static dielectric constant tensor:
#      x y z
#    x 3.209770 0.000000 0.000000 
#    y 0.000000 3.732530 0.000000 
#    z 0.000000 0.000000 3.664850 
# 
# 
# High freq. dielectric constant tensor:
#      x y z
#    x 1.705030 0.000000 0.000000 
#    y 0.000000 1.746040 0.000000 
#    z 0.000000 0.000000 1.736940 
# 
# From -- ./inp_files/21945.got.cif
#   From: 2010.03.12/outbox.cif.g09.slc.cpg/sg47_11_cif.got.tgz:21945.got - 2010.04.14 03:12:58.
