data_PCOD8195191
_publ_section_title
;
Structure prediction by ZEFSAII (Michael W. Deem and Ramdas Pophale) SiO2 
 PCOD8195191
Probable space group: P M M M
;
_chemical_formula_sum "Si O2"
_cell_formula_units_Z 64
_cell_length_a 9.461067
_cell_length_b 15.669576
_cell_length_c 23.235802
_cell_angle_alpha 90.000000
_cell_angle_beta 90.000000
_cell_angle_gamma 90.000000
_cell_volume 3444.728754
_symmetry_space_group_name_H-M "P M M M"
_symmetry_group_IT_number 47
_symmetry_cell_setting 'orthorhombic'
loop_
_space_group_symop_operation_xyz
x,y,z
-x,-y,z
x,-y,-z
-x,y,-z
-x,-y,-z
x,y,-z
-x,y,z
x,-y,z
loop_
_atom_site_type_symbol
_atom_site_label
_atom_site_fract_x
_atom_site_fract_y
_atom_site_fract_z
Si Si1 0.847375 0.902311 0.242101
Si Si2 0.164862 0.271182 0.933826
Si Si3 0.832650 0.095493 0.116448
Si Si4 0.834365 0.763088 0.565234
Si Si5 0.840704 0.591920 0.377733
Si Si6 0.338145 0.822991 0.331431
Si Si7 0.338945 0.640866 0.724692
Si Si8 0.666329 0.400550 0.146539
O O1 0.787221 0.871659 0.180331
O O2 0.734108 0.894557 0.292786
O O3 0.000000 0.857498 0.256938
O O4 0.879927 0.000000 0.232858
O O5 0.219412 0.172995 0.924513
O O6 0.250810 0.340622 0.897514
O O7 0.000000 0.277919 0.916735
O O8 0.189695 0.294513 0.000000
O O9 0.000000 0.087193 0.112741
O O10 0.769323 0.000000 0.100948
O O11 0.791512 0.784802 0.500000
O O12 0.792311 0.664581 0.577608
O O13 0.742456 0.821207 0.607639
O O14 0.000000 0.780299 0.575465
O O15 0.828443 0.500000 0.409230
O O16 0.749693 0.585622 0.319970
O O17 0.000000 0.611178 0.357937
O O18 0.500000 0.845972 0.343968
O O19 0.320160 0.738737 0.293307
O O20 0.500000 0.610384 0.719680
O O21 0.283963 0.625093 0.789135
O O22 0.500000 0.383657 0.138979
O O23 0.702711 0.500000 0.134999
#
# Coordination Sequence:
#
# PCOD8195191 Si02
#       8
#     8   8   8   8   8   8   8   8
#     4   9  17  30  50  75 101 128 156 186 226 283
#     4  10  21  35  52  76 103 131 166 209 253 294
#     4   8  15  30  53  80 107 133 161 195 240 298
#     4   9  18  32  48  65  89 126 167 200 232 275
#     4   9  17  28  44  69  97 122 152 193 240 287
#     4  10  19  30  48  73  99 126 155 195 245 289
#     4   9  18  32  49  70  95 123 158 199 245 296
#     4  10  21  36  53  71  94 131 176 216 254 298
#
# _framework density 18.579111999999999
#
# number of rings (size 3 to 8) (size 9 to 14) (size 15 to 20)
#    0.000    2.750    0.000    2.250    0.000    3.500 
#    0.000    3.750    0.000    1.500    0.000    7.000 
#    0.000    0.000    0.000    0.000    0.000    0.000 
#
# Total GULP energy -793077.145320 kJ/mol
# GULP energy per Si atom -12391.830396 kJ/mol
# Density = 1.853682 g / cm^3
# Si number density = 18.579112 Si / 1000 Ang^3
#
#
#
# Elastic Constant Matrix: (Units=GPa)
#
#
# Indices 1 2 3 4 5 6 
#
# 1 58.2652 21.0062 41.5325 0.0000 0.0000 0.0000
# 2 21.0062 55.4599 33.3240 0.0000 0.0000 0.0000
# 3 41.5325 33.3240 102.6338 0.0000 0.0000 0.0000
# 4 0.0000 0.0000 0.0000 19.3972 0.0000 0.0000
# 5 0.0000 0.0000 0.0000 0.0000 24.5595 0.0000
# 6 0.0000 0.0000 0.0000 0.0000 0.0000 19.2976
#
#
#
# Elastic Compliance Matrix: (Units=1/GPa)
#
#
# Indices 1 2 3 4 5 6 
#
# 1 0.024881 -0.004192 -0.008707 0.000000 0.000000 0.000000
# 2 -0.004192 0.023108 -0.005806 0.000000 0.000000 0.000000
# 3 -0.008707 -0.005806 0.015152 0.000000 0.000000 0.000000
# 4 0.000000 0.000000 0.000000 0.051554 0.000000 0.000000
# 5 0.000000 0.000000 0.000000 0.000000 0.040718 0.000000
# 6 0.000000 0.000000 0.000000 0.000000 0.000000 0.051820
#
#
# Mechanical properties :
#
#
# Convention : Reuss Voigt Hill
#
# Bulk Modulus (GPa) = 38.86630 45.34270 42.10450
# Shear Modulus (GPa) = 19.74564 20.68393 20.21478
#
# Velocity S-wave (km/s) = 3.26358 3.34022 3.30212
# Velocity P-wave (km/s) = 5.93009 6.27170 6.10329
#
# Compressibility (1/GPa) = 0.02572923
#
# Stress axis : x y z
#
# Youngs Moduli (GPa) = 40.19125 43.27560 65.99678
#
# Poissons Ratio (x) = 0.18141 0.57466
# Poissons Ratio (y) = 0.16848 0.38320
# Poissons Ratio (z) = 0.34996 0.25128
#
# Static dielectric constant tensor:
#      x y z
#    x 3.251110 0.000000 0.000000 
#    y 0.000000 3.391620 0.000000 
#    z 0.000000 0.000000 3.381100 
# 
# 
# High freq. dielectric constant tensor:
#      x y z
#    x 1.700870 0.000000 0.000000 
#    y 0.000000 1.715090 0.000000 
#    z 0.000000 0.000000 1.714260 
# 
# From -- ./inp_files/29939.got.cif
#   From: 2010.03.12/outbox.cif.g09.slc.cpg/sg47_15_cif.got.tgz:29939.got - 2010.04.14 03:12:58.
