data_PCOD8195096
_publ_section_title
;
Structure prediction by ZEFSAII (Michael W. Deem and Ramdas Pophale) SiO2 
 PCOD8195096
Probable space group: P M M M
;
_chemical_formula_sum "Si O2"
_cell_formula_units_Z 44
_cell_length_a 13.625979
_cell_length_b 8.994750
_cell_length_c 21.577698
_cell_angle_alpha 90.000000
_cell_angle_beta 90.000000
_cell_angle_gamma 90.000000
_cell_volume 2644.611748
_symmetry_space_group_name_H-M "P M M M"
_symmetry_group_IT_number 47
_symmetry_cell_setting 'orthorhombic'
loop_
_space_group_symop_operation_xyz
x,y,z
-x,-y,z
x,-y,-z
-x,y,-z
-x,-y,-z
x,y,-z
-x,y,z
x,-y,z
loop_
_atom_site_type_symbol
_atom_site_label
_atom_site_fract_x
_atom_site_fract_y
_atom_site_fract_z
Si Si1 0.800655 0.175731 0.930092
Si Si2 0.281131 0.824897 0.746371
Si Si3 0.616072 0.327337 0.365602
Si Si4 0.606778 0.324788 0.500000
Si Si5 0.887553 0.328545 0.815085
Si Si6 0.606875 0.824826 0.867500
O O1 0.873297 0.256550 0.882920
O O2 0.688297 0.227869 0.917072
O O3 0.810467 0.000000 0.919086
O O4 0.829079 0.220301 0.000000
O O5 0.321663 0.771584 0.680951
O O6 0.176987 0.750396 0.762291
O O7 0.359246 0.777421 0.798823
O O8 0.264519 0.000000 0.744724
O O9 0.500000 0.292744 0.360539
O O10 0.635815 0.500000 0.351361
O O11 0.657791 0.282051 0.434506
O O12 0.591390 0.500000 0.500000
O O13 0.500000 0.248327 0.500000
O O14 0.857016 0.500000 0.819253
O O15 0.000000 0.308722 0.795243
O O16 0.500000 0.751799 0.881520
O O17 0.596243 0.000000 0.871091
#
# Coordination Sequence:
#
# PCOD8195096 Si02
#       6
#     8   8   8   4   8   8
#     4   9  18  31  47  69  94 119 148 182 225 278
#     4  10  19  30  46  69  95 121 152 191 236 284
#     4   9  16  27  45  69  99 134 167 195 222 256
#     4   7  12  24  41  63  94 133 170 195 217 252
#     4  10  21  36  52  68  86 111 148 194 240 286
#     4   8  14  25  41  62  89 119 149 180 213 254
#
# _framework density 16.637602000000001
#
# number of rings (size 3 to 8) (size 9 to 14) (size 15 to 20)
#    0.000    3.000    0.000    3.818    0.000    3.636 
#    0.000    4.091    0.000    6.545    0.000    5.727 
#    0.000    5.091    0.000    0.000    0.000    0.000 
#
# Total GULP energy -545232.034130 kJ/mol
# GULP energy per Si atom -12391.637139 kJ/mol
# Density = 1.659973 g / cm^3
# Si number density = 16.637602 Si / 1000 Ang^3
#
#
#
# Elastic Constant Matrix: (Units=GPa)
#
#
# Indices 1 2 3 4 5 6 
#
# 1 73.7492 34.4370 31.5492 0.0000 0.0000 0.0000
# 2 34.4370 62.5716 42.7414 0.0000 0.0000 0.0000
# 3 31.5492 42.7414 113.8441 0.0000 0.0000 0.0000
# 4 0.0000 0.0000 0.0000 26.4450 0.0000 0.0000
# 5 0.0000 0.0000 0.0000 0.0000 20.3769 0.0000
# 6 0.0000 0.0000 0.0000 0.0000 0.0000 20.0715
#
#
#
# Elastic Compliance Matrix: (Units=1/GPa)
#
#
# Indices 1 2 3 4 5 6 
#
# 1 0.018506 -0.008987 -0.001755 0.000000 0.000000 0.000000
# 2 -0.008987 0.025858 -0.007218 0.000000 0.000000 0.000000
# 3 -0.001755 -0.007218 0.011980 0.000000 0.000000 0.000000
# 4 0.000000 0.000000 0.000000 0.037814 0.000000 0.000000
# 5 0.000000 0.000000 0.000000 0.000000 0.049075 0.000000
# 6 0.000000 0.000000 0.000000 0.000000 0.000000 0.049822
#
#
# Mechanical properties :
#
#
# Convention : Reuss Voigt Hill
#
# Bulk Modulus (GPa) = 48.95631 51.95778 50.45704
# Shear Modulus (GPa) = 21.20602 22.80782 22.00692
#
# Velocity S-wave (km/s) = 3.57400 3.70653 3.64087
# Velocity P-wave (km/s) = 6.82058 7.04377 6.93307
#
# Compressibility (1/GPa) = 0.02042638
#
# Stress axis : x y z
#
# Youngs Moduli (GPa) = 54.03543 38.67308 83.47269
#
# Poissons Ratio (x) = 0.34754 0.14647
# Poissons Ratio (y) = 0.48560 0.60247
# Poissons Ratio (z) = 0.09481 0.27913
#
# Static dielectric constant tensor:
#      x y z
#    x 3.432540 0.000000 0.000000 
#    y 0.000000 2.925870 0.000000 
#    z 0.000000 0.000000 3.268930 
# 
# 
# High freq. dielectric constant tensor:
#      x y z
#    x 1.620530 0.000000 0.000000 
#    y 0.000000 1.621330 0.000000 
#    z 0.000000 0.000000 1.639040 
# 
# From -- ./inp_files/30772.got.cif
#   From: 2010.03.12/outbox.cif.g09.slc.cpg/sg47_16_cif.got.tgz:30772.got - 2010.04.14 03:12:58.
