data_PCOD8195210
_publ_section_title
;
Structure prediction by ZEFSAII (Michael W. Deem and Ramdas Pophale) SiO2 
 PCOD8195210
Probable space group: P M M M
;
_chemical_formula_sum "Si O2"
_cell_formula_units_Z 44
_cell_length_a 17.193765
_cell_length_b 15.099666
_cell_length_c 8.921066
_cell_angle_alpha 90.000000
_cell_angle_beta 90.000000
_cell_angle_gamma 90.000000
_cell_volume 2316.088125
_symmetry_space_group_name_H-M "P M M M"
_symmetry_group_IT_number 47
_symmetry_cell_setting 'orthorhombic'
loop_
_space_group_symop_operation_xyz
x,y,z
-x,-y,z
x,-y,-z
-x,y,-z
-x,-y,-z
x,y,-z
-x,y,z
x,-y,z
loop_
_atom_site_type_symbol
_atom_site_label
_atom_site_fract_x
_atom_site_fract_y
_atom_site_fract_z
Si Si1 0.414111 0.597167 0.677931
Si Si2 0.697196 0.746214 0.678282
Si Si3 0.137567 0.268032 0.175618
Si Si4 0.090740 0.096942 0.334982
Si Si5 0.587142 0.900797 0.678141
Si Si6 0.000000 0.397498 0.178085
O O1 0.416964 0.604756 0.500000
O O2 0.500000 0.615697 0.742601
O O3 0.385317 0.500000 0.727181
O O4 0.355490 0.668088 0.744717
O O5 0.702360 0.746430 0.500000
O O6 0.781156 0.724178 0.741704
O O7 0.656087 0.836622 0.737654
O O8 0.107770 0.169411 0.209426
O O9 0.076662 0.343405 0.234236
O O10 0.149569 0.278739 0.000000
O O11 0.125298 0.123778 0.500000
O O12 0.000000 0.087518 0.351817
O O13 0.125022 0.000000 0.288188
O O14 0.586921 0.898050 0.500000
O O15 0.500000 0.871950 0.733054
O O16 0.605570 0.000000 0.735877
O O17 0.000000 0.500000 0.238607
O O18 0.000000 0.398486 0.000000
#
# Coordination Sequence:
#
# PCOD8195210 Si02
#       6
#     8   8   8   8   8   4
#     4   8  14  26  46  72 100 129 164 210 263 315
#     4  10  19  30  48  75 104 133 165 210 262 310
#     4  11  22  36  54  77 104 137 177 220 262 311
#     4   9  18  34  57  81 104 131 162 202 255 309
#     4   8  14  26  46  72 100 132 172 210 240 282
#     4   9  20  40  60  73  92 132 183 225 262 311
#
# _framework density 18.99755
#
# number of rings (size 3 to 8) (size 9 to 14) (size 15 to 20)
#    0.000    2.818    0.909    2.727    0.000    4.000 
#    0.000    2.727    0.000    6.000    0.000    2.545 
#    0.000    0.000    0.000    0.000    0.000    0.000 
#
# Total GULP energy -545084.351160 kJ/mol
# GULP energy per Si atom -12388.280708 kJ/mol
# Density = 1.895431 g / cm^3
# Si number density = 18.997550 Si / 1000 Ang^3
#
#
#
# Elastic Constant Matrix: (Units=GPa)
#
#
# Indices 1 2 3 4 5 6 
#
# 1 137.3024 88.4594 20.6373 0.0000 0.0000 0.0000
# 2 88.4594 161.6621 22.9905 0.0000 0.0000 0.0000
# 3 20.6373 22.9905 23.3137 0.0000 0.0000 0.0000
# 4 0.0000 0.0000 0.0000 11.1537 0.0000 0.0000
# 5 0.0000 0.0000 0.0000 0.0000 8.3157 0.0000
# 6 0.0000 0.0000 0.0000 0.0000 0.0000 15.9063
#
#
#
# Elastic Compliance Matrix: (Units=1/GPa)
#
#
# Indices 1 2 3 4 5 6 
#
# 1 0.011674 -0.005721 -0.004693 0.000000 0.000000 0.000000
# 2 -0.005721 0.009998 -0.004795 0.000000 0.000000 0.000000
# 3 -0.004693 -0.004795 0.051776 0.000000 0.000000 0.000000
# 4 0.000000 0.000000 0.000000 0.089657 0.000000 0.000000
# 5 0.000000 0.000000 0.000000 0.000000 0.120255 0.000000
# 6 0.000000 0.000000 0.000000 0.000000 0.000000 0.062868
#
#
# Mechanical properties :
#
#
# Convention : Reuss Voigt Hill
#
# Bulk Modulus (GPa) = 23.23917 65.16143 44.20030
# Shear Modulus (GPa) = 12.78809 19.75453 16.27131
#
# Velocity S-wave (km/s) = 2.59732 3.22816 2.92977
# Velocity P-wave (km/s) = 4.61021 6.94760 5.89589
#
# Compressibility (1/GPa) = 0.04303079
#
# Stress axis : x y z
#
# Youngs Moduli (GPa) = 85.65972 100.02065 19.31388
#
# Poissons Ratio (x) = 0.57217 0.09063
# Poissons Ratio (y) = 0.49002 0.09262
# Poissons Ratio (z) = 0.40197 0.47965
#
# Static dielectric constant tensor:
#      x y z
#    x 4.196920 0.000000 0.000000 
#    y 0.000000 4.146750 0.000000 
#    z 0.000000 0.000000 2.983820 
# 
# 
# High freq. dielectric constant tensor:
#      x y z
#    x 1.740170 0.000000 0.000000 
#    y 0.000000 1.751920 0.000000 
#    z 0.000000 0.000000 1.676850 
# 
# From -- ./inp_files/6060.got.cif
#   From: 2010.03.12/outbox.cif.g09.slc.cpg/sg47_4_cif.got.tgz:6060.got - 2010.04.14 03:12:58.
