data_PCOD8195796
_publ_section_title
;
Structure prediction by ZEFSAII (Michael W. Deem and Ramdas Pophale) SiO2 
 PCOD8195796
Probable space group: P M M M
;
_chemical_formula_sum "Si O2"
_cell_formula_units_Z 52
_cell_length_a 13.742283
_cell_length_b 9.335806
_cell_length_c 21.386474
_cell_angle_alpha 90.000000
_cell_angle_beta 90.000000
_cell_angle_gamma 90.000000
_cell_volume 2743.783843
_symmetry_space_group_name_H-M "P M M M"
_symmetry_group_IT_number 47
_symmetry_cell_setting 'orthorhombic'
loop_
_space_group_symop_operation_xyz
x,y,z
-x,-y,z
x,-y,-z
-x,y,-z
-x,-y,-z
x,y,-z
-x,y,z
x,-y,z
loop_
_atom_site_type_symbol
_atom_site_label
_atom_site_fract_x
_atom_site_fract_y
_atom_site_fract_z
Si Si1 0.206511 0.835422 0.070572
Si Si2 0.390587 0.837074 0.855684
Si Si3 0.889922 0.164974 0.699565
Si Si4 0.296944 0.833688 0.628151
Si Si5 0.389169 0.169757 0.500000
Si Si6 0.385095 0.340020 0.738855
Si Si7 0.115029 0.338884 0.819514
O O1 0.321717 0.818874 0.084255
O O2 0.144473 0.739182 0.116996
O O3 0.173904 0.000000 0.079002
O O4 0.187327 0.782976 0.000000
O O5 0.500000 0.791072 0.874839
O O6 0.345123 0.738821 0.800856
O O7 0.389500 0.000000 0.830858
O O8 0.818762 0.190471 0.640200
O O9 0.847450 0.256836 0.757454
O O10 0.000000 0.210150 0.680449
O O11 0.887504 0.000000 0.720985
O O12 0.328295 0.776042 0.560042
O O13 0.358987 0.746075 0.677351
O O14 0.324460 0.000000 0.635472
O O15 0.500000 0.231462 0.500000
O O16 0.394070 0.000000 0.500000
O O17 0.500000 0.344245 0.744080
O O18 0.341201 0.500000 0.735937
O O19 0.157138 0.500000 0.819064
O O20 0.000000 0.339796 0.816900
#
# Coordination Sequence:
#
# PCOD8195796 Si02
#       7
#     8   8   8   8   4   8   8
#     4  10  21  35  51  73 100 131 167 205 248 299
#     4   9  18  33  52  73  98 129 165 205 249 298
#     4   9  18  33  53  77 103 129 161 205 254 298
#     4  10  19  32  52  75 100 134 172 205 242 292
#     4   9  18  32  50  74 104 137 173 209 242 283
#     4  10  20  32  48  73 102 129 161 206 256 299
#     4  10  21  36  54  76 101 130 165 206 252 301
#
# _framework density 18.951930000000001
#
# number of rings (size 3 to 8) (size 9 to 14) (size 15 to 20)
#    0.000    2.385    0.000    2.308    0.000    8.308 
#    0.000    3.846    0.000    3.692    0.000    3.231 
#    0.000    3.692    0.000    0.000    0.000    0.000 
#
# Total GULP energy -644747.204533 kJ/mol
# GULP energy per Si atom -12398.984703 kJ/mol
# Density = 1.890879 g / cm^3
# Si number density = 18.951930 Si / 1000 Ang^3
#
#
#
# Elastic Constant Matrix: (Units=GPa)
#
#
# Indices 1 2 3 4 5 6 
#
# 1 55.3134 26.1601 48.4661 0.0000 0.0000 0.0000
# 2 26.1601 76.7973 46.5202 0.0000 0.0000 0.0000
# 3 48.4661 46.5202 133.4438 0.0000 0.0000 0.0000
# 4 0.0000 0.0000 0.0000 2.0506 0.0000 0.0000
# 5 0.0000 0.0000 0.0000 0.0000 29.6079 0.0000
# 6 0.0000 0.0000 0.0000 0.0000 0.0000 19.4414
#
#
#
# Elastic Compliance Matrix: (Units=1/GPa)
#
#
# Indices 1 2 3 4 5 6 
#
# 1 0.027553 -0.004214 -0.008538 0.000000 0.000000 0.000000
# 2 -0.004214 0.017152 -0.004449 0.000000 0.000000 0.000000
# 3 -0.008538 -0.004449 0.012146 0.000000 0.000000 0.000000
# 4 0.000000 0.000000 0.000000 0.487651 0.000000 0.000000
# 5 0.000000 0.000000 0.000000 0.000000 0.033775 0.000000
# 6 0.000000 0.000000 0.000000 0.000000 0.000000 0.051437
#
#
# Mechanical properties :
#
#
# Convention : Reuss Voigt Hill
#
# Bulk Modulus (GPa) = 44.54561 56.42745 50.48653
# Shear Modulus (GPa) = 7.44494 19.84719 13.64607
#
# Velocity S-wave (km/s) = 1.98415 3.23962 2.68626
# Velocity P-wave (km/s) = 5.36700 6.62058 6.02648
#
# Compressibility (1/GPa) = 0.02244890
#
# Stress axis : x y z
#
# Youngs Moduli (GPa) = 36.29403 58.30391 82.33338
#
# Poissons Ratio (x) = 0.24566 0.70297
# Poissons Ratio (y) = 0.15293 0.36629
# Poissons Ratio (z) = 0.30988 0.25939
#
# Static dielectric constant tensor:
#      x y z
#    x 3.597790 0.000000 0.000000 
#    y 0.000000 3.600040 0.000000 
#    z 0.000000 0.000000 3.410900 
# 
# 
# High freq. dielectric constant tensor:
#      x y z
#    x 1.748010 0.000000 0.000000 
#    y 0.000000 1.725230 0.000000 
#    z 0.000000 0.000000 1.719230 
# 
# From -- ./inp_files/7039.got.cif
#   From: 2010.03.12/outbox.cif.g09.slc.cpg/sg47_4_cif.got.tgz:7039.got - 2010.04.14 03:12:58.
