data_PCOD8195822
_publ_section_title
;
Structure prediction by ZEFSAII (Michael W. Deem and Ramdas Pophale) SiO2 
 PCOD8195822
Probable space group: P M M M
;
_chemical_formula_sum "Si O2"
_cell_formula_units_Z 52
_cell_length_a 8.712867
_cell_length_b 12.114766
_cell_length_c 27.960841
_cell_angle_alpha 90.000000
_cell_angle_beta 90.000000
_cell_angle_gamma 90.000000
_cell_volume 2951.388254
_symmetry_space_group_name_H-M "P M M M"
_symmetry_group_IT_number 47
_symmetry_cell_setting 'orthorhombic'
loop_
_space_group_symop_operation_xyz
x,y,z
-x,-y,z
x,-y,-z
-x,y,-z
-x,-y,-z
x,y,-z
-x,y,z
x,-y,z
loop_
_atom_site_type_symbol
_atom_site_label
_atom_site_fract_x
_atom_site_fract_y
_atom_site_fract_z
Si Si1 0.818275 0.376175 0.447731
Si Si2 0.181005 0.873341 0.175797
Si Si3 0.675080 0.129546 0.276410
Si Si4 0.181720 0.500000 0.801718
Si Si5 0.681533 0.500000 0.698268
Si Si6 0.181657 0.712799 0.650178
Si Si7 0.681945 0.673763 0.870176
Si Si8 0.318513 0.500000 0.947047
O O1 0.757463 0.335768 0.500000
O O2 0.754350 0.500000 0.436969
O O3 0.769560 0.289747 0.406133
O O4 0.000000 0.383478 0.448903
O O5 0.240576 0.833634 0.227680
O O6 0.256640 0.799464 0.133484
O O7 0.000000 0.858483 0.174517
O O8 0.229571 0.000000 0.166086
O O9 0.500000 0.170161 0.272724
O O10 0.754125 0.179695 0.323400
O O11 0.687294 0.000000 0.283290
O O12 0.251675 0.500000 0.750336
O O13 0.241152 0.389932 0.826693
O O14 0.000000 0.500000 0.800256
O O15 0.500000 0.500000 0.699525
O O16 0.742640 0.393219 0.672554
O O17 0.000000 0.708518 0.656740
O O18 0.500000 0.671305 0.864966
O O19 0.733285 0.611595 0.919155
O O20 0.500000 0.500000 0.951307
O O21 0.243445 0.500000 0.000000
#
# Coordination Sequence:
#
# PCOD8195822 Si02
#       8
#     8   8   8   4   4   8   8   4
#     4   8  14  27  48  72  96 121 153 196 245 295
#     4  10  20  34  52  74 101 134 172 210 247 292
#     4  10  21  36  52  71  99 135 171 205 245 294
#     4  11  21  33  48  67  98 134 168 203 242 293
#     4  12  23  33  45  67 102 135 162 194 242 299
#     4  11  20  32  51  74  98 124 161 203 247 295
#     4  10  19  32  52  77 103 132 168 209 253 296
#     4   8  16  32  54  79 105 134 169 210 252 295
#
# _framework density 17.618825999999999
#
# number of rings (size 3 to 8) (size 9 to 14) (size 15 to 20)
#    0.000    2.077    0.769    5.077    0.000    1.846 
#    0.000    0.000    0.000   11.538    0.000    6.462 
#    0.000    0.000    0.000    0.000    0.000    0.000 
#
# Total GULP energy -644551.958893 kJ/mol
# GULP energy per Si atom -12395.229979 kJ/mol
# Density = 1.757873 g / cm^3
# Si number density = 17.618826 Si / 1000 Ang^3
#
#
#
# Elastic Constant Matrix: (Units=GPa)
#
#
# Indices 1 2 3 4 5 6 
#
# 1 92.4463 37.6283 41.5548 0.0000 0.0000 0.0000
# 2 37.6283 82.9984 60.3632 0.0000 0.0000 0.0000
# 3 41.5548 60.3632 143.1438 0.0000 0.0000 0.0000
# 4 0.0000 0.0000 0.0000 31.3113 0.0000 0.0000
# 5 0.0000 0.0000 0.0000 0.0000 17.7662 0.0000
# 6 0.0000 0.0000 0.0000 0.0000 0.0000 30.8165
#
#
#
# Elastic Compliance Matrix: (Units=1/GPa)
#
#
# Indices 1 2 3 4 5 6 
#
# 1 0.013632 -0.004763 -0.001949 0.000000 0.000000 0.000000
# 2 -0.004763 0.019042 -0.006647 0.000000 0.000000 0.000000
# 3 -0.001949 -0.006647 0.010355 0.000000 0.000000 0.000000
# 4 0.000000 0.000000 0.000000 0.031937 0.000000 0.000000
# 5 0.000000 0.000000 0.000000 0.000000 0.056287 0.000000
# 6 0.000000 0.000000 0.000000 0.000000 0.000000 0.032450
#
#
# Mechanical properties :
#
#
# Convention : Reuss Voigt Hill
#
# Bulk Modulus (GPa) = 61.30893 66.40900 63.85897
# Shear Modulus (GPa) = 25.52870 27.91493 26.72182
#
# Velocity S-wave (km/s) = 3.81063 3.98475 3.89866
# Velocity P-wave (km/s) = 7.36438 7.67755 7.52260
#
# Compressibility (1/GPa) = 0.01631084
#
# Stress axis : x y z
#
# Youngs Moduli (GPa) = 73.35859 52.51495 96.57235
#
# Poissons Ratio (x) = 0.25011 0.18821
# Poissons Ratio (y) = 0.34938 0.64196
# Poissons Ratio (z) = 0.14297 0.34909
#
# Static dielectric constant tensor:
#      x y z
#    x 3.249970 0.000000 0.000000 
#    y 0.000000 3.282910 0.000000 
#    z 0.000000 0.000000 3.562710 
# 
# 
# High freq. dielectric constant tensor:
#      x y z
#    x 1.677570 0.000000 0.000000 
#    y 0.000000 1.670760 0.000000 
#    z 0.000000 0.000000 1.673640 
# 
# From -- ./inp_files/33266.got.cif
#   From: 2010.03.12/outbox.cif.g09.slc.cpg/sg47_17_cif.got.tgz:33266.got - 2010.04.14 03:12:58.
