data_PCOD8195157
_publ_section_title
;
Structure prediction by ZEFSAII (Michael W. Deem and Ramdas Pophale) SiO2 
 PCOD8195157
Probable space group: P M M M
;
_chemical_formula_sum "Si O2"
_cell_formula_units_Z 64
_cell_length_a 15.239022
_cell_length_b 9.173289
_cell_length_c 24.923999
_cell_angle_alpha 90.000000
_cell_angle_beta 90.000000
_cell_angle_gamma 90.000000
_cell_volume 3484.174494
_symmetry_space_group_name_H-M "P M M M"
_symmetry_group_IT_number 47
_symmetry_cell_setting 'orthorhombic'
loop_
_space_group_symop_operation_xyz
x,y,z
-x,-y,z
x,-y,-z
-x,y,-z
-x,-y,-z
x,y,-z
-x,y,z
x,-y,z
loop_
_atom_site_type_symbol
_atom_site_label
_atom_site_fract_x
_atom_site_fract_y
_atom_site_fract_z
Si Si1 0.285270 0.328522 0.853891
Si Si2 0.130747 0.165685 0.281719
Si Si3 0.271496 0.326916 0.440915
Si Si4 0.599113 0.666668 0.349622
Si Si5 0.599957 0.167555 0.937389
Si Si6 0.095074 0.666677 0.176607
Si Si7 0.904084 0.666909 0.612481
Si Si8 0.671542 0.167301 0.253601
O O1 0.301251 0.500000 0.848700
O O2 0.332131 0.270797 0.906964
O O3 0.180645 0.290389 0.858810
O O4 0.329125 0.250991 0.802814
O O5 0.090052 0.236582 0.229220
O O6 0.092548 0.243243 0.333238
O O7 0.235053 0.180085 0.281992
O O8 0.099526 0.000000 0.282721
O O9 0.294330 0.263338 0.500000
O O10 0.278405 0.500000 0.442738
O O11 0.339233 0.266167 0.396437
O O12 0.172435 0.275864 0.426722
O O13 0.500000 0.675155 0.371077
O O14 0.626631 0.500000 0.336949
O O15 0.604386 0.758342 0.294765
O O16 0.500000 0.206297 0.921077
O O17 0.619984 0.000000 0.922974
O O18 0.613984 0.195901 0.000000
O O19 0.106559 0.500000 0.194944
O O20 0.000000 0.687537 0.146297
O O21 0.884535 0.500000 0.627950
O O22 0.000000 0.682529 0.584366
O O23 0.644203 0.000000 0.243077
#
# Coordination Sequence:
#
# PCOD8195157 Si02
#       8
#     8   8   8   8   8   8   8   8
#     4  10  20  33  54  83 112 142 178 221 263 305
#     4  10  19  30  47  72 100 131 168 208 249 297
#     4   9  18  33  52  73  98 126 159 206 256 302
#     4  10  20  34  54  77  99 126 162 206 257 310
#     4   9  19  37  59  81 108 144 183 222 266 315
#     4   9  18  32  49  72 106 145 179 211 253 305
#     4  10  19  30  48  72  97 128 162 197 245 304
#     4  10  20  34  52  74 104 140 172 204 251 309
#
# _framework density 18.368770999999999
#
# number of rings (size 3 to 8) (size 9 to 14) (size 15 to 20)
#    0.000    2.375    1.250    1.875    0.000    5.250 
#    0.000    3.125    0.000    1.875    0.000    4.375 
#    0.000    0.000    0.000    0.000    0.000    0.000 
#
# Total GULP energy -793364.135759 kJ/mol
# GULP energy per Si atom -12396.314621 kJ/mol
# Density = 1.832696 g / cm^3
# Si number density = 18.368771 Si / 1000 Ang^3
#
#
#
# Elastic Constant Matrix: (Units=GPa)
#
#
# Indices 1 2 3 4 5 6 
#
# 1 111.5939 39.2924 55.2394 0.0000 0.0000 0.0000
# 2 39.2924 77.9140 41.4933 0.0000 0.0000 0.0000
# 3 55.2394 41.4933 88.2388 0.0000 0.0000 0.0000
# 4 0.0000 0.0000 0.0000 -42.6976 0.0000 0.0000
# 5 0.0000 0.0000 0.0000 0.0000 15.9315 0.0000
# 6 0.0000 0.0000 0.0000 0.0000 0.0000 19.8986
#
#
#
# Elastic Compliance Matrix: (Units=1/GPa)
#
#
# Indices 1 2 3 4 5 6 
#
# 1 0.013518 -0.003082 -0.007013 0.000000 0.000000 0.000000
# 2 -0.003082 0.017825 -0.006453 0.000000 0.000000 0.000000
# 3 -0.007013 -0.006453 0.018757 0.000000 0.000000 0.000000
# 4 0.000000 0.000000 0.000000 -0.023421 0.000000 0.000000
# 5 0.000000 0.000000 0.000000 0.000000 0.062769 0.000000
# 6 0.000000 0.000000 0.000000 0.000000 0.000000 0.050255
#
#
# Mechanical properties :
#
#
# Convention : Reuss Voigt Hill
#
# Bulk Modulus (GPa) = 58.80686 61.08853 59.94770
# Shear Modulus (GPa) = 28.01629 8.07464 18.04546
#
# Velocity S-wave (km/s) = 3.90963 2.09890 3.13772
# Velocity P-wave (km/s) = 7.24323 6.26121 6.77005
#
# Compressibility (1/GPa) = 0.01700482
#
# Stress axis : x y z
#
# Youngs Moduli (GPa) = 73.97644 56.09963 53.31212
#
# Poissons Ratio (x) = 0.17291 0.37388
# Poissons Ratio (y) = 0.22802 0.34400
# Poissons Ratio (z) = 0.51880 0.36199
#
# Static dielectric constant tensor:
#      x y z
#    x 3.577990 0.000000 0.000000 
#    y 0.000000 3.275060 0.000000 
#    z 0.000000 0.000000 3.162080 
# 
# 
# High freq. dielectric constant tensor:
#      x y z
#    x 1.724760 0.000000 0.000000 
#    y 0.000000 1.699020 0.000000 
#    z 0.000000 0.000000 1.684580 
# 
# From -- ./inp_files/21929.got.cif
#   From: 2010.03.12/outbox.cif.g09.slc.cpg/sg47_11_cif.got.tgz:21929.got - 2010.04.14 03:12:58.
