data_PCOD8195443
_publ_section_title
;
Structure prediction by ZEFSAII (Michael W. Deem and Ramdas Pophale) SiO2 
 PCOD8195443
Probable space group: P M M M
;
_chemical_formula_sum "Si O2"
_cell_formula_units_Z 56
_cell_length_a 14.310761
_cell_length_b 22.698738
_cell_length_c 8.886968
_cell_angle_alpha 90.000000
_cell_angle_beta 90.000000
_cell_angle_gamma 90.000000
_cell_volume 2886.809044
_symmetry_space_group_name_H-M "P M M M"
_symmetry_group_IT_number 47
_symmetry_cell_setting 'orthorhombic'
loop_
_space_group_symop_operation_xyz
x,y,z
-x,-y,z
x,-y,-z
-x,y,-z
-x,-y,-z
x,y,-z
-x,y,z
x,-y,z
loop_
_atom_site_type_symbol
_atom_site_label
_atom_site_fract_x
_atom_site_fract_y
_atom_site_fract_z
Si Si1 0.107582 0.210800 0.326948
Si Si2 0.605802 0.853268 0.676769
Si Si3 0.214707 0.108001 0.822892
Si Si4 0.891902 0.000000 0.678009
Si Si5 0.103758 0.333116 0.826955
Si Si6 0.392566 0.718448 0.329240
Si Si7 0.393177 0.500000 0.179967
Si Si8 0.708818 0.614217 0.825704
O O1 0.138559 0.203067 0.500000
O O2 0.170884 0.170398 0.222024
O O3 0.124085 0.277981 0.280102
O O4 0.000000 0.192508 0.304813
O O5 0.622911 0.861587 0.500000
O O6 0.500000 0.872062 0.718565
O O7 0.677455 0.894127 0.768792
O O8 0.622804 0.785455 0.723544
O O9 0.156571 0.057506 0.742690
O O10 0.210258 0.098419 0.000000
O O11 0.880987 0.000000 0.500000
O O12 0.000000 0.000000 0.726597
O O13 0.179601 0.384291 0.792194
O O14 0.000000 0.358753 0.795311
O O15 0.112560 0.312009 0.000000
O O16 0.358834 0.711113 0.500000
O O17 0.500000 0.700469 0.312861
O O18 0.332659 0.675802 0.227073
O O19 0.500000 0.500000 0.237062
O O20 0.340089 0.557190 0.249191
O O21 0.389168 0.500000 0.000000
O O22 0.687602 0.609684 0.000000
#
# Coordination Sequence:
#
# PCOD8195443 Si02
#       8
#     8   8   8   4   8   8   4   8
#     4  10  20  34  54  80 109 143 181 217 259 319
#     4   9  19  37  59  82 111 147 184 222 266 319
#     4  12  24  37  57  85 116 147 179 222 273 319
#     4  11  25  45  66  85 108 143 187 228 264 313
#     4   9  18  32  49  73 104 132 164 214 270 317
#     4   9  18  32  51  77 107 136 168 212 264 311
#     4   9  18  32  48  68  96 129 169 217 262 309
#     4  10  19  31  49  71  96 133 176 213 257 314
#
# _framework density 19.398581
#
# number of rings (size 3 to 8) (size 9 to 14) (size 15 to 20)
#    0.000    2.143    0.000    4.500    0.000    7.714 
#    0.000    2.500    0.000    5.571    0.000    0.000 
#    0.000    3.429    0.000    0.000    0.000    0.000 
#
# Total GULP energy -694377.776447 kJ/mol
# GULP energy per Si atom -12399.603151 kJ/mol
# Density = 1.935443 g / cm^3
# Si number density = 19.398581 Si / 1000 Ang^3
#
#
#
# Elastic Constant Matrix: (Units=GPa)
#
#
# Indices 1 2 3 4 5 6 
#
# 1 151.7012 75.3538 48.8825 0.0000 0.0000 0.0000
# 2 75.3538 69.7481 33.1150 0.0000 0.0000 0.0000
# 3 48.8825 33.1150 56.7314 0.0000 0.0000 0.0000
# 4 0.0000 0.0000 0.0000 20.0539 0.0000 0.0000
# 5 0.0000 0.0000 0.0000 0.0000 24.7777 0.0000
# 6 0.0000 0.0000 0.0000 0.0000 0.0000 33.7165
#
#
#
# Elastic Compliance Matrix: (Units=1/GPa)
#
#
# Indices 1 2 3 4 5 6 
#
# 1 0.015128 -0.014048 -0.004835 0.000000 0.000000 0.000000
# 2 -0.014048 0.032880 -0.007088 0.000000 0.000000 0.000000
# 3 -0.004835 -0.007088 0.025930 0.000000 0.000000 0.000000
# 4 0.000000 0.000000 0.000000 0.049866 0.000000 0.000000
# 5 0.000000 0.000000 0.000000 0.000000 0.040359 0.000000
# 6 0.000000 0.000000 0.000000 0.000000 0.000000 0.029659
#
#
# Mechanical properties :
#
#
# Convention : Reuss Voigt Hill
#
# Bulk Modulus (GPa) = 45.46256 65.87593 55.66924
# Shear Modulus (GPa) = 19.75541 23.76490 21.76016
#
# Velocity S-wave (km/s) = 3.19469 3.50392 3.35287
# Velocity P-wave (km/s) = 6.09056 7.09949 6.61429
#
# Compressibility (1/GPa) = 0.02199612
#
# Stress axis : x y z
#
# Youngs Moduli (GPa) = 66.10270 30.41375 38.56544
#
# Poissons Ratio (x) = 0.42726 0.18645
# Poissons Ratio (y) = 0.92864 0.27334
# Poissons Ratio (z) = 0.31959 0.21556
#
# Static dielectric constant tensor:
#      x y z
#    x 3.923530 0.000000 0.000000 
#    y 0.000000 3.444420 0.000000 
#    z 0.000000 0.000000 3.381840 
# 
# 
# High freq. dielectric constant tensor:
#      x y z
#    x 1.776130 0.000000 0.000000 
#    y 0.000000 1.732760 0.000000 
#    z 0.000000 0.000000 1.740000 
# 
# From -- ./inp_files/7409.got.cif
#   From: 2010.03.12/outbox.cif.g09.slc.cpg/sg47_4_cif.got.tgz:7409.got - 2010.04.14 03:12:58.
