data_PCOD8195472
_publ_section_title
;
Structure prediction by ZEFSAII (Michael W. Deem and Ramdas Pophale) SiO2 
 PCOD8195472
Probable space group: P M M M
;
_chemical_formula_sum "Si O2"
_cell_formula_units_Z 40
_cell_length_a 8.891754
_cell_length_b 12.836726
_cell_length_c 18.464883
_cell_angle_alpha 90.000000
_cell_angle_beta 90.000000
_cell_angle_gamma 90.000000
_cell_volume 2107.600391
_symmetry_space_group_name_H-M "P M M M"
_symmetry_group_IT_number 47
_symmetry_cell_setting 'orthorhombic'
loop_
_space_group_symop_operation_xyz
x,y,z
-x,-y,z
x,-y,-z
-x,y,-z
-x,-y,-z
x,y,-z
-x,y,z
x,-y,z
loop_
_atom_site_type_symbol
_atom_site_label
_atom_site_fract_x
_atom_site_fract_y
_atom_site_fract_z
Si Si1 0.678867 0.304670 0.825314
Si Si2 0.822178 0.699190 0.330370
Si Si3 0.678672 0.884639 0.919280
Si Si4 0.678392 0.500000 0.081315
Si Si5 0.178724 0.500000 0.581035
Si Si6 0.674663 0.119633 0.416743
O O1 0.500000 0.304505 0.816538
O O2 0.752084 0.316076 0.747773
O O3 0.740431 0.198729 0.862027
O O4 0.734905 0.398674 0.875888
O O5 0.762295 0.603447 0.378924
O O6 0.773059 0.808027 0.365275
O O7 0.000000 0.697797 0.323526
O O8 0.500000 0.878958 0.921265
O O9 0.731900 0.000000 0.895098
O O10 0.739831 0.859464 0.000000
O O11 0.500000 0.500000 0.076496
O O12 0.746248 0.500000 0.000000
O O13 0.245588 0.500000 0.500000
O O14 0.000000 0.500000 0.578900
O O15 0.716405 0.142623 0.500000
O O16 0.500000 0.142633 0.402595
O O17 0.711952 0.000000 0.397617
#
# Coordination Sequence:
#
# PCOD8195472 Si02
#       6
#     8   8   8   4   4   8
#     4  10  19  31  49  73 102 133 165 208 263 313
#     4  11  22  35  53  77 107 141 176 214 257 310
#     4   8  14  26  46  71  95 122 162 207 246 290
#     4   9  17  30  51  77 100 127 172 227 272 310
#     4   9  19  36  55  73  96 131 174 216 256 297
#     4   9  19  37  59  81 106 136 171 214 263 312
#
# _framework density 18.978929000000001
#
# number of rings (size 3 to 8) (size 9 to 14) (size 15 to 20)
#    0.000    2.600    0.000    3.600    0.000    4.800 
#    0.000    4.500    0.000    6.600    0.000    1.400 
#    0.000    0.000    0.000    0.000    0.000    0.000 
#
# Total GULP energy -495965.891143 kJ/mol
# GULP energy per Si atom -12399.147279 kJ/mol
# Density = 1.893573 g / cm^3
# Si number density = 18.978929 Si / 1000 Ang^3
#
#
#
# Elastic Constant Matrix: (Units=GPa)
#
#
# Indices 1 2 3 4 5 6 
#
# 1 32.8887 32.7769 35.6148 0.0000 0.0000 0.0000
# 2 32.7769 158.6622 102.6450 0.0000 0.0000 0.0000
# 3 35.6148 102.6450 176.9042 0.0000 0.0000 0.0000
# 4 0.0000 0.0000 0.0000 28.5959 0.0000 0.0000
# 5 0.0000 0.0000 0.0000 0.0000 12.2762 0.0000
# 6 0.0000 0.0000 0.0000 0.0000 0.0000 19.1314
#
#
#
# Elastic Compliance Matrix: (Units=1/GPa)
#
#
# Indices 1 2 3 4 5 6 
#
# 1 0.041257 -0.005042 -0.005380 0.000000 0.000000 0.000000
# 2 -0.005042 0.010707 -0.005197 0.000000 0.000000 0.000000
# 3 -0.005380 -0.005197 0.009751 0.000000 0.000000 0.000000
# 4 0.000000 0.000000 0.000000 0.034970 0.000000 0.000000
# 5 0.000000 0.000000 0.000000 0.000000 0.081458 0.000000
# 6 0.000000 0.000000 0.000000 0.000000 0.000000 0.052270
#
#
# Mechanical properties :
#
#
# Convention : Reuss Voigt Hill
#
# Bulk Modulus (GPa) = 32.81311 78.94759 55.88035
# Shear Modulus (GPa) = 18.39512 25.16194 21.77853
#
# Velocity S-wave (km/s) = 3.11664 3.64508 3.39117
# Velocity P-wave (km/s) = 5.50255 7.70735 6.69632
#
# Compressibility (1/GPa) = 0.03047563
#
# Stress axis : x y z
#
# Youngs Moduli (GPa) = 24.23836 93.40039 102.54836
#
# Poissons Ratio (x) = 0.47095 0.55174
# Poissons Ratio (y) = 0.12222 0.53296
# Poissons Ratio (z) = 0.13041 0.48542
#
# Static dielectric constant tensor:
#      x y z
#    x 2.989010 0.000000 0.000000 
#    y 0.000000 3.784000 0.000000 
#    z 0.000000 0.000000 3.794760 
# 
# 
# High freq. dielectric constant tensor:
#      x y z
#    x 1.688230 0.000000 0.000000 
#    y 0.000000 1.755630 0.000000 
#    z 0.000000 0.000000 1.746960 
# 
# From -- ./inp_files/20671.got.cif
#   From: 2010.03.12/outbox.cif.g09.slc.cpg/sg47_11_cif.got.tgz:20671.got - 2010.04.14 03:12:58.
