data_PCOD8195179
_publ_section_title
;
Structure prediction by ZEFSAII (Michael W. Deem and Ramdas Pophale) SiO2 
 PCOD8195179
Probable space group: P M M M
;
_chemical_formula_sum "Si O2"
_cell_formula_units_Z 64
_cell_length_a 14.070464
_cell_length_b 9.198817
_cell_length_c 28.333445
_cell_angle_alpha 90.000000
_cell_angle_beta 90.000000
_cell_angle_gamma 90.000000
_cell_volume 3667.243784
_symmetry_space_group_name_H-M "P M M M"
_symmetry_group_IT_number 47
_symmetry_cell_setting 'orthorhombic'
loop_
_space_group_symop_operation_xyz
x,y,z
-x,-y,z
x,-y,-z
-x,y,-z
-x,-y,-z
x,y,-z
-x,y,z
x,-y,z
loop_
_atom_site_type_symbol
_atom_site_label
_atom_site_fract_x
_atom_site_fract_y
_atom_site_fract_z
Si Si1 0.738915 0.672948 0.621337
Si Si2 0.612019 0.163815 0.552499
Si Si3 0.104217 0.327255 0.551812
Si Si4 0.890568 0.171037 0.196278
Si Si5 0.392970 0.336547 0.206285
Si Si6 0.392286 0.669860 0.054556
Si Si7 0.776022 0.666555 0.274025
Si Si8 0.281982 0.829218 0.131386
O O1 0.728675 0.500000 0.622081
O O2 0.646254 0.736966 0.596061
O O3 0.825515 0.734954 0.590566
O O4 0.760850 0.731725 0.673789
O O5 0.643598 0.220967 0.500000
O O6 0.500000 0.166119 0.555304
O O7 0.650122 0.000000 0.559458
O O8 0.136937 0.274651 0.500000
O O9 0.103147 0.500000 0.553570
O O10 0.000000 0.265792 0.563317
O O11 0.855317 0.246538 0.244421
O O12 0.822125 0.217405 0.152183
O O13 0.000000 0.216349 0.185269
O O14 0.882206 0.000000 0.204587
O O15 0.500000 0.304625 0.222561
O O16 0.382948 0.500000 0.185125
O O17 0.327792 0.318590 0.251728
O O18 0.363678 0.220124 0.167270
O O19 0.500000 0.714056 0.070685
O O20 0.377730 0.500000 0.063296
O O21 0.308031 0.753611 0.081944
O O22 0.379171 0.709715 0.000000
O O23 0.810972 0.500000 0.275748
O O24 0.286642 0.000000 0.123832
#
# Coordination Sequence:
#
# PCOD8195179 Si02
#       8
#     8   8   8   8   8   8   8   8
#     4  10  19  30  48  73  96 118 149 192 238 282
#     4   9  19  35  51  67  91 125 162 196 232 278
#     4   8  14  25  41  62  88 115 141 172 217 274
#     4   9  19  36  54  70  93 128 167 205 245 289
#     4   9  17  30  46  62  88 127 160 186 227 285
#     4   9  18  32  49  71 103 141 171 193 229 287
#     4   9  19  32  46  70  98 121 152 195 239 284
#     4  10  19  30  48  74  98 121 159 209 248 277
#
# _framework density 17.451799999999999
#
# number of rings (size 3 to 8) (size 9 to 14) (size 15 to 20)
#    0.000    2.875    0.000    2.250    0.000    5.500 
#    0.000    3.750    0.000    0.750    0.000    4.375 
#    0.000    0.000    0.000    0.000    0.000    0.000 
#
# Total GULP energy -793157.114581 kJ/mol
# GULP energy per Si atom -12393.079915 kJ/mol
# Density = 1.741208 g / cm^3
# Si number density = 17.451800 Si / 1000 Ang^3
#
#
#
# Elastic Constant Matrix: (Units=GPa)
#
#
# Indices 1 2 3 4 5 6 
#
# 1 111.3601 36.0369 59.1419 0.0000 0.0000 0.0000
# 2 36.0369 45.1250 41.2220 0.0000 0.0000 0.0000
# 3 59.1419 41.2220 120.6743 0.0000 0.0000 0.0000
# 4 0.0000 0.0000 0.0000 22.5783 0.0000 0.0000
# 5 0.0000 0.0000 0.0000 0.0000 49.3063 0.0000
# 6 0.0000 0.0000 0.0000 0.0000 0.0000 21.6678
#
#
#
# Elastic Compliance Matrix: (Units=1/GPa)
#
#
# Indices 1 2 3 4 5 6 
#
# 1 0.013459 -0.006865 -0.004251 0.000000 0.000000 0.000000
# 2 -0.006865 0.035714 -0.008835 0.000000 0.000000 0.000000
# 3 -0.004251 -0.008835 0.013388 0.000000 0.000000 0.000000
# 4 0.000000 0.000000 0.000000 0.044290 0.000000 0.000000
# 5 0.000000 0.000000 0.000000 0.000000 0.020281 0.000000
# 6 0.000000 0.000000 0.000000 0.000000 0.000000 0.046152
#
#
# Mechanical properties :
#
#
# Convention : Reuss Voigt Hill
#
# Bulk Modulus (GPa) = 44.13332 61.10681 52.62006
# Shear Modulus (GPa) = 22.65094 28.09436 25.37265
#
# Velocity S-wave (km/s) = 3.60657 4.01662 3.81710
# Velocity P-wave (km/s) = 6.53350 7.52340 7.04586
#
# Compressibility (1/GPa) = 0.02265862
#
# Stress axis : x y z
#
# Youngs Moduli (GPa) = 74.29853 28.00002 74.69143
#
# Poissons Ratio (x) = 0.19222 0.31753
# Poissons Ratio (y) = 0.51006 0.65993
# Poissons Ratio (z) = 0.31586 0.24739
#
# Static dielectric constant tensor:
#      x y z
#    x 3.359630 0.000000 0.000000 
#    y 0.000000 3.098270 0.000000 
#    z 0.000000 0.000000 3.312960 
# 
# 
# High freq. dielectric constant tensor:
#      x y z
#    x 1.671150 0.000000 0.000000 
#    y 0.000000 1.655090 0.000000 
#    z 0.000000 0.000000 1.671020 
# 
# From -- ./inp_files/34680.got.cif
#   From: 2010.03.12/outbox.cif.g09.slc.cpg/sg47_18_cif.got.tgz:34680.got - 2010.04.14 03:12:58.
