data_PCOD8195418
_publ_section_title
;
Structure prediction by ZEFSAII (Michael W. Deem and Ramdas Pophale) SiO2 
 PCOD8195418
Probable space group: P M M M
;
_chemical_formula_sum "Si O2"
_cell_formula_units_Z 44
_cell_length_a 10.347435
_cell_length_b 13.536891
_cell_length_c 17.784941
_cell_angle_alpha 90.000000
_cell_angle_beta 90.000000
_cell_angle_gamma 90.000000
_cell_volume 2491.174029
_symmetry_space_group_name_H-M "P M M M"
_symmetry_group_IT_number 47
_symmetry_cell_setting 'orthorhombic'
loop_
_space_group_symop_operation_xyz
x,y,z
-x,-y,z
x,-y,-z
-x,y,-z
-x,-y,-z
x,y,-z
-x,y,z
x,-y,z
loop_
_atom_site_type_symbol
_atom_site_label
_atom_site_fract_x
_atom_site_fract_y
_atom_site_fract_z
Si Si1 0.348259 0.391108 0.500000
Si Si2 0.000000 0.116139 0.585432
Si Si3 0.146565 0.610933 0.768835
Si Si4 0.353644 0.307931 0.344116
Si Si5 0.846660 0.887171 0.000000
Si Si6 0.148353 0.808345 0.154850
Si Si7 0.760679 0.113495 0.310331
O O1 0.282963 0.500000 0.500000
O O2 0.500000 0.405003 0.500000
O O3 0.305401 0.328817 0.428060
O O4 0.876715 0.147885 0.634826
O O5 0.000000 0.162104 0.500000
O O6 0.000000 0.000000 0.576873
O O7 0.166149 0.500000 0.800650
O O8 0.253091 0.631728 0.706141
O O9 0.167676 0.690552 0.835035
O O10 0.000000 0.622993 0.736238
O O11 0.500000 0.345971 0.329313
O O12 0.353617 0.189759 0.329923
O O13 0.786840 0.836907 0.924927
O O14 0.000000 0.873801 0.000000
O O15 0.803716 0.000000 0.000000
O O16 0.206756 0.872334 0.222738
O O17 0.000000 0.839246 0.152453
O O18 0.718888 0.000000 0.324585
#
# Coordination Sequence:
#
# PCOD8195418 Si02
#       7
#     4   4   8   8   4   8   8
#     4   9  18  34  52  68  91 124 163 207 252 299
#     4   9  18  30  46  69  95 133 176 208 246 294
#     4   9  18  33  52  73  98 127 162 207 255 296
#     4  10  21  34  50  73  98 130 169 205 250 304
#     4   9  16  24  41  69 102 135 167 199 236 295
#     4   9  16  28  45  70 101 133 165 201 247 298
#     4  10  19  31  49  70 100 136 169 208 250 293
#
# _framework density 17.662355000000002
#
# number of rings (size 3 to 8) (size 9 to 14) (size 15 to 20)
#    0.000    2.636    0.909    1.091    2.545    2.182 
#    0.000    0.909    0.000    6.000    0.000   10.182 
#    0.000   23.273    0.000    0.000    0.000    0.000 
#
# Total GULP energy -545211.586150 kJ/mol
# GULP energy per Si atom -12391.172412 kJ/mol
# Density = 1.762215 g / cm^3
# Si number density = 17.662355 Si / 1000 Ang^3
#
#
#
# Elastic Constant Matrix: (Units=GPa)
#
#
# Indices 1 2 3 4 5 6 
#
# 1 51.3223 21.6324 32.3951 0.0000 0.0000 0.0000
# 2 21.6324 122.2059 50.5804 0.0000 0.0000 0.0000
# 3 32.3951 50.5804 150.6469 0.0000 0.0000 0.0000
# 4 0.0000 0.0000 0.0000 19.9034 0.0000 0.0000
# 5 0.0000 0.0000 0.0000 0.0000 13.7279 0.0000
# 6 0.0000 0.0000 0.0000 0.0000 0.0000 18.2841
#
#
#
# Elastic Compliance Matrix: (Units=1/GPa)
#
#
# Indices 1 2 3 4 5 6 
#
# 1 0.023118 -0.002363 -0.004178 0.000000 0.000000 0.000000
# 2 -0.002363 0.009745 -0.002764 0.000000 0.000000 0.000000
# 3 -0.004178 -0.002764 0.008464 0.000000 0.000000 0.000000
# 4 0.000000 0.000000 0.000000 0.050243 0.000000 0.000000
# 5 0.000000 0.000000 0.000000 0.000000 0.072844 0.000000
# 6 0.000000 0.000000 0.000000 0.000000 0.000000 0.054692
#
#
# Mechanical properties :
#
#
# Convention : Reuss Voigt Hill
#
# Bulk Modulus (GPa) = 44.01805 59.26563 51.64184
# Shear Modulus (GPa) = 20.38415 25.02091 22.70253
#
# Velocity S-wave (km/s) = 3.40089 3.76789 3.58908
# Velocity P-wave (km/s) = 6.35590 7.24962 6.81742
#
# Compressibility (1/GPa) = 0.02271795
#
# Stress axis : x y z
#
# Youngs Moduli (GPa) = 43.25667 102.61529 118.14164
#
# Poissons Ratio (x) = 0.24248 0.49358
# Poissons Ratio (y) = 0.10222 0.32652
# Poissons Ratio (z) = 0.18072 0.28361
#
# Static dielectric constant tensor:
#      x y z
#    x 2.965510 0.000000 0.000000 
#    y 0.000000 3.377590 0.000000 
#    z 0.000000 0.000000 3.492780 
# 
# 
# High freq. dielectric constant tensor:
#      x y z
#    x 1.644500 0.000000 0.000000 
#    y 0.000000 1.691360 0.000000 
#    z 0.000000 0.000000 1.675990 
# 
# From -- ./inp_files/26401.got.cif
#   From: 2010.03.12/outbox.cif.g09.slc.cpg/sg47_14_cif.got.tgz:26401.got - 2010.04.14 03:12:58.
