data_PCOD8195410
_publ_section_title
;
Structure prediction by ZEFSAII (Michael W. Deem and Ramdas Pophale) SiO2 
 PCOD8195410
Probable space group: P M M M
;
_chemical_formula_sum "Si O2"
_cell_formula_units_Z 40
_cell_length_a 28.821254
_cell_length_b 7.814807
_cell_length_c 9.367883
_cell_angle_alpha 90.000000
_cell_angle_beta 90.000000
_cell_angle_gamma 90.000000
_cell_volume 2109.952059
_symmetry_space_group_name_H-M "P M M M"
_symmetry_group_IT_number 47
_symmetry_cell_setting 'orthorhombic'
loop_
_space_group_symop_operation_xyz
x,y,z
-x,-y,z
x,-y,-z
-x,y,-z
-x,-y,-z
x,y,-z
-x,y,z
x,-y,z
loop_
_atom_site_type_symbol
_atom_site_label
_atom_site_fract_x
_atom_site_fract_y
_atom_site_fract_z
Si Si1 0.297983 0.304650 0.665140
Si Si2 0.887093 0.688357 0.169276
Si Si3 0.399085 0.805968 0.334110
Si Si4 0.210431 0.802855 0.841145
Si Si5 0.554787 0.500000 0.835430
Si Si6 0.052279 0.000000 0.829402
O O1 0.285859 0.287565 0.500000
O O2 0.305632 0.500000 0.711066
O O3 0.344682 0.203143 0.703654
O O4 0.255577 0.223338 0.747747
O O5 0.905551 0.500000 0.212973
O O6 0.834434 0.709339 0.227336
O O7 0.921858 0.831256 0.231611
O O8 0.884843 0.710736 0.000000
O O9 0.406908 0.757925 0.500000
O O10 0.427137 0.672346 0.238896
O O11 0.416181 0.000000 0.302493
O O12 0.196992 0.000000 0.847568
O O13 0.220906 0.732096 0.000000
O O14 0.500000 0.500000 0.822145
O O15 0.570991 0.500000 0.000000
O O16 0.000000 0.000000 0.769634
O O17 0.051978 0.000000 0.000000
#
# Coordination Sequence:
#
# PCOD8195410 Si02
#       6
#     8   8   8   8   4   4
#     4  10  20  35  55  80 112 146 181 226 275 322
#     4   9  16  27  42  61  91 129 168 215 266 316
#     4  10  21  40  65  89 116 153 196 241 288 340
#     4  10  19  31  48  72 104 141 179 218 265 325
#     4  11  25  43  63  89 123 159 193 239 294 343
#     4   9  16  26  40  60  89 127 173 221 268 321
#
# _framework density 18.957775000000002
#
# number of rings (size 3 to 8) (size 9 to 14) (size 15 to 20)
#    0.000    2.200    2.000    1.500    0.000    5.200 
#    0.000    4.000    0.000    0.000    0.000    0.000 
#    0.000    1.600    0.000    4.200    0.000    4.000 
#
# Total GULP energy -495934.638371 kJ/mol
# GULP energy per Si atom -12398.365959 kJ/mol
# Density = 1.891463 g / cm^3
# Si number density = 18.957775 Si / 1000 Ang^3
#
#
#
# Elastic Constant Matrix: (Units=GPa)
#
#
# Indices 1 2 3 4 5 6 
#
# 1 113.8685 61.5651 44.1592 0.0000 0.0000 0.0000
# 2 61.5651 142.9798 42.9331 0.0000 0.0000 0.0000
# 3 44.1592 42.9331 47.3969 0.0000 0.0000 0.0000
# 4 0.0000 0.0000 0.0000 19.1326 0.0000 0.0000
# 5 0.0000 0.0000 0.0000 0.0000 -87.2700 0.0000
# 6 0.0000 0.0000 0.0000 0.0000 0.0000 29.9945
#
#
#
# Elastic Compliance Matrix: (Units=1/GPa)
#
#
# Indices 1 2 3 4 5 6 
#
# 1 0.014650 -0.003035 -0.010900 0.000000 0.000000 0.000000
# 2 -0.003035 0.010236 -0.006444 0.000000 0.000000 0.000000
# 3 -0.010900 -0.006444 0.037091 0.000000 0.000000 0.000000
# 4 0.000000 0.000000 0.000000 0.052267 0.000000 0.000000
# 5 0.000000 0.000000 0.000000 0.000000 -0.011459 0.000000
# 6 0.000000 0.000000 0.000000 0.000000 0.000000 0.033339
#
#
# Mechanical properties :
#
#
# Convention : Reuss Voigt Hill
#
# Bulk Modulus (GPa) = 47.12860 66.84000 56.98430
# Shear Modulus (GPa) = 27.18030 2.74391 14.96211
#
# Velocity S-wave (km/s) = 3.79057 1.20438 2.81238
# Velocity P-wave (km/s) = 6.63865 6.10474 6.37728
#
# Compressibility (1/GPa) = 0.02121854
#
# Stress axis : x y z
#
# Youngs Moduli (GPa) = 68.25809 97.69561 26.96055
#
# Poissons Ratio (x) = 0.29652 0.29388
# Poissons Ratio (y) = 0.20717 0.17374
# Poissons Ratio (z) = 0.74403 0.62956
#
# Static dielectric constant tensor:
#      x y z
#    x 3.474570 0.000000 0.000000 
#    y 0.000000 3.728650 0.000000 
#    z 0.000000 0.000000 3.156790 
# 
# 
# High freq. dielectric constant tensor:
#      x y z
#    x 1.738030 0.000000 0.000000 
#    y 0.000000 1.755410 0.000000 
#    z 0.000000 0.000000 1.688080 
# 
# From -- ./inp_files/13077.got.cif
#   From: 2010.03.12/outbox.cif.g09.slc.cpg/sg47_7_cif.got.tgz:13077.got - 2010.04.14 03:12:58.
