data_PCOD8195978
_publ_section_title
;
Structure prediction by ZEFSAII (Michael W. Deem and Ramdas Pophale) SiO2 
 PCOD8195978
Probable space group: P M M M
;
_chemical_formula_sum "Si O2"
_cell_formula_units_Z 64
_cell_length_a 9.119963
_cell_length_b 17.750243
_cell_length_c 20.871858
_cell_angle_alpha 90.000000
_cell_angle_beta 90.000000
_cell_angle_gamma 90.000000
_cell_volume 3378.768921
_symmetry_space_group_name_H-M "P M M M"
_symmetry_group_IT_number 47
_symmetry_cell_setting 'orthorhombic'
loop_
_space_group_symop_operation_xyz
x,y,z
-x,-y,z
x,-y,-z
-x,y,-z
-x,-y,-z
x,y,-z
-x,y,z
x,-y,z
loop_
_atom_site_type_symbol
_atom_site_label
_atom_site_fract_x
_atom_site_fract_y
_atom_site_fract_z
Si Si1 0.669141 0.267595 0.430274
Si Si2 0.832839 0.357350 0.736090
Si Si3 0.829385 0.085630 0.208497
Si Si4 0.674257 0.791611 0.704874
Si Si5 0.334910 0.583397 0.848942
Si Si6 0.832021 0.584164 0.597375
Si Si7 0.827263 0.133131 0.070547
Si Si8 0.160049 0.304515 0.072839
O O1 0.694163 0.227289 0.500000
O O2 0.500000 0.284280 0.417653
O O3 0.724881 0.215404 0.370795
O O4 0.743855 0.349267 0.436353
O O5 0.731889 0.283093 0.739589
O O6 0.777579 0.412978 0.790505
O O7 0.814483 0.405875 0.672790
O O8 0.000000 0.331771 0.746680
O O9 0.743933 0.136216 0.260304
O O10 0.767985 0.091386 0.134716
O O11 0.000000 0.109458 0.209611
O O12 0.807565 0.000000 0.231175
O O13 0.500000 0.797955 0.711160
O O14 0.500000 0.601357 0.826169
O O15 0.324756 0.500000 0.878829
O O16 0.287675 0.643086 0.901564
O O17 0.774404 0.500000 0.578778
O O18 0.000000 0.591917 0.575812
O O19 0.785181 0.219597 0.081490
O O20 0.000000 0.121710 0.066228
O O21 0.763501 0.105835 0.000000
O O22 0.000000 0.315744 0.107034
O O23 0.138107 0.325499 0.000000
#
# Coordination Sequence:
#
# PCOD8195978 Si02
#       8
#     8   8   8   8   8   8   8   8
#     4   9  19  35  53  74 100 133 176 221 262 307
#     4  10  19  33  53  73  96 129 170 213 256 305
#     4  10  20  33  53  83 114 141 170 206 249 300
#     4  10  20  35  56  79 104 136 172 212 260 312
#     4  11  23  34  45  66  96 129 168 217 269 314
#     4   9  18  31  47  71 103 136 169 207 254 307
#     4   8  15  30  52  77 104 134 169 207 245 289
#     4   9  18  33  52  70  89 122 170 216 256 306
#
# _framework density 18.941811000000001
#
# number of rings (size 3 to 8) (size 9 to 14) (size 15 to 20)
#    0.000    2.500    0.000    3.000    0.000    5.250 
#    0.000    3.750    0.000    1.500    0.000    3.500 
#    0.000    0.000    0.000    0.000    0.000    0.000 
#
# Total GULP energy -792940.076850 kJ/mol
# GULP energy per Si atom -12389.688701 kJ/mol
# Density = 1.889870 g / cm^3
# Si number density = 18.941811 Si / 1000 Ang^3
#
#
#
# Elastic Constant Matrix: (Units=GPa)
#
#
# Indices 1 2 3 4 5 6 
#
# 1 59.8949 36.3570 31.8818 0.0000 0.0000 0.0000
# 2 36.3570 82.3143 52.8339 0.0000 0.0000 0.0000
# 3 31.8818 52.8339 100.7412 0.0000 0.0000 0.0000
# 4 0.0000 0.0000 0.0000 13.8633 0.0000 0.0000
# 5 0.0000 0.0000 0.0000 0.0000 22.5600 0.0000
# 6 0.0000 0.0000 0.0000 0.0000 0.0000 154.7008
#
#
#
# Elastic Compliance Matrix: (Units=1/GPa)
#
#
# Indices 1 2 3 4 5 6 
#
# 1 0.023395 -0.008413 -0.002992 0.000000 0.000000 0.000000
# 2 -0.008413 0.021339 -0.008529 0.000000 0.000000 0.000000
# 3 -0.002992 -0.008529 0.015346 0.000000 0.000000 0.000000
# 4 0.000000 0.000000 0.000000 0.072133 0.000000 0.000000
# 5 0.000000 0.000000 0.000000 0.000000 0.044326 0.000000
# 6 0.000000 0.000000 0.000000 0.000000 0.000000 0.006464
#
#
# Mechanical properties :
#
#
# Convention : Reuss Voigt Hill
#
# Bulk Modulus (GPa) = 49.47266 53.89954 51.68610
# Shear Modulus (GPa) = 21.77629 46.34999 34.06314
#
# Velocity S-wave (km/s) = 3.39431 4.95205 4.24524
# Velocity P-wave (km/s) = 6.44490 7.82395 7.16767
#
# Compressibility (1/GPa) = 0.02021318
#
# Stress axis : x y z
#
# Youngs Moduli (GPa) = 42.74378 46.86333 65.16340
#
# Poissons Ratio (x) = 0.39427 0.19495
# Poissons Ratio (y) = 0.35961 0.55575
# Poissons Ratio (z) = 0.12787 0.39968
#
# Static dielectric constant tensor:
#      x y z
#    x 3.609020 0.000000 0.000000 
#    y 0.000000 3.328910 0.000000 
#    z 0.000000 0.000000 3.820090 
# 
# 
# High freq. dielectric constant tensor:
#      x y z
#    x 1.718020 0.000000 0.000000 
#    y 0.000000 1.714780 0.000000 
#    z 0.000000 0.000000 1.745200 
# 
# From -- ./inp_files/11662.got.cif
#   From: 2010.03.12/outbox.cif.g09.slc.cpg/sg47_6_cif.got.tgz:11662.got - 2010.04.14 03:12:58.
