data_PCOD8195501
_publ_section_title
;
Structure prediction by ZEFSAII (Michael W. Deem and Ramdas Pophale) SiO2 
 PCOD8195501
Probable space group: P M M M
;
_chemical_formula_sum "Si O2"
_cell_formula_units_Z 52
_cell_length_a 7.824289
_cell_length_b 19.094040
_cell_length_c 17.916545
_cell_angle_alpha 90.000000
_cell_angle_beta 90.000000
_cell_angle_gamma 90.000000
_cell_volume 2676.683218
_symmetry_space_group_name_H-M "P M M M"
_symmetry_group_IT_number 47
_symmetry_cell_setting 'orthorhombic'
loop_
_space_group_symop_operation_xyz
x,y,z
-x,-y,z
x,-y,-z
-x,y,-z
-x,-y,-z
x,y,-z
-x,y,z
x,-y,z
loop_
_atom_site_type_symbol
_atom_site_label
_atom_site_fract_x
_atom_site_fract_y
_atom_site_fract_z
Si Si1 0.199394 0.919955 0.806562
Si Si2 0.312411 0.170917 0.676341
Si Si3 0.694140 0.667788 0.692831
Si Si4 0.700275 0.419319 0.000000
Si Si5 0.198037 0.337454 0.147263
Si Si6 0.000000 0.173412 0.418827
Si Si7 0.000000 0.660542 0.414328
Si Si8 0.201021 0.195624 0.081533
O O1 0.312350 0.882894 0.744287
O O2 0.241553 0.879576 0.882910
O O3 0.000000 0.912999 0.785596
O O4 0.256042 0.000000 0.816303
O O5 0.500000 0.168818 0.638686
O O6 0.269286 0.249509 0.702977
O O7 0.170820 0.144347 0.618970
O O8 0.500000 0.652832 0.664711
O O9 0.715751 0.634245 0.775865
O O10 0.829253 0.636635 0.631875
O O11 0.775146 0.386948 0.075897
O O12 0.753087 0.500000 0.000000
O O13 0.500000 0.407594 0.000000
O O14 0.276221 0.260623 0.128865
O O15 0.000000 0.332373 0.166145
O O16 0.000000 0.140125 0.500000
O O17 0.000000 0.256697 0.421422
O O18 0.000000 0.629374 0.500000
O O19 0.000000 0.207953 0.074569
O O20 0.286550 0.196281 0.000000
#
# Coordination Sequence:
#
# PCOD8195501 Si02
#       8
#     8   8   8   4   8   4   4   8
#     4  10  19  31  50  72 100 138 177 226 283 331
#     4  10  19  31  51  74 100 135 176 222 271 332
#     4  10  19  31  52  81 109 146 193 233 278 339
#     4  11  25  41  55  81 124 163 196 239 284 326
#     4  11  19  33  58  82 109 149 196 241 276 325
#     4   9  18  32  51  74 103 132 165 218 276 335
#     4   9  18  32  50  78 115 148 178 228 292 343
#     4   9  17  29  49  77 103 134 181 230 277 324
#
# _framework density 19.427028
#
# number of rings (size 3 to 8) (size 9 to 14) (size 15 to 20)
#    0.000    2.077    3.846    0.692    0.000    1.846 
#    0.000    4.615    0.000    0.923    0.000    2.154 
#    0.000    1.231    0.000    3.231    0.000    0.154 
#
# Total GULP energy -644496.312832 kJ/mol
# GULP energy per Si atom -12394.159862 kJ/mol
# Density = 1.938281 g / cm^3
# Si number density = 19.427028 Si / 1000 Ang^3
#
#
#
# Elastic Constant Matrix: (Units=GPa)
#
#
# Indices 1 2 3 4 5 6 
#
# 1 104.4686 12.0548 54.0571 0.0000 0.0000 0.0000
# 2 12.0548 43.5998 12.3136 0.0000 0.0000 0.0000
# 3 54.0571 12.3136 146.4573 0.0000 0.0000 0.0000
# 4 0.0000 0.0000 0.0000 11.1406 0.0000 0.0000
# 5 0.0000 0.0000 0.0000 0.0000 8.8992 0.0000
# 6 0.0000 0.0000 0.0000 0.0000 0.0000 13.4948
#
#
#
# Elastic Compliance Matrix: (Units=1/GPa)
#
#
# Indices 1 2 3 4 5 6 
#
# 1 0.012020 -0.002121 -0.004258 0.000000 0.000000 0.000000
# 2 -0.002121 0.023868 -0.001224 0.000000 0.000000 0.000000
# 3 -0.004258 -0.001224 0.008503 0.000000 0.000000 0.000000
# 4 0.000000 0.000000 0.000000 0.089762 0.000000 0.000000
# 5 0.000000 0.000000 0.000000 0.000000 0.112370 0.000000
# 6 0.000000 0.000000 0.000000 0.000000 0.000000 0.074103
#
#
# Mechanical properties :
#
#
# Convention : Reuss Voigt Hill
#
# Bulk Modulus (GPa) = 34.26458 50.15296 42.20877
# Shear Modulus (GPa) = 14.46925 21.11359 17.79142
#
# Velocity S-wave (km/s) = 2.73206 3.30026 3.02951
# Velocity P-wave (km/s) = 5.25624 6.35566 5.83192
#
# Compressibility (1/GPa) = 0.02918465
#
# Stress axis : x y z
#
# Youngs Moduli (GPa) = 83.19129 41.89721 117.61098
#
# Poissons Ratio (x) = 0.08886 0.50084
# Poissons Ratio (y) = 0.17643 0.14395
# Poissons Ratio (z) = 0.35426 0.05128
#
# Static dielectric constant tensor:
#      x y z
#    x 3.508690 0.000000 0.000000 
#    y 0.000000 3.146050 0.000000 
#    z 0.000000 0.000000 3.686440 
# 
# 
# High freq. dielectric constant tensor:
#      x y z
#    x 1.756590 0.000000 0.000000 
#    y 0.000000 1.706580 0.000000 
#    z 0.000000 0.000000 1.754290 
# 
# From -- ./inp_files/26789.got.cif
#   From: 2010.03.12/outbox.cif.g09.slc.cpg/sg47_14_cif.got.tgz:26789.got - 2010.04.14 03:12:58.
