data_PCOD8195891
_publ_section_title
;
Structure prediction by ZEFSAII (Michael W. Deem and Ramdas Pophale) SiO2 
 PCOD8195891
Probable space group: P M M M
;
_chemical_formula_sum "Si O2"
_cell_formula_units_Z 48
_cell_length_a 34.010914
_cell_length_b 7.821207
_cell_length_c 9.209711
_cell_angle_alpha 90.000000
_cell_angle_beta 90.000000
_cell_angle_gamma 90.000000
_cell_volume 2449.842056
_symmetry_space_group_name_H-M "P M M M"
_symmetry_group_IT_number 47
_symmetry_cell_setting 'orthorhombic'
loop_
_space_group_symop_operation_xyz
x,y,z
-x,-y,z
x,-y,-z
-x,y,-z
-x,-y,-z
x,y,-z
-x,y,z
x,-y,z
loop_
_atom_site_type_symbol
_atom_site_label
_atom_site_fract_x
_atom_site_fract_y
_atom_site_fract_z
Si Si1 0.423284 0.299092 0.831398
Si Si2 0.348025 0.808015 0.334095
Si Si3 0.000000 0.200726 0.334077
Si Si4 0.156406 0.809792 0.833366
Si Si5 0.209935 0.500000 0.828028
Si Si6 0.916763 0.304206 0.333107
Si Si7 0.500000 0.703293 0.335747
Si Si8 0.707922 0.500000 0.669814
O O1 0.417716 0.500000 0.806043
O O2 0.385774 0.203025 0.767985
O O3 0.461604 0.229044 0.748016
O O4 0.427972 0.253938 0.000000
O O5 0.360751 0.768928 0.500000
O O6 0.315777 0.670110 0.283907
O O7 0.330412 0.000000 0.319900
O O8 0.960058 0.274670 0.262446
O O9 0.000000 0.263012 0.500000
O O10 0.000000 0.000000 0.316947
O O11 0.186958 0.669309 0.773272
O O12 0.115286 0.807263 0.749495
O O13 0.174696 0.000000 0.814772
O O14 0.147002 0.767996 0.000000
O O15 0.252144 0.500000 0.756916
O O16 0.215437 0.500000 0.000000
O O17 0.917163 0.243087 0.500000
O O18 0.904475 0.500000 0.317334
O O19 0.500000 0.500000 0.335028
O O20 0.500000 0.774786 0.500000
O O21 0.717482 0.500000 0.500000
#
# Coordination Sequence:
#
# PCOD8195891 Si02
#       8
#     8   8   4   8   4   8   4   4
#     4  10  19  32  53  82 116 152 192 238 284 330
#     4  10  21  38  60  85 114 150 188 226 275 334
#     4   9  17  29  46  73 110 147 184 229 279 326
#     4  10  21  38  59  82 111 148 186 226 275 330
#     4  10  22  40  60  83 112 143 179 222 274 336
#     4  10  19  32  53  80 110 146 188 231 276 327
#     4   9  17  29  50  79 112 154 199 239 284 335
#     4  10  22  40  62  87 116 145 180 228 278 332
#
# _framework density 19.593098999999999
#
# number of rings (size 3 to 8) (size 9 to 14) (size 15 to 20)
#    0.000    2.167    1.667    1.500    0.000    6.000 
#    0.000    0.833    0.000    5.000    0.000    0.000 
#    0.000    0.000    0.000    0.000    0.000    0.000 
#
# Total GULP energy -595239.174483 kJ/mol
# GULP energy per Si atom -12400.816135 kJ/mol
# Density = 1.954850 g / cm^3
# Si number density = 19.593099 Si / 1000 Ang^3
#
#
#
# Elastic Constant Matrix: (Units=GPa)
#
#
# Indices 1 2 3 4 5 6 
#
# 1 153.7241 62.3761 55.1960 0.0000 0.0000 0.0000
# 2 62.3761 110.5608 34.0717 0.0000 0.0000 0.0000
# 3 55.1960 34.0717 71.4366 0.0000 0.0000 0.0000
# 4 0.0000 0.0000 0.0000 18.9549 0.0000 0.0000
# 5 0.0000 0.0000 0.0000 0.0000 -24.6843 0.0000
# 6 0.0000 0.0000 0.0000 0.0000 0.0000 9.6891
#
#
#
# Elastic Compliance Matrix: (Units=1/GPa)
#
#
# Indices 1 2 3 4 5 6 
#
# 1 0.010278 -0.003929 -0.006067 0.000000 0.000000 0.000000
# 2 -0.003929 0.012105 -0.002738 0.000000 0.000000 0.000000
# 3 -0.006067 -0.002738 0.019992 0.000000 0.000000 0.000000
# 4 0.000000 0.000000 0.000000 0.052757 0.000000 0.000000
# 5 0.000000 0.000000 0.000000 0.000000 -0.040512 0.000000
# 6 0.000000 0.000000 0.000000 0.000000 0.000000 0.103209
#
#
# Mechanical properties :
#
#
# Convention : Reuss Voigt Hill
#
# Bulk Modulus (GPa) = 59.14708 71.00101 65.07405
# Shear Modulus (GPa) = 26.46431 13.06378 19.76404
#
# Velocity S-wave (km/s) = 3.67917 2.58496 3.17949
# Velocity P-wave (km/s) = 6.94994 6.72501 6.83840
#
# Compressibility (1/GPa) = 0.01690701
#
# Stress axis : x y z
#
# Youngs Moduli (GPa) = 97.29622 82.60996 50.01914
#
# Poissons Ratio (x) = 0.32455 0.30349
# Poissons Ratio (y) = 0.38225 0.13695
# Poissons Ratio (z) = 0.59034 0.22618
#
# Static dielectric constant tensor:
#      x y z
#    x 3.494140 0.000000 0.000000 
#    y 0.000000 3.627000 0.000000 
#    z 0.000000 0.000000 3.419900 
# 
# 
# High freq. dielectric constant tensor:
#      x y z
#    x 1.758790 0.000000 0.000000 
#    y 0.000000 1.768570 0.000000 
#    z 0.000000 0.000000 1.744910 
# 
# From -- ./inp_files/14017.got.cif
#   From: 2010.03.12/outbox.cif.g09.slc.cpg/sg47_8_cif.got.tgz:14017.got - 2010.04.14 03:12:58.
