data_PCOD8195373
_publ_section_title
;
Structure prediction by ZEFSAII (Michael W. Deem and Ramdas Pophale) SiO2 
 PCOD8195373
Probable space group: P M M M
;
_chemical_formula_sum "Si O2"
_cell_formula_units_Z 52
_cell_length_a 29.545026
_cell_length_b 10.880700
_cell_length_c 9.057263
_cell_angle_alpha 90.000000
_cell_angle_beta 90.000000
_cell_angle_gamma 90.000000
_cell_volume 2911.643449
_symmetry_space_group_name_H-M "P M M M"
_symmetry_group_IT_number 47
_symmetry_cell_setting 'orthorhombic'
loop_
_space_group_symop_operation_xyz
x,y,z
-x,-y,z
x,-y,-z
-x,y,-z
-x,-y,-z
x,y,-z
-x,y,z
x,-y,z
loop_
_atom_site_type_symbol
_atom_site_label
_atom_site_fract_x
_atom_site_fract_y
_atom_site_fract_z
Si Si1 0.287130 0.855600 0.163001
Si Si2 0.387928 0.138609 0.823845
Si Si3 0.448698 0.362808 0.824579
Si Si4 0.049533 0.642914 0.662813
Si Si5 0.947842 0.000000 0.674142
Si Si6 0.200688 0.146270 0.333384
Si Si7 0.110907 0.795799 0.172323
O O1 0.337016 0.828459 0.228718
O O2 0.248734 0.803501 0.272298
O O3 0.280657 0.000000 0.146942
O O4 0.281651 0.795483 0.000000
O O5 0.419620 0.248177 0.759213
O O6 0.401975 0.000000 0.767923
O O7 0.389452 0.136898 0.000000
O O8 0.500000 0.343916 0.769385
O O9 0.431631 0.500000 0.773478
O O10 0.446659 0.357408 0.000000
O O11 0.063437 0.695250 0.500000
O O12 0.044082 0.500000 0.651072
O O13 0.088061 0.666194 0.787029
O O14 0.000000 0.699266 0.705881
O O15 0.922666 0.116243 0.739940
O O16 0.941862 0.000000 0.500000
O O17 0.000000 0.000000 0.722816
O O18 0.194944 0.194675 0.500000
O O19 0.161926 0.200400 0.229781
O O20 0.198053 0.000000 0.328334
O O21 0.111189 0.825382 0.000000
#
# Coordination Sequence:
#
# PCOD8195373 Si02
#       7
#     8   8   8   8   4   8   8
#     4   8  14  25  41  60  84 112 146 190 236 277
#     4   8  13  21  34  53  77 109 148 188 231 278
#     4   8  13  20  30  48  79 118 154 185 222 274
#     4   9  19  37  58  75  93 123 161 196 233 281
#     4  11  23  37  51  69  99 135 165 193 230 283
#     4  10  19  31  48  68  93 124 158 192 231 286
#     4  12  23  33  50  75 102 128 156 195 241 285
#
# _framework density 17.85933
#
# number of rings (size 3 to 8) (size 9 to 14) (size 15 to 20)
#    0.000    2.692    0.769    4.385    0.000    4.000 
#    0.000    2.308    0.000    0.923    0.000    2.154 
#    0.000    0.615    0.000    7.692    0.000    8.923 
#
# Total GULP energy -644221.558021 kJ/mol
# GULP energy per Si atom -12388.876116 kJ/mol
# Density = 1.781868 g / cm^3
# Si number density = 17.859330 Si / 1000 Ang^3
#
#
#
# Elastic Constant Matrix: (Units=GPa)
#
#
# Indices 1 2 3 4 5 6 
#
# 1 134.6452 56.7160 39.9737 0.0000 0.0000 0.0000
# 2 56.7160 73.4366 19.6715 0.0000 0.0000 0.0000
# 3 39.9737 19.6715 63.2609 0.0000 0.0000 0.0000
# 4 0.0000 0.0000 0.0000 -12.6174 0.0000 0.0000
# 5 0.0000 0.0000 0.0000 0.0000 10.9298 0.0000
# 6 0.0000 0.0000 0.0000 0.0000 0.0000 20.6023
#
#
#
# Elastic Compliance Matrix: (Units=1/GPa)
#
#
# Indices 1 2 3 4 5 6 
#
# 1 0.012461 -0.008197 -0.005325 0.000000 0.000000 0.000000
# 2 -0.008197 0.020247 -0.001116 0.000000 0.000000 0.000000
# 3 -0.005325 -0.001116 0.019519 0.000000 0.000000 0.000000
# 4 0.000000 0.000000 0.000000 -0.079256 0.000000 0.000000
# 5 0.000000 0.000000 0.000000 0.000000 0.091493 0.000000
# 6 0.000000 0.000000 0.000000 0.000000 0.000000 0.048538
#
#
# Mechanical properties :
#
#
# Convention : Reuss Voigt Hill
#
# Bulk Modulus (GPa) = 43.57196 56.00724 49.78960
# Shear Modulus (GPa) = 33.34907 14.11502 23.73205
#
# Velocity S-wave (km/s) = 4.32594 2.81436 3.64927
# Velocity P-wave (km/s) = 7.02865 6.47990 6.75985
#
# Compressibility (1/GPa) = 0.02295054
#
# Stress axis : x y z
#
# Youngs Moduli (GPa) = 80.25313 49.39013 51.23134
#
# Poissons Ratio (x) = 0.40486 0.27279
# Poissons Ratio (y) = 0.65784 0.05719
# Poissons Ratio (z) = 0.42732 0.05514
#
# Static dielectric constant tensor:
#      x y z
#    x 3.559630 0.000000 0.000000 
#    y 0.000000 1.684800 0.000000 
#    z 0.000000 0.000000 3.102070 
# 
# 
# High freq. dielectric constant tensor:
#      x y z
#    x 1.696060 0.000000 0.000000 
#    y 0.000000 1.664700 0.000000 
#    z 0.000000 0.000000 1.656630 
# 
# From -- ./inp_files/13270.got.cif
#   From: 2010.03.12/outbox.cif.g09.slc.cpg/sg47_7_cif.got.tgz:13270.got - 2010.04.14 03:12:58.
