data_PCOD8195316
_publ_section_title
;
Structure prediction by ZEFSAII (Michael W. Deem and Ramdas Pophale) SiO2 
 PCOD8195316
Probable space group: P M M M
;
_chemical_formula_sum "Si O2"
_cell_formula_units_Z 60
_cell_length_a 14.508695
_cell_length_b 20.527254
_cell_length_c 12.585913
_cell_angle_alpha 90.000000
_cell_angle_beta 90.000000
_cell_angle_gamma 90.000000
_cell_volume 3748.382768
_symmetry_space_group_name_H-M "P M M M"
_symmetry_group_IT_number 47
_symmetry_cell_setting 'orthorhombic'
loop_
_space_group_symop_operation_xyz
x,y,z
-x,-y,z
x,-y,-z
-x,y,-z
-x,-y,-z
x,y,-z
-x,y,z
x,-y,z
loop_
_atom_site_type_symbol
_atom_site_label
_atom_site_fract_x
_atom_site_fract_y
_atom_site_fract_z
Si Si1 0.603813 0.577399 0.000000
Si Si2 0.281906 0.575125 0.798174
Si Si3 0.103703 0.364920 0.878360
Si Si4 0.898159 0.131647 0.377447
Si Si5 0.711550 0.070984 0.374565
Si Si6 0.604163 0.195748 0.626463
Si Si7 0.102328 0.727410 0.306715
Si Si8 0.713434 0.677344 0.380031
O O1 0.655820 0.602171 0.105299
O O2 0.604817 0.500000 0.000000
O O3 0.500000 0.605081 0.000000
O O4 0.302035 0.500000 0.772494
O O5 0.174596 0.582528 0.830236
O O6 0.309388 0.615926 0.693998
O O7 0.113966 0.297195 0.814439
O O8 0.000000 0.393499 0.866811
O O9 0.127682 0.349615 0.000000
O O10 0.886680 0.153702 0.500000
O O11 0.819732 0.080078 0.346386
O O12 0.883538 0.195240 0.305465
O O13 0.000000 0.100997 0.358487
O O14 0.697495 0.070499 0.500000
O O15 0.650951 0.129962 0.326058
O O16 0.681342 0.000000 0.328498
O O17 0.607299 0.193116 0.500000
O O18 0.500000 0.199422 0.669297
O O19 0.659186 0.259564 0.665103
O O20 0.177514 0.692404 0.380675
O O21 0.000000 0.709956 0.350660
O O22 0.682509 0.660288 0.500000
#
# Coordination Sequence:
#
# PCOD8195316 Si02
#       8
#     4   8   8   8   8   8   8   8
#     4   9  18  34  53  69  87 113 145 183 229 278
#     4  10  20  33  49  70  93 118 152 188 228 278
#     4   9  17  29  46  69  95 119 146 184 228 273
#     4   9  15  23  37  57  84 117 150 181 213 255
#     4   9  16  25  37  56  84 115 147 182 217 255
#     4   9  17  29  43  59  81 112 151 187 221 264
#     4   9  16  26  43  65  88 119 155 186 220 265
#     4  10  19  31  47  66  91 122 154 189 228 268
#
# _framework density 16.006903000000001
#
# number of rings (size 3 to 8) (size 9 to 14) (size 15 to 20)
#    0.000    2.733    2.000    0.400    0.000    2.400 
#    0.000    3.333    0.000    0.000    0.000    7.467 
#    0.000    0.533    0.400    5.267    0.400    8.333 
#
# Total GULP energy -743648.761072 kJ/mol
# GULP energy per Si atom -12394.146018 kJ/mol
# Density = 1.597047 g / cm^3
# Si number density = 16.006903 Si / 1000 Ang^3
#
#
#
# Elastic Constant Matrix: (Units=GPa)
#
#
# Indices 1 2 3 4 5 6 
#
# 1 99.2062 46.2481 26.6924 0.0000 0.0000 0.0000
# 2 46.2481 101.6663 39.4547 0.0000 0.0000 0.0000
# 3 26.6924 39.4547 56.2855 0.0000 0.0000 0.0000
# 4 0.0000 0.0000 0.0000 9.5469 0.0000 0.0000
# 5 0.0000 0.0000 0.0000 0.0000 13.7568 0.0000
# 6 0.0000 0.0000 0.0000 0.0000 0.0000 16.1776
#
#
#
# Elastic Compliance Matrix: (Units=1/GPa)
#
#
# Indices 1 2 3 4 5 6 
#
# 1 0.013106 -0.004876 -0.002797 0.000000 0.000000 0.000000
# 2 -0.004876 0.015326 -0.008431 0.000000 0.000000 0.000000
# 3 -0.002797 -0.008431 0.025003 0.000000 0.000000 0.000000
# 4 0.000000 0.000000 0.000000 0.104746 0.000000 0.000000
# 5 0.000000 0.000000 0.000000 0.000000 0.072691 0.000000
# 6 0.000000 0.000000 0.000000 0.000000 0.000000 0.061814
#
#
# Mechanical properties :
#
#
# Convention : Reuss Voigt Hill
#
# Bulk Modulus (GPa) = 47.11085 53.54983 50.33034
# Shear Modulus (GPa) = 15.06163 17.54711 16.30437
#
# Velocity S-wave (km/s) = 3.07081 3.31452 3.19499
# Velocity P-wave (km/s) = 6.48604 6.94081 6.71727
#
# Compressibility (1/GPa) = 0.02122653
#
# Stress axis : x y z
#
# Youngs Moduli (GPa) = 76.30163 65.24776 39.99565
#
# Poissons Ratio (x) = 0.31818 0.11187
# Poissons Ratio (y) = 0.37208 0.33719
# Poissons Ratio (z) = 0.21341 0.55009
#
# Static dielectric constant tensor:
#      x y z
#    x 3.279200 0.000000 0.000000 
#    y 0.000000 2.969850 0.000000 
#    z 0.000000 0.000000 2.726180 
# 
# 
# High freq. dielectric constant tensor:
#      x y z
#    x 1.628470 0.000000 0.000000 
#    y 0.000000 1.600640 0.000000 
#    z 0.000000 0.000000 1.566030 
# 
# From -- ./inp_files/18045.got.cif
#   From: 2010.03.12/outbox.cif.g09.slc.cpg/sg47_10_cif.got.tgz:18045.got - 2010.04.14 03:12:58.
