data_PCOD8195590
_publ_section_title
;
Structure prediction by ZEFSAII (Michael W. Deem and Ramdas Pophale) SiO2 
 PCOD8195590
Probable space group: P M M M
;
_chemical_formula_sum "Si O2"
_cell_formula_units_Z 44
_cell_length_a 13.965156
_cell_length_b 19.413994
_cell_length_c 8.214369
_cell_angle_alpha 90.000000
_cell_angle_beta 90.000000
_cell_angle_gamma 90.000000
_cell_volume 2227.075245
_symmetry_space_group_name_H-M "P M M M"
_symmetry_group_IT_number 47
_symmetry_cell_setting 'orthorhombic'
loop_
_space_group_symop_operation_xyz
x,y,z
-x,-y,z
x,-y,-z
-x,y,-z
-x,-y,-z
x,y,-z
-x,y,z
x,-y,z
loop_
_atom_site_type_symbol
_atom_site_label
_atom_site_fract_x
_atom_site_fract_y
_atom_site_fract_z
Si Si1 0.110206 0.926222 0.308846
Si Si2 0.724936 0.702921 0.687315
Si Si3 0.105818 0.784013 0.811518
Si Si4 0.613874 0.922415 0.000000
Si Si5 0.613514 0.159520 0.682993
Si Si6 0.392652 0.576457 0.306375
O O1 0.120970 0.924650 0.500000
O O2 0.158468 0.856150 0.241085
O O3 0.000000 0.923603 0.253947
O O4 0.153421 0.000000 0.244169
O O5 0.746421 0.690278 0.500000
O O6 0.826997 0.720008 0.767342
O O7 0.649523 0.763674 0.715735
O O8 0.679870 0.633627 0.766583
O O9 0.000000 0.775723 0.728551
O O10 0.090684 0.786073 0.000000
O O11 0.652530 0.887874 0.168381
O O12 0.500000 0.919403 0.000000
O O13 0.652202 0.000000 0.000000
O O14 0.646622 0.133691 0.500000
O O15 0.500000 0.161565 0.687603
O O16 0.395300 0.583125 0.500000
O O17 0.500000 0.589418 0.238967
O O18 0.357612 0.500000 0.254405
#
# Coordination Sequence:
#
# PCOD8195590 Si02
#       6
#     8   8   8   4   8   8
#     4   8  14  27  48  70  91 118 155 205 265 319
#     4  10  19  31  52  78 103 134 169 207 256 314
#     4  10  21  34  48  69  98 134 177 221 262 307
#     4   9  18  32  50  72 100 140 184 221 264 312
#     4   9  18  32  51  77 105 133 172 219 265 318
#     4   8  14  27  51  84 116 138 158 194 249 312
#
# _framework density 19.756854000000001
#
# number of rings (size 3 to 8) (size 9 to 14) (size 15 to 20)
#    0.000    3.000    0.000    2.182    1.273    4.000 
#    0.000    4.545    0.000    2.182    0.000    5.091 
#    0.000    0.000    0.000    0.000    0.000    0.000 
#
# Total GULP energy -545093.769110 kJ/mol
# GULP energy per Si atom -12388.494753 kJ/mol
# Density = 1.971189 g / cm^3
# Si number density = 19.756854 Si / 1000 Ang^3
#
#
#
# Elastic Constant Matrix: (Units=GPa)
#
#
# Indices 1 2 3 4 5 6 
#
# 1 59.3375 65.3738 18.7657 0.0000 0.0000 0.0000
# 2 65.3738 169.5012 46.8777 0.0000 0.0000 0.0000
# 3 18.7657 46.8777 77.1111 0.0000 0.0000 0.0000
# 4 0.0000 0.0000 0.0000 -0.4540 0.0000 0.0000
# 5 0.0000 0.0000 0.0000 0.0000 14.9395 0.0000
# 6 0.0000 0.0000 0.0000 0.0000 0.0000 22.1449
#
#
#
# Elastic Compliance Matrix: (Units=1/GPa)
#
#
# Indices 1 2 3 4 5 6 
#
# 1 0.029311 -0.011218 -0.000313 0.000000 0.000000 0.000000
# 2 -0.011218 0.011386 -0.004191 0.000000 0.000000 0.000000
# 3 -0.000313 -0.004191 0.015593 0.000000 0.000000 0.000000
# 4 0.000000 0.000000 0.000000 -2.202766 0.000000 0.000000
# 5 0.000000 0.000000 0.000000 0.000000 0.066937 0.000000
# 6 0.000000 0.000000 0.000000 0.000000 0.000000 0.045157
#
#
# Mechanical properties :
#
#
# Convention : Reuss Voigt Hill
#
# Bulk Modulus (GPa) = 40.25219 63.10936 51.68077
# Shear Modulus (GPa) = -2.50670 18.98826 8.24078
#
# Velocity S-wave (km/s) = -1.12762 3.10352 2.04454
# Velocity P-wave (km/s) = 4.32697 6.69737 5.63815
#
# Compressibility (1/GPa) = 0.02484337
#
# Stress axis : x y z
#
# Youngs Moduli (GPa) = 34.11657 87.83062 64.13268
#
# Poissons Ratio (x) = 0.98530 0.02010
# Poissons Ratio (y) = 0.38273 0.26881
# Poissons Ratio (z) = 0.01069 0.36814
#
# Static dielectric constant tensor:
#      x y z
#    x 3.562820 0.000000 0.000000 
#    y 0.000000 3.865480 0.000000 
#    z 0.000000 0.000000 3.493040 
# 
# 
# High freq. dielectric constant tensor:
#      x y z
#    x 1.755930 0.000000 0.000000 
#    y 0.000000 1.757810 0.000000 
#    z 0.000000 0.000000 1.751010 
# 
# From -- ./inp_files/6138.got.cif
#   From: 2010.03.12/outbox.cif.g09.slc.cpg/sg47_4_cif.got.tgz:6138.got - 2010.04.14 03:12:58.
