data_PCOD8195918
_publ_section_title
;
Structure prediction by ZEFSAII (Michael W. Deem and Ramdas Pophale) SiO2 
 PCOD8195918
Probable space group: P M M M
;
_chemical_formula_sum "Si O2"
_cell_formula_units_Z 52
_cell_length_a 21.093941
_cell_length_b 13.944894
_cell_length_c 9.169409
_cell_angle_alpha 90.000000
_cell_angle_beta 90.000000
_cell_angle_gamma 90.000000
_cell_volume 2697.207068
_symmetry_space_group_name_H-M "P M M M"
_symmetry_group_IT_number 47
_symmetry_cell_setting 'orthorhombic'
loop_
_space_group_symop_operation_xyz
x,y,z
-x,-y,z
x,-y,-z
-x,y,-z
-x,-y,-z
x,y,-z
-x,y,z
x,-y,z
loop_
_atom_site_type_symbol
_atom_site_label
_atom_site_fract_x
_atom_site_fract_y
_atom_site_fract_z
Si Si1 0.187065 0.388184 0.329130
Si Si2 0.000000 0.890624 0.826827
Si Si3 0.634917 0.106563 0.667006
Si Si4 0.878601 0.771008 0.172297
Si Si5 0.757552 0.108556 0.829534
Si Si6 0.686101 0.613269 0.835374
Si Si7 0.428892 0.295804 0.668098
O O1 0.191105 0.366409 0.500000
O O2 0.174675 0.500000 0.298146
O O3 0.128285 0.330257 0.256808
O O4 0.252740 0.352468 0.255876
O O5 0.939213 0.830823 0.772395
O O6 0.000000 0.000000 0.763619
O O7 0.000000 0.898025 0.000000
O O8 0.655706 0.100723 0.500000
O O9 0.694661 0.149959 0.754145
O O10 0.577476 0.180692 0.689348
O O11 0.615231 0.000000 0.723718
O O12 0.818249 0.832627 0.219746
O O13 0.882464 0.751230 0.000000
O O14 0.768700 0.000000 0.777554
O O15 0.746661 0.115149 0.000000
O O16 0.683043 0.500000 0.835820
O O17 0.620690 0.648604 0.766820
O O18 0.693125 0.653529 0.000000
O O19 0.416581 0.323925 0.500000
O O20 0.500000 0.324593 0.715452
#
# Coordination Sequence:
#
# PCOD8195918 Si02
#       7
#     8   4   8   8   8   8   8
#     4  10  21  37  57  80 106 137 173 216 268 320
#     4   9  18  34  56  83 116 152 187 219 256 307
#     4   9  18  32  49  70  97 130 169 212 257 305
#     4  10  19  32  54  81 108 142 181 219 258 302
#     4   9  17  29  47  73 102 130 164 209 260 310
#     4  10  21  37  57  80 105 133 168 215 268 318
#     4  10  21  35  51  73 102 138 177 214 257 313
#
# _framework density 19.279202000000002
#
# number of rings (size 3 to 8) (size 9 to 14) (size 15 to 20)
#    0.000    2.385    0.000    2.308    0.000    8.308 
#    0.000    3.846    0.000    4.154    0.000    3.231 
#    0.000    0.000    0.000    0.000    0.000    0.000 
#
# Total GULP energy -644753.324329 kJ/mol
# GULP energy per Si atom -12399.102391 kJ/mol
# Density = 1.923532 g / cm^3
# Si number density = 19.279202 Si / 1000 Ang^3
#
#
#
# Elastic Constant Matrix: (Units=GPa)
#
#
# Indices 1 2 3 4 5 6 
#
# 1 108.4441 57.6623 44.4719 0.0000 0.0000 0.0000
# 2 57.6623 66.4048 38.8312 0.0000 0.0000 0.0000
# 3 44.4719 38.8312 67.9877 0.0000 0.0000 0.0000
# 4 0.0000 0.0000 0.0000 28.4556 0.0000 0.0000
# 5 0.0000 0.0000 0.0000 0.0000 19.4693 0.0000
# 6 0.0000 0.0000 0.0000 0.0000 0.0000 30.0203
#
#
#
# Elastic Compliance Matrix: (Units=1/GPa)
#
#
# Indices 1 2 3 4 5 6 
#
# 1 0.017915 -0.013068 -0.004254 0.000000 0.000000 0.000000
# 2 -0.013068 0.032144 -0.009811 0.000000 0.000000 0.000000
# 3 -0.004254 -0.009811 0.023095 0.000000 0.000000 0.000000
# 4 0.000000 0.000000 0.000000 0.035142 0.000000 0.000000
# 5 0.000000 0.000000 0.000000 0.000000 0.051363 0.000000
# 6 0.000000 0.000000 0.000000 0.000000 0.000000 0.033311
#
#
# Mechanical properties :
#
#
# Convention : Reuss Voigt Hill
#
# Bulk Modulus (GPa) = 52.94778 58.30749 55.62764
# Shear Modulus (GPa) = 19.72134 22.38046 21.05090
#
# Velocity S-wave (km/s) = 3.20180 3.41084 3.30797
# Velocity P-wave (km/s) = 6.41810 6.76913 6.59595
#
# Compressibility (1/GPa) = 0.01888653
#
# Stress axis : x y z
#
# Youngs Moduli (GPa) = 55.81971 31.10994 43.29977
#
# Poissons Ratio (x) = 0.40656 0.18421
# Poissons Ratio (y) = 0.72948 0.42480
# Poissons Ratio (z) = 0.23748 0.30521
#
# Static dielectric constant tensor:
#      x y z
#    x 3.479990 0.000000 0.000000 
#    y 0.000000 3.739840 0.000000 
#    z 0.000000 0.000000 3.412090 
# 
# 
# High freq. dielectric constant tensor:
#      x y z
#    x 1.736010 0.000000 0.000000 
#    y 0.000000 1.763660 0.000000 
#    z 0.000000 0.000000 1.735060 
# 
# From -- ./inp_files/6991.got.cif
#   From: 2010.03.12/outbox.cif.g09.slc.cpg/sg47_4_cif.got.tgz:6991.got - 2010.04.14 03:12:58.
