data_PCOD8195797
_publ_section_title
;
Structure prediction by ZEFSAII (Michael W. Deem and Ramdas Pophale) SiO2 
 PCOD8195797
Probable space group: P M M M
;
_chemical_formula_sum "Si O2"
_cell_formula_units_Z 48
_cell_length_a 8.764062
_cell_length_b 14.142286
_cell_length_c 20.609759
_cell_angle_alpha 90.000000
_cell_angle_beta 90.000000
_cell_angle_gamma 90.000000
_cell_volume 2554.453318
_symmetry_space_group_name_H-M "P M M M"
_symmetry_group_IT_number 47
_symmetry_cell_setting 'orthorhombic'
loop_
_space_group_symop_operation_xyz
x,y,z
-x,-y,z
x,-y,-z
-x,y,-z
-x,-y,-z
x,y,-z
-x,y,z
x,-y,z
loop_
_atom_site_type_symbol
_atom_site_label
_atom_site_fract_x
_atom_site_fract_y
_atom_site_fract_z
Si Si1 0.181482 0.396986 0.814746
Si Si2 0.176482 0.889736 0.738771
Si Si3 0.819659 0.892973 0.500000
Si Si4 0.180693 0.205189 0.871030
Si Si5 0.822390 0.392912 0.333124
Si Si6 0.182489 0.892520 0.000000
Si Si7 0.677931 0.212847 0.379629
O O1 0.242278 0.500000 0.839060
O O2 0.244688 0.312092 0.859919
O O3 0.233913 0.379402 0.740906
O O4 0.000000 0.397807 0.815843
O O5 0.227989 0.861193 0.811063
O O6 0.280525 0.833900 0.688723
O O7 0.000000 0.862018 0.727064
O O8 0.203826 0.000000 0.729062
O O9 0.764390 0.840648 0.563796
O O10 0.000000 0.893354 0.500000
O O11 0.755982 0.000000 0.500000
O O12 0.000000 0.208685 0.877303
O O13 0.249230 0.161281 0.936876
O O14 0.791215 0.500000 0.356320
O O15 0.727301 0.322728 0.378958
O O16 0.000000 0.367574 0.339114
O O17 0.000000 0.892091 0.000000
O O18 0.242774 0.000000 0.000000
O O19 0.500000 0.205093 0.392928
#
# Coordination Sequence:
#
# PCOD8195797 Si02
#       7
#     8   8   4   8   8   4   8
#     4   8  13  23  43  69  95 127 169 217 268 319
#     4  10  19  32  52  75 100 137 187 233 269 320
#     4  11  25  45  66  83 106 147 193 228 262 319
#     4   9  15  25  42  66  98 133 175 225 274 325
#     4   9  17  33  58  83 108 142 183 224 266 320
#     4   9  16  24  35  59  98 140 176 219 282 335
#     4  12  24  37  56  84 117 145 173 221 280 328
#
# _framework density 18.790714000000001
#
# number of rings (size 3 to 8) (size 9 to 14) (size 15 to 20)
#    0.000    2.333    1.667    3.750    0.000    5.333 
#    0.000    0.833    0.000    5.000    0.000    0.583 
#    0.000    2.000    0.000    3.667    0.000    3.667 
#
# Total GULP energy -595080.008419 kJ/mol
# GULP energy per Si atom -12397.500175 kJ/mol
# Density = 1.874795 g / cm^3
# Si number density = 18.790714 Si / 1000 Ang^3
#
#
#
# Elastic Constant Matrix: (Units=GPa)
#
#
# Indices 1 2 3 4 5 6 
#
# 1 36.0121 26.7180 20.4586 0.0000 0.0000 0.0000
# 2 26.7180 154.9614 59.0731 0.0000 0.0000 0.0000
# 3 20.4586 59.0731 101.9033 0.0000 0.0000 0.0000
# 4 0.0000 0.0000 0.0000 28.3662 0.0000 0.0000
# 5 0.0000 0.0000 0.0000 0.0000 -8.8743 0.0000
# 6 0.0000 0.0000 0.0000 0.0000 0.0000 8.2424
#
#
#
# Elastic Compliance Matrix: (Units=1/GPa)
#
#
# Indices 1 2 3 4 5 6 
#
# 1 0.033249 -0.004092 -0.004303 0.000000 0.000000 0.000000
# 2 -0.004092 0.008788 -0.004273 0.000000 0.000000 0.000000
# 3 -0.004303 -0.004273 0.013154 0.000000 0.000000 0.000000
# 4 0.000000 0.000000 0.000000 0.035253 0.000000 0.000000
# 5 0.000000 0.000000 0.000000 0.000000 -0.112685 0.000000
# 6 0.000000 0.000000 0.000000 0.000000 0.000000 0.121323
#
#
# Mechanical properties :
#
#
# Convention : Reuss Voigt Hill
#
# Bulk Modulus (GPa) = 33.49527 56.15290 44.82409
# Shear Modulus (GPa) = 37.21090 17.98867 27.59979
#
# Velocity S-wave (km/s) = 4.45486 3.09741 3.83665
# Velocity P-wave (km/s) = 6.65772 6.53759 6.59793
#
# Compressibility (1/GPa) = 0.02985496
#
# Stress axis : x y z
#
# Youngs Moduli (GPa) = 30.07593 113.79728 76.02336
#
# Poissons Ratio (x) = 0.46571 0.32712
# Poissons Ratio (y) = 0.12308 0.32481
# Poissons Ratio (z) = 0.12941 0.48620
#
# Static dielectric constant tensor:
#      x y z
#    x 2.945200 0.000000 0.000000 
#    y 0.000000 3.940050 0.000000 
#    z 0.000000 0.000000 3.571390 
# 
# 
# High freq. dielectric constant tensor:
#      x y z
#    x 1.674810 0.000000 0.000000 
#    y 0.000000 1.754200 0.000000 
#    z 0.000000 0.000000 1.715780 
# 
# From -- ./inp_files/26571.got.cif
#   From: 2010.03.12/outbox.cif.g09.slc.cpg/sg47_14_cif.got.tgz:26571.got - 2010.04.14 03:12:58.
