data_PCOD8195491
_publ_section_title
;
Structure prediction by ZEFSAII (Michael W. Deem and Ramdas Pophale) SiO2 
 PCOD8195491
Probable space group: P M M M
;
_chemical_formula_sum "Si O2"
_cell_formula_units_Z 52
_cell_length_a 27.805688
_cell_length_b 7.915042
_cell_length_c 12.849899
_cell_angle_alpha 90.000000
_cell_angle_beta 90.000000
_cell_angle_gamma 90.000000
_cell_volume 2828.046742
_symmetry_space_group_name_H-M "P M M M"
_symmetry_group_IT_number 47
_symmetry_cell_setting 'orthorhombic'
loop_
_space_group_symop_operation_xyz
x,y,z
-x,-y,z
x,-y,-z
-x,y,-z
-x,-y,-z
x,y,-z
-x,y,z
x,-y,z
loop_
_atom_site_type_symbol
_atom_site_label
_atom_site_fract_x
_atom_site_fract_y
_atom_site_fract_z
Si Si1 0.382368 0.810801 0.621002
Si Si2 0.946537 0.801838 0.703336
Si Si3 0.227212 0.197901 0.881461
Si Si4 0.716756 0.306837 0.312282
Si Si5 0.109690 0.699567 0.500000
Si Si6 0.217862 0.700435 0.500000
Si Si7 0.446226 0.500000 0.376360
Si Si8 0.881035 0.798831 0.885311
O O1 0.371481 0.776870 0.500000
O O2 0.332354 0.798204 0.682623
O O3 0.419654 0.670262 0.663311
O O4 0.403597 0.000000 0.638357
O O5 0.918146 0.766124 0.599177
O O6 0.917456 0.721236 0.800437
O O7 0.000000 0.721223 0.698504
O O8 0.950994 0.000000 0.720062
O O9 0.262227 0.295361 0.803558
O O10 0.173010 0.263909 0.861462
O O11 0.230971 0.000000 0.858840
O O12 0.242672 0.238583 0.000000
O O13 0.704463 0.500000 0.339428
O O14 0.754727 0.234204 0.396721
O O15 0.110315 0.500000 0.500000
O O16 0.163768 0.774810 0.500000
O O17 0.214800 0.500000 0.500000
O O18 0.500000 0.500000 0.329334
O O19 0.448657 0.500000 0.500000
O O20 0.881036 0.000000 0.882165
O O21 0.897122 0.736298 0.000000
#
# Coordination Sequence:
#
# PCOD8195491 Si02
#       8
#     8   8   8   8   4   4   4   8
#     4  10  19  31  49  74 106 143 184 225 268 318
#     4  10  20  33  50  71  93 118 152 200 252 300
#     4   9  18  32  48  68  97 130 165 207 254 308
#     4  11  19  31  50  71 102 136 170 213 261 311
#     4  11  22  36  49  66  92 126 165 197 240 300
#     4   9  20  32  48  71  96 128 162 207 255 297
#     4   9  18  32  50  72 105 149 189 229 272 308
#     4   8  15  30  51  72  94 120 152 198 252 305
#
# _framework density 18.387250000000002
#
# number of rings (size 3 to 8) (size 9 to 14) (size 15 to 20)
#    0.000    2.385    1.538    2.769    0.000    2.154 
#    0.000    5.385    0.000    1.385    0.000    1.077 
#    0.000    1.231    0.000    3.231    0.000    0.154 
#
# Total GULP energy -644731.476207 kJ/mol
# GULP energy per Si atom -12398.682235 kJ/mol
# Density = 1.834540 g / cm^3
# Si number density = 18.387250 Si / 1000 Ang^3
#
#
#
# Elastic Constant Matrix: (Units=GPa)
#
#
# Indices 1 2 3 4 5 6 
#
# 1 140.8203 35.2009 58.7222 0.0000 0.0000 0.0000
# 2 35.2009 60.2850 16.6122 0.0000 0.0000 0.0000
# 3 58.7222 16.6122 107.5009 0.0000 0.0000 0.0000
# 4 0.0000 0.0000 0.0000 9.7398 0.0000 0.0000
# 5 0.0000 0.0000 0.0000 0.0000 82.9071 0.0000
# 6 0.0000 0.0000 0.0000 0.0000 0.0000 19.6396
#
#
#
# Elastic Compliance Matrix: (Units=1/GPa)
#
#
# Indices 1 2 3 4 5 6 
#
# 1 0.010318 -0.004671 -0.004915 0.000000 0.000000 0.000000
# 2 -0.004671 0.019440 -0.000453 0.000000 0.000000 0.000000
# 3 -0.004915 -0.000453 0.012057 0.000000 0.000000 0.000000
# 4 0.000000 0.000000 0.000000 0.102672 0.000000 0.000000
# 5 0.000000 0.000000 0.000000 0.000000 0.012062 0.000000
# 6 0.000000 0.000000 0.000000 0.000000 0.000000 0.050918
#
#
# Mechanical properties :
#
#
# Convention : Reuss Voigt Hill
#
# Bulk Modulus (GPa) = 46.00026 58.85296 52.42661
# Shear Modulus (GPa) = 21.29584 35.66203 28.47893
#
# Velocity S-wave (km/s) = 3.40690 4.40875 3.93980
# Velocity P-wave (km/s) = 6.36771 7.61532 7.01929
#
# Compressibility (1/GPa) = 0.02173901
#
# Stress axis : x y z
#
# Youngs Moduli (GPa) = 96.91703 51.44084 82.94108
#
# Poissons Ratio (x) = 0.24026 0.40761
# Poissons Ratio (y) = 0.45266 0.03755
# Poissons Ratio (z) = 0.47630 0.02329
#
# Static dielectric constant tensor:
#      x y z
#    x 3.469030 0.000000 0.000000 
#    y 0.000000 3.216200 0.000000 
#    z 0.000000 0.000000 3.373880 
# 
# 
# High freq. dielectric constant tensor:
#      x y z
#    x 1.701280 0.000000 0.000000 
#    y 0.000000 1.701060 0.000000 
#    z 0.000000 0.000000 1.693540 
# 
# From -- ./inp_files/19851.got.cif
#   From: 2010.03.12/outbox.cif.g09.slc.cpg/sg47_10_cif.got.tgz:19851.got - 2010.04.14 03:12:58.
