data_PCOD8195366
_publ_section_title
;
Structure prediction by ZEFSAII (Michael W. Deem and Ramdas Pophale) SiO2 
 PCOD8195366
Probable space group: P M M M
;
_chemical_formula_sum "Si O2"
_cell_formula_units_Z 56
_cell_length_a 9.083447
_cell_length_b 18.761528
_cell_length_c 19.282315
_cell_angle_alpha 90.000000
_cell_angle_beta 90.000000
_cell_angle_gamma 90.000000
_cell_volume 3286.079497
_symmetry_space_group_name_H-M "P M M M"
_symmetry_group_IT_number 47
_symmetry_cell_setting 'orthorhombic'
loop_
_space_group_symop_operation_xyz
x,y,z
-x,-y,z
x,-y,-z
-x,y,-z
-x,-y,-z
x,y,-z
-x,y,z
x,-y,z
loop_
_atom_site_type_symbol
_atom_site_label
_atom_site_fract_x
_atom_site_fract_y
_atom_site_fract_z
Si Si1 0.673790 0.196896 0.574077
Si Si2 0.328051 0.164775 0.279024
Si Si3 0.327955 0.077564 0.150641
Si Si4 0.674340 0.780445 0.079194
Si Si5 0.174022 0.709984 0.201115
Si Si6 0.328091 0.642186 0.578084
Si Si7 0.829304 0.419972 0.706507
O O1 0.737463 0.167146 0.500000
O O2 0.500000 0.200168 0.567016
O O3 0.717485 0.148516 0.640760
O O4 0.731585 0.277077 0.586519
O O5 0.500000 0.186629 0.273481
O O6 0.296265 0.095949 0.231507
O O7 0.231319 0.230391 0.253498
O O8 0.500000 0.071203 0.136783
O O9 0.266085 0.140889 0.101911
O O10 0.254934 0.000000 0.134227
O O11 0.500000 0.776236 0.091066
O O12 0.750920 0.719902 0.125752
O O13 0.718714 0.766850 0.000000
O O14 0.222250 0.633682 0.232565
O O15 0.000000 0.716803 0.192029
O O16 0.294244 0.614832 0.500000
O O17 0.500000 0.638926 0.593830
O O18 0.249864 0.592127 0.633459
O O19 0.794988 0.500000 0.732365
O O20 0.000000 0.407944 0.691788
#
# Coordination Sequence:
#
# PCOD8195366 Si02
#       7
#     8   8   8   8   8   8   8
#     4   8  13  22  39  62  85 112 149 192 232 264
#     4   9  15  26  46  65  86 119 156 191 225 263
#     4   8  14  24  41  69  99 123 148 177 210 254
#     4   9  18  32  51  73  94 119 148 177 213 260
#     4  10  19  31  48  68  90 115 147 187 224 263
#     4   9  17  29  45  65  89 118 154 194 233 274
#     4  10  21  34  46  63  90 123 154 186 229 277
#
# _framework density 17.041584
#
# number of rings (size 3 to 8) (size 9 to 14) (size 15 to 20)
#    0.000    3.000    1.429    2.143    0.000    2.000 
#    0.000    2.857    0.000    8.143    0.000   10.000 
#    0.000    0.000    0.000    5.143    0.000    5.714 
#
# Total GULP energy -693827.865465 kJ/mol
# GULP energy per Si atom -12389.783312 kJ/mol
# Density = 1.700280 g / cm^3
# Si number density = 17.041584 Si / 1000 Ang^3
#
#
#
# Elastic Constant Matrix: (Units=GPa)
#
#
# Indices 1 2 3 4 5 6 
#
# 1 31.0409 25.4570 32.1791 0.0000 0.0000 0.0000
# 2 25.4570 76.7884 46.1516 0.0000 0.0000 0.0000
# 3 32.1791 46.1516 144.6782 0.0000 0.0000 0.0000
# 4 0.0000 0.0000 0.0000 17.6438 0.0000 0.0000
# 5 0.0000 0.0000 0.0000 0.0000 17.4423 0.0000
# 6 0.0000 0.0000 0.0000 0.0000 0.0000 14.1805
#
#
#
# Elastic Compliance Matrix: (Units=1/GPa)
#
#
# Indices 1 2 3 4 5 6 
#
# 1 0.049591 -0.012138 -0.007158 0.000000 0.000000 0.000000
# 2 -0.012138 0.019083 -0.003388 0.000000 0.000000 0.000000
# 3 -0.007158 -0.003388 0.009585 0.000000 0.000000 0.000000
# 4 0.000000 0.000000 0.000000 0.056677 0.000000 0.000000
# 5 0.000000 0.000000 0.000000 0.000000 0.057332 0.000000
# 6 0.000000 0.000000 0.000000 0.000000 0.000000 0.070520
#
#
# Mechanical properties :
#
#
# Convention : Reuss Voigt Hill
#
# Bulk Modulus (GPa) = 30.40380 51.12033 40.76206
# Shear Modulus (GPa) = 15.66822 19.76798 17.71810
#
# Velocity S-wave (km/s) = 3.03547 3.40955 3.22793
# Velocity P-wave (km/s) = 5.49228 6.75001 6.15336
#
# Compressibility (1/GPa) = 0.03289063
#
# Stress axis : x y z
#
# Youngs Moduli (GPa) = 20.16514 52.40294 104.33482
#
# Poissons Ratio (x) = 0.63608 0.74681
# Poissons Ratio (y) = 0.24477 0.35344
# Poissons Ratio (z) = 0.14434 0.17752
#
# Static dielectric constant tensor:
#      x y z
#    x 2.870110 0.000000 0.000000 
#    y 0.000000 3.171290 0.000000 
#    z 0.000000 0.000000 3.478590 
# 
# 
# High freq. dielectric constant tensor:
#      x y z
#    x 1.623240 0.000000 0.000000 
#    y 0.000000 1.629570 0.000000 
#    z 0.000000 0.000000 1.664890 
# 
# From -- ./inp_files/11522.got.cif
#   From: 2010.03.12/outbox.cif.g09.slc.cpg/sg47_6_cif.got.tgz:11522.got - 2010.04.14 03:12:58.
