data_PCOD8195776
_publ_section_title
;
Structure prediction by ZEFSAII (Michael W. Deem and Ramdas Pophale) SiO2 
 PCOD8195776
Probable space group: P M M M
;
_chemical_formula_sum "Si O2"
_cell_formula_units_Z 52
_cell_length_a 9.659127
_cell_length_b 13.756813
_cell_length_c 21.963493
_cell_angle_alpha 90.000000
_cell_angle_beta 90.000000
_cell_angle_gamma 90.000000
_cell_volume 2918.482679
_symmetry_space_group_name_H-M "P M M M"
_symmetry_group_IT_number 47
_symmetry_cell_setting 'orthorhombic'
loop_
_space_group_symop_operation_xyz
x,y,z
-x,-y,z
x,-y,-z
-x,y,-z
-x,-y,-z
x,y,-z
-x,y,z
x,-y,z
loop_
_atom_site_type_symbol
_atom_site_label
_atom_site_fract_x
_atom_site_fract_y
_atom_site_fract_z
Si Si1 0.661412 0.614482 0.821270
Si Si2 0.500000 0.115212 0.431157
Si Si3 0.246516 0.115151 0.351296
Si Si4 0.841869 0.111359 0.112043
Si Si5 0.837765 0.230157 0.234578
Si Si6 0.846091 0.614844 0.067235
Si Si7 0.340657 0.116056 0.000000
Si Si8 0.000000 0.884850 0.433190
O O1 0.500000 0.644970 0.820667
O O2 0.678223 0.500000 0.809778
O O3 0.749848 0.669781 0.769376
O O4 0.728485 0.647539 0.885658
O O5 0.500000 0.159811 0.500000
O O6 0.375243 0.151720 0.390040
O O7 0.500000 0.000000 0.438123
O O8 0.233223 0.167255 0.287010
O O9 0.127978 0.152147 0.395313
O O10 0.245355 0.000000 0.339026
O O11 0.816538 0.171147 0.172871
O O12 0.000000 0.121019 0.089184
O O13 0.805498 0.000000 0.126776
O O14 0.740621 0.154151 0.059897
O O15 0.000000 0.250814 0.247750
O O16 0.853421 0.500000 0.064728
O O17 0.000000 0.654030 0.086990
O O18 0.807443 0.655075 0.000000
O O19 0.500000 0.153154 0.000000
O O20 0.334814 0.000000 0.000000
O O21 0.000000 0.836734 0.500000
O O22 0.000000 0.000000 0.439936
#
# Coordination Sequence:
#
# PCOD8195776 Si02
#       8
#     8   4   8   8   8   8   4   4
#     4  10  22  38  54  73 100 134 172 219 272 324
#     4   9  18  32  50  76 113 156 190 211 243 296
#     4  10  19  32  51  79 115 150 182 215 251 300
#     4   9  18  33  53  73  98 133 172 213 257 309
#     4  11  22  35  53  78 105 138 177 218 266 315
#     4   8  14  28  52  77  97 120 154 200 259 324
#     4   9  17  31  49  71  96 127 172 221 263 300
#     4   9  16  28  50  78 111 150 182 209 243 290
#
# _framework density 17.817478000000001
#
# number of rings (size 3 to 8) (size 9 to 14) (size 15 to 20)
#    0.000    2.538    0.769    2.077    1.077    5.231 
#    1.385    1.538    0.000    0.000    0.000    0.000 
#    0.000    3.692    0.000    0.000    0.000    0.000 
#
# Total GULP energy -644457.350609 kJ/mol
# GULP energy per Si atom -12393.410589 kJ/mol
# Density = 1.777692 g / cm^3
# Si number density = 17.817478 Si / 1000 Ang^3
#
#
#
# Elastic Constant Matrix: (Units=GPa)
#
#
# Indices 1 2 3 4 5 6 
#
# 1 152.7350 32.1313 76.6415 0.0000 0.0000 0.0000
# 2 32.1313 50.6721 37.2023 0.0000 0.0000 0.0000
# 3 76.6415 37.2023 124.2275 0.0000 0.0000 0.0000
# 4 0.0000 0.0000 0.0000 9.4048 0.0000 0.0000
# 5 0.0000 0.0000 0.0000 0.0000 42.1579 0.0000
# 6 0.0000 0.0000 0.0000 0.0000 0.0000 19.9693
#
#
#
# Elastic Compliance Matrix: (Units=1/GPa)
#
#
# Indices 1 2 3 4 5 6 
#
# 1 0.009679 -0.002247 -0.005298 0.000000 0.000000 0.000000
# 2 -0.002247 0.025818 -0.006345 0.000000 0.000000 0.000000
# 3 -0.005298 -0.006345 0.013219 0.000000 0.000000 0.000000
# 4 0.000000 0.000000 0.000000 0.106328 0.000000 0.000000
# 5 0.000000 0.000000 0.000000 0.000000 0.023720 0.000000
# 6 0.000000 0.000000 0.000000 0.000000 0.000000 0.050077
#
#
# Mechanical properties :
#
#
# Convention : Reuss Voigt Hill
#
# Bulk Modulus (GPa) = 47.76935 68.84277 58.30606
# Shear Modulus (GPa) = 18.96805 26.41704 22.69254
#
# Velocity S-wave (km/s) = 3.26632 3.85469 3.57264
# Velocity P-wave (km/s) = 6.41044 7.65070 7.05787
#
# Compressibility (1/GPa) = 0.02093392
#
# Stress axis : x y z
#
# Youngs Moduli (GPa) = 103.31986 38.73208 75.65088
#
# Poissons Ratio (x) = 0.08705 0.40081
# Poissons Ratio (y) = 0.23221 0.48002
# Poissons Ratio (z) = 0.54740 0.24576
#
# Static dielectric constant tensor:
#      x y z
#    x 3.539270 0.000000 0.000000 
#    y 0.000000 3.083840 0.000000 
#    z 0.000000 0.000000 3.382170 
# 
# 
# High freq. dielectric constant tensor:
#      x y z
#    x 1.700090 0.000000 0.000000 
#    y 0.000000 1.658790 0.000000 
#    z 0.000000 0.000000 1.681120 
# 
# From -- ./inp_files/29681.got.cif
#   From: 2010.03.12/outbox.cif.g09.slc.cpg/sg47_15_cif.got.tgz:29681.got - 2010.04.14 03:12:58.
