data_PCOD8195648
_publ_section_title
;
Structure prediction by ZEFSAII (Michael W. Deem and Ramdas Pophale) SiO2 
 PCOD8195648
Probable space group: P M M M
;
_chemical_formula_sum "Si O2"
_cell_formula_units_Z 52
_cell_length_a 17.779308
_cell_length_b 17.665471
_cell_length_c 9.012351
_cell_angle_alpha 90.000000
_cell_angle_beta 90.000000
_cell_angle_gamma 90.000000
_cell_volume 2830.597849
_symmetry_space_group_name_H-M "P M M M"
_symmetry_group_IT_number 47
_symmetry_cell_setting 'orthorhombic'
loop_
_space_group_symop_operation_xyz
x,y,z
-x,-y,z
x,-y,-z
-x,y,-z
-x,-y,-z
x,y,-z
-x,y,z
x,-y,z
loop_
_atom_site_type_symbol
_atom_site_label
_atom_site_fract_x
_atom_site_fract_y
_atom_site_fract_z
Si Si1 0.415746 0.363102 0.828753
Si Si2 0.412243 0.915577 0.664377
Si Si3 0.336016 0.790092 0.831343
Si Si4 0.088501 0.152819 0.171878
Si Si5 0.194604 0.734547 0.325675
Si Si6 0.910599 0.000000 0.330879
Si Si7 0.270796 0.416224 0.327934
O O1 0.500000 0.379058 0.765601
O O2 0.398004 0.274700 0.806403
O O3 0.352483 0.412144 0.747457
O O4 0.412802 0.386179 0.000000
O O5 0.395664 0.881571 0.500000
O O6 0.500000 0.916531 0.695179
O O7 0.374001 0.869232 0.795326
O O8 0.379422 0.000000 0.673037
O O9 0.267739 0.782070 0.717307
O O10 0.305744 0.789637 0.000000
O O11 0.123802 0.228975 0.241669
O O12 0.000000 0.160585 0.195243
O O13 0.119353 0.076220 0.250545
O O14 0.110446 0.147337 0.000000
O O15 0.178748 0.739107 0.500000
O O16 0.210941 0.647355 0.272211
O O17 0.881357 0.000000 0.500000
O O18 0.000000 0.000000 0.323607
O O19 0.285587 0.401775 0.500000
O O20 0.236921 0.500000 0.297260
#
# Coordination Sequence:
#
# PCOD8195648 Si02
#       7
#     8   8   8   8   8   4   8
#     4   9  18  31  47  70  99 130 165 207 256 310
#     4   9  18  32  48  66  91 125 166 212 259 305
#     4  10  19  32  49  69  96 128 166 211 258 307
#     4  10  20  35  56  82 112 142 172 210 254 300
#     4  10  20  35  55  77 102 134 172 211 255 310
#     4   9  17  31  53  81 111 141 172 203 240 291
#     4   9  19  35  53  74 101 133 170 214 262 310
#
# _framework density 18.370678000000002
#
# number of rings (size 3 to 8) (size 9 to 14) (size 15 to 20)
#    0.000    2.538    0.000    2.538    0.000    5.231 
#    1.385    2.308    0.000    0.462    0.000    3.231 
#    0.000    0.000    0.000    0.000    0.000    0.000 
#
# Total GULP energy -644613.408530 kJ/mol
# GULP energy per Si atom -12396.411703 kJ/mol
# Density = 1.832887 g / cm^3
# Si number density = 18.370678 Si / 1000 Ang^3
#
#
#
# Elastic Constant Matrix: (Units=GPa)
#
#
# Indices 1 2 3 4 5 6 
#
# 1 51.6990 44.0337 34.6078 0.0000 0.0000 0.0000
# 2 44.0337 121.3405 50.3082 0.0000 0.0000 0.0000
# 3 34.6078 50.3082 81.9333 0.0000 0.0000 0.0000
# 4 0.0000 0.0000 0.0000 25.5623 0.0000 0.0000
# 5 0.0000 0.0000 0.0000 0.0000 28.8451 0.0000
# 6 0.0000 0.0000 0.0000 0.0000 0.0000 21.8156
#
#
#
# Elastic Compliance Matrix: (Units=1/GPa)
#
#
# Indices 1 2 3 4 5 6 
#
# 1 0.031906 -0.008037 -0.008542 0.000000 0.000000 0.000000
# 2 -0.008037 0.013080 -0.004637 0.000000 0.000000 0.000000
# 3 -0.008542 -0.004637 0.018660 0.000000 0.000000 0.000000
# 4 0.000000 0.000000 0.000000 0.039120 0.000000 0.000000
# 5 0.000000 0.000000 0.000000 0.000000 0.034668 0.000000
# 6 0.000000 0.000000 0.000000 0.000000 0.000000 0.045839
#
#
# Mechanical properties :
#
#
# Convention : Reuss Voigt Hill
#
# Bulk Modulus (GPa) = 47.13623 56.98579 52.06101
# Shear Modulus (GPa) = 21.47983 23.64613 22.56298
#
# Velocity S-wave (km/s) = 3.42313 3.59160 3.50838
# Velocity P-wave (km/s) = 6.42945 6.94887 6.69420
#
# Compressibility (1/GPa) = 0.02121511
#
# Stress axis : x y z
#
# Youngs Moduli (GPa) = 31.34192 76.45114 53.59029
#
# Poissons Ratio (x) = 0.61444 0.45777
# Poissons Ratio (y) = 0.25189 0.24848
# Poissons Ratio (z) = 0.26772 0.35448
#
# Static dielectric constant tensor:
#      x y z
#    x 3.154060 0.000000 0.000000 
#    y 0.000000 3.517510 0.000000 
#    z 0.000000 0.000000 3.400650 
# 
# 
# High freq. dielectric constant tensor:
#      x y z
#    x 1.683320 0.000000 0.000000 
#    y 0.000000 1.713210 0.000000 
#    z 0.000000 0.000000 1.716160 
# 
# From -- ./inp_files/9556.got.cif
#   From: 2010.03.12/outbox.cif.g09.slc.cpg/sg47_5_cif.got.tgz:9556.got - 2010.04.14 03:12:58.
