data_PCOD8195165
_publ_section_title
;
Structure prediction by ZEFSAII (Michael W. Deem and Ramdas Pophale) SiO2 
 PCOD8195165
Probable space group: P M M M
;
_chemical_formula_sum "Si O2"
_cell_formula_units_Z 44
_cell_length_a 14.261136
_cell_length_b 17.984429
_cell_length_c 9.670401
_cell_angle_alpha 90.000000
_cell_angle_beta 90.000000
_cell_angle_gamma 90.000000
_cell_volume 2480.248858
_symmetry_space_group_name_H-M "P M M M"
_symmetry_group_IT_number 47
_symmetry_cell_setting 'orthorhombic'
loop_
_space_group_symop_operation_xyz
x,y,z
-x,-y,z
x,-y,-z
-x,y,-z
-x,-y,-z
x,y,-z
-x,y,z
x,-y,z
loop_
_atom_site_type_symbol
_atom_site_label
_atom_site_fract_x
_atom_site_fract_y
_atom_site_fract_z
Si Si1 0.887986 0.500000 0.347528
Si Si2 0.611488 0.418107 0.844362
Si Si3 0.783007 0.198995 0.660306
Si Si4 0.895090 0.658586 0.334885
Si Si5 0.893469 0.086705 0.840718
Si Si6 0.605806 0.716238 0.659191
O O1 0.843000 0.500000 0.500000
O O2 0.858640 0.578287 0.273229
O O3 0.000000 0.500000 0.359808
O O4 0.500000 0.419585 0.837868
O O5 0.649514 0.500000 0.798690
O O6 0.648069 0.353723 0.742928
O O7 0.645098 0.400130 0.000000
O O8 0.807514 0.184330 0.500000
O O9 0.831303 0.274065 0.716949
O O10 0.818475 0.129367 0.747337
O O11 0.671398 0.211318 0.682698
O O12 0.893392 0.652700 0.500000
O O13 0.000000 0.675188 0.281896
O O14 0.000000 0.107719 0.797971
O O15 0.876193 0.000000 0.816107
O O16 0.876296 0.107594 0.000000
O O17 0.609262 0.691634 0.500000
O O18 0.500000 0.737460 0.705144
#
# Coordination Sequence:
#
# PCOD8195165 Si02
#       6
#     4   8   8   8   8   8
#     4   7  10  18  32  50  78 116 148 177 223 273
#     4   8  14  26  44  63  83 114 162 216 261 298
#     4  10  19  30  47  74  99 124 164 207 242 281
#     4   8  13  22  37  59  87 116 148 190 235 276
#     4   9  19  36  56  78 104 130 152 180 231 299
#     4   9  18  31  44  63  96 133 166 204 252 298
#
# _framework density 17.740155999999999
#
# number of rings (size 3 to 8) (size 9 to 14) (size 15 to 20)
#    0.000    3.364    0.000    2.727    0.000    2.545 
#    1.636    2.727    0.000    0.545    0.000    3.818 
#    0.000    3.636    0.000    0.000    0.000    0.000 
#
# Total GULP energy -545154.977041 kJ/mol
# GULP energy per Si atom -12389.885842 kJ/mol
# Density = 1.769978 g / cm^3
# Si number density = 17.740156 Si / 1000 Ang^3
#
#
#
# Elastic Constant Matrix: (Units=GPa)
#
#
# Indices 1 2 3 4 5 6 
#
# 1 68.9359 47.9929 32.6438 0.0000 0.0000 0.0000
# 2 47.9929 94.0494 48.3187 0.0000 0.0000 0.0000
# 3 32.6438 48.3187 60.4834 0.0000 0.0000 0.0000
# 4 0.0000 0.0000 0.0000 29.5637 0.0000 0.0000
# 5 0.0000 0.0000 0.0000 0.0000 15.5148 0.0000
# 6 0.0000 0.0000 0.0000 0.0000 0.0000 25.7094
#
#
#
# Elastic Compliance Matrix: (Units=1/GPa)
#
#
# Indices 1 2 3 4 5 6 
#
# 1 0.023443 -0.009265 -0.005251 0.000000 0.000000 0.000000
# 2 -0.009265 0.021696 -0.012332 0.000000 0.000000 0.000000
# 3 -0.005251 -0.012332 0.029219 0.000000 0.000000 0.000000
# 4 0.000000 0.000000 0.000000 0.033825 0.000000 0.000000
# 5 0.000000 0.000000 0.000000 0.000000 0.064454 0.000000
# 6 0.000000 0.000000 0.000000 0.000000 0.000000 0.038896
#
#
# Mechanical properties :
#
#
# Convention : Reuss Voigt Hill
#
# Bulk Modulus (GPa) = 48.39714 53.48660 50.94187
# Shear Modulus (GPa) = 18.37432 20.45847 19.41640
#
# Velocity S-wave (km/s) = 3.22179 3.39961 3.31189
# Velocity P-wave (km/s) = 6.41719 6.75465 6.58808
#
# Compressibility (1/GPa) = 0.02066238
#
# Stress axis : x y z
#
# Youngs Moduli (GPa) = 42.65652 46.09042 34.22393
#
# Poissons Ratio (x) = 0.42704 0.17970
# Poissons Ratio (y) = 0.39522 0.42206
# Poissons Ratio (z) = 0.22398 0.56840
#
# Static dielectric constant tensor:
#      x y z
#    x 3.224990 0.000000 0.000000 
#    y 0.000000 3.327320 0.000000 
#    z 0.000000 0.000000 2.999670 
# 
# 
# High freq. dielectric constant tensor:
#      x y z
#    x 1.674710 0.000000 0.000000 
#    y 0.000000 1.674620 0.000000 
#    z 0.000000 0.000000 1.651460 
# 
# From -- ./inp_files/6121.got.cif
#   From: 2010.03.12/outbox.cif.g09.slc.cpg/sg47_4_cif.got.tgz:6121.got - 2010.04.14 03:12:58.
