data_PCOD8195819
_publ_section_title
;
Structure prediction by ZEFSAII (Michael W. Deem and Ramdas Pophale) SiO2 
 PCOD8195819
Probable space group: P M M M
;
_chemical_formula_sum "Si O2"
_cell_formula_units_Z 52
_cell_length_a 11.730713
_cell_length_b 28.401913
_cell_length_c 8.924956
_cell_angle_alpha 90.000000
_cell_angle_beta 90.000000
_cell_angle_gamma 90.000000
_cell_volume 2973.569449
_symmetry_space_group_name_H-M "P M M M"
_symmetry_group_IT_number 47
_symmetry_cell_setting 'orthorhombic'
loop_
_space_group_symop_operation_xyz
x,y,z
-x,-y,z
x,-y,-z
-x,y,-z
-x,-y,-z
x,y,-z
-x,y,z
x,-y,z
loop_
_atom_site_type_symbol
_atom_site_label
_atom_site_fract_x
_atom_site_fract_y
_atom_site_fract_z
Si Si1 0.870257 0.601685 0.820944
Si Si2 0.865682 0.500000 0.162760
Si Si3 0.741019 0.314078 0.323122
Si Si4 0.127213 0.052195 0.177745
Si Si5 0.867732 0.230631 0.171963
Si Si6 0.274331 0.138414 0.824041
Si Si7 0.500000 0.723574 0.322373
Si Si8 0.500000 0.829944 0.677467
O O1 0.834217 0.549586 0.756462
O O2 0.781744 0.638027 0.752475
O O3 0.000000 0.614375 0.772267
O O4 0.861824 0.602102 0.000000
O O5 0.000000 0.500000 0.138404
O O6 0.805775 0.500000 0.000000
O O7 0.744993 0.320308 0.500000
O O8 0.823575 0.271730 0.278329
O O9 0.612708 0.303474 0.265506
O O10 0.212738 0.091692 0.239802
O O11 0.000000 0.061039 0.241792
O O12 0.169900 0.000000 0.225645
O O13 0.122096 0.056314 0.000000
O O14 0.804861 0.182659 0.213761
O O15 0.000000 0.222393 0.203290
O O16 0.845616 0.245335 0.000000
O O17 0.391190 0.142203 0.735607
O O18 0.299766 0.134871 0.000000
O O19 0.500000 0.726530 0.500000
O O20 0.500000 0.776665 0.257228
O O21 0.500000 0.829433 0.500000
#
# Coordination Sequence:
#
# PCOD8195819 Si02
#       8
#     8   4   8   8   8   8   4   4
#     4   9  17  31  51  76 104 131 160 197 243 293
#     4   7  12  26  49  72  97 132 164 189 232 295
#     4  11  21  34  50  69  95 129 168 206 244 288
#     4   8  14  27  50  79 107 132 159 198 252 306
#     4  10  20  32  47  71 102 129 153 192 247 299
#     4  10  19  32  52  77 100 126 166 210 244 286
#     4   9  20  37  51  63  89 131 173 207 241 284
#     4  11  21  37  54  68  94 135 174 209 249 291
#
# _framework density 17.487399
#
# number of rings (size 3 to 8) (size 9 to 14) (size 15 to 20)
#    0.000    2.538    1.538    3.000    0.000    4.308 
#    0.000    2.308    0.000    6.000    0.000    4.308 
#    0.000    0.000    0.000    0.000    0.000    0.000 
#
# Total GULP energy -644569.738482 kJ/mol
# GULP energy per Si atom -12395.571894 kJ/mol
# Density = 1.744760 g / cm^3
# Si number density = 17.487399 Si / 1000 Ang^3
#
#
#
# Elastic Constant Matrix: (Units=GPa)
#
#
# Indices 1 2 3 4 5 6 
#
# 1 125.4189 79.2418 28.8633 0.0000 0.0000 0.0000
# 2 79.2418 163.0256 33.4932 0.0000 0.0000 0.0000
# 3 28.8633 33.4932 32.0650 0.0000 0.0000 0.0000
# 4 0.0000 0.0000 0.0000 8.8519 0.0000 0.0000
# 5 0.0000 0.0000 0.0000 0.0000 20.2764 0.0000
# 6 0.0000 0.0000 0.0000 0.0000 0.0000 -445.8881
#
#
#
# Elastic Compliance Matrix: (Units=1/GPa)
#
#
# Indices 1 2 3 4 5 6 
#
# 1 0.012405 -0.004756 -0.006198 0.000000 0.000000 0.000000
# 2 -0.004756 0.009634 -0.005781 0.000000 0.000000 0.000000
# 3 -0.006198 -0.005781 0.042805 0.000000 0.000000 0.000000
# 4 0.000000 0.000000 0.000000 0.112970 0.000000 0.000000
# 5 0.000000 0.000000 0.000000 0.000000 0.049318 0.000000
# 6 0.000000 0.000000 0.000000 0.000000 0.000000 -0.002243
#
#
# Mechanical properties :
#
#
# Convention : Reuss Voigt Hill
#
# Bulk Modulus (GPa) = 31.87583 67.07843 49.47713
# Shear Modulus (GPa) = 18.59997 -71.42454 -26.41229
#
# Velocity S-wave (km/s) = 3.26486 -6.39782 -3.89055
# Velocity P-wave (km/s) = 5.69911 4.01680 2.85877
#
# Compressibility (1/GPa) = 0.03137173
#
# Stress axis : x y z
#
# Youngs Moduli (GPa) = 80.61460 103.80321 23.36190
#
# Poissons Ratio (x) = 0.49371 0.14480
# Poissons Ratio (y) = 0.38342 0.13507
# Poissons Ratio (z) = 0.49965 0.60013
#
# Static dielectric constant tensor:
#      x y z
#    x 3.320460 0.000000 0.000000 
#    y 0.000000 3.598230 0.000000 
#    z 0.000000 0.000000 2.915220 
# 
# 
# High freq. dielectric constant tensor:
#      x y z
#    x 1.666710 0.000000 0.000000 
#    y 0.000000 1.687120 0.000000 
#    z 0.000000 0.000000 1.641460 
# 
# From -- ./inp_files/4663.got.cif
#   From: 2010.03.12/outbox.cif.g09.slc.cpg/sg47_3_cif.got.tgz:4663.got - 2010.04.14 03:12:58.
