data_PCOD8195654
_publ_section_title
;
Structure prediction by ZEFSAII (Michael W. Deem and Ramdas Pophale) SiO2 
 PCOD8195654
Probable space group: P M M M
;
_chemical_formula_sum "Si O2"
_cell_formula_units_Z 36
_cell_length_a 7.996431
_cell_length_b 22.122600
_cell_length_c 11.718984
_cell_angle_alpha 90.000000
_cell_angle_beta 90.000000
_cell_angle_gamma 90.000000
_cell_volume 2073.109885
_symmetry_space_group_name_H-M "P M M M"
_symmetry_group_IT_number 47
_symmetry_cell_setting 'orthorhombic'
loop_
_space_group_symop_operation_xyz
x,y,z
-x,-y,z
x,-y,-z
-x,y,-z
-x,-y,-z
x,y,-z
-x,y,z
x,-y,z
loop_
_atom_site_type_symbol
_atom_site_label
_atom_site_fract_x
_atom_site_fract_y
_atom_site_fract_z
Si Si1 0.194951 0.615810 0.239257
Si Si2 0.815646 0.857338 0.364607
Si Si3 0.500000 0.068559 0.363724
Si Si4 0.301880 0.569466 0.000000
Si Si5 0.199268 0.500000 0.627980
Si Si6 0.308154 0.729574 0.371944
O O1 0.269671 0.558870 0.308221
O O2 0.285576 0.675474 0.283379
O O3 0.000000 0.623294 0.262769
O O4 0.230127 0.605732 0.106856
O O5 0.805110 0.860655 0.500000
O O6 0.667683 0.899330 0.314076
O O7 0.793162 0.787665 0.326874
O O8 0.000000 0.879293 0.322406
O O9 0.500000 0.071157 0.500000
O O10 0.500000 0.000000 0.319279
O O11 0.236602 0.500000 0.000000
O O12 0.500000 0.571084 0.000000
O O13 0.269358 0.500000 0.500000
O O14 0.000000 0.500000 0.631003
O O15 0.248841 0.710352 0.500000
O O16 0.500000 0.749375 0.375685
#
# Coordination Sequence:
#
# PCOD8195654 Si02
#       6
#     8   8   4   4   4   8
#     4  11  21  34  53  73  94 123 163 206 251 303
#     4   9  16  27  43  63  91 129 169 207 248 294
#     4   9  16  26  40  62  94 130 169 208 242 284
#     4  11  23  39  55  69  93 125 161 202 255 318
#     4   9  18  31  47  70  98 121 150 199 252 298
#     4  10  19  32  49  71 100 131 165 206 254 304
#
# _framework density 17.365214000000002
#
# number of rings (size 3 to 8) (size 9 to 14) (size 15 to 20)
#    0.000    2.111    2.222    2.333    0.000    3.111 
#    0.000    2.222    0.000    2.667    0.000    0.000 
#    0.000    0.000    0.000    2.000    0.000    8.889 
#
# Total GULP energy -446364.626661 kJ/mol
# GULP energy per Si atom -12399.017407 kJ/mol
# Density = 1.732569 g / cm^3
# Si number density = 17.365214 Si / 1000 Ang^3
#
#
#
# Elastic Constant Matrix: (Units=GPa)
#
#
# Indices 1 2 3 4 5 6 
#
# 1 96.0922 49.6626 9.2467 0.0000 0.0000 0.0000
# 2 49.6626 121.3023 34.2419 0.0000 0.0000 0.0000
# 3 9.2467 34.2419 74.6392 0.0000 0.0000 0.0000
# 4 0.0000 0.0000 0.0000 4.5498 0.0000 0.0000
# 5 0.0000 0.0000 0.0000 0.0000 13.6220 0.0000
# 6 0.0000 0.0000 0.0000 0.0000 0.0000 23.5101
#
#
#
# Elastic Compliance Matrix: (Units=1/GPa)
#
#
# Indices 1 2 3 4 5 6 
#
# 1 0.013261 -0.005704 0.000974 0.000000 0.000000 0.000000
# 2 -0.005704 0.011924 -0.004764 0.000000 0.000000 0.000000
# 3 0.000974 -0.004764 0.015463 0.000000 0.000000 0.000000
# 4 0.000000 0.000000 0.000000 0.219790 0.000000 0.000000
# 5 0.000000 0.000000 0.000000 0.000000 0.073411 0.000000
# 6 0.000000 0.000000 0.000000 0.000000 0.000000 0.042535
#
#
# Mechanical properties :
#
#
# Convention : Reuss Voigt Hill
#
# Bulk Modulus (GPa) = 46.16824 53.14843 49.65833
# Shear Modulus (GPa) = 12.41957 21.59521 17.00739
#
# Velocity S-wave (km/s) = 2.67722 3.53028 3.13292
# Velocity P-wave (km/s) = 6.01673 6.87677 6.46107
#
# Compressibility (1/GPa) = 0.02165991
#
# Stress axis : x y z
#
# Youngs Moduli (GPa) = 75.40922 83.86502 64.67256
#
# Poissons Ratio (x) = 0.47838 -0.06299
# Poissons Ratio (y) = 0.43015 0.30808
# Poissons Ratio (z) = -0.07345 0.39950
#
# Static dielectric constant tensor:
#      x y z
#    x 3.381030 0.000000 0.000000 
#    y 0.000000 3.222350 0.000000 
#    z 0.000000 0.000000 2.785860 
# 
# 
# High freq. dielectric constant tensor:
#      x y z
#    x 1.683140 0.000000 0.000000 
#    y 0.000000 1.666450 0.000000 
#    z 0.000000 0.000000 1.613630 
# 
# From -- ./inp_files/15022.got.cif
#   From: 2010.03.12/outbox.cif.g09.slc.cpg/sg47_8_cif.got.tgz:15022.got - 2010.04.14 03:12:58.
