data_PCOD8195110
_publ_section_title
;
Structure prediction by ZEFSAII (Michael W. Deem and Ramdas Pophale) SiO2 
 PCOD8195110
Probable space group: P M M M
;
_chemical_formula_sum "Si O2"
_cell_formula_units_Z 40
_cell_length_a 7.698373
_cell_length_b 29.378024
_cell_length_c 9.750225
_cell_angle_alpha 90.000000
_cell_angle_beta 90.000000
_cell_angle_gamma 90.000000
_cell_volume 2205.140008
_symmetry_space_group_name_H-M "P M M M"
_symmetry_group_IT_number 47
_symmetry_cell_setting 'orthorhombic'
loop_
_space_group_symop_operation_xyz
x,y,z
-x,-y,z
x,-y,-z
-x,y,-z
-x,-y,-z
x,y,-z
-x,y,z
x,-y,z
loop_
_atom_site_type_symbol
_atom_site_label
_atom_site_fract_x
_atom_site_fract_y
_atom_site_fract_z
Si Si1 0.000000 0.206335 0.163333
Si Si2 0.706063 0.371891 0.152105
Si Si3 0.307041 0.949389 0.337444
Si Si4 0.000000 0.115149 0.335996
Si Si5 0.692496 0.271726 0.162778
Si Si6 0.293452 0.550414 0.653350
O O1 0.829920 0.234133 0.210458
O O2 0.000000 0.161138 0.251629
O O3 0.000000 0.196373 0.000000
O O4 0.500000 0.376666 0.144217
O O5 0.751859 0.321939 0.213892
O O6 0.787886 0.411101 0.248015
O O7 0.785977 0.377821 0.000000
O O8 0.300381 0.951302 0.500000
O O9 0.500000 0.934766 0.287684
O O10 0.168143 0.912870 0.285272
O O11 0.262313 0.000000 0.280762
O O12 0.000000 0.124086 0.500000
O O13 0.500000 0.259076 0.220238
O O14 0.684484 0.274253 0.000000
O O15 0.223013 0.558960 0.500000
O O16 0.500000 0.553752 0.653630
O O17 0.235995 0.500000 0.703774
#
# Coordination Sequence:
#
# PCOD8195110 Si02
#       6
#     4   8   8   4   8   8
#     4  10  20  33  49  67  89 123 158 183 223 280
#     4   8  13  22  37  55  74  99 134 176 216 250
#     4   8  14  26  46  71  96 124 158 190 222 264
#     4  10  19  30  46  70  98 121 147 192 235 261
#     4   8  15  29  47  65  85 111 148 191 226 262
#     4   8  13  20  30  49  80 111 134 161 203 258
#
# _framework density 18.139437999999998
#
# number of rings (size 3 to 8) (size 9 to 14) (size 15 to 20)
#    0.000    3.600    0.000    2.700    0.000    2.400 
#    0.000    3.000    0.000    2.400    0.000    2.100 
#    0.000    5.600    0.000    0.600    0.000    0.000 
#
# Total GULP energy -495611.535816 kJ/mol
# GULP energy per Si atom -12390.288395 kJ/mol
# Density = 1.809815 g / cm^3
# Si number density = 18.139438 Si / 1000 Ang^3
#
#
#
# Elastic Constant Matrix: (Units=GPa)
#
#
# Indices 1 2 3 4 5 6 
#
# 1 93.7761 79.5904 27.9962 0.0000 0.0000 0.0000
# 2 79.5904 180.8512 59.3280 0.0000 0.0000 0.0000
# 3 27.9962 59.3280 48.2285 0.0000 0.0000 0.0000
# 4 0.0000 0.0000 0.0000 32.8326 0.0000 0.0000
# 5 0.0000 0.0000 0.0000 0.0000 6.2540 0.0000
# 6 0.0000 0.0000 0.0000 0.0000 0.0000 -18.9413
#
#
#
# Elastic Compliance Matrix: (Units=1/GPa)
#
#
# Indices 1 2 3 4 5 6 
#
# 1 0.017057 -0.007140 -0.001119 0.000000 0.000000 0.000000
# 2 -0.007140 0.012259 -0.010936 0.000000 0.000000 0.000000
# 3 -0.001119 -0.010936 0.034837 0.000000 0.000000 0.000000
# 4 0.000000 0.000000 0.000000 0.030458 0.000000 0.000000
# 5 0.000000 0.000000 0.000000 0.000000 0.159898 0.000000
# 6 0.000000 0.000000 0.000000 0.000000 0.000000 -0.052795
#
#
# Mechanical properties :
#
#
# Convention : Reuss Voigt Hill
#
# Bulk Modulus (GPa) = 38.81312 72.96501 55.88906
# Shear Modulus (GPa) = 20.10535 14.42515 17.26525
#
# Velocity S-wave (km/s) = 3.33284 2.82305 3.08848
# Velocity P-wave (km/s) = 6.02113 7.13709 6.60273
#
# Compressibility (1/GPa) = 0.02576448
#
# Stress axis : x y z
#
# Youngs Moduli (GPa) = 58.62567 81.57289 28.70542
#
# Poissons Ratio (x) = 0.58241 0.03211
# Poissons Ratio (y) = 0.41857 0.31392
# Poissons Ratio (z) = 0.06559 0.89206
#
# Static dielectric constant tensor:
#      x y z
#    x 3.495710 0.000000 0.000000 
#    y 0.000000 3.554070 0.000000 
#    z 0.000000 0.000000 3.076990 
# 
# 
# High freq. dielectric constant tensor:
#      x y z
#    x 1.692320 0.000000 0.000000 
#    y 0.000000 1.706360 0.000000 
#    z 0.000000 0.000000 1.648910 
# 
# From -- ./inp_files/15090.got.cif
#   From: 2010.03.12/outbox.cif.g09.slc.cpg/sg47_8_cif.got.tgz:15090.got - 2010.04.14 03:12:58.
