data_PCOD8195396
_publ_section_title
;
Structure prediction by ZEFSAII (Michael W. Deem and Ramdas Pophale) SiO2 
 PCOD8195396
Probable space group: P M M M
;
_chemical_formula_sum "Si O2"
_cell_formula_units_Z 52
_cell_length_a 9.080312
_cell_length_b 28.120319
_cell_length_c 11.678210
_cell_angle_alpha 90.000000
_cell_angle_beta 90.000000
_cell_angle_gamma 90.000000
_cell_volume 2981.928973
_symmetry_space_group_name_H-M "P M M M"
_symmetry_group_IT_number 47
_symmetry_cell_setting 'orthorhombic'
loop_
_space_group_symop_operation_xyz
x,y,z
-x,-y,z
x,-y,-z
-x,y,-z
-x,-y,-z
x,y,-z
-x,y,z
x,-y,z
loop_
_atom_site_type_symbol
_atom_site_label
_atom_site_fract_x
_atom_site_fract_y
_atom_site_fract_z
Si Si1 0.175086 0.447415 0.871388
Si Si2 0.331755 0.217266 0.500000
Si Si3 0.668453 0.275035 0.132997
Si Si4 0.665864 0.000000 0.135922
Si Si5 0.329616 0.821037 0.743731
Si Si6 0.173038 0.905665 0.132298
Si Si7 0.174764 0.317336 0.500000
Si Si8 0.825276 0.356975 0.739393
O O1 0.231272 0.500000 0.834342
O O2 0.235447 0.408352 0.781391
O O3 0.000000 0.446771 0.871667
O O4 0.231786 0.435591 0.000000
O O5 0.500000 0.235408 0.500000
O O6 0.299735 0.184085 0.391163
O O7 0.231720 0.263761 0.500000
O O8 0.500000 0.287281 0.163634
O O9 0.719974 0.227822 0.197544
O O10 0.769766 0.318092 0.171593
O O11 0.691470 0.265805 0.000000
O O12 0.749700 0.046791 0.179978
O O13 0.500000 0.000000 0.184901
O O14 0.666070 0.000000 0.000000
O O15 0.500000 0.832638 0.771182
O O16 0.227634 0.862348 0.791295
O O17 0.000000 0.912130 0.147289
O O18 0.215270 0.896093 0.000000
O O19 0.233172 0.345712 0.388414
O O20 0.000000 0.314658 0.500000
O O21 0.000000 0.356089 0.742111
#
# Coordination Sequence:
#
# PCOD8195396 Si02
#       8
#     8   4   8   4   8   8   4   8
#     4   8  14  26  45  68  93 123 161 203 247 298
#     4  10  20  36  56  72  92 131 178 210 242 296
#     4  10  20  32  48  72 100 128 160 202 250 300
#     4   9  17  31  53  78 105 140 177 211 251 299
#     4  10  20  34  52  73  98 130 170 210 249 297
#     4  10  20  33  51  78 110 140 170 207 253 303
#     4  10  20  32  47  70  99 127 162 208 251 292
#     4  10  19  31  48  70  96 128 164 203 247 297
#
# _framework density 17.438376000000002
#
# number of rings (size 3 to 8) (size 9 to 14) (size 15 to 20)
#    0.000    2.385    1.538    2.077    0.000    4.615 
#    0.000    0.385    0.000    3.231    0.000    5.385 
#    0.000    1.846    0.000    0.000    0.000    0.000 
#
# Total GULP energy -644784.441994 kJ/mol
# GULP energy per Si atom -12399.700808 kJ/mol
# Density = 1.739869 g / cm^3
# Si number density = 17.438376 Si / 1000 Ang^3
#
#
#
# Elastic Constant Matrix: (Units=GPa)
#
#
# Indices 1 2 3 4 5 6 
#
# 1 40.2836 37.6126 25.7743 0.0000 0.0000 0.0000
# 2 37.6126 128.1297 53.8370 0.0000 0.0000 0.0000
# 3 25.7743 53.8370 92.0418 0.0000 0.0000 0.0000
# 4 0.0000 0.0000 0.0000 7.9310 0.0000 0.0000
# 5 0.0000 0.0000 0.0000 0.0000 20.4103 0.0000
# 6 0.0000 0.0000 0.0000 0.0000 0.0000 11.9260
#
#
#
# Elastic Compliance Matrix: (Units=1/GPa)
#
#
# Indices 1 2 3 4 5 6 
#
# 1 0.035958 -0.008385 -0.005164 0.000000 0.000000 0.000000
# 2 -0.008385 0.012303 -0.004848 0.000000 0.000000 0.000000
# 3 -0.005164 -0.004848 0.015147 0.000000 0.000000 0.000000
# 4 0.000000 0.000000 0.000000 0.126088 0.000000 0.000000
# 5 0.000000 0.000000 0.000000 0.000000 0.048995 0.000000
# 6 0.000000 0.000000 0.000000 0.000000 0.000000 0.083850
#
#
# Mechanical properties :
#
#
# Convention : Reuss Voigt Hill
#
# Bulk Modulus (GPa) = 37.57775 54.98920 46.28348
# Shear Modulus (GPa) = 13.58670 17.60222 15.59446
#
# Velocity S-wave (km/s) = 2.79431 3.18055 2.99366
# Velocity P-wave (km/s) = 5.65743 6.71489 6.20872
#
# Compressibility (1/GPa) = 0.02661149
#
# Stress axis : x y z
#
# Youngs Moduli (GPa) = 27.81038 81.27923 66.02130
#
# Poissons Ratio (x) = 0.68157 0.34096
# Poissons Ratio (y) = 0.23320 0.32009
# Poissons Ratio (z) = 0.14362 0.39406
#
# Static dielectric constant tensor:
#      x y z
#    x 3.078070 0.000000 0.000000 
#    y 0.000000 3.415740 0.000000 
#    z 0.000000 0.000000 3.360420 
# 
# 
# High freq. dielectric constant tensor:
#      x y z
#    x 1.655840 0.000000 0.000000 
#    y 0.000000 1.677520 0.000000 
#    z 0.000000 0.000000 1.665390 
# 
# From -- ./inp_files/15507.got.cif
#   From: 2010.03.12/outbox.cif.g09.slc.cpg/sg47_8_cif.got.tgz:15507.got - 2010.04.14 03:12:58.
