data_PCOD8195016
_publ_section_title
;
Structure prediction by ZEFSAII (Michael W. Deem and Ramdas Pophale) SiO2 
 PCOD8195016
Probable space group: P M M M
;
_chemical_formula_sum "Si O2"
_cell_formula_units_Z 40
_cell_length_a 14.468859
_cell_length_b 9.389514
_cell_length_c 19.560737
_cell_angle_alpha 90.000000
_cell_angle_beta 90.000000
_cell_angle_gamma 90.000000
_cell_volume 2657.434765
_symmetry_space_group_name_H-M "P M M M"
_symmetry_group_IT_number 47
_symmetry_cell_setting 'orthorhombic'
loop_
_space_group_symop_operation_xyz
x,y,z
-x,-y,z
x,-y,-z
-x,y,-z
-x,-y,-z
x,y,-z
-x,y,z
x,-y,z
loop_
_atom_site_type_symbol
_atom_site_label
_atom_site_fract_x
_atom_site_fract_y
_atom_site_fract_z
Si Si1 0.896329 0.336833 0.870640
Si Si2 0.890659 0.841458 0.000000
Si Si3 0.606640 0.164849 0.922313
Si Si4 0.500000 0.166834 0.420445
Si Si5 0.398313 0.659276 0.679966
Si Si6 0.288493 0.664744 0.192508
O O1 0.896711 0.500000 0.895855
O O2 0.858608 0.241292 0.932654
O O3 0.823129 0.315596 0.809012
O O4 0.000000 0.292279 0.846576
O O5 0.000000 0.849939 0.000000
O O6 0.846778 0.000000 0.000000
O O7 0.500000 0.208671 0.914480
O O8 0.667473 0.256294 0.871319
O O9 0.619913 0.000000 0.903882
O O10 0.640044 0.194456 0.000000
O O11 0.500000 0.202355 0.500000
O O12 0.407523 0.237373 0.386445
O O13 0.500000 0.000000 0.405520
O O14 0.500000 0.653100 0.715474
O O15 0.368171 0.500000 0.656350
O O16 0.326108 0.723923 0.734934
O O17 0.317017 0.500000 0.186778
#
# Coordination Sequence:
#
# PCOD8195016 Si02
#       6
#     8   4   8   4   8   8
#     4   9  18  31  45  60  81 109 142 184 231 271
#     4   9  17  29  43  57  74  99 136 185 235 276
#     4   9  19  33  44  57  80 109 143 183 226 268
#     4   9  17  29  47  71  96 119 142 165 193 240
#     4   8  16  29  44  64  91 118 142 170 206 247
#     4  10  19  30  45  63  84 111 148 184 217 261
#
# _framework density 15.052109
#
# number of rings (size 3 to 8) (size 9 to 14) (size 15 to 20)
#    0.600    2.400    0.000    1.500    1.400    5.200 
#    0.000    1.000    0.000    0.000    0.000    0.000 
#    0.000    0.800    0.000   10.000    0.000    1.600 
#
# Total GULP energy -495621.615856 kJ/mol
# GULP energy per Si atom -12390.540396 kJ/mol
# Density = 1.501785 g / cm^3
# Si number density = 15.052109 Si / 1000 Ang^3
#
#
#
# Elastic Constant Matrix: (Units=GPa)
#
#
# Indices 1 2 3 4 5 6 
#
# 1 63.1963 29.9409 49.5333 0.0000 0.0000 0.0000
# 2 29.9409 62.3236 47.8945 0.0000 0.0000 0.0000
# 3 49.5333 47.8945 99.8232 0.0000 0.0000 0.0000
# 4 0.0000 0.0000 0.0000 21.2918 0.0000 0.0000
# 5 0.0000 0.0000 0.0000 0.0000 12.5783 0.0000
# 6 0.0000 0.0000 0.0000 0.0000 0.0000 13.5681
#
#
#
# Elastic Compliance Matrix: (Units=1/GPa)
#
#
# Indices 1 2 3 4 5 6 
#
# 1 0.026562 -0.004169 -0.011180 0.000000 0.000000 0.000000
# 2 -0.004169 0.026071 -0.010440 0.000000 0.000000 0.000000
# 3 -0.011180 -0.010440 0.020574 0.000000 0.000000 0.000000
# 4 0.000000 0.000000 0.000000 0.046966 0.000000 0.000000
# 5 0.000000 0.000000 0.000000 0.000000 0.079502 0.000000
# 6 0.000000 0.000000 0.000000 0.000000 0.000000 0.073702
#
#
# Mechanical properties :
#
#
# Convention : Reuss Voigt Hill
#
# Bulk Modulus (GPa) = 46.23369 53.34229 49.78799
# Shear Modulus (GPa) = 15.05273 16.01926 15.53600
#
# Velocity S-wave (km/s) = 3.16577 3.26583 3.21619
# Velocity P-wave (km/s) = 6.64419 7.05239 6.85133
#
# Compressibility (1/GPa) = 0.02162925
#
# Stress axis : x y z
#
# Youngs Moduli (GPa) = 37.64821 38.35672 48.60418
#
# Poissons Ratio (x) = 0.15991 0.54339
# Poissons Ratio (y) = 0.15695 0.50743
# Poissons Ratio (z) = 0.42090 0.40045
#
# Static dielectric constant tensor:
#      x y z
#    x 2.914170 0.000000 0.000000 
#    y 0.000000 2.956570 0.000000 
#    z 0.000000 0.000000 2.627200 
# 
# 
# High freq. dielectric constant tensor:
#      x y z
#    x 1.565770 0.000000 0.000000 
#    y 0.000000 1.580100 0.000000 
#    z 0.000000 0.000000 1.537690 
# 
# From -- ./inp_files/28389.got.cif
#   From: 2010.03.12/outbox.cif.g09.slc.cpg/sg47_15_cif.got.tgz:28389.got - 2010.04.14 03:12:58.
