data_PCOD8195694
_publ_section_title
;
Structure prediction by ZEFSAII (Michael W. Deem and Ramdas Pophale) SiO2 
 PCOD8195694
Probable space group: P M M M
;
_chemical_formula_sum "Si O2"
_cell_formula_units_Z 44
_cell_length_a 7.892162
_cell_length_b 28.769361
_cell_length_c 10.035721
_cell_angle_alpha 90.000000
_cell_angle_beta 90.000000
_cell_angle_gamma 90.000000
_cell_volume 2278.635117
_symmetry_space_group_name_H-M "P M M M"
_symmetry_group_IT_number 47
_symmetry_cell_setting 'orthorhombic'
loop_
_space_group_symop_operation_xyz
x,y,z
-x,-y,z
x,-y,-z
-x,y,-z
-x,-y,-z
x,y,-z
-x,y,z
x,-y,z
loop_
_atom_site_type_symbol
_atom_site_label
_atom_site_fract_x
_atom_site_fract_y
_atom_site_fract_z
Si Si1 0.687811 0.612414 0.342021
Si Si2 0.298139 0.948657 0.000000
Si Si3 0.701833 0.052981 0.500000
Si Si4 0.000000 0.552613 0.340769
Si Si5 0.803254 0.207615 0.849605
Si Si6 0.298996 0.109209 0.246412
Si Si7 0.798398 0.713835 0.348425
O O1 0.695079 0.609726 0.500000
O O2 0.500000 0.597721 0.290675
O O3 0.725355 0.664966 0.297410
O O4 0.831369 0.577939 0.283700
O O5 0.228755 0.921576 0.126575
O O6 0.500000 0.950990 0.000000
O O7 0.220099 0.000000 0.000000
O O8 0.500000 0.050108 0.500000
O O9 0.769646 0.082567 0.624314
O O10 0.773934 0.000000 0.500000
O O11 0.000000 0.500000 0.287672
O O12 0.000000 0.554180 0.500000
O O13 0.775300 0.160405 0.768199
O O14 0.725918 0.248094 0.755842
O O15 0.000000 0.216864 0.866547
O O16 0.721226 0.206639 0.000000
O O17 0.500000 0.112912 0.246857
O O18 0.737009 0.725216 0.500000
O O19 0.000000 0.711523 0.346318
#
# Coordination Sequence:
#
# PCOD8195694 Si02
#       7
#     8   4   4   4   8   8   8
#     4   9  16  27  44  68  99 135 177 224 266 311
#     4   9  16  28  49  71  89 119 161 195 237 300
#     4   9  18  32  51  75  99 123 157 205 253 296
#     4   9  16  26  42  66 103 147 183 221 264 313
#     4  10  21  35  50  71 101 133 162 201 252 307
#     4  10  19  32  50  72  97 123 155 203 251 297
#     4   9  17  31  50  68  91 131 174 209 254 311
#
# _framework density 19.309805000000001
#
# number of rings (size 3 to 8) (size 9 to 14) (size 15 to 20)
#    0.000    2.636    1.818    0.545    1.273    3.273 
#    0.000    1.818    0.000    3.273    0.000    0.000 
#    0.000    1.455    0.000    1.636    0.000    1.818 
#
# Total GULP energy -545350.667679 kJ/mol
# GULP energy per Si atom -12394.333356 kJ/mol
# Density = 1.926585 g / cm^3
# Si number density = 19.309805 Si / 1000 Ang^3
#
#
#
# Elastic Constant Matrix: (Units=GPa)
#
#
# Indices 1 2 3 4 5 6 
#
# 1 55.6771 49.6565 19.8115 0.0000 0.0000 0.0000
# 2 49.6565 181.4225 66.6496 0.0000 0.0000 0.0000
# 3 19.8115 66.6496 111.9977 0.0000 0.0000 0.0000
# 4 0.0000 0.0000 0.0000 20.9153 0.0000 0.0000
# 5 0.0000 0.0000 0.0000 0.0000 36.2968 0.0000
# 6 0.0000 0.0000 0.0000 0.0000 0.0000 19.2728
#
#
#
# Elastic Compliance Matrix: (Units=1/GPa)
#
#
# Indices 1 2 3 4 5 6 
#
# 1 0.023777 -0.006351 -0.000426 0.000000 0.000000 0.000000
# 2 -0.006351 0.008751 -0.004084 0.000000 0.000000 0.000000
# 3 -0.000426 -0.004084 0.011435 0.000000 0.000000 0.000000
# 4 0.000000 0.000000 0.000000 0.047812 0.000000 0.000000
# 5 0.000000 0.000000 0.000000 0.000000 0.027551 0.000000
# 6 0.000000 0.000000 0.000000 0.000000 0.000000 0.051887
#
#
# Mechanical properties :
#
#
# Convention : Reuss Voigt Hill
#
# Bulk Modulus (GPa) = 44.96621 69.03697 57.00159
# Shear Modulus (GPa) = 24.95662 29.49562 27.22612
#
# Velocity S-wave (km/s) = 3.59894 3.91256 3.75902
# Velocity P-wave (km/s) = 6.37237 7.49938 6.95873
#
# Compressibility (1/GPa) = 0.02223892
#
# Stress axis : x y z
#
# Youngs Moduli (GPa) = 42.05763 114.27587 87.45398
#
# Poissons Ratio (x) = 0.72580 0.03728
# Poissons Ratio (y) = 0.26712 0.35717
# Poissons Ratio (z) = 0.01793 0.46671
#
# Static dielectric constant tensor:
#      x y z
#    x 3.361610 0.000000 0.000000 
#    y 0.000000 3.642740 0.000000 
#    z 0.000000 0.000000 3.512580 
# 
# 
# High freq. dielectric constant tensor:
#      x y z
#    x 1.733840 0.000000 0.000000 
#    y 0.000000 1.755480 0.000000 
#    z 0.000000 0.000000 1.718010 
# 
# From -- ./inp_files/2394.got.cif
#   From: 2010.03.12/outbox.cif.g09.slc.cpg/sg47_2_cif.got.tgz:2394.got - 2010.04.14 03:12:58.
