data_PCOD8195825
_publ_section_title
;
Structure prediction by ZEFSAII (Michael W. Deem and Ramdas Pophale) SiO2 
 PCOD8195825
Probable space group: P M M M
;
_chemical_formula_sum "Si O2"
_cell_formula_units_Z 52
_cell_length_a 8.594247
_cell_length_b 12.165846
_cell_length_c 27.556672
_cell_angle_alpha 90.000000
_cell_angle_beta 90.000000
_cell_angle_gamma 90.000000
_cell_volume 2881.223265
_symmetry_space_group_name_H-M "P M M M"
_symmetry_group_IT_number 47
_symmetry_cell_setting 'orthorhombic'
loop_
_space_group_symop_operation_xyz
x,y,z
-x,-y,z
x,-y,-z
-x,y,-z
-x,-y,-z
x,y,-z
-x,y,z
x,-y,z
loop_
_atom_site_type_symbol
_atom_site_label
_atom_site_fract_x
_atom_site_fract_y
_atom_site_fract_z
Si Si1 0.682693 0.373935 0.445193
Si Si2 0.182620 0.874466 0.174994
Si Si3 0.677122 0.871998 0.276984
Si Si4 0.180472 0.500000 0.795519
Si Si5 0.681200 0.500000 0.693604
Si Si6 0.181813 0.715091 0.647165
Si Si7 0.683114 0.668645 0.866813
Si Si8 0.317267 0.500000 0.946643
O O1 0.735768 0.347080 0.500000
O O2 0.500000 0.356473 0.439391
O O3 0.726252 0.500000 0.432160
O O4 0.770253 0.289957 0.409446
O O5 0.225235 0.836437 0.229578
O O6 0.269395 0.797154 0.135402
O O7 0.000000 0.863570 0.167387
O O8 0.238846 0.000000 0.166209
O O9 0.500000 0.836521 0.267090
O O10 0.737518 0.816137 0.325849
O O11 0.693998 0.000000 0.286707
O O12 0.297147 0.500000 0.750778
O O13 0.217641 0.390528 0.825339
O O14 0.000000 0.500000 0.779624
O O15 0.500000 0.500000 0.679500
O O16 0.764672 0.395109 0.672427
O O17 0.000000 0.731306 0.651800
O O18 0.500000 0.653097 0.857494
O O19 0.731268 0.611164 0.917752
O O20 0.500000 0.500000 0.953425
O O21 0.237057 0.500000 0.000000
#
# Coordination Sequence:
#
# PCOD8195825 Si02
#       8
#     8   8   8   4   4   8   8   4
#     4   9  18  34  55  76 100 132 168 207 253 307
#     4  10  20  34  52  75 105 139 174 213 256 302
#     4  10  21  37  56  76 101 138 180 215 250 299
#     4  11  21  33  48  69 102 136 168 206 252 306
#     4  12  23  35  49  69 102 138 172 207 248 301
#     4  12  23  34  51  77 106 133 165 207 259 310
#     4  10  19  32  52  77 103 134 173 214 257 305
#     4   8  16  32  54  79 105 134 171 218 266 307
#
# _framework density 18.047889999999999
#
# number of rings (size 3 to 8) (size 9 to 14) (size 15 to 20)
#    0.000    1.769    0.769    6.000    0.000    2.154 
#    0.000    0.769    0.000    9.231    0.000    6.462 
#    0.000    0.000    0.000    0.000    0.000    0.000 
#
# Total GULP energy -644807.841585 kJ/mol
# GULP energy per Si atom -12400.150800 kJ/mol
# Density = 1.800681 g / cm^3
# Si number density = 18.047890 Si / 1000 Ang^3
#
#
#
# Elastic Constant Matrix: (Units=GPa)
#
#
# Indices 1 2 3 4 5 6 
#
# 1 55.6697 35.3395 17.6577 0.0000 0.0000 0.0000
# 2 35.3395 88.8013 53.9041 0.0000 0.0000 0.0000
# 3 17.6577 53.9041 111.8766 0.0000 0.0000 0.0000
# 4 0.0000 0.0000 0.0000 25.9884 0.0000 0.0000
# 5 0.0000 0.0000 0.0000 0.0000 12.0689 0.0000
# 6 0.0000 0.0000 0.0000 0.0000 0.0000 30.4710
#
#
#
# Elastic Compliance Matrix: (Units=1/GPa)
#
#
# Indices 1 2 3 4 5 6 
#
# 1 0.024141 -0.010309 0.001157 0.000000 0.000000 0.000000
# 2 -0.010309 0.020319 -0.008163 0.000000 0.000000 0.000000
# 3 0.001157 -0.008163 0.012689 0.000000 0.000000 0.000000
# 4 0.000000 0.000000 0.000000 0.038479 0.000000 0.000000
# 5 0.000000 0.000000 0.000000 0.000000 0.082857 0.000000
# 6 0.000000 0.000000 0.000000 0.000000 0.000000 0.032818
#
#
# Mechanical properties :
#
#
# Convention : Reuss Voigt Hill
#
# Bulk Modulus (GPa) = 44.40902 52.23889 48.32396
# Shear Modulus (GPa) = 19.72865 23.66875 21.69870
#
# Velocity S-wave (km/s) = 3.30983 3.62531 3.47116
# Velocity P-wave (km/s) = 6.26628 6.82138 6.54972
#
# Compressibility (1/GPa) = 0.02251795
#
# Stress axis : x y z
#
# Youngs Moduli (GPa) = 41.42403 49.21539 78.80978
#
# Poissons Ratio (x) = 0.50738 -0.09119
# Poissons Ratio (y) = 0.42706 0.64331
# Poissons Ratio (z) = -0.04793 0.40174
#
# Static dielectric constant tensor:
#      x y z
#    x 3.321250 0.000000 0.000000 
#    y 0.000000 3.302130 0.000000 
#    z 0.000000 0.000000 3.531870 
# 
# 
# High freq. dielectric constant tensor:
#      x y z
#    x 1.702840 0.000000 0.000000 
#    y 0.000000 1.688940 0.000000 
#    z 0.000000 0.000000 1.686520 
# 
# From -- ./inp_files/33265.got.cif
#   From: 2010.03.12/outbox.cif.g09.slc.cpg/sg47_17_cif.got.tgz:33265.got - 2010.04.14 03:12:58.
