data_PCOD8195063
_publ_section_title
;
Structure prediction by ZEFSAII (Michael W. Deem and Ramdas Pophale) SiO2 
 PCOD8195063
Probable space group: P M M M
;
_chemical_formula_sum "Si O2"
_cell_formula_units_Z 60
_cell_length_a 21.948030
_cell_length_b 18.352120
_cell_length_c 9.003560
_cell_angle_alpha 90.000000
_cell_angle_beta 90.000000
_cell_angle_gamma 90.000000
_cell_volume 3626.569866
_symmetry_space_group_name_H-M "P M M M"
_symmetry_group_IT_number 47
_symmetry_cell_setting 'orthorhombic'
loop_
_space_group_symop_operation_xyz
x,y,z
-x,-y,z
x,-y,-z
-x,y,-z
-x,-y,-z
x,y,-z
-x,y,z
x,-y,z
loop_
_atom_site_type_symbol
_atom_site_label
_atom_site_fract_x
_atom_site_fract_y
_atom_site_fract_z
Si Si1 0.720923 0.082586 0.824512
Si Si2 0.142228 0.078137 0.175239
Si Si3 0.571987 0.500000 0.830205
Si Si4 0.174084 0.701405 0.326390
Si Si5 0.301291 0.225768 0.673359
Si Si6 0.766814 0.418888 0.165329
Si Si7 0.070287 0.215622 0.825818
Si Si8 0.647510 0.621195 0.324351
O O1 0.789871 0.095147 0.765047
O O2 0.681442 0.148930 0.753171
O O3 0.699250 0.000000 0.778291
O O4 0.715679 0.090552 0.000000
O O5 0.091388 0.135315 0.224307
O O6 0.120410 0.000000 0.237609
O O7 0.148107 0.075048 0.000000
O O8 0.500000 0.500000 0.821890
O O9 0.593518 0.424307 0.753497
O O10 0.595781 0.500000 0.000000
O O11 0.173439 0.685742 0.500000
O O12 0.232122 0.751584 0.282806
O O13 0.178783 0.626746 0.236377
O O14 0.109511 0.731643 0.275386
O O15 0.306718 0.211373 0.500000
O O16 0.347774 0.292063 0.719005
O O17 0.792003 0.500000 0.155292
O O18 0.709254 0.416937 0.273758
O O19 0.749585 0.390044 0.000000
O O20 0.000000 0.226104 0.785993
O O21 0.082937 0.229121 0.000000
O O22 0.639972 0.612963 0.500000
#
# Coordination Sequence:
#
# PCOD8195063 Si02
#       8
#     8   8   4   8   8   8   8   8
#     4   9  16  26  43  66  91 123 160 198 245 298
#     4   8  14  25  40  60  85 111 146 191 236 286
#     4  11  23  37  53  77 111 149 186 213 236 271
#     4  10  20  32  46  65  90 120 152 188 238 293
#     4   9  18  30  45  68  94 124 161 202 245 290
#     4  10  19  31  51  76  99 120 149 192 238 284
#     4  10  19  30  46  65  84 111 150 194 240 292
#     4  10  20  33  50  74 105 137 173 208 241 283
#
# _framework density 16.544560000000001
#
# number of rings (size 3 to 8) (size 9 to 14) (size 15 to 20)
#    0.000    2.467    2.000    3.000    0.000    4.800 
#    0.000    1.333    0.000    0.800    0.000    3.733 
#    0.000    0.533    0.000    5.867    0.000    4.267 
#
# Total GULP energy -743405.066566 kJ/mol
# GULP energy per Si atom -12390.084443 kJ/mol
# Density = 1.650690 g / cm^3
# Si number density = 16.544560 Si / 1000 Ang^3
#
#
#
# Elastic Constant Matrix: (Units=GPa)
#
#
# Indices 1 2 3 4 5 6 
#
# 1 50.1255 39.3952 25.8244 0.0000 0.0000 0.0000
# 2 39.3952 129.2939 57.9750 0.0000 0.0000 0.0000
# 3 25.8244 57.9750 69.2490 0.0000 0.0000 0.0000
# 4 0.0000 0.0000 0.0000 23.9424 0.0000 0.0000
# 5 0.0000 0.0000 0.0000 0.0000 17.8827 0.0000
# 6 0.0000 0.0000 0.0000 0.0000 0.0000 21.3782
#
#
#
# Elastic Compliance Matrix: (Units=1/GPa)
#
#
# Indices 1 2 3 4 5 6 
#
# 1 0.027335 -0.006017 -0.005157 0.000000 0.000000 0.000000
# 2 -0.006017 0.013707 -0.009232 0.000000 0.000000 0.000000
# 3 -0.005157 -0.009232 0.024093 0.000000 0.000000 0.000000
# 4 0.000000 0.000000 0.000000 0.041767 0.000000 0.000000
# 5 0.000000 0.000000 0.000000 0.000000 0.055920 0.000000
# 6 0.000000 0.000000 0.000000 0.000000 0.000000 0.046777
#
#
# Mechanical properties :
#
#
# Convention : Reuss Voigt Hill
#
# Bulk Modulus (GPa) = 41.11082 55.00639 48.05860
# Shear Modulus (GPa) = 19.34109 21.00558 20.17334
#
# Velocity S-wave (km/s) = 3.42282 3.56706 3.49568
# Velocity P-wave (km/s) = 6.36580 7.09118 6.73826
#
# Compressibility (1/GPa) = 0.02432450
#
# Stress axis : x y z
#
# Youngs Moduli (GPa) = 36.58270 72.95510 41.50661
#
# Poissons Ratio (x) = 0.43894 0.21404
# Poissons Ratio (y) = 0.22010 0.38318
# Poissons Ratio (z) = 0.18865 0.67351
#
# Static dielectric constant tensor:
#      x y z
#    x 2.739910 0.000000 0.000000 
#    y 0.000000 4.069360 0.000000 
#    z 0.000000 0.000000 3.072870 
# 
# 
# High freq. dielectric constant tensor:
#      x y z
#    x 1.583520 0.000000 0.000000 
#    y 0.000000 1.648090 0.000000 
#    z 0.000000 0.000000 1.633560 
# 
# From -- ./inp_files/11648.got.cif
#   From: 2010.03.12/outbox.cif.g09.slc.cpg/sg47_6_cif.got.tgz:11648.got - 2010.04.14 03:12:58.
