data_PCOD8195542
_publ_section_title
;
Structure prediction by ZEFSAII (Michael W. Deem and Ramdas Pophale) SiO2 
 PCOD8195542
Probable space group: P M M M
;
_chemical_formula_sum "Si O2"
_cell_formula_units_Z 64
_cell_length_a 14.288536
_cell_length_b 9.007080
_cell_length_c 28.305349
_cell_angle_alpha 90.000000
_cell_angle_beta 90.000000
_cell_angle_gamma 90.000000
_cell_volume 3642.841433
_symmetry_space_group_name_H-M "P M M M"
_symmetry_group_IT_number 47
_symmetry_cell_setting 'orthorhombic'
loop_
_space_group_symop_operation_xyz
x,y,z
-x,-y,z
x,-y,-z
-x,y,-z
-x,-y,-z
x,y,-z
-x,y,z
x,-y,z
loop_
_atom_site_type_symbol
_atom_site_label
_atom_site_fract_x
_atom_site_fract_y
_atom_site_fract_z
Si Si1 0.606317 0.670122 0.785869
Si Si2 0.108935 0.176242 0.814767
Si Si3 0.102809 0.823692 0.448885
Si Si4 0.245875 0.177331 0.625027
Si Si5 0.736096 0.671174 0.873995
Si Si6 0.394691 0.170831 0.055507
Si Si7 0.240986 0.824635 0.269509
Si Si8 0.604291 0.823332 0.447792
O O1 0.500000 0.725483 0.790128
O O2 0.611972 0.500000 0.769427
O O3 0.655217 0.693083 0.835812
O O4 0.658173 0.770768 0.747766
O O5 0.167451 0.248028 0.858036
O O6 0.156545 0.229246 0.765089
O O7 0.000000 0.228293 0.815832
O O8 0.115414 0.000000 0.820094
O O9 0.146679 0.780391 0.500000
O O10 0.160681 0.758338 0.405587
O O11 0.000000 0.755228 0.444797
O O12 0.099474 0.000000 0.444900
O O13 0.231713 0.241866 0.677685
O O14 0.336476 0.237928 0.596695
O O15 0.247639 0.000000 0.627173
O O16 0.761358 0.500000 0.882635
O O17 0.690395 0.738464 0.921086
O O18 0.500000 0.227200 0.069497
O O19 0.384788 0.000000 0.070810
O O20 0.380942 0.189604 0.000000
O O21 0.241259 0.000000 0.270759
O O22 0.640776 0.771298 0.500000
O O23 0.500000 0.763034 0.440069
O O24 0.607068 0.000000 0.447014
#
# Coordination Sequence:
#
# PCOD8195542 Si02
#       8
#     8   8   8   8   8   8   8   8
#     4   9  18  32  47  63  88 122 154 184 223 272
#     4   9  18  33  50  66  89 123 160 197 240 292
#     4   8  13  20  30  46  70 102 136 164 198 254
#     4   9  15  22  33  50  75 104 132 169 217 262
#     4  10  19  31  50  75  99 124 161 206 244 278
#     4   9  18  32  50  75 109 145 173 195 226 274
#     4   9  18  29  42  65  90 112 145 188 232 276
#     4   8  13  20  29  42  64  98 135 165 201 256
#
# _framework density 17.568702999999999
#
# number of rings (size 3 to 8) (size 9 to 14) (size 15 to 20)
#    0.000    3.125    0.000    2.250    0.000    4.500 
#    0.000    4.375    0.000    0.375    0.000    2.625 
#    0.000    2.000    0.000    8.250    0.000    6.500 
#
# Total GULP energy -792934.329470 kJ/mol
# GULP energy per Si atom -12389.598898 kJ/mol
# Density = 1.752872 g / cm^3
# Si number density = 17.568703 Si / 1000 Ang^3
#
#
#
# Elastic Constant Matrix: (Units=GPa)
#
#
# Indices 1 2 3 4 5 6 
#
# 1 133.2757 25.2467 54.8428 0.0000 0.0000 0.0000
# 2 25.2467 23.7871 24.9050 0.0000 0.0000 0.0000
# 3 54.8428 24.9050 93.9766 0.0000 0.0000 0.0000
# 4 0.0000 0.0000 0.0000 8.5323 0.0000 0.0000
# 5 0.0000 0.0000 0.0000 0.0000 47.7706 0.0000
# 6 0.0000 0.0000 0.0000 0.0000 0.0000 16.0611
#
#
#
# Elastic Compliance Matrix: (Units=1/GPa)
#
#
# Indices 1 2 3 4 5 6 
#
# 1 0.010572 -0.006589 -0.004423 0.000000 0.000000 0.000000
# 2 -0.006589 0.062291 -0.012662 0.000000 0.000000 0.000000
# 3 -0.004423 -0.012662 0.016578 0.000000 0.000000 0.000000
# 4 0.000000 0.000000 0.000000 0.117201 0.000000 0.000000
# 5 0.000000 0.000000 0.000000 0.000000 0.020933 0.000000
# 6 0.000000 0.000000 0.000000 0.000000 0.000000 0.062262
#
#
# Mechanical properties :
#
#
# Convention : Reuss Voigt Hill
#
# Bulk Modulus (GPa) = 23.75834 51.22539 37.49187
# Shear Modulus (GPa) = 14.23622 24.20913 19.22267
#
# Velocity S-wave (km/s) = 2.84969 3.71613 3.31137
# Velocity P-wave (km/s) = 4.93763 6.90169 6.00056
#
# Compressibility (1/GPa) = 0.04209048
#
# Stress axis : x y z
#
# Youngs Moduli (GPa) = 94.59325 16.05376 60.32127
#
# Poissons Ratio (x) = 0.10578 0.26681
# Poissons Ratio (y) = 0.62330 0.76381
# Poissons Ratio (z) = 0.41840 0.20328
#
# Static dielectric constant tensor:
#      x y z
#    x 3.479000 0.000000 0.000000 
#    y 0.000000 2.826810 0.000000 
#    z 0.000000 0.000000 3.423880 
# 
# 
# High freq. dielectric constant tensor:
#      x y z
#    x 1.680500 0.000000 0.000000 
#    y 0.000000 1.630010 0.000000 
#    z 0.000000 0.000000 1.677510 
# 
# From -- ./inp_files/34672.got.cif
#   From: 2010.03.12/outbox.cif.g09.slc.cpg/sg47_18_cif.got.tgz:34672.got - 2010.04.14 03:12:58.
