data_PCOD8195703
_publ_section_title
;
Structure prediction by ZEFSAII (Michael W. Deem and Ramdas Pophale) SiO2 
 PCOD8195703
Probable space group: P M M M
;
_chemical_formula_sum "Si O2"
_cell_formula_units_Z 48
_cell_length_a 15.700442
_cell_length_b 9.288051
_cell_length_c 15.341921
_cell_angle_alpha 90.000000
_cell_angle_beta 90.000000
_cell_angle_gamma 90.000000
_cell_volume 2237.258735
_symmetry_space_group_name_H-M "P M M M"
_symmetry_group_IT_number 47
_symmetry_cell_setting 'orthorhombic'
loop_
_space_group_symop_operation_xyz
x,y,z
-x,-y,z
x,-y,-z
-x,y,-z
-x,-y,-z
x,y,-z
-x,y,z
x,-y,z
loop_
_atom_site_type_symbol
_atom_site_label
_atom_site_fract_x
_atom_site_fract_y
_atom_site_fract_z
Si Si1 0.644018 0.157338 0.835388
Si Si2 0.822774 0.338563 0.331427
Si Si3 0.399863 0.660623 0.000000
Si Si4 0.100805 0.332610 0.000000
Si Si5 0.406643 0.226741 0.500000
Si Si6 0.624809 0.346171 0.684670
Si Si7 0.842777 0.161753 0.170852
Si Si8 0.213067 0.160650 0.500000
O O1 0.634384 0.260595 0.916163
O O2 0.594155 0.222356 0.751345
O O3 0.742973 0.140366 0.816987
O O4 0.604011 0.000000 0.854182
O O5 0.861909 0.500000 0.344721
O O6 0.725432 0.356361 0.305498
O O7 0.874415 0.254005 0.254977
O O8 0.825875 0.244854 0.418673
O O9 0.362154 0.500000 0.000000
O O10 0.500000 0.659867 0.000000
O O11 0.135956 0.250566 0.084310
O O12 0.131036 0.500000 0.000000
O O13 0.000000 0.323696 0.000000
O O14 0.500000 0.143216 0.500000
O O15 0.406088 0.322199 0.413422
O O16 0.317108 0.139918 0.500000
O O17 0.586134 0.500000 0.713886
O O18 0.884140 0.000000 0.168093
O O19 0.175602 0.000000 0.500000
#
# Coordination Sequence:
#
# PCOD8195703 Si02
#       8
#     8   8   4   4   4   8   8   4
#     4  10  21  37  57  80 104 132 171 221 274 327
#     4   9  17  31  52  77 104 135 173 218 268 317
#     4  11  24  39  54  72  94 125 168 217 270 326
#     4  11  24  39  56  84 122 159 190 219 258 314
#     4  10  21  33  47  69  99 138 181 225 277 334
#     4   9  18  32  50  72  97 128 169 216 263 314
#     4  10  20  35  57  84 111 142 182 224 268 320
#     4  10  19  32  50  74 105 137 177 232 283 329
#
# _framework density 21.454827000000002
#
# number of rings (size 3 to 8) (size 9 to 14) (size 15 to 20)
#    0.000    2.167    0.000    3.000    0.000   12.833 
#    0.000    0.000    0.000    0.000    0.000    0.583 
#    0.000    4.667    0.000    0.000    0.000    0.000 
#
# Total GULP energy -594654.973765 kJ/mol
# GULP energy per Si atom -12388.645287 kJ/mol
# Density = 2.140600 g / cm^3
# Si number density = 21.454827 Si / 1000 Ang^3
#
#
#
# Elastic Constant Matrix: (Units=GPa)
#
#
# Indices 1 2 3 4 5 6 
#
# 1 24.1244 10.5090 10.7484 0.0000 0.0000 0.0000
# 2 10.5090 230.5035 105.4817 0.0000 0.0000 0.0000
# 3 10.7484 105.4817 183.5198 0.0000 0.0000 0.0000
# 4 0.0000 0.0000 0.0000 32.7659 0.0000 0.0000
# 5 0.0000 0.0000 0.0000 0.0000 -0.1908 0.0000
# 6 0.0000 0.0000 0.0000 0.0000 0.0000 10.0435
#
#
#
# Elastic Compliance Matrix: (Units=1/GPa)
#
#
# Indices 1 2 3 4 5 6 
#
# 1 0.042764 -0.001090 -0.001878 0.000000 0.000000 0.000000
# 2 -0.001090 0.005914 -0.003336 0.000000 0.000000 0.000000
# 3 -0.001878 -0.003336 0.007476 0.000000 0.000000 0.000000
# 4 0.000000 0.000000 0.000000 0.030520 0.000000 0.000000
# 5 0.000000 0.000000 0.000000 0.000000 -5.240989 0.000000
# 6 0.000000 0.000000 0.000000 0.000000 0.000000 0.099567
#
#
# Mechanical properties :
#
#
# Convention : Reuss Voigt Hill
#
# Bulk Modulus (GPa) = 22.96392 76.84733 49.90562
# Shear Modulus (GPa) = -0.99451 29.28429 14.14489
#
# Velocity S-wave (km/s) = -0.68157 3.69850 2.57044
# Velocity P-wave (km/s) = 3.17919 7.35762 5.66753
#
# Compressibility (1/GPa) = 0.04354658
#
# Stress axis : x y z
#
# Youngs Moduli (GPa) = 23.38441 169.07734 133.75802
#
# Poissons Ratio (x) = 0.18435 0.25118
# Poissons Ratio (y) = 0.02550 0.44616
# Poissons Ratio (z) = 0.04391 0.56397
#
# Static dielectric constant tensor:
#      x y z
#    x 3.439130 0.000000 0.000000 
#    y 0.000000 4.493240 0.000000 
#    z 0.000000 0.000000 3.745810 
# 
# 
# High freq. dielectric constant tensor:
#      x y z
#    x 1.792280 0.000000 0.000000 
#    y 0.000000 1.860290 0.000000 
#    z 0.000000 0.000000 1.852660 
# 
# From -- ./inp_files/24523.got.cif
#   From: 2010.03.12/outbox.cif.g09.slc.cpg/sg47_13_cif.got.tgz:24523.got - 2010.04.14 03:12:58.
