data_PCOD8195056
_publ_section_title
;
Structure prediction by ZEFSAII (Michael W. Deem and Ramdas Pophale) SiO2 
 PCOD8195056
Probable space group: P M M M
;
_chemical_formula_sum "Si O2"
_cell_formula_units_Z 48
_cell_length_a 14.266146
_cell_length_b 12.869866
_cell_length_c 15.621874
_cell_angle_alpha 90.000000
_cell_angle_beta 90.000000
_cell_angle_gamma 90.000000
_cell_volume 2868.228983
_symmetry_space_group_name_H-M "P M M M"
_symmetry_group_IT_number 47
_symmetry_cell_setting 'orthorhombic'
loop_
_space_group_symop_operation_xyz
x,y,z
-x,-y,z
x,-y,-z
-x,y,-z
-x,-y,-z
x,y,-z
-x,y,z
x,-y,z
loop_
_atom_site_type_symbol
_atom_site_label
_atom_site_fract_x
_atom_site_fract_y
_atom_site_fract_z
Si Si1 0.283792 0.120645 0.094419
Si Si2 0.111076 0.500000 0.403220
Si Si3 0.604969 0.123594 0.256068
Si Si4 0.892458 0.280017 0.660391
Si Si5 0.746173 0.119786 0.402630
Si Si6 0.110321 0.613265 0.000000
Si Si7 0.106532 0.229779 0.142682
O O1 0.350077 0.169779 0.168249
O O2 0.175149 0.134638 0.121306
O O3 0.304290 0.000000 0.089124
O O4 0.304346 0.169914 0.000000
O O5 0.146962 0.500000 0.500000
O O6 0.149306 0.394739 0.359024
O O7 0.000000 0.500000 0.396283
O O8 0.500000 0.168368 0.265440
O O9 0.664731 0.159016 0.338634
O O10 0.603328 0.000000 0.251557
O O11 0.837215 0.191044 0.609631
O O12 0.883056 0.263514 0.760513
O O13 0.000000 0.271779 0.629558
O O14 0.709582 0.130709 0.500000
O O15 0.773782 0.000000 0.382733
O O16 0.140946 0.673712 0.914711
O O17 0.159106 0.500000 0.000000
O O18 0.000000 0.599186 0.000000
O O19 0.000000 0.195927 0.120669
#
# Coordination Sequence:
#
# PCOD8195056 Si02
#       7
#     8   4   8   8   8   4   8
#     4  10  19  31  48  70  98 129 161 196 234 284
#     4   9  18  32  48  67  94 128 165 203 240 278
#     4   9  18  33  50  69  96 126 158 201 250 293
#     4  10  20  32  49  71 100 134 167 201 238 283
#     4  10  20  33  50  73 100 130 165 202 243 293
#     4   9  18  30  45  65  94 127 159 197 239 278
#     4  10  19  30  45  68  97 130 163 195 233 281
#
# _framework density 16.735066
#
# number of rings (size 3 to 8) (size 9 to 14) (size 15 to 20)
#    0.000    2.333    2.500    0.500    1.167    2.333 
#    0.000    6.667    0.000    0.000    0.000    0.583 
#    0.000    2.667    0.000    0.000    0.000    0.000 
#
# Total GULP energy -594982.647956 kJ/mol
# GULP energy per Si atom -12395.471832 kJ/mol
# Density = 1.669698 g / cm^3
# Si number density = 16.735066 Si / 1000 Ang^3
#
#
#
# Elastic Constant Matrix: (Units=GPa)
#
#
# Indices 1 2 3 4 5 6 
#
# 1 87.6870 29.9912 48.3728 0.0000 0.0000 0.0000
# 2 29.9912 50.6139 27.9616 0.0000 0.0000 0.0000
# 3 48.3728 27.9616 126.9520 0.0000 0.0000 0.0000
# 4 0.0000 0.0000 0.0000 20.3229 0.0000 0.0000
# 5 0.0000 0.0000 0.0000 0.0000 19.2357 0.0000
# 6 0.0000 0.0000 0.0000 0.0000 0.0000 4.5601
#
#
#
# Elastic Compliance Matrix: (Units=1/GPa)
#
#
# Indices 1 2 3 4 5 6 
#
# 1 0.016435 -0.007149 -0.004688 0.000000 0.000000 0.000000
# 2 -0.007149 0.025604 -0.002915 0.000000 0.000000 0.000000
# 3 -0.004688 -0.002915 0.010305 0.000000 0.000000 0.000000
# 4 0.000000 0.000000 0.000000 0.049206 0.000000 0.000000
# 5 0.000000 0.000000 0.000000 0.000000 0.051987 0.000000
# 6 0.000000 0.000000 0.000000 0.000000 0.000000 0.219295
#
#
# Mechanical properties :
#
#
# Convention : Reuss Voigt Hill
#
# Bulk Modulus (GPa) = 43.78201 53.10048 48.44124
# Shear Modulus (GPa) = 12.19662 19.41888 15.80775
#
# Velocity S-wave (km/s) = 2.70257 3.41012 3.07675
# Velocity P-wave (km/s) = 5.99643 6.87780 6.45218
#
# Compressibility (1/GPa) = 0.02284043
#
# Stress axis : x y z
#
# Youngs Moduli (GPa) = 60.84434 39.05617 97.03717
#
# Poissons Ratio (x) = 0.27921 0.45489
# Poissons Ratio (y) = 0.43498 0.28290
# Poissons Ratio (z) = 0.28523 0.11386
#
# Static dielectric constant tensor:
#      x y z
#    x 3.063860 0.000000 0.000000 
#    y 0.000000 3.057840 0.000000 
#    z 0.000000 0.000000 3.515830 
# 
# 
# High freq. dielectric constant tensor:
#      x y z
#    x 1.613310 0.000000 0.000000 
#    y 0.000000 1.613280 0.000000 
#    z 0.000000 0.000000 1.668960 
# 
# From -- ./inp_files/17586.got.cif
#   From: 2010.03.12/outbox.cif.g09.slc.cpg/sg47_9_cif.got.tgz:17586.got - 2010.04.14 03:12:58.
