data_PCOD8195788
_publ_section_title
;
Structure prediction by ZEFSAII (Michael W. Deem and Ramdas Pophale) SiO2 
 PCOD8195788
Probable space group: P M M M
;
_chemical_formula_sum "Si O2"
_cell_formula_units_Z 56
_cell_length_a 18.655795
_cell_length_b 9.024960
_cell_length_c 19.162115
_cell_angle_alpha 90.000000
_cell_angle_beta 90.000000
_cell_angle_gamma 90.000000
_cell_volume 3226.283216
_symmetry_space_group_name_H-M "P M M M"
_symmetry_group_IT_number 47
_symmetry_cell_setting 'orthorhombic'
loop_
_space_group_symop_operation_xyz
x,y,z
-x,-y,z
x,-y,-z
-x,y,-z
-x,-y,-z
x,y,-z
-x,y,z
x,-y,z
loop_
_atom_site_type_symbol
_atom_site_label
_atom_site_fract_x
_atom_site_fract_y
_atom_site_fract_z
Si Si1 0.582357 0.329463 0.209743
Si Si2 0.356688 0.827157 0.921342
Si Si3 0.298343 0.174245 0.291488
Si Si4 0.079890 0.325979 0.349854
Si Si5 0.791553 0.172537 0.421515
Si Si6 0.170525 0.330107 0.778138
Si Si7 0.791641 0.331232 0.924493
O O1 0.500000 0.310930 0.231174
O O2 0.605292 0.500000 0.204557
O O3 0.593926 0.256606 0.134082
O O4 0.627597 0.253208 0.271658
O O5 0.275140 0.775951 0.913780
O O6 0.359909 0.000000 0.903912
O O7 0.384857 0.794837 0.000000
O O8 0.272821 0.220432 0.369643
O O9 0.237701 0.225543 0.237679
O O10 0.309761 0.000000 0.284642
O O11 0.080343 0.500000 0.363033
O O12 0.134326 0.254598 0.404549
O O13 0.103132 0.287050 0.270190
O O14 0.000000 0.261655 0.361306
O O15 0.767596 0.212854 0.500000
O O16 0.807734 0.000000 0.412519
O O17 0.192776 0.500000 0.762779
O O18 0.152270 0.306675 0.860537
O O19 0.762977 0.500000 0.922339
O O20 0.828773 0.299179 0.000000
#
# Coordination Sequence:
#
# PCOD8195788 Si02
#       7
#     8   8   8   8   8   8   8
#     4  11  23  36  50  69  96 131 166 200 242 291
#     4  10  20  32  47  69  97 127 161 204 250 291
#     4  10  19  32  52  74  95 121 158 202 242 286
#     4   9  18  31  47  71 103 136 168 200 235 280
#     4   9  19  35  54  77 103 129 157 193 240 291
#     4   9  16  28  47  67  92 128 165 202 244 288
#     4   9  16  26  43  66  91 122 162 206 249 291
#
# _framework density 17.357434999999999
#
# number of rings (size 3 to 8) (size 9 to 14) (size 15 to 20)
#    0.000    2.429    1.429    1.286    0.000    3.714 
#    0.000    2.857    0.000    0.857    0.000    6.000 
#    0.000    0.000    0.000   10.714    0.000   11.143 
#
# Total GULP energy -694096.287528 kJ/mol
# GULP energy per Si atom -12394.576563 kJ/mol
# Density = 1.731793 g / cm^3
# Si number density = 17.357435 Si / 1000 Ang^3
#
#
#
# Elastic Constant Matrix: (Units=GPa)
#
#
# Indices 1 2 3 4 5 6 
#
# 1 72.5973 37.1703 49.1203 0.0000 0.0000 0.0000
# 2 37.1703 72.6347 40.8346 0.0000 0.0000 0.0000
# 3 49.1203 40.8346 141.4967 0.0000 0.0000 0.0000
# 4 0.0000 0.0000 0.0000 23.1625 0.0000 0.0000
# 5 0.0000 0.0000 0.0000 0.0000 20.1194 0.0000
# 6 0.0000 0.0000 0.0000 0.0000 0.0000 12.4127
#
#
#
# Elastic Compliance Matrix: (Units=1/GPa)
#
#
# Indices 1 2 3 4 5 6 
#
# 1 0.021342 -0.008065 -0.005081 0.000000 0.000000 0.000000
# 2 -0.008065 0.019481 -0.002822 0.000000 0.000000 0.000000
# 3 -0.005081 -0.002822 0.009646 0.000000 0.000000 0.000000
# 4 0.000000 0.000000 0.000000 0.043173 0.000000 0.000000
# 5 0.000000 0.000000 0.000000 0.000000 0.049703 0.000000
# 6 0.000000 0.000000 0.000000 0.000000 0.000000 0.080563
#
#
# Mechanical properties :
#
#
# Convention : Reuss Voigt Hill
#
# Bulk Modulus (GPa) = 53.96127 60.10879 57.03503
# Shear Modulus (GPa) = 19.08226 21.77915 20.43071
#
# Velocity S-wave (km/s) = 3.31927 3.54608 3.43455
# Velocity P-wave (km/s) = 6.77096 7.17436 6.97558
#
# Compressibility (1/GPa) = 0.01853181
#
# Stress axis : x y z
#
# Youngs Moduli (GPa) = 46.85586 51.33090 103.67182
#
# Poissons Ratio (x) = 0.41398 0.52680
# Poissons Ratio (y) = 0.37789 0.29261
# Poissons Ratio (z) = 0.23809 0.14488
#
# Static dielectric constant tensor:
#      x y z
#    x 2.990440 0.000000 0.000000 
#    y 0.000000 3.286340 0.000000 
#    z 0.000000 0.000000 3.530830 
# 
# 
# High freq. dielectric constant tensor:
#      x y z
#    x 1.631840 0.000000 0.000000 
#    y 0.000000 1.675300 0.000000 
#    z 0.000000 0.000000 1.677870 
# 
# From -- ./inp_files/9810.got.cif
#   From: 2010.03.12/outbox.cif.g09.slc.cpg/sg47_5_cif.got.tgz:9810.got - 2010.04.14 03:12:58.
