data_PCOD8195662
_publ_section_title
;
Structure prediction by ZEFSAII (Michael W. Deem and Ramdas Pophale) SiO2 
 PCOD8195662
Probable space group: P M M M
;
_chemical_formula_sum "Si O2"
_cell_formula_units_Z 36
_cell_length_a 24.830033
_cell_length_b 9.680718
_cell_length_c 8.109820
_cell_angle_alpha 90.000000
_cell_angle_beta 90.000000
_cell_angle_gamma 90.000000
_cell_volume 1949.378092
_symmetry_space_group_name_H-M "P M M M"
_symmetry_group_IT_number 47
_symmetry_cell_setting 'orthorhombic'
loop_
_space_group_symop_operation_xyz
x,y,z
-x,-y,z
x,-y,-z
-x,y,-z
-x,-y,-z
x,y,-z
-x,y,z
x,-y,z
loop_
_atom_site_type_symbol
_atom_site_label
_atom_site_fract_x
_atom_site_fract_y
_atom_site_fract_z
Si Si1 0.670119 0.158468 0.187992
Si Si2 0.125473 0.335811 0.182958
Si Si3 0.558191 0.836283 0.686884
Si Si4 0.762095 0.345236 0.688306
Si Si5 0.938791 0.335267 0.500000
O O1 0.609160 0.217261 0.208164
O O2 0.710773 0.247279 0.295804
O O3 0.673072 0.000000 0.249102
O O4 0.687688 0.172251 0.000000
O O5 0.122824 0.500000 0.191564
O O6 0.187397 0.288231 0.206940
O O7 0.088814 0.275859 0.332078
O O8 0.106162 0.284910 0.000000
O O9 0.566396 0.786008 0.500000
O O10 0.500000 0.779941 0.753682
O O11 0.556418 0.000000 0.695859
O O12 0.781332 0.347469 0.500000
O O13 0.746155 0.500000 0.746235
O O14 0.935479 0.500000 0.500000
O O15 0.000000 0.282895 0.500000
#
# Coordination Sequence:
#
# PCOD8195662 Si02
#       5
#     8   8   8   8   4
#     4  10  20  31  45  70 100 125 154 196 242 288
#     4   9  16  27  43  63  90 124 160 198 240 286
#     4   8  14  26  44  64  87 118 154 190 233 286
#     4  10  19  32  50  69  92 126 166 202 239 289
#     4   9  16  26  40  62  93 125 160 199 236 282
#
# _framework density 18.467428000000002
#
# number of rings (size 3 to 8) (size 9 to 14) (size 15 to 20)
#    0.000    2.778    1.111    2.000    0.000    3.556 
#    0.000    4.444    0.000    0.667    0.000    4.667 
#    0.000    1.778    0.000    4.667    0.000    4.444 
#
# Total GULP energy -446092.787678 kJ/mol
# GULP energy per Si atom -12391.466324 kJ/mol
# Density = 1.842540 g / cm^3
# Si number density = 18.467428 Si / 1000 Ang^3
#
#
#
# Elastic Constant Matrix: (Units=GPa)
#
#
# Indices 1 2 3 4 5 6 
#
# 1 136.1816 29.2833 57.5183 0.0000 0.0000 0.0000
# 2 29.2833 26.9747 15.1319 0.0000 0.0000 0.0000
# 3 57.5183 15.1319 103.8013 0.0000 0.0000 0.0000
# 4 0.0000 0.0000 0.0000 13.2760 0.0000 0.0000
# 5 0.0000 0.0000 0.0000 0.0000 25.9950 0.0000
# 6 0.0000 0.0000 0.0000 0.0000 0.0000 -41.9843
#
#
#
# Elastic Compliance Matrix: (Units=1/GPa)
#
#
# Indices 1 2 3 4 5 6 
#
# 1 0.011537 -0.009734 -0.004974 0.000000 0.000000 0.000000
# 2 -0.009734 0.048587 -0.001689 0.000000 0.000000 0.000000
# 3 -0.004974 -0.001689 0.012636 0.000000 0.000000 0.000000
# 4 0.000000 0.000000 0.000000 0.075324 0.000000 0.000000
# 5 0.000000 0.000000 0.000000 0.000000 0.038469 0.000000
# 6 0.000000 0.000000 0.000000 0.000000 0.000000 -0.023818
#
#
# Mechanical properties :
#
#
# Convention : Reuss Voigt Hill
#
# Bulk Modulus (GPa) = 25.02145 52.31385 38.66765
# Shear Modulus (GPa) = 23.94059 10.45894 17.19976
#
# Velocity S-wave (km/s) = 3.60442 2.38238 3.05512
# Velocity P-wave (km/s) = 5.55885 5.99640 5.78176
#
# Compressibility (1/GPa) = 0.03996571
#
# Stress axis : x y z
#
# Youngs Moduli (GPa) = 86.67675 20.58179 79.13824
#
# Poissons Ratio (x) = 0.20035 0.39363
# Poissons Ratio (y) = 0.84374 0.13365
# Poissons Ratio (z) = 0.43112 0.03476
#
# Static dielectric constant tensor:
#      x y z
#    x 3.744570 0.000000 0.000000 
#    y 0.000000 2.724880 0.000000 
#    z 0.000000 0.000000 3.531860 
# 
# 
# High freq. dielectric constant tensor:
#      x y z
#    x 1.726010 0.000000 0.000000 
#    y 0.000000 1.633240 0.000000 
#    z 0.000000 0.000000 1.724970 
# 
# From -- ./inp_files/1455.got.cif
#   From: 2010.03.12/outbox.cif.g09.slc.cpg/sg47_1_cif.got.tgz:1455.got - 2010.04.14 03:12:58.
