data_PCOD8195182
_publ_section_title
;
Structure prediction by ZEFSAII (Michael W. Deem and Ramdas Pophale) SiO2 
 PCOD8195182
Probable space group: P M M M
;
_chemical_formula_sum "Si O2"
_cell_formula_units_Z 56
_cell_length_a 9.503778
_cell_length_b 14.280942
_cell_length_c 23.678621
_cell_angle_alpha 90.000000
_cell_angle_beta 90.000000
_cell_angle_gamma 90.000000
_cell_volume 3213.731167
_symmetry_space_group_name_H-M "P M M M"
_symmetry_group_IT_number 47
_symmetry_cell_setting 'orthorhombic'
loop_
_space_group_symop_operation_xyz
x,y,z
-x,-y,z
x,-y,-z
-x,y,-z
-x,-y,-z
x,y,-z
-x,y,z
x,-y,z
loop_
_atom_site_type_symbol
_atom_site_label
_atom_site_fract_x
_atom_site_fract_y
_atom_site_fract_z
Si Si1 0.836498 0.232556 0.064654
Si Si2 0.157659 0.389609 0.437095
Si Si3 0.663960 0.732134 0.769997
Si Si4 0.336429 0.107418 0.144246
Si Si5 0.333543 0.733419 0.359219
Si Si6 0.163401 0.392726 0.849698
Si Si7 0.332847 0.103158 0.562705
O O1 0.750322 0.146745 0.091278
O O2 0.801223 0.330953 0.095089
O O3 0.000000 0.207437 0.070650
O O4 0.790679 0.244154 0.000000
O O5 0.206967 0.357814 0.500000
O O6 0.158224 0.500000 0.433489
O O7 0.263331 0.355025 0.389019
O O8 0.000000 0.351729 0.425540
O O9 0.500000 0.707915 0.774966
O O10 0.698976 0.830697 0.800479
O O11 0.713003 0.741180 0.705564
O O12 0.748340 0.646095 0.797095
O O13 0.500000 0.114775 0.128571
O O14 0.292942 0.000000 0.156481
O O15 0.500000 0.722902 0.365096
O O16 0.274339 0.825249 0.390977
O O17 0.206423 0.500000 0.862235
O O18 0.000000 0.385043 0.833638
O O19 0.281866 0.132962 0.500000
O O20 0.500000 0.101797 0.564366
O O21 0.274474 0.000000 0.577572
#
# Coordination Sequence:
#
# PCOD8195182 Si02
#       7
#     8   8   8   8   8   8   8
#     4   9  18  32  50  74 101 124 151 193 240 281
#     4   9  19  35  51  67  91 124 158 191 233 286
#     4   9  19  33  47  68  97 125 156 196 237 275
#     4   9  18  33  51  69  94 131 167 195 228 273
#     4  10  19  30  48  73  96 120 154 196 238 277
#     4   9  18  33  52  71  92 123 160 193 229 277
#     4   8  14  25  42  66  94 119 144 180 228 278
#
# _framework density 17.425228000000001
#
# number of rings (size 3 to 8) (size 9 to 14) (size 15 to 20)
#    0.000    3.000    0.000    1.286    0.000    4.286 
#    0.000    9.286    0.000    0.429    0.000    8.000 
#    0.000    0.000    0.000    0.000    0.000    0.000 
#
# Total GULP energy -694284.170677 kJ/mol
# GULP energy per Si atom -12397.931619 kJ/mol
# Density = 1.738557 g / cm^3
# Si number density = 17.425228 Si / 1000 Ang^3
#
#
#
# Elastic Constant Matrix: (Units=GPa)
#
#
# Indices 1 2 3 4 5 6 
#
# 1 39.2711 38.9306 48.3424 0.0000 0.0000 0.0000
# 2 38.9306 109.9895 61.4785 0.0000 0.0000 0.0000
# 3 48.3424 61.4785 150.7515 0.0000 0.0000 0.0000
# 4 0.0000 0.0000 0.0000 12.1988 0.0000 0.0000
# 5 0.0000 0.0000 0.0000 0.0000 26.2187 0.0000
# 6 0.0000 0.0000 0.0000 0.0000 0.0000 21.6282
#
#
#
# Elastic Compliance Matrix: (Units=1/GPa)
#
#
# Indices 1 2 3 4 5 6 
#
# 1 0.051492 -0.011652 -0.011760 0.000000 0.000000 0.000000
# 2 -0.011652 0.014413 -0.002141 0.000000 0.000000 0.000000
# 3 -0.011760 -0.002141 0.011278 0.000000 0.000000 0.000000
# 4 0.000000 0.000000 0.000000 0.081976 0.000000 0.000000
# 5 0.000000 0.000000 0.000000 0.000000 0.038141 0.000000
# 6 0.000000 0.000000 0.000000 0.000000 0.000000 0.046236
#
#
# Mechanical properties :
#
#
# Convention : Reuss Voigt Hill
#
# Bulk Modulus (GPa) = 38.35029 66.39057 52.37043
# Shear Modulus (GPa) = 16.48348 22.09317 19.28833
#
# Velocity S-wave (km/s) = 3.07897 3.56460 3.33065
# Velocity P-wave (km/s) = 5.89036 7.42461 6.70154
#
# Compressibility (1/GPa) = 0.02607542
#
# Stress axis : x y z
#
# Youngs Moduli (GPa) = 19.42051 69.38264 88.66884
#
# Poissons Ratio (x) = 0.80845 1.04278
# Poissons Ratio (y) = 0.22629 0.18986
# Poissons Ratio (z) = 0.22839 0.14856
#
# Static dielectric constant tensor:
#      x y z
#    x 3.087450 0.000000 0.000000 
#    y 0.000000 3.339130 0.000000 
#    z 0.000000 0.000000 3.319560 
# 
# 
# High freq. dielectric constant tensor:
#      x y z
#    x 1.653840 0.000000 0.000000 
#    y 0.000000 1.675770 0.000000 
#    z 0.000000 0.000000 1.672960 
# 
# From -- ./inp_files/30520.got.cif
#   From: 2010.03.12/outbox.cif.g09.slc.cpg/sg47_16_cif.got.tgz:30520.got - 2010.04.14 03:12:58.
