data_PCOD8195836
_publ_section_title
;
Structure prediction by ZEFSAII (Michael W. Deem and Ramdas Pophale) SiO2 
 PCOD8195836
Probable space group: P M M M
;
_chemical_formula_sum "Si O2"
_cell_formula_units_Z 48
_cell_length_a 8.995204
_cell_length_b 29.547426
_cell_length_c 9.590147
_cell_angle_alpha 90.000000
_cell_angle_beta 90.000000
_cell_angle_gamma 90.000000
_cell_volume 2548.918415
_symmetry_space_group_name_H-M "P M M M"
_symmetry_group_IT_number 47
_symmetry_cell_setting 'orthorhombic'
loop_
_space_group_symop_operation_xyz
x,y,z
-x,-y,z
x,-y,-z
-x,y,-z
-x,-y,-z
x,y,-z
-x,y,z
x,-y,z
loop_
_atom_site_type_symbol
_atom_site_label
_atom_site_fract_x
_atom_site_fract_y
_atom_site_fract_z
Si Si1 0.676634 0.948868 0.500000
Si Si2 0.825178 0.201348 0.160327
Si Si3 0.323130 0.367453 0.160210
Si Si4 0.323979 0.889358 0.752892
Si Si5 0.676514 0.049862 0.000000
Si Si6 0.676518 0.550327 0.344161
Si Si7 0.174832 0.288985 0.662818
O O1 0.500000 0.953597 0.500000
O O2 0.734360 0.918337 0.375200
O O3 0.744160 0.000000 0.500000
O O4 0.750449 0.159256 0.236791
O O5 0.778899 0.243837 0.254675
O O6 0.000000 0.194025 0.160574
O O7 0.768121 0.207278 0.000000
O O8 0.500000 0.364157 0.163486
O O9 0.265685 0.414653 0.227378
O O10 0.258830 0.328714 0.258118
O O11 0.265436 0.363824 0.000000
O O12 0.500000 0.881800 0.753145
O O13 0.264994 0.921441 0.872899
O O14 0.500000 0.045222 0.000000
O O15 0.748583 0.000000 0.000000
O O16 0.732706 0.564057 0.500000
O O17 0.500000 0.550165 0.344580
O O18 0.735559 0.500000 0.306195
O O19 0.224083 0.285888 0.500000
O O20 0.000000 0.297774 0.673762
#
# Coordination Sequence:
#
# PCOD8195836 Si02
#       7
#     4   8   8   8   4   8   8
#     4   9  18  32  51  77 107 135 165 205 250 295
#     4  10  21  37  55  75 102 134 167 208 260 313
#     4  10  20  33  52  81 113 143 177 220 268 314
#     4  10  19  32  52  78 104 132 168 207 247 296
#     4   9  16  28  49  75 101 131 167 203 240 289
#     4   8  14  26  46  73 107 146 183 218 260 311
#     4  10  22  39  58  78 100 135 181 222 266 322
#
# _framework density 18.831517000000002
#
# number of rings (size 3 to 8) (size 9 to 14) (size 15 to 20)
#    0.000    2.500    0.833    2.000    1.167    5.000 
#    0.000    1.667    0.000    3.500    0.000    3.500 
#    0.000    0.000    0.000    0.000    0.000    0.000 
#
# Total GULP energy -594835.687118 kJ/mol
# GULP energy per Si atom -12392.410148 kJ/mol
# Density = 1.878866 g / cm^3
# Si number density = 18.831517 Si / 1000 Ang^3
#
#
#
# Elastic Constant Matrix: (Units=GPa)
#
#
# Indices 1 2 3 4 5 6 
#
# 1 14.0540 32.3696 24.0791 0.0000 0.0000 0.0000
# 2 32.3696 179.7180 102.8662 0.0000 0.0000 0.0000
# 3 24.0791 102.8662 183.3057 0.0000 0.0000 0.0000
# 4 0.0000 0.0000 0.0000 55.6909 0.0000 0.0000
# 5 0.0000 0.0000 0.0000 0.0000 20.5904 0.0000
# 6 0.0000 0.0000 0.0000 0.0000 0.0000 -29.5602
#
#
#
# Elastic Compliance Matrix: (Units=1/GPa)
#
#
# Indices 1 2 3 4 5 6 
#
# 1 0.125374 -0.019380 -0.005594 0.000000 0.000000 0.000000
# 2 -0.019380 0.011193 -0.003735 0.000000 0.000000 0.000000
# 3 -0.005594 -0.003735 0.008286 0.000000 0.000000 0.000000
# 4 0.000000 0.000000 0.000000 0.017956 0.000000 0.000000
# 5 0.000000 0.000000 0.000000 0.000000 0.048566 0.000000
# 6 0.000000 0.000000 0.000000 0.000000 0.000000 -0.033829
#
#
# Mechanical properties :
#
#
# Convention : Reuss Voigt Hill
#
# Bulk Modulus (GPa) = 11.43702 77.30083 44.36892
# Shear Modulus (GPa) = 18.93154 23.86176 21.39665
#
# Velocity S-wave (km/s) = 3.17410 3.56352 3.37444
# Velocity P-wave (km/s) = 4.41812 7.62032 6.22853
#
# Compressibility (1/GPa) = 0.08743540
#
# Stress axis : x y z
#
# Youngs Moduli (GPa) = 7.97613 89.34247 120.67996
#
# Poissons Ratio (x) = 1.73144 0.67506
# Poissons Ratio (y) = 0.15458 0.45079
# Poissons Ratio (z) = 0.04462 0.33373
#
# Static dielectric constant tensor:
#      x y z
#    x 2.977720 0.000000 0.000000 
#    y 0.000000 3.736950 0.000000 
#    z 0.000000 0.000000 3.870540 
# 
# 
# High freq. dielectric constant tensor:
#      x y z
#    x 1.681180 0.000000 0.000000 
#    y 0.000000 1.748800 0.000000 
#    z 0.000000 0.000000 1.748690 
# 
# From -- ./inp_files/2663.got.cif
#   From: 2010.03.12/outbox.cif.g09.slc.cpg/sg47_2_cif.got.tgz:2663.got - 2010.04.14 03:12:58.
