data_PCOD8195820
_publ_section_title
;
Structure prediction by ZEFSAII (Michael W. Deem and Ramdas Pophale) SiO2 
 PCOD8195820
Probable space group: P M M M
;
_chemical_formula_sum "Si O2"
_cell_formula_units_Z 64
_cell_length_a 9.032532
_cell_length_b 19.705258
_cell_length_c 20.569014
_cell_angle_alpha 90.000000
_cell_angle_beta 90.000000
_cell_angle_gamma 90.000000
_cell_volume 3661.045345
_symmetry_space_group_name_H-M "P M M M"
_symmetry_group_IT_number 47
_symmetry_cell_setting 'orthorhombic'
loop_
_space_group_symop_operation_xyz
x,y,z
-x,-y,z
x,-y,-z
-x,y,-z
-x,-y,-z
x,y,-z
-x,y,z
x,-y,z
loop_
_atom_site_type_symbol
_atom_site_label
_atom_site_fract_x
_atom_site_fract_y
_atom_site_fract_z
Si Si1 0.824834 0.207230 0.817847
Si Si2 0.673042 0.923323 0.779620
Si Si3 0.325166 0.210701 0.426652
Si Si4 0.324425 0.926763 0.368085
Si Si5 0.330340 0.294464 0.927045
Si Si6 0.827806 0.423428 0.111805
Si Si7 0.824429 0.426713 0.259916
Si Si8 0.824610 0.713672 0.688438
O O1 0.762984 0.130630 0.822581
O O2 0.764598 0.248940 0.878557
O O3 0.772741 0.241652 0.750112
O O4 0.000000 0.206082 0.822898
O O5 0.500000 0.906862 0.785669
O O6 0.728766 0.915102 0.705605
O O7 0.705953 0.000000 0.804189
O O8 0.281596 0.230580 0.500000
O O9 0.500000 0.214212 0.415575
O O10 0.265821 0.134243 0.413013
O O11 0.248489 0.262338 0.378020
O O12 0.500000 0.929108 0.368988
O O13 0.263771 0.000000 0.393424
O O14 0.500000 0.294599 0.903809
O O15 0.269393 0.371311 0.929382
O O16 0.316552 0.264736 0.000000
O O17 0.801222 0.500000 0.086201
O O18 0.773265 0.416775 0.186003
O O19 0.000000 0.403808 0.105221
O O20 0.765372 0.500000 0.286499
O O21 0.766591 0.363665 0.302431
O O22 0.000000 0.427309 0.260700
O O23 0.000000 0.717200 0.680912
#
# Coordination Sequence:
#
# PCOD8195820 Si02
#       8
#     8   8   8   8   8   8   8   8
#     4  11  21  34  55  81 105 134 175 219 263 311
#     4   9  17  31  53  79 106 137 171 209 258 311
#     4  10  20  32  48  72 102 137 174 211 254 303
#     4   8  14  26  45  70  99 131 169 208 243 287
#     4  11  24  38  52  74 107 145 180 217 262 310
#     4   9  17  32  54  78 106 140 176 214 257 308
#     4   8  14  28  51  76 100 125 161 211 258 300
#     4  10  19  32  52  77 101 130 168 211 261 309
#
# _framework density 17.481345999999998
#
# number of rings (size 3 to 8) (size 9 to 14) (size 15 to 20)
#    0.000    2.500    2.500    2.250    0.000    2.750 
#    0.000    2.500    0.000    1.500    0.000    6.125 
#    0.000    0.000    0.000    0.000    0.000    0.000 
#
# Total GULP energy -793295.512977 kJ/mol
# GULP energy per Si atom -12395.242390 kJ/mol
# Density = 1.744156 g / cm^3
# Si number density = 17.481346 Si / 1000 Ang^3
#
#
#
# Elastic Constant Matrix: (Units=GPa)
#
#
# Indices 1 2 3 4 5 6 
#
# 1 50.5856 40.5718 32.7629 0.0000 0.0000 0.0000
# 2 40.5718 130.2474 56.0876 0.0000 0.0000 0.0000
# 3 32.7629 56.0876 85.6023 0.0000 0.0000 0.0000
# 4 0.0000 0.0000 0.0000 21.3280 0.0000 0.0000
# 5 0.0000 0.0000 0.0000 0.0000 23.5548 0.0000
# 6 0.0000 0.0000 0.0000 0.0000 0.0000 27.4788
#
#
#
# Elastic Compliance Matrix: (Units=1/GPa)
#
#
# Indices 1 2 3 4 5 6 
#
# 1 0.029289 -0.005985 -0.007289 0.000000 0.000000 0.000000
# 2 -0.005985 0.011918 -0.005518 0.000000 0.000000 0.000000
# 3 -0.007289 -0.005518 0.018087 0.000000 0.000000 0.000000
# 4 0.000000 0.000000 0.000000 0.046887 0.000000 0.000000
# 5 0.000000 0.000000 0.000000 0.000000 0.042454 0.000000
# 6 0.000000 0.000000 0.000000 0.000000 0.000000 0.036392
#
#
# Mechanical properties :
#
#
# Convention : Reuss Voigt Hill
#
# Bulk Modulus (GPa) = 46.05957 58.36443 52.21200
# Shear Modulus (GPa) = 21.75347 23.60652 22.68000
#
# Velocity S-wave (km/s) = 3.53141 3.67874 3.60583
# Velocity P-wave (km/s) = 6.55994 7.17658 6.87518
#
# Compressibility (1/GPa) = 0.02171101
#
# Stress axis : x y z
#
# Youngs Moduli (GPa) = 34.14221 83.90434 55.28754
#
# Poissons Ratio (x) = 0.50216 0.40297
# Poissons Ratio (y) = 0.20434 0.30510
# Poissons Ratio (z) = 0.24885 0.46302
#
# Static dielectric constant tensor:
#      x y z
#    x 2.962450 0.000000 0.000000 
#    y 0.000000 3.727680 0.000000 
#    z 0.000000 0.000000 3.038830 
# 
# 
# High freq. dielectric constant tensor:
#      x y z
#    x 1.649170 0.000000 0.000000 
#    y 0.000000 1.686070 0.000000 
#    z 0.000000 0.000000 1.649390 
# 
# From -- ./inp_files/9950.got.cif
#   From: 2010.03.12/outbox.cif.g09.slc.cpg/sg47_5_cif.got.tgz:9950.got - 2010.04.14 03:12:58.
