data_PCOD8195352
_publ_section_title
;
Structure prediction by ZEFSAII (Michael W. Deem and Ramdas Pophale) SiO2 
 PCOD8195352
Probable space group: P M M M
;
_chemical_formula_sum "Si O2"
_cell_formula_units_Z 64
_cell_length_a 9.446627
_cell_length_b 14.402983
_cell_length_c 31.214567
_cell_angle_alpha 90.000000
_cell_angle_beta 90.000000
_cell_angle_gamma 90.000000
_cell_volume 4247.041753
_symmetry_space_group_name_H-M "P M M M"
_symmetry_group_IT_number 47
_symmetry_cell_setting 'orthorhombic'
loop_
_space_group_symop_operation_xyz
x,y,z
-x,-y,z
x,-y,-z
-x,y,-z
-x,-y,-z
x,y,-z
-x,y,z
x,-y,z
loop_
_atom_site_type_symbol
_atom_site_label
_atom_site_fract_x
_atom_site_fract_y
_atom_site_fract_z
Si Si1 0.835972 0.295922 0.293831
Si Si2 0.332779 0.288312 0.453337
Si Si3 0.838453 0.102218 0.673277
Si Si4 0.841121 0.389579 0.952514
Si Si5 0.335449 0.897270 0.588641
Si Si6 0.163914 0.391973 0.792985
Si Si7 0.340555 0.610616 0.874322
Si Si8 0.333322 0.607927 0.369591
O O1 0.811803 0.184305 0.292467
O O2 0.784619 0.335611 0.248487
O O3 0.745446 0.341193 0.331304
O O4 0.000000 0.321544 0.301633
O O5 0.269541 0.317370 0.500000
O O6 0.500000 0.299591 0.454986
O O7 0.290607 0.180569 0.445580
O O8 0.274761 0.352991 0.415047
O O9 0.743637 0.123269 0.632493
O O10 0.000000 0.104631 0.657469
O O11 0.802623 0.000000 0.693084
O O12 0.840749 0.500000 0.950296
O O13 0.734782 0.348634 0.916907
O O14 0.000000 0.353437 0.943091
O O15 0.792078 0.357055 0.000000
O O16 0.500000 0.888768 0.599685
O O17 0.298517 0.000000 0.570456
O O18 0.192162 0.500000 0.783926
O O19 0.255575 0.354881 0.832732
O O20 0.000000 0.373570 0.803729
O O21 0.500000 0.649552 0.872470
O O22 0.339987 0.500000 0.875808
O O23 0.500000 0.627178 0.364743
O O24 0.296987 0.500000 0.367773
#
# Coordination Sequence:
#
# PCOD8195352 Si02
#       8
#     8   8   8   8   8   8   8   8
#     4  10  19  31  48  66  83 106 135 166 201 244
#     4   9  17  29  44  63  86 108 131 160 195 237
#     4   9  17  29  46  67  88 107 127 156 197 242
#     4   8  13  21  33  48  67  96 135 175 212 248
#     4   9  16  27  45  66  85 105 129 158 193 234
#     4   9  17  28  40  54  74 102 135 167 199 237
#     4   9  16  24  34  50  73 100 131 170 213 248
#     4  10  20  32  46  64  84 106 134 169 204 235
#
# _framework density 15.069312
#
# number of rings (size 3 to 8) (size 9 to 14) (size 15 to 20)
#    0.000    2.875    1.250    1.125    0.000    3.500 
#    0.000    5.000    0.000    1.500    0.000    2.625 
#    0.000    0.000    0.000    0.000    0.000    0.625 
#
# Total GULP energy -793197.386473 kJ/mol
# GULP energy per Si atom -12393.709164 kJ/mol
# Density = 1.503501 g / cm^3
# Si number density = 15.069312 Si / 1000 Ang^3
#
#
#
# Elastic Constant Matrix: (Units=GPa)
#
#
# Indices 1 2 3 4 5 6 
#
# 1 53.7761 26.6285 52.2548 0.0000 0.0000 0.0000
# 2 26.6285 63.3470 48.4555 0.0000 0.0000 0.0000
# 3 52.2548 48.4555 134.7299 0.0000 0.0000 0.0000
# 4 0.0000 0.0000 0.0000 4.9510 0.0000 0.0000
# 5 0.0000 0.0000 0.0000 0.0000 16.3232 0.0000
# 6 0.0000 0.0000 0.0000 0.0000 0.0000 12.7845
#
#
#
# Elastic Compliance Matrix: (Units=1/GPa)
#
#
# Indices 1 2 3 4 5 6 
#
# 1 0.031083 -0.005303 -0.010148 0.000000 0.000000 0.000000
# 2 -0.005303 0.022682 -0.006101 0.000000 0.000000 0.000000
# 3 -0.010148 -0.006101 0.013552 0.000000 0.000000 0.000000
# 4 0.000000 0.000000 0.000000 0.201980 0.000000 0.000000
# 5 0.000000 0.000000 0.000000 0.000000 0.061263 0.000000
# 6 0.000000 0.000000 0.000000 0.000000 0.000000 0.078220
#
#
# Mechanical properties :
#
#
# Convention : Reuss Voigt Hill
#
# Bulk Modulus (GPa) = 41.30064 56.28118 48.79091
# Shear Modulus (GPa) = 10.87064 15.11267 12.99166
#
# Velocity S-wave (km/s) = 2.68876 3.17026 2.93939
# Velocity P-wave (km/s) = 6.09146 7.12952 6.63083
#
# Compressibility (1/GPa) = 0.02421270
#
# Stress axis : x y z
#
# Youngs Moduli (GPa) = 32.17231 44.08798 73.78871
#
# Poissons Ratio (x) = 0.23382 0.74881
# Poissons Ratio (y) = 0.17062 0.45015
# Poissons Ratio (z) = 0.32648 0.26896
#
# Static dielectric constant tensor:
#      x y z
#    x 2.900690 0.000000 0.000000 
#    y 0.000000 2.849260 0.000000 
#    z 0.000000 0.000000 3.021940 
# 
# 
# High freq. dielectric constant tensor:
#      x y z
#    x 1.568960 0.000000 0.000000 
#    y 0.000000 1.544020 0.000000 
#    z 0.000000 0.000000 1.569260 
# 
# From -- ./inp_files/8281.got.cif
#   From: 2010.03.12/outbox.cif.g09.slc.cpg/sg47_5_cif.got.tgz:8281.got - 2010.04.14 03:12:58.
