data_PCOD8195360
_publ_section_title
;
Structure prediction by ZEFSAII (Michael W. Deem and Ramdas Pophale) SiO2 
 PCOD8195360
Probable space group: P M M M
;
_chemical_formula_sum "Si O2"
_cell_formula_units_Z 56
_cell_length_a 19.115481
_cell_length_b 9.160175
_cell_length_c 18.658830
_cell_angle_alpha 90.000000
_cell_angle_beta 90.000000
_cell_angle_gamma 90.000000
_cell_volume 3267.182612
_symmetry_space_group_name_H-M "P M M M"
_symmetry_group_IT_number 47
_symmetry_cell_setting 'orthorhombic'
loop_
_space_group_symop_operation_xyz
x,y,z
-x,-y,z
x,-y,-z
-x,y,-z
-x,-y,-z
x,y,-z
-x,y,z
x,-y,z
loop_
_atom_site_type_symbol
_atom_site_label
_atom_site_fract_x
_atom_site_fract_y
_atom_site_fract_z
Si Si1 0.579265 0.826693 0.797028
Si Si2 0.795928 0.170964 0.419346
Si Si3 0.077680 0.831889 0.206428
Si Si4 0.295705 0.834272 0.707196
Si Si5 0.218271 0.164795 0.854181
Si Si6 0.079528 0.669743 0.353480
Si Si7 0.340295 0.331882 0.082478
O O1 0.500000 0.782455 0.778821
O O2 0.629541 0.766703 0.732902
O O3 0.602466 0.755463 0.871806
O O4 0.588478 0.000000 0.806292
O O5 0.769026 0.198674 0.500000
O O6 0.738130 0.238602 0.363974
O O7 0.869998 0.250217 0.409388
O O8 0.807594 0.000000 0.403922
O O9 0.135396 0.796207 0.144977
O O10 0.091407 0.730502 0.274173
O O11 0.000000 0.804089 0.174456
O O12 0.086422 0.000000 0.231233
O O13 0.241316 0.818434 0.771795
O O14 0.310869 0.000000 0.686761
O O15 0.261653 0.272559 0.904852
O O16 0.231753 0.000000 0.881360
O O17 0.098065 0.500000 0.352340
O O18 0.000000 0.697431 0.378855
O O19 0.341939 0.500000 0.105572
O O20 0.360719 0.311414 0.000000
#
# Coordination Sequence:
#
# PCOD8195360 Si02
#       7
#     8   8   8   8   8   8   8
#     4   9  18  33  54  76  97 125 158 192 232 280
#     4  10  19  31  48  67  90 125 166 205 244 286
#     4   9  16  28  48  71  94 121 157 202 247 287
#     4   8  14  28  47  69  93 116 151 195 235 275
#     4   9  16  29  50  71  93 124 161 201 239 277
#     4  10  20  31  43  63  94 128 160 200 248 292
#     4  10  21  34  48  71 103 133 158 189 230 277
#
# _framework density 17.140149000000001
#
# number of rings (size 3 to 8) (size 9 to 14) (size 15 to 20)
#    0.000    2.714    1.429    1.714    0.000    3.714 
#    0.000    2.857    0.000    0.857    0.000    6.000 
#    0.000    0.000    0.000    5.000    0.000    6.286 
#
# Total GULP energy -694077.828772 kJ/mol
# GULP energy per Si atom -12394.246942 kJ/mol
# Density = 1.710114 g / cm^3
# Si number density = 17.140149 Si / 1000 Ang^3
#
#
#
# Elastic Constant Matrix: (Units=GPa)
#
#
# Indices 1 2 3 4 5 6 
#
# 1 131.3733 36.9009 44.3050 0.0000 0.0000 0.0000
# 2 36.9009 55.7678 30.0789 0.0000 0.0000 0.0000
# 3 44.3050 30.0789 64.7273 0.0000 0.0000 0.0000
# 4 0.0000 0.0000 0.0000 13.6752 0.0000 0.0000
# 5 0.0000 0.0000 0.0000 0.0000 19.4825 0.0000
# 6 0.0000 0.0000 0.0000 0.0000 0.0000 14.9877
#
#
#
# Elastic Compliance Matrix: (Units=1/GPa)
#
#
# Indices 1 2 3 4 5 6 
#
# 1 0.010562 -0.004123 -0.005314 0.000000 0.000000 0.000000
# 2 -0.004123 0.025538 -0.009046 0.000000 0.000000 0.000000
# 3 -0.005314 -0.009046 0.023290 0.000000 0.000000 0.000000
# 4 0.000000 0.000000 0.000000 0.073125 0.000000 0.000000
# 5 0.000000 0.000000 0.000000 0.000000 0.051328 0.000000
# 6 0.000000 0.000000 0.000000 0.000000 0.000000 0.066721
#
#
# Mechanical properties :
#
#
# Convention : Reuss Voigt Hill
#
# Bulk Modulus (GPa) = 44.59086 52.71533 48.65309
# Shear Modulus (GPa) = 16.94888 19.00132 17.97510
#
# Velocity S-wave (km/s) = 3.14800 3.33316 3.24190
# Velocity P-wave (km/s) = 6.26778 6.75540 6.51616
#
# Compressibility (1/GPa) = 0.02242612
#
# Stress axis : x y z
#
# Youngs Moduli (GPa) = 94.67974 39.15679 42.93668
#
# Poissons Ratio (x) = 0.16143 0.22815
# Poissons Ratio (y) = 0.39034 0.38839
# Poissons Ratio (z) = 0.50310 0.35420
#
# Static dielectric constant tensor:
#      x y z
#    x 3.475720 0.000000 0.000000 
#    y 0.000000 3.089600 0.000000 
#    z 0.000000 0.000000 2.991880 
# 
# 
# High freq. dielectric constant tensor:
#      x y z
#    x 1.664670 0.000000 0.000000 
#    y 0.000000 1.644860 0.000000 
#    z 0.000000 0.000000 1.631050 
# 
# From -- ./inp_files/11479.got.cif
#   From: 2010.03.12/outbox.cif.g09.slc.cpg/sg47_6_cif.got.tgz:11479.got - 2010.04.14 03:12:58.
