data_PCOD8195189
_publ_section_title
;
Structure prediction by ZEFSAII (Michael W. Deem and Ramdas Pophale) SiO2 
 PCOD8195189
Probable space group: P M M M
;
_chemical_formula_sum "Si O2"
_cell_formula_units_Z 64
_cell_length_a 9.653384
_cell_length_b 22.364914
_cell_length_c 17.572163
_cell_angle_alpha 90.000000
_cell_angle_beta 90.000000
_cell_angle_gamma 90.000000
_cell_volume 3793.779085
_symmetry_space_group_name_H-M "P M M M"
_symmetry_group_IT_number 47
_symmetry_cell_setting 'orthorhombic'
loop_
_space_group_symop_operation_xyz
x,y,z
-x,-y,z
x,-y,-z
-x,y,-z
-x,-y,-z
x,y,-z
-x,y,z
x,-y,z
loop_
_atom_site_type_symbol
_atom_site_label
_atom_site_fract_x
_atom_site_fract_y
_atom_site_fract_z
Si Si1 0.657616 0.858386 0.417162
Si Si2 0.158292 0.835929 0.196228
Si Si3 0.340335 0.759664 0.088401
Si Si4 0.156636 0.643103 0.417038
Si Si5 0.835928 0.431440 0.278707
Si Si6 0.347069 0.660728 0.203953
Si Si7 0.336936 0.930428 0.276409
Si Si8 0.752664 0.249535 0.676304
O O1 0.734905 0.859986 0.500000
O O2 0.500000 0.873349 0.432761
O O3 0.715390 0.909278 0.360121
O O4 0.665274 0.793444 0.378285
O O5 0.235381 0.807501 0.123972
O O6 0.244676 0.895781 0.214754
O O7 0.153016 0.790277 0.267584
O O8 0.000000 0.852139 0.174801
O O9 0.500000 0.779401 0.103226
O O10 0.313298 0.694665 0.125398
O O11 0.306575 0.754257 0.000000
O O12 0.233182 0.642764 0.500000
O O13 0.220397 0.593221 0.360131
O O14 0.157017 0.708387 0.378458
O O15 0.000000 0.624713 0.431383
O O16 0.792105 0.500000 0.270074
O O17 0.763703 0.392520 0.212835
O O18 0.000000 0.422222 0.270867
O O19 0.500000 0.632141 0.201786
O O20 0.346227 0.708960 0.272614
O O21 0.500000 0.914965 0.264890
O O22 0.307582 0.000000 0.266772
#
# Coordination Sequence:
#
# PCOD8195189 Si02
#       8
#     8   8   8   8   8   8   8   8
#     4   9  16  25  40  63  88 116 155 202 245 283
#     4  10  19  30  48  73  98 124 155 190 226 270
#     4   9  18  33  53  77 104 127 144 171 218 274
#     4   9  16  25  39  59  82 112 153 197 235 273
#     4   9  18  31  45  62  87 120 157 196 235 272
#     4   9  17  29  48  71  92 117 151 186 219 265
#     4   9  18  32  48  65  89 125 166 203 238 276
#     4   9  16  27  41  61  92 123 150 184 234 289
#
# _framework density 16.869721999999999
#
# number of rings (size 3 to 8) (size 9 to 14) (size 15 to 20)
#    0.000    2.875    0.000    1.500    0.000    7.250 
#    0.000    2.500    0.000    7.500    0.000   12.250 
#    0.000    0.000    0.000    0.000    0.000    0.000 
#
# Total GULP energy -793080.966387 kJ/mol
# GULP energy per Si atom -12391.890100 kJ/mol
# Density = 1.683133 g / cm^3
# Si number density = 16.869722 Si / 1000 Ang^3
#
#
#
# Elastic Constant Matrix: (Units=GPa)
#
#
# Indices 1 2 3 4 5 6 
#
# 1 68.9497 47.1154 44.1252 0.0000 0.0000 0.0000
# 2 47.1154 121.2024 54.7467 0.0000 0.0000 0.0000
# 3 44.1252 54.7467 116.8555 0.0000 0.0000 0.0000
# 4 0.0000 0.0000 0.0000 10.1462 0.0000 0.0000
# 5 0.0000 0.0000 0.0000 0.0000 17.1172 0.0000
# 6 0.0000 0.0000 0.0000 0.0000 0.0000 25.1541
#
#
#
# Elastic Compliance Matrix: (Units=1/GPa)
#
#
# Indices 1 2 3 4 5 6 
#
# 1 0.022237 -0.006154 -0.005514 0.000000 0.000000 0.000000
# 2 -0.006154 0.012168 -0.003377 0.000000 0.000000 0.000000
# 3 -0.005514 -0.003377 0.012222 0.000000 0.000000 0.000000
# 4 0.000000 0.000000 0.000000 0.098559 0.000000 0.000000
# 5 0.000000 0.000000 0.000000 0.000000 0.058421 0.000000
# 6 0.000000 0.000000 0.000000 0.000000 0.000000 0.039755
#
#
# Mechanical properties :
#
#
# Convention : Reuss Voigt Hill
#
# Bulk Modulus (GPa) = 60.46769 66.55358 63.51064
# Shear Modulus (GPa) = 17.92350 21.21819 19.57084
#
# Velocity S-wave (km/s) = 3.26308 3.55035 3.40974
# Velocity P-wave (km/s) = 7.07946 7.50625 7.29597
#
# Compressibility (1/GPa) = 0.01653776
#
# Stress axis : x y z
#
# Youngs Moduli (GPa) = 44.97021 82.18104 81.82100
#
# Poissons Ratio (x) = 0.50572 0.45114
# Poissons Ratio (y) = 0.27673 0.27632
# Poissons Ratio (z) = 0.24796 0.27754
#
# Static dielectric constant tensor:
#      x y z
#    x 2.940660 0.000000 0.000000 
#    y 0.000000 3.070720 0.000000 
#    z 0.000000 0.000000 3.290120 
# 
# 
# High freq. dielectric constant tensor:
#      x y z
#    x 1.628850 0.000000 0.000000 
#    y 0.000000 1.639040 0.000000 
#    z 0.000000 0.000000 1.641020 
# 
# From -- ./inp_files/27149.got.cif
#   From: 2010.03.12/outbox.cif.g09.slc.cpg/sg47_14_cif.got.tgz:27149.got - 2010.04.14 03:12:58.
