data_PCOD8195263
_publ_section_title
;
Structure prediction by ZEFSAII (Michael W. Deem and Ramdas Pophale) SiO2 
 PCOD8195263
Probable space group: P M M M
;
_chemical_formula_sum "Si O2"
_cell_formula_units_Z 48
_cell_length_a 22.029796
_cell_length_b 8.854716
_cell_length_c 18.466988
_cell_angle_alpha 90.000000
_cell_angle_beta 90.000000
_cell_angle_gamma 90.000000
_cell_volume 3602.310790
_symmetry_space_group_name_H-M "P M M M"
_symmetry_group_IT_number 47
_symmetry_cell_setting 'orthorhombic'
loop_
_space_group_symop_operation_xyz
x,y,z
-x,-y,z
x,-y,-z
-x,y,-z
-x,-y,-z
x,y,-z
-x,y,z
x,-y,z
loop_
_atom_site_type_symbol
_atom_site_label
_atom_site_fract_x
_atom_site_fract_y
_atom_site_fract_z
Si Si1 0.000000 0.170397 0.413571
Si Si2 0.571831 0.172148 0.500000
Si Si3 0.429552 0.179488 0.766561
Si Si4 0.636667 0.321592 0.633958
Si Si5 0.879443 0.669702 0.413921
Si Si6 0.428020 0.169112 0.076497
Si Si7 0.756455 0.175399 0.414982
O O1 0.940388 0.253851 0.382874
O O2 0.000000 0.172367 0.500000
O O3 0.000000 0.000000 0.384265
O O4 0.500000 0.179671 0.500000
O O5 0.595700 0.252060 0.571300
O O6 0.595526 0.000000 0.500000
O O7 0.500000 0.217846 0.752315
O O8 0.388808 0.269704 0.710654
O O9 0.407799 0.240651 0.846506
O O10 0.419112 0.000000 0.759363
O O11 0.634394 0.500000 0.627209
O O12 0.705628 0.266419 0.628218
O O13 0.882275 0.668316 0.500000
O O14 0.874651 0.500000 0.383402
O O15 0.821525 0.765188 0.387893
O O16 0.500000 0.162078 0.078980
O O17 0.401986 0.000000 0.073784
O O18 0.407489 0.251289 0.000000
O O19 0.747104 0.205591 0.500000
O O20 0.751562 0.000000 0.396120
#
# Coordination Sequence:
#
# PCOD8195263 Si02
#       7
#     4   4   8   8   8   8   8
#     4   9  15  23  35  53  75  97 121 145 178 221
#     4  11  23  37  49  57  67  88 121 160 201 241
#     4   9  17  29  44  60  78  99 122 151 189 231
#     4  12  23  32  43  57  75  96 123 158 196 235
#     4   9  16  25  38  55  75  94 116 148 188 226
#     4   7  10  19  38  62  81  95 115 144 177 216
#     4  10  19  31  45  56  69  92 124 158 193 232
#
# _framework density 13.324780000000001
#
# number of rings (size 3 to 8) (size 9 to 14) (size 15 to 20)
#    0.000    2.500    0.833    5.000    0.000    6.667 
#    0.000    0.000    0.000    0.500    0.000    2.333 
#    0.000    0.000    0.000    0.000    0.000    0.000 
#
# Total GULP energy -594798.199315 kJ/mol
# GULP energy per Si atom -12391.629152 kJ/mol
# Density = 1.329445 g / cm^3
# Si number density = 13.324780 Si / 1000 Ang^3
#
#
#
# Elastic Constant Matrix: (Units=GPa)
#
#
# Indices 1 2 3 4 5 6 
#
# 1 84.6004 44.1389 37.7385 0.0000 0.0000 0.0000
# 2 44.1389 89.8090 36.9464 0.0000 0.0000 0.0000
# 3 37.7385 36.9464 85.8039 0.0000 0.0000 0.0000
# 4 0.0000 0.0000 0.0000 -2.3676 0.0000 0.0000
# 5 0.0000 0.0000 0.0000 0.0000 3.0250 0.0000
# 6 0.0000 0.0000 0.0000 0.0000 0.0000 15.2843
#
#
#
# Elastic Compliance Matrix: (Units=1/GPa)
#
#
# Indices 1 2 3 4 5 6 
#
# 1 0.017398 -0.006566 -0.004825 0.000000 0.000000 0.000000
# 2 -0.006566 0.016010 -0.004006 0.000000 0.000000 0.000000
# 3 -0.004825 -0.004006 0.015501 0.000000 0.000000 0.000000
# 4 0.000000 0.000000 0.000000 -0.422368 0.000000 0.000000
# 5 0.000000 0.000000 0.000000 0.000000 0.330581 0.000000
# 6 0.000000 0.000000 0.000000 0.000000 0.000000 0.065426
#
#
# Mechanical properties :
#
#
# Convention : Reuss Voigt Hill
#
# Bulk Modulus (GPa) = 55.19940 55.31787 55.25863
# Shear Modulus (GPa) = 84.20191 12.61430 48.40810
#
# Velocity S-wave (km/s) = 7.95796 3.08015 6.03393
# Velocity P-wave (km/s) = 11.22296 7.36580 9.49236
#
# Compressibility (1/GPa) = 0.01811614
#
# Stress axis : x y z
#
# Youngs Moduli (GPa) = 57.47710 62.46234 64.51005
#
# Poissons Ratio (x) = 0.41012 0.31126
# Poissons Ratio (y) = 0.37739 0.25841
# Poissons Ratio (z) = 0.27732 0.25021
#
# Static dielectric constant tensor:
#      x y z
#    x 2.622940 0.000000 0.000000 
#    y 0.000000 2.680430 0.000000 
#    z 0.000000 0.000000 2.718030 
# 
# 
# High freq. dielectric constant tensor:
#      x y z
#    x 1.490120 0.000000 0.000000 
#    y 0.000000 1.508350 0.000000 
#    z 0.000000 0.000000 1.469620 
# 
# From -- ./inp_files/9712.got.cif
#   From: 2010.03.12/outbox.cif.g09.slc.cpg/sg47_5_cif.got.tgz:9712.got - 2010.04.14 03:12:58.
