data_PCOD8195859
_publ_section_title
;
Structure prediction by ZEFSAII (Michael W. Deem and Ramdas Pophale) SiO2 
 PCOD8195859
Probable space group: P M M M
;
_chemical_formula_sum "Si O2"
_cell_formula_units_Z 52
_cell_length_a 17.367381
_cell_length_b 9.375634
_cell_length_c 17.819130
_cell_angle_alpha 90.000000
_cell_angle_beta 90.000000
_cell_angle_gamma 90.000000
_cell_volume 2901.492641
_symmetry_space_group_name_H-M "P M M M"
_symmetry_group_IT_number 47
_symmetry_cell_setting 'orthorhombic'
loop_
_space_group_symop_operation_xyz
x,y,z
-x,-y,z
x,-y,-z
-x,y,-z
-x,-y,-z
x,y,-z
-x,y,z
x,-y,z
loop_
_atom_site_type_symbol
_atom_site_label
_atom_site_fract_x
_atom_site_fract_y
_atom_site_fract_z
Si Si1 0.698948 0.166587 0.866334
Si Si2 0.412840 0.168536 0.000000
Si Si3 0.000000 0.340725 0.087329
Si Si4 0.413691 0.331848 0.582891
Si Si5 0.686952 0.157909 0.692533
Si Si6 0.848194 0.670442 0.840573
Si Si7 0.000000 0.831977 0.583874
Si Si8 0.861904 0.837608 0.690803
O O1 0.675516 0.195820 0.780260
O O2 0.775116 0.258884 0.881630
O O3 0.718431 0.000000 0.878167
O O4 0.632564 0.217416 0.924497
O O5 0.500000 0.233589 0.000000
O O6 0.419417 0.000000 0.000000
O O7 0.078192 0.268213 0.115064
O O8 0.000000 0.500000 0.120826
O O9 0.000000 0.339860 0.000000
O O10 0.385793 0.283378 0.500000
O O11 0.500000 0.276030 0.596540
O O12 0.411014 0.500000 0.589141
O O13 0.359899 0.271639 0.646571
O O14 0.774315 0.164290 0.661837
O O15 0.653786 0.000000 0.678160
O O16 0.837898 0.500000 0.842364
O O17 0.863656 0.723878 0.756994
O O18 0.077544 0.784462 0.627828
O O19 0.000000 0.763319 0.500000
O O20 0.000000 0.000000 0.575493
O O21 0.882403 0.000000 0.717263
#
# Coordination Sequence:
#
# PCOD8195859 Si02
#       8
#     8   4   4   8   8   8   4   8
#     4   9  19  35  54  77 105 133 167 211 256 303
#     4   9  18  34  57  80 103 136 172 207 255 313
#     4   9  19  32  45  69 102 131 164 202 242 289
#     4   9  19  35  52  71  98 131 164 201 249 302
#     4   9  18  31  49  76 104 131 166 209 251 296
#     4  10  19  32  53  74  97 134 172 207 247 298
#     4   9  17  30  51  77 102 135 176 214 257 304
#     4   9  18  33  52  73 101 132 165 209 252 294
#
# _framework density 17.921811000000002
#
# number of rings (size 3 to 8) (size 9 to 14) (size 15 to 20)
#    0.000    2.846    0.000    2.308    1.077    4.308 
#    0.000    5.000    0.000    3.692    0.000    0.000 
#    0.000    0.000    0.000    0.000    0.000    0.000 
#
# Total GULP energy -644407.747172 kJ/mol
# GULP energy per Si atom -12392.456676 kJ/mol
# Density = 1.788102 g / cm^3
# Si number density = 17.921811 Si / 1000 Ang^3
#
#
#
# Elastic Constant Matrix: (Units=GPa)
#
#
# Indices 1 2 3 4 5 6 
#
# 1 138.7434 42.5184 81.5698 0.0000 0.0000 0.0000
# 2 42.5184 46.2986 26.7163 0.0000 0.0000 0.0000
# 3 81.5698 26.7163 91.6328 0.0000 0.0000 0.0000
# 4 0.0000 0.0000 0.0000 23.1207 0.0000 0.0000
# 5 0.0000 0.0000 0.0000 0.0000 33.5333 0.0000
# 6 0.0000 0.0000 0.0000 0.0000 0.0000 26.2875
#
#
#
# Elastic Compliance Matrix: (Units=1/GPa)
#
#
# Indices 1 2 3 4 5 6 
#
# 1 0.017539 -0.008533 -0.013125 0.000000 0.000000 0.000000
# 2 -0.008533 0.030119 -0.001185 0.000000 0.000000 0.000000
# 3 -0.013125 -0.001185 0.022942 0.000000 0.000000 0.000000
# 4 0.000000 0.000000 0.000000 0.043251 0.000000 0.000000
# 5 0.000000 0.000000 0.000000 0.000000 0.029821 0.000000
# 6 0.000000 0.000000 0.000000 0.000000 0.000000 0.038041
#
#
# Mechanical properties :
#
#
# Convention : Reuss Voigt Hill
#
# Bulk Modulus (GPa) = 40.13886 64.25376 52.19631
# Shear Modulus (GPa) = 21.21289 24.97966 23.09628
#
# Velocity S-wave (km/s) = 3.44413 3.73743 3.59378
# Velocity P-wave (km/s) = 6.18558 7.38611 6.81234
#
# Compressibility (1/GPa) = 0.02491351
#
# Stress axis : x y z
#
# Youngs Moduli (GPa) = 57.01584 33.20109 43.58760
#
# Poissons Ratio (x) = 0.28331 0.57208
# Poissons Ratio (y) = 0.48653 0.05167
# Poissons Ratio (z) = 0.74833 0.03936
#
# Static dielectric constant tensor:
#      x y z
#    x 3.514160 0.000000 0.000000 
#    y 0.000000 3.135170 0.000000 
#    z 0.000000 0.000000 3.338760 
# 
# 
# High freq. dielectric constant tensor:
#      x y z
#    x 1.700840 0.000000 0.000000 
#    y 0.000000 1.668580 0.000000 
#    z 0.000000 0.000000 1.691590 
# 
# From -- ./inp_files/28570.got.cif
#   From: 2010.03.12/outbox.cif.g09.slc.cpg/sg47_15_cif.got.tgz:28570.got - 2010.04.14 03:12:58.
