data_PCOD8195241
_publ_section_title
;
Structure prediction by ZEFSAII (Michael W. Deem and Ramdas Pophale) SiO2 
 PCOD8195241
Probable space group: P M M M
;
_chemical_formula_sum "Si O2"
_cell_formula_units_Z 48
_cell_length_a 9.707595
_cell_length_b 33.465622
_cell_length_c 7.924010
_cell_angle_alpha 90.000000
_cell_angle_beta 90.000000
_cell_angle_gamma 90.000000
_cell_volume 2574.278714
_symmetry_space_group_name_H-M "P M M M"
_symmetry_group_IT_number 47
_symmetry_cell_setting 'orthorhombic'
loop_
_space_group_symop_operation_xyz
x,y,z
-x,-y,z
x,-y,-z
-x,y,-z
-x,-y,-z
x,y,-z
-x,y,z
x,-y,z
loop_
_atom_site_type_symbol
_atom_site_label
_atom_site_fract_x
_atom_site_fract_y
_atom_site_fract_z
Si Si1 0.656998 0.766873 0.311457
Si Si2 0.835161 0.902351 0.000000
Si Si3 0.158054 0.301397 0.191731
Si Si4 0.152682 0.385668 0.692148
Si Si5 0.338533 0.177393 0.000000
Si Si6 0.343221 0.544913 0.802314
Si Si7 0.836714 0.044734 0.312552
O O1 0.673546 0.785572 0.500000
O O2 0.500000 0.753664 0.278070
O O3 0.749681 0.727373 0.305114
O O4 0.701662 0.798514 0.169294
O O5 0.783089 0.925907 0.166537
O O6 0.758258 0.860694 0.000000
O O7 0.000000 0.895970 0.000000
O O8 0.209634 0.347292 0.206212
O O9 0.000000 0.298595 0.253772
O O10 0.173507 0.287198 0.000000
O O11 0.146795 0.371997 0.500000
O O12 0.248834 0.423922 0.706625
O O13 0.000000 0.397271 0.758477
O O14 0.500000 0.165705 0.000000
O O15 0.500000 0.552080 0.745891
O O16 0.297715 0.500000 0.752699
O O17 0.326846 0.551574 0.000000
O O18 0.789151 0.059415 0.500000
O O19 0.000000 0.043341 0.304986
O O20 0.779341 0.000000 0.279202
#
# Coordination Sequence:
#
# PCOD8195241 Si02
#       7
#     8   4   8   8   4   8   8
#     4  10  21  38  59  79 101 136 180 221 265 319
#     4  10  19  30  50  78 104 134 180 225 261 314
#     4  10  20  35  57  82 107 134 167 211 264 316
#     4  10  21  35  51  76 108 137 166 202 250 309
#     4  10  22  39  53  73 108 144 177 219 268 322
#     4   9  19  36  55  74  98 131 172 214 253 296
#     4   8  14  26  46  74 107 139 173 220 274 318
#
# _framework density 18.646000999999998
#
# number of rings (size 3 to 8) (size 9 to 14) (size 15 to 20)
#    0.000    2.500    0.833    2.250    0.000    6.000 
#    0.000    2.500    0.000    1.000    0.000    1.167 
#    0.000    0.000    0.000    0.000    0.000    0.000 
#
# Total GULP energy -595071.818709 kJ/mol
# GULP energy per Si atom -12397.329556 kJ/mol
# Density = 1.860356 g / cm^3
# Si number density = 18.646001 Si / 1000 Ang^3
#
#
#
# Elastic Constant Matrix: (Units=GPa)
#
#
# Indices 1 2 3 4 5 6 
#
# 1 55.0709 56.8226 34.8664 0.0000 0.0000 0.0000
# 2 56.8226 127.7336 63.2932 0.0000 0.0000 0.0000
# 3 34.8664 63.2932 115.8872 0.0000 0.0000 0.0000
# 4 0.0000 0.0000 0.0000 22.1831 0.0000 0.0000
# 5 0.0000 0.0000 0.0000 0.0000 17.6830 0.0000
# 6 0.0000 0.0000 0.0000 0.0000 0.0000 -39.8182
#
#
#
# Elastic Compliance Matrix: (Units=1/GPa)
#
#
# Indices 1 2 3 4 5 6 
#
# 1 0.034176 -0.013859 -0.002713 0.000000 0.000000 0.000000
# 2 -0.013859 0.016354 -0.004762 0.000000 0.000000 0.000000
# 3 -0.002713 -0.004762 0.012046 0.000000 0.000000 0.000000
# 4 0.000000 0.000000 0.000000 0.045079 0.000000 0.000000
# 5 0.000000 0.000000 0.000000 0.000000 0.056552 0.000000
# 6 0.000000 0.000000 0.000000 0.000000 0.000000 -0.025114
#
#
# Mechanical properties :
#
#
# Convention : Reuss Voigt Hill
#
# Bulk Modulus (GPa) = 50.23224 67.62844 58.93034
# Shear Modulus (GPa) = 26.53986 9.59022 18.06504
#
# Velocity S-wave (km/s) = 3.77683 2.27035 3.11600
# Velocity P-wave (km/s) = 6.78363 6.57427 6.67977
#
# Compressibility (1/GPa) = 0.01990753
#
# Stress axis : x y z
#
# Youngs Moduli (GPa) = 29.26060 61.14887 83.01342
#
# Poissons Ratio (x) = 0.84745 0.22523
# Poissons Ratio (y) = 0.40551 0.39532
# Poissons Ratio (z) = 0.07939 0.29120
#
# Static dielectric constant tensor:
#      x y z
#    x 3.225040 0.000000 0.000000 
#    y 0.000000 3.316740 0.000000 
#    z 0.000000 0.000000 3.666310 
# 
# 
# High freq. dielectric constant tensor:
#      x y z
#    x 1.696990 0.000000 0.000000 
#    y 0.000000 1.714680 0.000000 
#    z 0.000000 0.000000 1.738240 
# 
# From -- ./inp_files/2577.got.cif
#   From: 2010.03.12/outbox.cif.g09.slc.cpg/sg47_2_cif.got.tgz:2577.got - 2010.04.14 03:12:58.
