data_PCOD8195967
_publ_section_title
;
Structure prediction by ZEFSAII (Michael W. Deem and Ramdas Pophale) SiO2 
 PCOD8195967
Probable space group: P M M M
;
_chemical_formula_sum "Si O2"
_cell_formula_units_Z 52
_cell_length_a 9.132797
_cell_length_b 25.378579
_cell_length_c 12.371360
_cell_angle_alpha 90.000000
_cell_angle_beta 90.000000
_cell_angle_gamma 90.000000
_cell_volume 2867.401781
_symmetry_space_group_name_H-M "P M M M"
_symmetry_group_IT_number 47
_symmetry_cell_setting 'orthorhombic'
loop_
_space_group_symop_operation_xyz
x,y,z
-x,-y,z
x,-y,-z
-x,y,-z
-x,-y,-z
x,y,-z
-x,y,z
x,-y,z
loop_
_atom_site_type_symbol
_atom_site_label
_atom_site_fract_x
_atom_site_fract_y
_atom_site_fract_z
Si Si1 0.172105 0.730744 0.879106
Si Si2 0.669280 0.561832 0.121697
Si Si3 0.175774 0.188065 0.500000
Si Si4 0.173609 0.688602 0.500000
Si Si5 0.341592 0.000000 0.375657
Si Si6 0.666015 0.833189 0.880723
Si Si7 0.173755 0.360560 0.274957
Si Si8 0.670999 0.886978 0.332177
O O1 0.236230 0.785441 0.838502
O O2 0.230929 0.685879 0.801366
O O3 0.000000 0.735391 0.871897
O O4 0.226158 0.717827 0.000000
O O5 0.500000 0.577017 0.133728
O O6 0.693202 0.500000 0.134426
O O7 0.756441 0.587330 0.222414
O O8 0.723659 0.578943 0.000000
O O9 0.227227 0.249923 0.500000
O O10 0.239906 0.158118 0.395326
O O11 0.000000 0.184304 0.500000
O O12 0.228776 0.655193 0.604477
O O13 0.000000 0.690884 0.500000
O O14 0.258233 0.945210 0.348901
O O15 0.500000 0.000000 0.314702
O O16 0.372126 0.000000 0.500000
O O17 0.500000 0.812903 0.883164
O O18 0.686819 0.879821 0.796068
O O19 0.715232 0.852767 0.000000
O O20 0.000000 0.367751 0.273603
O O21 0.500000 0.885225 0.369425
#
# Coordination Sequence:
#
# PCOD8195967 Si02
#       8
#     8   8   4   4   4   8   8   8
#     4   9  17  29  47  71  98 129 165 204 248 295
#     4   9  19  36  56  78 104 131 160 201 253 297
#     4  11  21  34  54  76  99 128 165 206 249 292
#     4   9  20  35  49  71 105 139 165 198 245 292
#     4   9  16  30  51  71  93 124 161 200 251 303
#     4   9  18  31  47  70  99 129 163 201 239 289
#     4  10  19  33  52  73 100 133 170 206 240 284
#     4  10  19  33  52  72  97 129 163 201 248 298
#
# _framework density 18.134885000000001
#
# number of rings (size 3 to 8) (size 9 to 14) (size 15 to 20)
#    0.000    2.538    0.769    2.077    0.000    3.692 
#    0.000    5.769    0.000    4.615    0.000    0.000 
#    0.000    3.692    0.000    0.000    0.000    0.000 
#
# Total GULP energy -644294.480775 kJ/mol
# GULP energy per Si atom -12390.278476 kJ/mol
# Density = 1.809361 g / cm^3
# Si number density = 18.134885 Si / 1000 Ang^3
#
#
#
# Elastic Constant Matrix: (Units=GPa)
#
#
# Indices 1 2 3 4 5 6 
#
# 1 21.9369 26.2681 33.3214 0.0000 0.0000 0.0000
# 2 26.2681 102.5160 70.7217 0.0000 0.0000 0.0000
# 3 33.3214 70.7217 121.3262 0.0000 0.0000 0.0000
# 4 0.0000 0.0000 0.0000 29.5114 0.0000 0.0000
# 5 0.0000 0.0000 0.0000 0.0000 22.4219 0.0000
# 6 0.0000 0.0000 0.0000 0.0000 0.0000 15.2176
#
#
#
# Elastic Compliance Matrix: (Units=1/GPa)
#
#
# Indices 1 2 3 4 5 6 
#
# 1 0.083188 -0.009290 -0.017432 0.000000 0.000000 0.000000
# 2 -0.009290 0.017353 -0.007564 0.000000 0.000000 0.000000
# 3 -0.017432 -0.007564 0.017439 0.000000 0.000000 0.000000
# 4 0.000000 0.000000 0.000000 0.033885 0.000000 0.000000
# 5 0.000000 0.000000 0.000000 0.000000 0.044599 0.000000
# 6 0.000000 0.000000 0.000000 0.000000 0.000000 0.065714
#
#
# Mechanical properties :
#
#
# Convention : Reuss Voigt Hill
#
# Bulk Modulus (GPa) = 20.23943 56.26684 38.25313
# Shear Modulus (GPa) = 14.40018 21.12803 17.76411
#
# Velocity S-wave (km/s) = 2.82096 3.41698 3.13318
# Velocity P-wave (km/s) = 4.66853 6.83095 5.85052
#
# Compressibility (1/GPa) = 0.04940851
#
# Stress axis : x y z
#
# Youngs Moduli (GPa) = 12.02096 57.62743 57.34400
#
# Poissons Ratio (x) = 0.53537 0.99961
# Poissons Ratio (y) = 0.11168 0.43373
# Poissons Ratio (z) = 0.20955 0.43587
#
# Static dielectric constant tensor:
#      x y z
#    x 3.138660 0.000000 0.000000 
#    y 0.000000 3.437810 0.000000 
#    z 0.000000 0.000000 3.612730 
# 
# 
# High freq. dielectric constant tensor:
#      x y z
#    x 1.674770 0.000000 0.000000 
#    y 0.000000 1.696880 0.000000 
#    z 0.000000 0.000000 1.709930 
# 
# From -- ./inp_files/15577.got.cif
#   From: 2010.03.12/outbox.cif.g09.slc.cpg/sg47_8_cif.got.tgz:15577.got - 2010.04.14 03:12:58.
