data_PCOD8196168
_publ_section_title
;
Structure prediction by ZEFSAII (Michael W. Deem and Ramdas Pophale) SiO2 
 PCOD8196168
Probable space group: P M M M
;
_chemical_formula_sum "Si O2"
_cell_formula_units_Z 52
_cell_length_a 8.965596
_cell_length_b 28.065901
_cell_length_c 12.016140
_cell_angle_alpha 90.000000
_cell_angle_beta 90.000000
_cell_angle_gamma 90.000000
_cell_volume 3023.591625
_symmetry_space_group_name_H-M "P M M M"
_symmetry_group_IT_number 47
_symmetry_cell_setting 'orthorhombic'
loop_
_space_group_symop_operation_xyz
x,y,z
-x,-y,z
x,-y,-z
-x,y,-z
-x,-y,-z
x,y,-z
-x,y,z
x,-y,z
loop_
_atom_site_type_symbol
_atom_site_label
_atom_site_fract_x
_atom_site_fract_y
_atom_site_fract_z
Si Si1 0.177302 0.635881 0.240153
Si Si2 0.824462 0.728728 0.371305
Si Si3 0.663677 0.000000 0.867690
Si Si4 0.835941 0.349602 0.000000
Si Si5 0.676567 0.199781 0.215958
Si Si6 0.322621 0.898331 0.124746
Si Si7 0.671218 0.554323 0.371625
Si Si8 0.833877 0.762101 0.000000
O O1 0.237197 0.682122 0.306807
O O2 0.246289 0.634660 0.114613
O O3 0.223007 0.587617 0.300066
O O4 0.000000 0.639259 0.235029
O O5 0.782261 0.722689 0.500000
O O6 0.745335 0.776369 0.325792
O O7 0.000000 0.734836 0.353589
O O8 0.744858 0.050173 0.833881
O O9 0.500000 0.000000 0.812193
O O10 0.648980 0.000000 0.000000
O O11 0.853553 0.293662 0.000000
O O12 0.000000 0.373305 0.000000
O O13 0.500000 0.206264 0.216775
O O14 0.722011 0.143686 0.210168
O O15 0.741637 0.224818 0.108132
O O16 0.500000 0.903783 0.118656
O O17 0.263796 0.885404 0.000000
O O18 0.714059 0.560873 0.500000
O O19 0.500000 0.568582 0.351530
O O20 0.699259 0.500000 0.334595
O O21 0.000000 0.785499 0.000000
#
# Coordination Sequence:
#
# PCOD8196168 Si02
#       8
#     8   8   4   4   8   8   8   4
#     4  10  19  34  55  77  98 126 164 202 235 278
#     4  10  21  36  52  71  97 131 169 204 243 296
#     4   7  10  18  34  56  87 126 157 185 234 291
#     4   9  18  33  52  72  98 129 162 196 233 278
#     4  11  20  30  47  74 103 127 161 207 249 291
#     4   8  13  22  37  62  95 125 155 194 239 287
#     4   9  19  36  55  75 101 131 162 200 247 291
#     4  11  19  33  51  67  97 139 173 198 234 289
#
# _framework density 17.198090000000001
#
# number of rings (size 3 to 8) (size 9 to 14) (size 15 to 20)
#    0.000    2.538    2.308    2.538    0.000    2.154 
#    0.000    1.538    0.000    2.308    0.000    3.231 
#    0.000    4.308    0.000    0.000    0.000    0.000 
#
# Total GULP energy -644334.061209 kJ/mol
# GULP energy per Si atom -12391.039639 kJ/mol
# Density = 1.715895 g / cm^3
# Si number density = 17.198090 Si / 1000 Ang^3
#
#
#
# Elastic Constant Matrix: (Units=GPa)
#
#
# Indices 1 2 3 4 5 6 
#
# 1 28.2298 23.1540 29.0321 0.0000 0.0000 0.0000
# 2 23.1540 121.9009 60.8793 0.0000 0.0000 0.0000
# 3 29.0321 60.8793 108.1964 0.0000 0.0000 0.0000
# 4 0.0000 0.0000 0.0000 32.9245 0.0000 0.0000
# 5 0.0000 0.0000 0.0000 0.0000 26.5311 0.0000
# 6 0.0000 0.0000 0.0000 0.0000 0.0000 3.4884
#
#
#
# Elastic Compliance Matrix: (Units=1/GPa)
#
#
# Indices 1 2 3 4 5 6 
#
# 1 0.050228 -0.003907 -0.011279 0.000000 0.000000 0.000000
# 2 -0.003907 0.011714 -0.005542 0.000000 0.000000 0.000000
# 3 -0.011279 -0.005542 0.015388 0.000000 0.000000 0.000000
# 4 0.000000 0.000000 0.000000 0.030372 0.000000 0.000000
# 5 0.000000 0.000000 0.000000 0.000000 0.037692 0.000000
# 6 0.000000 0.000000 0.000000 0.000000 0.000000 0.286665
#
#
# Mechanical properties :
#
#
# Convention : Reuss Voigt Hill
#
# Bulk Modulus (GPa) = 27.87738 53.82866 40.85302
# Shear Modulus (GPa) = 10.29923 22.27291 16.28607
#
# Velocity S-wave (km/s) = 2.44981 3.60263 3.08063
# Velocity P-wave (km/s) = 4.92411 6.97656 6.03818
#
# Compressibility (1/GPa) = 0.03587137
#
# Stress axis : x y z
#
# Youngs Moduli (GPa) = 19.90919 85.37117 64.98780
#
# Poissons Ratio (x) = 0.33358 0.73300
# Poissons Ratio (y) = 0.07779 0.36019
# Poissons Ratio (z) = 0.22456 0.47316
#
# Static dielectric constant tensor:
#      x y z
#    x 2.937500 0.000000 0.000000 
#    y 0.000000 3.505320 0.000000 
#    z 0.000000 0.000000 3.157170 
# 
# 
# High freq. dielectric constant tensor:
#      x y z
#    x 1.631910 0.000000 0.000000 
#    y 0.000000 1.673110 0.000000 
#    z 0.000000 0.000000 1.641490 
# 
# From -- ./inp_files/15711.got.cif
#   From: 2010.03.12/outbox.cif.g09.slc.cpg/sg47_8_cif.got.tgz:15711.got - 2010.04.14 03:12:58.
