data_PCOD8196287
_publ_section_title
;
Structure prediction by ZEFSAII (Michael W. Deem and Ramdas Pophale) SiO2 
 PCOD8196287
Probable space group: P M M M
;
_chemical_formula_sum "Si O2"
_cell_formula_units_Z 56
_cell_length_a 18.911210
_cell_length_b 8.681719
_cell_length_c 17.402203
_cell_angle_alpha 90.000000
_cell_angle_beta 90.000000
_cell_angle_gamma 90.000000
_cell_volume 2857.125207
_symmetry_space_group_name_H-M "P M M M"
_symmetry_group_IT_number 47
_symmetry_cell_setting 'orthorhombic'
loop_
_space_group_symop_operation_xyz
x,y,z
-x,-y,z
x,-y,-z
-x,y,-z
-x,-y,-z
x,y,-z
-x,y,z
x,-y,z
loop_
_atom_site_type_symbol
_atom_site_label
_atom_site_fract_x
_atom_site_fract_y
_atom_site_fract_z
Si Si1 0.834057 0.826669 0.913206
Si Si2 0.301920 0.681850 0.300186
Si Si3 0.676935 0.176960 0.136897
Si Si4 0.578480 0.682978 0.585877
Si Si5 0.919148 0.317964 0.500000
Si Si6 0.420022 0.816628 0.000000
Si Si7 0.153700 0.820555 0.352183
Si Si8 0.919598 0.325162 0.214791
O O1 0.750503 0.806831 0.907121
O O2 0.872405 0.704439 0.859602
O O3 0.855954 0.000000 0.888843
O O4 0.857475 0.792633 0.000000
O O5 0.292214 0.500000 0.308564
O O6 0.322759 0.721153 0.213320
O O7 0.364145 0.747673 0.354528
O O8 0.230128 0.761584 0.326669
O O9 0.617963 0.242234 0.077921
O O10 0.662050 0.000000 0.159966
O O11 0.598143 0.740074 0.500000
O O12 0.500000 0.743350 0.608415
O O13 0.578632 0.500000 0.588063
O O14 0.922279 0.500000 0.500000
O O15 0.875429 0.264325 0.426613
O O16 0.000000 0.252237 0.500000
O O17 0.500000 0.754226 0.000000
O O18 0.416053 0.000000 0.000000
O O19 0.099682 0.790065 0.283093
O O20 0.158000 0.000000 0.370005
O O21 0.906410 0.500000 0.242641
O O22 0.000000 0.296753 0.191008
#
# Coordination Sequence:
#
# PCOD8196287 Si02
#       8
#     8   8   8   8   4   4   8   8
#     4  10  20  36  59  84 113 154 200 244 290 350
#     4  11  22  35  58  90 120 154 198 247 298 352
#     4  10  19  35  57  82 114 153 197 243 291 348
#     4   8  16  33  56  82 113 151 193 234 281 340
#     4  11  25  45  67  91 122 159 200 249 303 360
#     4   9  18  34  59  89 120 159 204 246 296 362
#     4  12  25  41  62  90 123 160 201 246 296 357
#     4  11  24  41  61  87 119 154 195 247 301 353
#
# _framework density 19.600121000000001
#
# number of rings (size 3 to 8) (size 9 to 14) (size 15 to 20)
#    0.000    1.714    2.143    3.214    1.000    4.571 
#    0.000    1.786    0.000    1.714    0.000    4.000 
#    0.000    0.000    0.000    0.000    0.000    0.000 
#
# Total GULP energy -694474.098313 kJ/mol
# GULP energy per Si atom -12401.323184 kJ/mol
# Density = 1.955551 g / cm^3
# Si number density = 19.600121 Si / 1000 Ang^3
#
#
#
# Elastic Constant Matrix: (Units=GPa)
#
#
# Indices 1 2 3 4 5 6 
#
# 1 113.4880 29.3407 59.2940 0.0000 0.0000 0.0000
# 2 29.3407 58.1739 24.6068 0.0000 0.0000 0.0000
# 3 59.2940 24.6068 130.3196 0.0000 0.0000 0.0000
# 4 0.0000 0.0000 0.0000 110.7905 0.0000 0.0000
# 5 0.0000 0.0000 0.0000 0.0000 42.2944 0.0000
# 6 0.0000 0.0000 0.0000 0.0000 0.0000 16.0147
#
#
#
# Elastic Compliance Matrix: (Units=1/GPa)
#
#
# Indices 1 2 3 4 5 6 
#
# 1 0.012444 -0.004218 -0.004865 0.000000 0.000000 0.000000
# 2 -0.004218 0.020112 -0.001878 0.000000 0.000000 0.000000
# 3 -0.004865 -0.001878 0.010242 0.000000 0.000000 0.000000
# 4 0.000000 0.000000 0.000000 0.009026 0.000000 0.000000
# 5 0.000000 0.000000 0.000000 0.000000 0.023644 0.000000
# 6 0.000000 0.000000 0.000000 0.000000 0.000000 0.062442
#
#
# Mechanical properties :
#
#
# Convention : Reuss Voigt Hill
#
# Bulk Modulus (GPa) = 47.90685 58.71828 53.31257
# Shear Modulus (GPa) = 29.97746 46.40260 38.19003
#
# Velocity S-wave (km/s) = 3.91506 4.87094 4.41892
# Velocity P-wave (km/s) = 6.70315 7.85225 7.30034
#
# Compressibility (1/GPa) = 0.02087384
#
# Stress axis : x y z
#
# Youngs Moduli (GPa) = 80.35909 49.72193 97.63900
#
# Poissons Ratio (x) = 0.20974 0.47506
# Poissons Ratio (y) = 0.33898 0.18338
# Poissons Ratio (z) = 0.39098 0.09339
#
# Static dielectric constant tensor:
#      x y z
#    x 3.794250 0.000000 0.000000 
#    y 0.000000 3.392700 0.000000 
#    z 0.000000 0.000000 2.801220 
# 
# 
# High freq. dielectric constant tensor:
#      x y z
#    x 1.771200 0.000000 0.000000 
#    y 0.000000 1.742430 0.000000 
#    z 0.000000 0.000000 1.774840 
# 
# From -- ./inp_files/25244.got.cif
#   From: 2010.03.12/outbox.cif.g09.slc.cpg/sg47_13_cif.got.tgz:25244.got - 2010.04.14 03:12:58.
