data_PCOD8196551
_publ_section_title
;
Structure prediction by ZEFSAII (Michael W. Deem and Ramdas Pophale) SiO2 
 PCOD8196551
Probable space group: P M M M
;
_chemical_formula_sum "Si O2"
_cell_formula_units_Z 60
_cell_length_a 20.901603
_cell_length_b 9.496443
_cell_length_c 18.760058
_cell_angle_alpha 90.000000
_cell_angle_beta 90.000000
_cell_angle_gamma 90.000000
_cell_volume 3723.700449
_symmetry_space_group_name_H-M "P M M M"
_symmetry_group_IT_number 47
_symmetry_cell_setting 'orthorhombic'
loop_
_space_group_symop_operation_xyz
x,y,z
-x,-y,z
x,-y,-z
-x,y,-z
-x,-y,-z
x,y,-z
-x,y,z
x,-y,z
loop_
_atom_site_type_symbol
_atom_site_label
_atom_site_fract_x
_atom_site_fract_y
_atom_site_fract_z
Si Si1 0.761282 0.838838 0.579332
Si Si2 0.316126 0.838446 0.802047
Si Si3 0.000000 0.667621 0.080211
Si Si4 0.184673 0.840256 0.276260
Si Si5 0.126102 0.335401 0.840139
Si Si6 0.365390 0.337380 0.581419
Si Si7 0.743947 0.664158 0.918634
Si Si8 0.572484 0.838155 0.301555
O O1 0.790339 0.816023 0.500000
O O2 0.815898 0.808221 0.638657
O O3 0.702986 0.734428 0.592648
O O4 0.736706 0.000000 0.588687
O O5 0.256788 0.810598 0.749666
O O6 0.309174 0.746539 0.873378
O O7 0.380500 0.790220 0.761937
O O8 0.320084 0.000000 0.825808
O O9 0.937498 0.722332 0.121708
O O10 0.000000 0.500000 0.076382
O O11 0.000000 0.729366 0.000000
O O12 0.134386 0.740531 0.236076
O O13 0.164202 0.000000 0.260095
O O14 0.121089 0.500000 0.824497
O O15 0.185021 0.298198 0.891662
O O16 0.388351 0.323095 0.500000
O O17 0.359589 0.500000 0.604309
O O18 0.417662 0.259483 0.629592
O O19 0.730072 0.500000 0.910009
O O20 0.738654 0.713309 0.000000
O O21 0.500000 0.819383 0.274485
O O22 0.586844 0.000000 0.322778
#
# Coordination Sequence:
#
# PCOD8196551 Si02
#       8
#     8   8   4   8   8   8   8   8
#     4   9  16  28  47  67  89 120 155 189 228 274
#     4   9  17  30  46  66  88 111 143 185 231 271
#     4   9  16  28  47  69  96 129 162 190 215 253
#     4   9  16  28  45  66  92 118 147 188 231 269
#     4   9  17  28  45  69  94 124 156 186 218 258
#     4  10  20  31  44  65  93 121 149 186 231 275
#     4   9  17  29  46  69  93 116 145 180 220 268
#     4  10  20  34  50  65  84 116 157 193 226 273
#
# _framework density 16.113004
#
# number of rings (size 3 to 8) (size 9 to 14) (size 15 to 20)
#    0.000    2.733    1.333    0.800    0.000    4.267 
#    0.000    1.667    0.000    2.000    0.000    3.267 
#    0.000    3.733    0.000    0.000    0.000    0.000 
#
# Total GULP energy -743945.915825 kJ/mol
# GULP energy per Si atom -12399.098597 kJ/mol
# Density = 1.607633 g / cm^3
# Si number density = 16.113004 Si / 1000 Ang^3
#
#
#
# Elastic Constant Matrix: (Units=GPa)
#
#
# Indices 1 2 3 4 5 6 
#
# 1 85.5362 38.0541 59.6673 0.0000 0.0000 0.0000
# 2 38.0541 61.8969 52.7139 0.0000 0.0000 0.0000
# 3 59.6673 52.7139 128.0930 0.0000 0.0000 0.0000
# 4 0.0000 0.0000 0.0000 29.2105 0.0000 0.0000
# 5 0.0000 0.0000 0.0000 0.0000 26.0759 0.0000
# 6 0.0000 0.0000 0.0000 0.0000 0.0000 18.2301
#
#
#
# Elastic Compliance Matrix: (Units=1/GPa)
#
#
# Indices 1 2 3 4 5 6 
#
# 1 0.018794 -0.006310 -0.006157 0.000000 0.000000 0.000000
# 2 -0.006310 0.026992 -0.008169 0.000000 0.000000 0.000000
# 3 -0.006157 -0.008169 0.014037 0.000000 0.000000 0.000000
# 4 0.000000 0.000000 0.000000 0.034234 0.000000 0.000000
# 5 0.000000 0.000000 0.000000 0.000000 0.038350 0.000000
# 6 0.000000 0.000000 0.000000 0.000000 0.000000 0.054854
#
#
# Mechanical properties :
#
#
# Convention : Reuss Voigt Hill
#
# Bulk Modulus (GPa) = 53.90928 64.04407 58.97667
# Shear Modulus (GPa) = 21.30230 23.04270 22.17250
#
# Velocity S-wave (km/s) = 3.63995 3.78573 3.71356
# Velocity P-wave (km/s) = 7.15509 7.67737 7.42083
#
# Compressibility (1/GPa) = 0.01854968
#
# Stress axis : x y z
#
# Youngs Moduli (GPa) = 53.20971 37.04773 71.24222
#
# Poissons Ratio (x) = 0.23378 0.43867
# Poissons Ratio (y) = 0.33577 0.58195
# Poissons Ratio (z) = 0.32763 0.30263
#
# Static dielectric constant tensor:
#      x y z
#    x 2.823690 0.000000 0.000000 
#    y 0.000000 3.034270 0.000000 
#    z 0.000000 0.000000 3.214000 
# 
# 
# High freq. dielectric constant tensor:
#      x y z
#    x 1.584550 0.000000 0.000000 
#    y 0.000000 1.614560 0.000000 
#    z 0.000000 0.000000 1.621360 
# 
# From -- ./inp_files/31371.got.cif
#   From: 2010.03.12/outbox.cif.g09.slc.cpg/sg47_16_cif.got.tgz:31371.got - 2010.04.14 03:12:58.
