data_PCOD8196428
_publ_section_title
;
Structure prediction by ZEFSAII (Michael W. Deem and Ramdas Pophale) SiO2 
 PCOD8196428
Probable space group: P M M M
;
_chemical_formula_sum "Si O2"
_cell_formula_units_Z 48
_cell_length_a 17.704593
_cell_length_b 22.763822
_cell_length_c 9.193921
_cell_angle_alpha 90.000000
_cell_angle_beta 90.000000
_cell_angle_gamma 90.000000
_cell_volume 3705.372689
_symmetry_space_group_name_H-M "P M M M"
_symmetry_group_IT_number 47
_symmetry_cell_setting 'orthorhombic'
loop_
_space_group_symop_operation_xyz
x,y,z
-x,-y,z
x,-y,-z
-x,y,-z
-x,-y,-z
x,y,-z
-x,y,z
x,-y,z
loop_
_atom_site_type_symbol
_atom_site_label
_atom_site_fract_x
_atom_site_fract_y
_atom_site_fract_z
Si Si1 0.294279 0.431115 0.331287
Si Si2 0.409970 0.000000 0.836030
Si Si3 0.412040 0.645663 0.830711
Si Si4 0.409863 0.112831 0.663160
Si Si5 0.145987 0.569903 0.835360
Si Si6 0.589745 0.223014 0.161230
Si Si7 0.000000 0.429919 0.335040
O O1 0.283461 0.415949 0.500000
O O2 0.305836 0.500000 0.306474
O O3 0.367898 0.399549 0.269704
O O4 0.221009 0.407668 0.245498
O O5 0.378924 0.057786 0.755020
O O6 0.500000 0.000000 0.835411
O O7 0.378710 0.000000 0.000000
O O8 0.500000 0.636527 0.797671
O O9 0.386194 0.711797 0.787964
O O10 0.394827 0.633556 0.000000
O O11 0.378638 0.107325 0.500000
O O12 0.500000 0.112995 0.664331
O O13 0.377968 0.173520 0.730525
O O14 0.143806 0.500000 0.836121
O O15 0.073542 0.594379 0.748671
O O16 0.144991 0.594411 0.000000
O O17 0.500000 0.219996 0.155781
O O18 0.621677 0.210112 0.000000
O O19 0.000000 0.500000 0.336069
O O20 0.000000 0.405873 0.500000
#
# Coordination Sequence:
#
# PCOD8196428 Si02
#       7
#     8   4   8   8   8   8   4
#     4  10  20  31  41  54  72  91 111 140 180 220
#     4   9  15  21  29  41  59  83 105 123 149 188
#     4   9  18  31  44  55  66  84 113 147 181 219
#     4   9  15  21  30  45  63  80  99 125 157 193
#     4   9  16  26  40  56  73  93 115 135 158 195
#     4   8  14  25  38  49  61  78 102 132 166 204
#     4   9  15  23  37  57  79  97 111 129 155 190
#
# _framework density 12.954162
#
# number of rings (size 3 to 8) (size 9 to 14) (size 15 to 20)
#    0.000    3.000    0.000    3.000    0.000    8.333 
#    0.000    3.333    0.000    0.000    0.000    0.000 
#    0.000    0.000    0.000    0.000    0.000    0.000 
#
# Total GULP energy -595037.292753 kJ/mol
# GULP energy per Si atom -12396.610266 kJ/mol
# Density = 1.292468 g / cm^3
# Si number density = 12.954162 Si / 1000 Ang^3
#
#
#
# Elastic Constant Matrix: (Units=GPa)
#
#
# Indices 1 2 3 4 5 6 
#
# 1 48.0595 27.0528 40.5025 0.0000 0.0000 0.0000
# 2 27.0528 53.3911 46.8969 0.0000 0.0000 0.0000
# 3 40.5025 46.8969 119.5007 0.0000 0.0000 0.0000
# 4 0.0000 0.0000 0.0000 19.4016 0.0000 0.0000
# 5 0.0000 0.0000 0.0000 0.0000 18.6040 0.0000
# 6 0.0000 0.0000 0.0000 0.0000 0.0000 0.1502
#
#
#
# Elastic Compliance Matrix: (Units=1/GPa)
#
#
# Indices 1 2 3 4 5 6 
#
# 1 0.032495 -0.010363 -0.006947 0.000000 0.000000 0.000000
# 2 -0.010363 0.031887 -0.009001 0.000000 0.000000 0.000000
# 3 -0.006947 -0.009001 0.014255 0.000000 0.000000 0.000000
# 4 0.000000 0.000000 0.000000 0.051542 0.000000 0.000000
# 5 0.000000 0.000000 0.000000 0.000000 0.053752 0.000000
# 6 0.000000 0.000000 0.000000 0.000000 0.000000 6.655746
#
#
# Mechanical properties :
#
#
# Convention : Reuss Voigt Hill
#
# Bulk Modulus (GPa) = 38.43960 49.98397 44.21178
# Shear Modulus (GPa) = 0.72454 14.73114 7.72784
#
# Velocity S-wave (km/s) = 0.74868 3.37586 2.44509
# Velocity P-wave (km/s) = 5.52135 7.33923 6.49421
#
# Compressibility (1/GPa) = 0.02601484
#
# Stress axis : x y z
#
# Youngs Moduli (GPa) = 30.77350 31.36053 70.15050
#
# Poissons Ratio (x) = 0.32500 0.48731
# Poissons Ratio (y) = 0.31892 0.63145
# Poissons Ratio (z) = 0.21377 0.28229
#
# Static dielectric constant tensor:
#      x y z
#    x 2.281280 0.000000 0.000000 
#    y 0.000000 2.525270 0.000000 
#    z 0.000000 0.000000 2.827310 
# 
# 
# High freq. dielectric constant tensor:
#      x y z
#    x 1.438580 0.000000 0.000000 
#    y 0.000000 1.466750 0.000000 
#    z 0.000000 0.000000 1.510730 
# 
# From -- ./inp_files/9753.got.cif
#   From: 2010.03.12/outbox.cif.g09.slc.cpg/sg47_5_cif.got.tgz:9753.got - 2010.04.14 03:12:58.
