data_PCOD8196241
_publ_section_title
;
Structure prediction by ZEFSAII (Michael W. Deem and Ramdas Pophale) SiO2 
 PCOD8196241
Probable space group: P M M M
;
_chemical_formula_sum "Si O2"
_cell_formula_units_Z 64
_cell_length_a 23.876438
_cell_length_b 8.983715
_cell_length_c 15.374050
_cell_angle_alpha 90.000000
_cell_angle_beta 90.000000
_cell_angle_gamma 90.000000
_cell_volume 3297.720107
_symmetry_space_group_name_H-M "P M M M"
_symmetry_group_IT_number 47
_symmetry_cell_setting 'orthorhombic'
loop_
_space_group_symop_operation_xyz
x,y,z
-x,-y,z
x,-y,-z
-x,y,-z
-x,-y,-z
x,y,-z
-x,y,z
x,-y,z
loop_
_atom_site_type_symbol
_atom_site_label
_atom_site_fract_x
_atom_site_fract_y
_atom_site_fract_z
Si Si1 0.753855 0.330527 0.331372
Si Si2 0.935388 0.825909 0.248511
Si Si3 0.131101 0.670692 0.902195
Si Si4 0.127130 0.669729 0.402310
Si Si5 0.633478 0.673087 0.400928
Si Si6 0.759352 0.824413 0.152500
Si Si7 0.436522 0.176818 0.253645
Si Si8 0.637770 0.823157 0.903905
O O1 0.749691 0.500000 0.296218
O O2 0.805873 0.312856 0.396329
O O3 0.697764 0.284712 0.381965
O O4 0.763898 0.217586 0.253044
O O5 0.911830 0.747084 0.163115
O O6 0.903896 0.776326 0.335347
O O7 0.000000 0.782995 0.258215
O O8 0.925978 0.000000 0.236223
O O9 0.138000 0.500000 0.873470
O O10 0.191687 0.746642 0.901038
O O11 0.106978 0.684238 0.000000
O O12 0.109180 0.714418 0.500000
O O13 0.109637 0.500000 0.381886
O O14 0.619925 0.716054 0.500000
O O15 0.622655 0.500000 0.383585
O O16 0.592106 0.766302 0.340985
O O17 0.700365 0.766024 0.115146
O O18 0.765804 0.000000 0.141796
O O19 0.500000 0.235294 0.249708
O O20 0.404402 0.241389 0.168761
O O21 0.434180 0.000000 0.254432
O O22 0.636943 0.000000 0.899774
O O23 0.619190 0.767828 0.000000
#
# Coordination Sequence:
#
# PCOD8196241 Si02
#       8
#     8   8   8   8   8   8   8   8
#     4  10  19  34  58  86 117 150 186 231 285 343
#     4  11  25  43  62  86 118 156 198 245 292 339
#     4  11  24  41  62  89 120 154 193 238 290 349
#     4  10  21  38  62  90 119 153 193 236 285 346
#     4  10  21  37  58  83 113 150 189 231 283 344
#     4  11  20  33  58  88 120 153 185 228 285 347
#     4  10  21  37  56  79 109 146 192 244 290 334
#     4   9  18  33  54  82 114 146 182 227 281 340
#
# _framework density 19.407347000000001
#
# number of rings (size 3 to 8) (size 9 to 14) (size 15 to 20)
#    0.000    1.750    2.500    1.875    0.000    5.750 
#    0.000    5.000    0.000    3.375    0.000    0.875 
#    0.000    0.000    0.000    0.000    0.000    0.000 
#
# Total GULP energy -793746.378130 kJ/mol
# GULP energy per Si atom -12402.287158 kJ/mol
# Density = 1.936317 g / cm^3
# Si number density = 19.407347 Si / 1000 Ang^3
#
#
#
# Elastic Constant Matrix: (Units=GPa)
#
#
# Indices 1 2 3 4 5 6 
#
# 1 129.2884 47.2725 55.8930 0.0000 0.0000 0.0000
# 2 47.2725 62.6146 36.3958 0.0000 0.0000 0.0000
# 3 55.8930 36.3958 133.2407 0.0000 0.0000 0.0000
# 4 0.0000 0.0000 0.0000 23.6658 0.0000 0.0000
# 5 0.0000 0.0000 0.0000 0.0000 9.7551 0.0000
# 6 0.0000 0.0000 0.0000 0.0000 0.0000 24.5090
#
#
#
# Elastic Compliance Matrix: (Units=1/GPa)
#
#
# Indices 1 2 3 4 5 6 
#
# 1 0.011575 -0.007033 -0.002934 0.000000 0.000000 0.000000
# 2 -0.007033 0.023259 -0.003403 0.000000 0.000000 0.000000
# 3 -0.002934 -0.003403 0.009666 0.000000 0.000000 0.000000
# 4 0.000000 0.000000 0.000000 0.042255 0.000000 0.000000
# 5 0.000000 0.000000 0.000000 0.000000 0.102510 0.000000
# 6 0.000000 0.000000 0.000000 0.000000 0.000000 0.040801
#
#
# Mechanical properties :
#
#
# Convention : Reuss Voigt Hill
#
# Bulk Modulus (GPa) = 56.31181 67.14069 61.72625
# Shear Modulus (GPa) = 19.03127 23.95815 21.49471
#
# Velocity S-wave (km/s) = 3.13489 3.51734 3.33161
# Velocity P-wave (km/s) = 6.49477 7.15305 6.83185
#
# Compressibility (1/GPa) = 0.01775826
#
# Stress axis : x y z
#
# Youngs Moduli (GPa) = 86.39513 42.99500 103.45875
#
# Poissons Ratio (x) = 0.30238 0.30358
# Poissons Ratio (y) = 0.60762 0.35207
# Poissons Ratio (z) = 0.25351 0.14631
#
# Static dielectric constant tensor:
#      x y z
#    x 3.654100 0.000000 0.000000 
#    y 0.000000 3.406120 0.000000 
#    z 0.000000 0.000000 3.642250 
# 
# 
# High freq. dielectric constant tensor:
#      x y z
#    x 1.757010 0.000000 0.000000 
#    y 0.000000 1.739680 0.000000 
#    z 0.000000 0.000000 1.767020 
# 
# From -- ./inp_files/7792.got.cif
#   From: 2010.03.12/outbox.cif.g09.slc.cpg/sg47_4_cif.got.tgz:7792.got - 2010.04.14 03:12:58.
