data_PCOD8196791
_publ_section_title
;
Structure prediction by ZEFSAII (Michael W. Deem and Ramdas Pophale) SiO2 
 PCOD8196791
Probable space group: P M M M
;
_chemical_formula_sum "Si O2"
_cell_formula_units_Z 40
_cell_length_a 9.235696
_cell_length_b 12.496004
_cell_length_c 22.685179
_cell_angle_alpha 90.000000
_cell_angle_beta 90.000000
_cell_angle_gamma 90.000000
_cell_volume 2618.080496
_symmetry_space_group_name_H-M "P M M M"
_symmetry_group_IT_number 47
_symmetry_cell_setting 'orthorhombic'
loop_
_space_group_symop_operation_xyz
x,y,z
-x,-y,z
x,-y,-z
-x,y,-z
-x,-y,-z
x,y,-z
-x,y,z
x,-y,z
loop_
_atom_site_type_symbol
_atom_site_label
_atom_site_fract_x
_atom_site_fract_y
_atom_site_fract_z
Si Si1 0.160529 0.372842 0.777051
Si Si2 0.836135 0.000000 0.429914
Si Si3 0.168355 0.375329 0.354835
Si Si4 0.662603 0.627702 0.887123
Si Si5 0.667691 0.208305 0.430657
Si Si6 0.836550 0.627545 0.000000
O O1 0.155256 0.500000 0.779971
O O2 0.209970 0.338414 0.711564
O O3 0.269671 0.327294 0.826288
O O4 0.000000 0.327880 0.790513
O O5 0.752987 0.895310 0.406565
O O6 0.835404 0.000000 0.500000
O O7 0.000000 0.000000 0.405269
O O8 0.201184 0.500000 0.363737
O O9 0.268938 0.313129 0.400136
O O10 0.000000 0.350851 0.367412
O O11 0.500000 0.672054 0.892610
O O12 0.663080 0.500000 0.887036
O O13 0.755000 0.671333 0.942162
O O14 0.690125 0.222690 0.500000
O O15 0.500000 0.194405 0.414419
O O16 0.836720 0.500000 0.000000
O O17 0.000000 0.671919 0.000000
#
# Coordination Sequence:
#
# PCOD8196791 Si02
#       6
#     8   4   8   8   8   4
#     4   8  14  25  38  50  67  94 128 163 197 234
#     4   9  17  31  51  69  83 103 133 166 201 246
#     4   9  18  31  45  61  82 110 144 177 206 243
#     4   9  15  21  30  45  64  86 116 156 198 236
#     4  10  20  32  46  65  88 110 133 167 211 254
#     4   9  15  21  29  41  59  85 117 154 195 234
#
# _framework density 15.278369
#
# number of rings (size 3 to 8) (size 9 to 14) (size 15 to 20)
#    0.000    3.000    0.000    3.000    0.000    7.600 
#    0.000    4.000    0.000    0.000    0.000    0.000 
#    0.000    0.000    0.000    0.000    0.000    1.000 
#
# Total GULP energy -495868.327984 kJ/mol
# GULP energy per Si atom -12396.708200 kJ/mol
# Density = 1.524359 g / cm^3
# Si number density = 15.278369 Si / 1000 Ang^3
#
#
#
# Elastic Constant Matrix: (Units=GPa)
#
#
# Indices 1 2 3 4 5 6 
#
# 1 135.9186 40.1682 64.3795 0.0000 0.0000 0.0000
# 2 40.1682 41.9215 32.2776 0.0000 0.0000 0.0000
# 3 64.3795 32.2776 76.1417 0.0000 0.0000 0.0000
# 4 0.0000 0.0000 0.0000 0.3936 0.0000 0.0000
# 5 0.0000 0.0000 0.0000 0.0000 27.2779 0.0000
# 6 0.0000 0.0000 0.0000 0.0000 0.0000 18.2385
#
#
#
# Elastic Compliance Matrix: (Units=1/GPa)
#
#
# Indices 1 2 3 4 5 6 
#
# 1 0.013225 -0.006031 -0.008626 0.000000 0.000000 0.000000
# 2 -0.006031 0.038163 -0.011079 0.000000 0.000000 0.000000
# 3 -0.008626 -0.011079 0.025123 0.000000 0.000000 0.000000
# 4 0.000000 0.000000 0.000000 2.540919 0.000000 0.000000
# 5 0.000000 0.000000 0.000000 0.000000 0.036660 0.000000
# 6 0.000000 0.000000 0.000000 0.000000 0.000000 0.054829
#
#
# Mechanical properties :
#
#
# Convention : Reuss Voigt Hill
#
# Bulk Modulus (GPa) = 39.93477 58.62581 49.28029
# Shear Modulus (GPa) = 1.80588 16.99242 9.39915
#
# Velocity S-wave (km/s) = 1.08837 3.33857 2.48300
# Velocity P-wave (km/s) = 5.27013 7.30181 6.36752
#
# Compressibility (1/GPa) = 0.02504083
#
# Stress axis : x y z
#
# Youngs Moduli (GPa) = 75.61248 26.20363 39.80411
#
# Poissons Ratio (x) = 0.15803 0.34334
# Poissons Ratio (y) = 0.45600 0.44097
# Poissons Ratio (z) = 0.65222 0.29030
#
# Static dielectric constant tensor:
#      x y z
#    x 3.143790 0.000000 0.000000 
#    y 0.000000 2.417430 0.000000 
#    z 0.000000 0.000000 3.014850 
# 
# 
# High freq. dielectric constant tensor:
#      x y z
#    x 1.600380 0.000000 0.000000 
#    y 0.000000 1.514260 0.000000 
#    z 0.000000 0.000000 1.584010 
# 
# From -- ./inp_files/10792.got.cif
#   From: 2010.03.12/outbox.cif.g09.slc.cpg/sg47_6_cif.got.tgz:10792.got - 2010.04.14 03:12:58.
