data_PCOD8196257
_publ_section_title
;
Structure prediction by ZEFSAII (Michael W. Deem and Ramdas Pophale) SiO2 
 PCOD8196257
Probable space group: P M M M
;
_chemical_formula_sum "Si O2"
_cell_formula_units_Z 56
_cell_length_a 14.900165
_cell_length_b 9.179399
_cell_length_c 22.333585
_cell_angle_alpha 90.000000
_cell_angle_beta 90.000000
_cell_angle_gamma 90.000000
_cell_volume 3054.666255
_symmetry_space_group_name_H-M "P M M M"
_symmetry_group_IT_number 47
_symmetry_cell_setting 'orthorhombic'
loop_
_space_group_symop_operation_xyz
x,y,z
-x,-y,z
x,-y,-z
-x,y,-z
-x,-y,-z
x,y,-z
-x,y,z
x,-y,z
loop_
_atom_site_type_symbol
_atom_site_label
_atom_site_fract_x
_atom_site_fract_y
_atom_site_fract_z
Si Si1 0.353721 0.340270 0.067945
Si Si2 0.597940 0.163976 0.173710
Si Si3 0.723400 0.174872 0.279615
Si Si4 0.103220 0.671159 0.241232
Si Si5 0.902299 0.170282 0.000000
Si Si6 0.605299 0.672321 0.380154
Si Si7 0.840504 0.340882 0.890473
Si Si8 0.605664 0.164278 0.500000
O O1 0.397662 0.500000 0.062260
O O2 0.414828 0.238879 0.108847
O O3 0.265795 0.353757 0.109019
O O4 0.338574 0.278470 0.000000
O O5 0.500000 0.175108 0.205490
O O6 0.674053 0.225785 0.218324
O O7 0.624910 0.000000 0.159147
O O8 0.825884 0.235551 0.280366
O O9 0.666864 0.249062 0.331729
O O10 0.723758 0.000000 0.287484
O O11 0.121557 0.500000 0.251466
O O12 0.119440 0.713644 0.172130
O O13 0.000000 0.710909 0.258601
O O14 0.856806 0.220802 0.060173
O O15 0.000000 0.239416 0.000000
O O16 0.901895 0.000000 0.000000
O O17 0.500000 0.701940 0.367042
O O18 0.624854 0.500000 0.381572
O O19 0.636347 0.743621 0.442529
O O20 0.882302 0.500000 0.906343
O O21 0.500000 0.148965 0.500000
O O22 0.647696 0.000000 0.500000
#
# Coordination Sequence:
#
# PCOD8196257 Si02
#       8
#     8   8   8   8   4   8   8   4
#     4  10  20  35  54  74  95 123 166 217 267 323
#     4  10  22  38  54  74 101 135 174 217 269 326
#     4  11  22  36  56  81 112 147 183 227 276 330
#     4  10  21  37  57  79 103 134 175 224 276 332
#     4  11  23  33  45  71 100 123 156 205 261 326
#     4  10  20  34  55  85 121 160 199 235 271 315
#     4  10  19  35  55  72  94 127 165 208 264 329
#     4   9  17  31  53  83 122 163 198 233 273 317
#
# _framework density 18.332609000000001
#
# number of rings (size 3 to 8) (size 9 to 14) (size 15 to 20)
#    0.000    1.857    2.143    2.143    0.000    6.286 
#    0.000    1.429    0.000    0.000    0.000    0.500 
#    0.000    4.000    0.000    0.000    0.000    0.000 
#
# Total GULP energy -693874.525164 kJ/mol
# GULP energy per Si atom -12390.616521 kJ/mol
# Density = 1.829088 g / cm^3
# Si number density = 18.332609 Si / 1000 Ang^3
#
#
#
# Elastic Constant Matrix: (Units=GPa)
#
#
# Indices 1 2 3 4 5 6 
#
# 1 98.3189 45.4391 46.2004 0.0000 0.0000 0.0000
# 2 45.4391 92.0130 60.1141 0.0000 0.0000 0.0000
# 3 46.2004 60.1141 115.2952 0.0000 0.0000 0.0000
# 4 0.0000 0.0000 0.0000 30.8480 0.0000 0.0000
# 5 0.0000 0.0000 0.0000 0.0000 18.5489 0.0000
# 6 0.0000 0.0000 0.0000 0.0000 0.0000 24.7956
#
#
#
# Elastic Compliance Matrix: (Units=1/GPa)
#
#
# Indices 1 2 3 4 5 6 
#
# 1 0.013833 -0.004868 -0.003005 0.000000 0.000000 0.000000
# 2 -0.004868 0.018196 -0.007536 0.000000 0.000000 0.000000
# 3 -0.003005 -0.007536 0.013807 0.000000 0.000000 0.000000
# 4 0.000000 0.000000 0.000000 0.032417 0.000000 0.000000
# 5 0.000000 0.000000 0.000000 0.000000 0.053911 0.000000
# 6 0.000000 0.000000 0.000000 0.000000 0.000000 0.040330
#
#
# Mechanical properties :
#
#
# Convention : Reuss Voigt Hill
#
# Bulk Modulus (GPa) = 66.59178 67.68158 67.13668
# Shear Modulus (GPa) = 24.00179 25.09674 24.54927
#
# Velocity S-wave (km/s) = 3.62227 3.70397 3.66335
# Velocity P-wave (km/s) = 7.34149 7.43582 7.38880
#
# Compressibility (1/GPa) = 0.01501687
#
# Stress axis : x y z
#
# Youngs Moduli (GPa) = 72.29218 54.95800 72.42730
#
# Poissons Ratio (x) = 0.26753 0.21763
# Poissons Ratio (y) = 0.35191 0.54585
# Poissons Ratio (z) = 0.21723 0.41419
#
# Static dielectric constant tensor:
#      x y z
#    x 3.396690 0.000000 0.000000 
#    y 0.000000 3.478000 0.000000 
#    z 0.000000 0.000000 3.253670 
# 
# 
# High freq. dielectric constant tensor:
#      x y z
#    x 1.700530 0.000000 0.000000 
#    y 0.000000 1.715190 0.000000 
#    z 0.000000 0.000000 1.689120 
# 
# From -- ./inp_files/25160.got.cif
#   From: 2010.03.12/outbox.cif.g09.slc.cpg/sg47_13_cif.got.tgz:25160.got - 2010.04.14 03:12:58.
