data_PCOD8196792
_publ_section_title
;
Structure prediction by ZEFSAII (Michael W. Deem and Ramdas Pophale) SiO2 
 PCOD8196792
Probable space group: P M M M
;
_chemical_formula_sum "Si O2"
_cell_formula_units_Z 60
_cell_length_a 9.263335
_cell_length_b 18.010051
_cell_length_c 23.913419
_cell_angle_alpha 90.000000
_cell_angle_beta 90.000000
_cell_angle_gamma 90.000000
_cell_volume 3989.550679
_symmetry_space_group_name_H-M "P M M M"
_symmetry_group_IT_number 47
_symmetry_cell_setting 'orthorhombic'
loop_
_space_group_symop_operation_xyz
x,y,z
-x,-y,z
x,-y,-z
-x,y,-z
-x,-y,-z
x,y,-z
-x,y,z
x,-y,z
loop_
_atom_site_type_symbol
_atom_site_label
_atom_site_fract_x
_atom_site_fract_y
_atom_site_fract_z
Si Si1 0.668794 0.672743 0.781417
Si Si2 0.333946 0.913882 0.664839
Si Si3 0.168950 0.150730 0.563265
Si Si4 0.836998 0.411718 0.000000
Si Si5 0.159092 0.297547 0.616116
Si Si6 0.331043 0.583375 0.328759
Si Si7 0.331891 0.585683 0.107903
Si Si8 0.837673 0.203545 0.728475
O O1 0.500000 0.691895 0.779855
O O2 0.709934 0.616760 0.731445
O O3 0.714618 0.633236 0.838598
O O4 0.757023 0.749682 0.776821
O O5 0.500000 0.887083 0.662553
O O6 0.262620 0.900034 0.604295
O O7 0.251314 0.870868 0.714430
O O8 0.322782 0.000000 0.679517
O O9 0.201041 0.125457 0.500000
O O10 0.211035 0.238117 0.569557
O O11 0.000000 0.140695 0.578702
O O12 0.756291 0.382374 0.944763
O O13 0.831952 0.500000 0.000000
O O14 0.000000 0.381345 0.000000
O O15 0.263763 0.368175 0.620814
O O16 0.158005 0.253414 0.673812
O O17 0.000000 0.327894 0.601704
O O18 0.500000 0.583613 0.338445
O O19 0.268870 0.500000 0.331578
O O20 0.500000 0.594618 0.094237
O O21 0.293789 0.500000 0.120266
O O22 0.000000 0.183011 0.748114
#
# Coordination Sequence:
#
# PCOD8196792 Si02
#       8
#     8   8   8   4   8   8   8   8
#     4   9  16  26  41  60  82 107 136 173 212 247
#     4  10  20  32  46  65  88 111 134 161 193 232
#     4   9  18  32  48  64  82 105 133 164 197 236
#     4   9  17  27  37  51  75 109 148 189 228 259
#     4   8  15  27  41  57  76  99 128 160 195 237
#     4   9  16  25  38  57  79 101 127 162 204 246
#     4   9  16  26  40  57  79 111 150 186 219 256
#     4   9  17  29  44  61  82 108 136 164 197 241
#
# _framework density 15.039288000000001
#
# number of rings (size 3 to 8) (size 9 to 14) (size 15 to 20)
#    0.000    3.000    0.000    2.200    0.000    8.000 
#    0.000    1.333    0.000    2.800    0.000    2.800 
#    0.000    0.000    0.000    0.600    0.000   11.600 
#
# Total GULP energy -743810.102850 kJ/mol
# GULP energy per Si atom -12396.835047 kJ/mol
# Density = 1.500506 g / cm^3
# Si number density = 15.039288 Si / 1000 Ang^3
#
#
#
# Elastic Constant Matrix: (Units=GPa)
#
#
# Indices 1 2 3 4 5 6 
#
# 1 75.9748 44.7811 32.6626 0.0000 0.0000 0.0000
# 2 44.7811 77.1698 29.7421 0.0000 0.0000 0.0000
# 3 32.6626 29.7421 53.7014 0.0000 0.0000 0.0000
# 4 0.0000 0.0000 0.0000 15.6450 0.0000 0.0000
# 5 0.0000 0.0000 0.0000 0.0000 20.0580 0.0000
# 6 0.0000 0.0000 0.0000 0.0000 0.0000 20.9221
#
#
#
# Elastic Compliance Matrix: (Units=1/GPa)
#
#
# Indices 1 2 3 4 5 6 
#
# 1 0.022537 -0.009910 -0.008219 0.000000 0.000000 0.000000
# 2 -0.009910 0.020833 -0.005511 0.000000 0.000000 0.000000
# 3 -0.008219 -0.005511 0.026672 0.000000 0.000000 0.000000
# 4 0.000000 0.000000 0.000000 0.063918 0.000000 0.000000
# 5 0.000000 0.000000 0.000000 0.000000 0.049855 0.000000
# 6 0.000000 0.000000 0.000000 0.000000 0.000000 0.047796
#
#
# Mechanical properties :
#
#
# Convention : Reuss Voigt Hill
#
# Bulk Modulus (GPa) = 43.93083 46.80195 45.36639
# Shear Modulus (GPa) = 17.45323 17.96903 17.71113
#
# Velocity S-wave (km/s) = 3.41032 3.46035 3.43542
# Velocity P-wave (km/s) = 6.69187 6.86678 6.77989
#
# Compressibility (1/GPa) = 0.02276306
#
# Stress axis : x y z
#
# Youngs Moduli (GPa) = 44.37131 48.00018 37.49199
#
# Poissons Ratio (x) = 0.47571 0.30814
# Poissons Ratio (y) = 0.43974 0.20660
# Poissons Ratio (z) = 0.36468 0.26451
#
# Static dielectric constant tensor:
#      x y z
#    x 3.031610 0.000000 0.000000 
#    y 0.000000 2.832730 0.000000 
#    z 0.000000 0.000000 2.777790 
# 
# 
# High freq. dielectric constant tensor:
#      x y z
#    x 1.582330 0.000000 0.000000 
#    y 0.000000 1.554560 0.000000 
#    z 0.000000 0.000000 1.544570 
# 
# From -- ./inp_files/27176.got.cif
#   From: 2010.03.12/outbox.cif.g09.slc.cpg/sg47_14_cif.got.tgz:27176.got - 2010.04.14 03:12:58.
