data_PCOD8196436
_publ_section_title
;
Structure prediction by ZEFSAII (Michael W. Deem and Ramdas Pophale) SiO2 
 PCOD8196436
Probable space group: P M M M
;
_chemical_formula_sum "Si O2"
_cell_formula_units_Z 40
_cell_length_a 17.080107
_cell_length_b 18.154938
_cell_length_c 8.973450
_cell_angle_alpha 90.000000
_cell_angle_beta 90.000000
_cell_angle_gamma 90.000000
_cell_volume 2782.561709
_symmetry_space_group_name_H-M "P M M M"
_symmetry_group_IT_number 47
_symmetry_cell_setting 'orthorhombic'
loop_
_space_group_symop_operation_xyz
x,y,z
-x,-y,z
x,-y,-z
-x,y,-z
-x,-y,-z
x,y,-z
-x,y,z
x,-y,z
loop_
_atom_site_type_symbol
_atom_site_label
_atom_site_fract_x
_atom_site_fract_y
_atom_site_fract_z
Si Si1 0.907097 0.919160 0.667188
Si Si2 0.092637 0.500000 0.170017
Si Si3 0.830191 0.638648 0.323745
Si Si4 0.666763 0.417674 0.677260
Si Si5 0.500000 0.412144 0.664151
Si Si6 0.092231 0.224979 0.828356
O O1 0.876743 0.902358 0.500000
O O2 0.877352 0.855787 0.778796
O O3 0.000000 0.920202 0.667279
O O4 0.876343 0.000000 0.719556
O O5 0.122253 0.427138 0.250309
O O6 0.000000 0.500000 0.177817
O O7 0.122187 0.500000 0.000000
O O8 0.839938 0.631468 0.500000
O O9 0.738643 0.634547 0.275576
O O10 0.862844 0.716102 0.270412
O O11 0.657870 0.420500 0.500000
O O12 0.685618 0.500000 0.736612
O O13 0.582503 0.388786 0.744237
O O14 0.500000 0.500000 0.652209
O O15 0.500000 0.376439 0.500000
O O16 0.000000 0.233844 0.799866
O O17 0.113518 0.236970 0.000000
#
# Coordination Sequence:
#
# PCOD8196436 Si02
#       6
#     8   4   8   8   4   8
#     4   8  14  26  44  63  80  99 127 164 204 243
#     4  11  23  35  43  52  71 102 140 177 211 243
#     4  11  20  30  44  60  78 101 135 174 206 237
#     4   8  13  23  38  59  80  97 123 160 201 244
#     4   7  10  18  36  58  80  98 113 148 201 246
#     4  10  20  31  41  56  80 109 140 170 202 240
#
# _framework density 14.375242
#
# number of rings (size 3 to 8) (size 9 to 14) (size 15 to 20)
#    0.000    2.800    1.000    3.900    0.000    4.800 
#    0.000    2.000    0.000    0.000    0.000    3.500 
#    0.000    0.000    0.000    0.900    0.000   20.600 
#
# Total GULP energy -495565.821159 kJ/mol
# GULP energy per Si atom -12389.145529 kJ/mol
# Density = 1.434252 g / cm^3
# Si number density = 14.375242 Si / 1000 Ang^3
#
#
#
# Elastic Constant Matrix: (Units=GPa)
#
#
# Indices 1 2 3 4 5 6 
#
# 1 76.0715 38.9435 34.3165 0.0000 0.0000 0.0000
# 2 38.9435 89.4629 33.8976 0.0000 0.0000 0.0000
# 3 34.3165 33.8976 58.2586 0.0000 0.0000 0.0000
# 4 0.0000 0.0000 0.0000 11.9666 0.0000 0.0000
# 5 0.0000 0.0000 0.0000 0.0000 3.9724 0.0000
# 6 0.0000 0.0000 0.0000 0.0000 0.0000 0.9913
#
#
#
# Elastic Compliance Matrix: (Units=1/GPa)
#
#
# Indices 1 2 3 4 5 6 
#
# 1 0.019726 -0.005368 -0.008496 0.000000 0.000000 0.000000
# 2 -0.005368 0.015800 -0.006031 0.000000 0.000000 0.000000
# 3 -0.008496 -0.006031 0.025679 0.000000 0.000000 0.000000
# 4 0.000000 0.000000 0.000000 0.083566 0.000000 0.000000
# 5 0.000000 0.000000 0.000000 0.000000 0.251739 0.000000
# 6 0.000000 0.000000 0.000000 0.000000 0.000000 1.008766
#
#
# Mechanical properties :
#
#
# Convention : Reuss Voigt Hill
#
# Bulk Modulus (GPa) = 46.69801 48.67870 47.68835
# Shear Modulus (GPa) = 3.44304 11.16175 7.30240
#
# Velocity S-wave (km/s) = 1.54930 2.78952 2.25630
# Velocity P-wave (km/s) = 5.97963 6.65670 6.32723
#
# Compressibility (1/GPa) = 0.02141419
#
# Stress axis : x y z
#
# Youngs Moduli (GPa) = 50.69413 63.29284 38.94271
#
# Poissons Ratio (x) = 0.33973 0.33087
# Poissons Ratio (y) = 0.27210 0.23487
# Poissons Ratio (z) = 0.43071 0.38173
#
# Static dielectric constant tensor:
#      x y z
#    x 2.973830 0.000000 0.000000 
#    y 0.000000 2.918620 0.000000 
#    z 0.000000 0.000000 2.722970 
# 
# 
# High freq. dielectric constant tensor:
#      x y z
#    x 1.527690 0.000000 0.000000 
#    y 0.000000 1.529090 0.000000 
#    z 0.000000 0.000000 1.535450 
# 
# From -- ./inp_files/9369.got.cif
#   From: 2010.03.12/outbox.cif.g09.slc.cpg/sg47_5_cif.got.tgz:9369.got - 2010.04.14 03:12:58.
