data_PCOD8196301
_publ_section_title
;
Structure prediction by ZEFSAII (Michael W. Deem and Ramdas Pophale) SiO2 
 PCOD8196301
Probable space group: P M M M
;
_chemical_formula_sum "Si O2"
_cell_formula_units_Z 44
_cell_length_a 14.614973
_cell_length_b 8.614561
_cell_length_c 17.550726
_cell_angle_alpha 90.000000
_cell_angle_beta 90.000000
_cell_angle_gamma 90.000000
_cell_volume 2209.664071
_symmetry_space_group_name_H-M "P M M M"
_symmetry_group_IT_number 47
_symmetry_cell_setting 'orthorhombic'
loop_
_space_group_symop_operation_xyz
x,y,z
-x,-y,z
x,-y,-z
-x,y,-z
-x,-y,-z
x,y,-z
-x,y,z
x,-y,z
loop_
_atom_site_type_symbol
_atom_site_label
_atom_site_fract_x
_atom_site_fract_y
_atom_site_fract_z
Si Si1 0.343757 0.180656 0.694014
Si Si2 0.000000 0.832611 0.586160
Si Si3 0.701100 0.684781 0.145935
Si Si4 0.157839 0.325030 0.336111
Si Si5 0.391874 0.822873 0.000000
Si Si6 0.500000 0.316179 0.411542
Si Si7 0.098737 0.323979 0.832922
O O1 0.350240 0.252428 0.779001
O O2 0.242820 0.208686 0.662231
O O3 0.411984 0.257196 0.633975
O O4 0.366332 0.000000 0.700157
O O5 0.910593 0.730321 0.599704
O O6 0.000000 0.877691 0.500000
O O7 0.000000 0.000000 0.631148
O O8 0.705942 0.500000 0.154019
O O9 0.805970 0.751882 0.136325
O O10 0.643567 0.734406 0.073708
O O11 0.192523 0.500000 0.351856
O O12 0.102327 0.316892 0.257799
O O13 0.500000 0.814207 0.000000
O O14 0.357159 0.000000 0.000000
O O15 0.500000 0.500000 0.411047
O O16 0.500000 0.256294 0.500000
O O17 0.095628 0.500000 0.862333
O O18 0.000000 0.245387 0.857935
#
# Coordination Sequence:
#
# PCOD8196301 Si02
#       7
#     8   4   8   8   4   4   8
#     4  11  23  40  64  92 125 160 198 249 312 374
#     4  11  23  35  49  77 117 156 197 250 311 367
#     4  10  21  38  63  93 124 160 206 252 298 361
#     4  10  19  35  58  82 111 152 203 249 293 354
#     4  11  25  43  62  85 122 164 207 259 315 364
#     4  11  25  45  67  90 117 154 205 259 307 365
#     4   8  14  29  56  87 114 145 189 240 287 339
#
# _framework density 19.912527000000001
#
# number of rings (size 3 to 8) (size 9 to 14) (size 15 to 20)
#    0.000    1.909    0.909    4.636    1.273    2.909 
#    0.000    0.455    0.000    2.727    0.000    0.000 
#    0.000    0.000    0.000    0.000    0.000    0.000 
#
# Total GULP energy -545238.052356 kJ/mol
# GULP energy per Si atom -12391.773917 kJ/mol
# Density = 1.986721 g / cm^3
# Si number density = 19.912527 Si / 1000 Ang^3
#
#
#
# Elastic Constant Matrix: (Units=GPa)
#
#
# Indices 1 2 3 4 5 6 
#
# 1 110.1791 27.7158 59.9453 0.0000 0.0000 0.0000
# 2 27.7158 87.7606 37.8840 0.0000 0.0000 0.0000
# 3 59.9453 37.8840 115.5198 0.0000 0.0000 0.0000
# 4 0.0000 0.0000 0.0000 24.1487 0.0000 0.0000
# 5 0.0000 0.0000 0.0000 0.0000 29.6926 0.0000
# 6 0.0000 0.0000 0.0000 0.0000 0.0000 22.3275
#
#
#
# Elastic Compliance Matrix: (Units=1/GPa)
#
#
# Indices 1 2 3 4 5 6 
#
# 1 0.012786 -0.001367 -0.006186 0.000000 0.000000 0.000000
# 2 -0.001367 0.013420 -0.003691 0.000000 0.000000 0.000000
# 3 -0.006186 -0.003691 0.013077 0.000000 0.000000 0.000000
# 4 0.000000 0.000000 0.000000 0.041410 0.000000 0.000000
# 5 0.000000 0.000000 0.000000 0.000000 0.033678 0.000000
# 6 0.000000 0.000000 0.000000 0.000000 0.000000 0.044788
#
#
# Mechanical properties :
#
#
# Convention : Reuss Voigt Hill
#
# Bulk Modulus (GPa) = 59.54952 62.72774 61.13863
# Shear Modulus (GPa) = 26.70259 27.76139 27.23199
#
# Velocity S-wave (km/s) = 3.66593 3.73791 3.70209
# Velocity P-wave (km/s) = 6.92020 7.08515 7.00316
#
# Compressibility (1/GPa) = 0.01679275
#
# Stress axis : x y z
#
# Youngs Moduli (GPa) = 78.21068 74.51579 76.46805
#
# Poissons Ratio (x) = 0.10190 0.47306
# Poissons Ratio (y) = 0.10695 0.28227
# Poissons Ratio (z) = 0.48385 0.27507
#
# Static dielectric constant tensor:
#      x y z
#    x 3.931580 0.000000 0.000000 
#    y 0.000000 3.577750 0.000000 
#    z 0.000000 0.000000 3.454550 
# 
# 
# High freq. dielectric constant tensor:
#      x y z
#    x 1.793530 0.000000 0.000000 
#    y 0.000000 1.768800 0.000000 
#    z 0.000000 0.000000 1.757320 
# 
# From -- ./inp_files/27941.got.cif
#   From: 2010.03.12/outbox.cif.g09.slc.cpg/sg47_14_cif.got.tgz:27941.got - 2010.04.14 03:12:58.
