data_PCOD8196123
_publ_section_title
;
Structure prediction by ZEFSAII (Michael W. Deem and Ramdas Pophale) SiO2 
 PCOD8196123
Probable space group: P M M M
;
_chemical_formula_sum "Si O2"
_cell_formula_units_Z 56
_cell_length_a 8.791731
_cell_length_b 15.139690
_cell_length_c 21.463692
_cell_angle_alpha 90.000000
_cell_angle_beta 90.000000
_cell_angle_gamma 90.000000
_cell_volume 2856.905018
_symmetry_space_group_name_H-M "P M M M"
_symmetry_group_IT_number 47
_symmetry_cell_setting 'orthorhombic'
loop_
_space_group_symop_operation_xyz
x,y,z
-x,-y,z
x,-y,-z
-x,y,-z
-x,-y,-z
x,y,-z
-x,y,z
x,-y,z
loop_
_atom_site_type_symbol
_atom_site_label
_atom_site_fract_x
_atom_site_fract_y
_atom_site_fract_z
Si Si1 0.679159 0.845834 0.635060
Si Si2 0.329727 0.396306 0.500000
Si Si3 0.678131 0.738278 0.829206
Si Si4 0.824461 0.333380 0.622321
Si Si5 0.670955 0.594705 0.271153
Si Si6 0.319659 0.599106 0.070952
Si Si7 0.331469 0.103327 0.500000
Si Si8 0.824231 0.099804 0.761589
O O1 0.500000 0.864487 0.635217
O O2 0.720191 0.745379 0.648196
O O3 0.748954 0.868531 0.565614
O O4 0.749011 0.899685 0.692749
O O5 0.342886 0.500000 0.500000
O O6 0.500000 0.354950 0.500000
O O7 0.230397 0.362927 0.443993
O O8 0.500000 0.757364 0.837171
O O9 0.716452 0.673855 0.772967
O O10 0.743654 0.682760 0.888720
O O11 0.756048 0.832262 0.813196
O O12 0.789635 0.410328 0.671643
O O13 0.000000 0.306811 0.620128
O O14 0.500000 0.607523 0.297102
O O15 0.682719 0.500000 0.235887
O O16 0.500000 0.597691 0.079283
O O17 0.259415 0.500000 0.090281
O O18 0.271896 0.618122 0.000000
O O19 0.500000 0.146059 0.500000
O O20 0.341424 0.000000 0.500000
O O21 0.000000 0.124075 0.753157
O O22 0.802700 0.000000 0.787736
#
# Coordination Sequence:
#
# PCOD8196123 Si02
#       8
#     8   4   8   8   8   8   4   8
#     4  11  21  37  60  82 106 140 183 232 289 353
#     4  11  24  41  58  74  98 139 190 238 285 340
#     4  10  19  33  57  86 115 152 194 233 277 335
#     4  12  24  37  54  77 107 141 181 230 285 342
#     4  10  20  34  53  79 111 146 185 228 275 331
#     4   8  14  27  52  90 131 162 189 228 279 333
#     4   9  19  34  54  80 102 123 162 220 283 345
#     4  11  24  40  57  80 113 151 192 244 302 351
#
# _framework density 19.601631000000001
#
# number of rings (size 3 to 8) (size 9 to 14) (size 15 to 20)
#    0.000    1.714    1.429    4.500    0.000    6.571 
#    0.000    1.071    0.000    4.714    0.000    4.000 
#    0.000    0.000    0.000    0.000    0.000    0.000 
#
# Total GULP energy -693772.333951 kJ/mol
# GULP energy per Si atom -12388.791678 kJ/mol
# Density = 1.955702 g / cm^3
# Si number density = 19.601631 Si / 1000 Ang^3
#
#
#
# Elastic Constant Matrix: (Units=GPa)
#
#
# Indices 1 2 3 4 5 6 
#
# 1 68.9048 35.6328 38.3893 0.0000 0.0000 0.0000
# 2 35.6328 123.5158 54.5122 0.0000 0.0000 0.0000
# 3 38.3893 54.5122 116.1750 0.0000 0.0000 0.0000
# 4 0.0000 0.0000 0.0000 50.6480 0.0000 0.0000
# 5 0.0000 0.0000 0.0000 0.0000 8.5800 0.0000
# 6 0.0000 0.0000 0.0000 0.0000 0.0000 40.2512
#
#
#
# Elastic Compliance Matrix: (Units=1/GPa)
#
#
# Indices 1 2 3 4 5 6 
#
# 1 0.018850 -0.003391 -0.004638 0.000000 0.000000 0.000000
# 2 -0.003391 0.010821 -0.003957 0.000000 0.000000 0.000000
# 3 -0.004638 -0.003957 0.011997 0.000000 0.000000 0.000000
# 4 0.000000 0.000000 0.000000 0.019744 0.000000 0.000000
# 5 0.000000 0.000000 0.000000 0.000000 0.116550 0.000000
# 6 0.000000 0.000000 0.000000 0.000000 0.000000 0.024844
#
#
# Mechanical properties :
#
#
# Convention : Reuss Voigt Hill
#
# Bulk Modulus (GPa) = 56.50857 62.85158 59.68007
# Shear Modulus (GPa) = 21.48910 31.89994 26.69452
#
# Velocity S-wave (km/s) = 3.31462 4.03850 3.69433
# Velocity P-wave (km/s) = 6.59849 7.34030 6.97926
#
# Compressibility (1/GPa) = 0.01769643
#
# Stress axis : x y z
#
# Youngs Moduli (GPa) = 53.04945 92.41523 83.35573
#
# Poissons Ratio (x) = 0.31341 0.38658
# Poissons Ratio (y) = 0.17991 0.32981
# Poissons Ratio (z) = 0.24603 0.36566
#
# Static dielectric constant tensor:
#      x y z
#    x 3.339390 0.000000 0.000000 
#    y 0.000000 10.957920 0.000000 
#    z 0.000000 0.000000 3.592240 
# 
# 
# High freq. dielectric constant tensor:
#      x y z
#    x 1.733520 0.000000 0.000000 
#    y 0.000000 1.772420 0.000000 
#    z 0.000000 0.000000 1.752300 
# 
# From -- ./inp_files/29756.got.cif
#   From: 2010.03.12/outbox.cif.g09.slc.cpg/sg47_15_cif.got.tgz:29756.got - 2010.04.14 03:12:58.
