data_PCOD8196959
_publ_section_title
;
Structure prediction by ZEFSAII (Michael W. Deem and Ramdas Pophale) SiO2 
 PCOD8196959
Probable space group: P M M M
;
_chemical_formula_sum "Si O2"
_cell_formula_units_Z 40
_cell_length_a 9.160164
_cell_length_b 9.282286
_cell_length_c 26.056368
_cell_angle_alpha 90.000000
_cell_angle_beta 90.000000
_cell_angle_gamma 90.000000
_cell_volume 2215.501630
_symmetry_space_group_name_H-M "P M M M"
_symmetry_group_IT_number 47
_symmetry_cell_setting 'orthorhombic'
loop_
_space_group_symop_operation_xyz
x,y,z
-x,-y,z
x,-y,-z
-x,y,-z
-x,-y,-z
x,y,-z
-x,y,z
x,-y,z
loop_
_atom_site_type_symbol
_atom_site_label
_atom_site_fract_x
_atom_site_fract_y
_atom_site_fract_z
Si Si1 0.173342 0.342226 0.000000
Si Si2 0.836162 0.327857 0.890113
Si Si3 0.669302 0.167098 0.401287
Si Si4 0.673652 0.662660 0.500000
Si Si5 0.333202 0.670715 0.208766
Si Si6 0.829345 0.833051 0.298177
O O1 0.217139 0.264375 0.054019
O O2 0.247015 0.500000 0.000000
O O3 0.000000 0.359071 0.000000
O O4 0.835664 0.500000 0.893882
O O5 0.727967 0.273183 0.845828
O O6 0.000000 0.273695 0.877121
O O7 0.500000 0.201073 0.390657
O O8 0.731477 0.256879 0.449320
O O9 0.759188 0.216379 0.351719
O O10 0.693692 0.000000 0.414044
O O11 0.733375 0.500000 0.500000
O O12 0.500000 0.667584 0.500000
O O13 0.500000 0.720965 0.213538
O O14 0.317402 0.500000 0.213116
O O15 0.239659 0.739954 0.253449
O O16 0.000000 0.801205 0.300667
O O17 0.795205 0.000000 0.287560
#
# Coordination Sequence:
#
# PCOD8196959 Si02
#       6
#     4   8   8   4   8   8
#     4   7  10  18  35  59  86 119 158 195 232 278
#     4   8  13  23  40  62  90 124 160 197 237 282
#     4   9  17  31  51  72  95 125 159 194 234 280
#     4   9  17  29  48  75 102 126 156 193 230 273
#     4  10  20  32  47  70  99 129 161 198 243 294
#     4  10  21  36  53  73  96 125 164 206 246 289
#
# _framework density 18.054601000000002
#
# number of rings (size 3 to 8) (size 9 to 14) (size 15 to 20)
#    0.000    3.000    0.000    2.700    0.000    4.400 
#    0.000    3.000    0.000    6.000    0.000    0.700 
#    0.000    5.600    0.000    0.000    0.000    0.000 
#
# Total GULP energy -495770.220004 kJ/mol
# GULP energy per Si atom -12394.255500 kJ/mol
# Density = 1.801351 g / cm^3
# Si number density = 18.054601 Si / 1000 Ang^3
#
#
#
# Elastic Constant Matrix: (Units=GPa)
#
#
# Indices 1 2 3 4 5 6 
#
# 1 75.2872 25.2971 65.2761 0.0000 0.0000 0.0000
# 2 25.2971 38.8265 50.0194 0.0000 0.0000 0.0000
# 3 65.2761 50.0194 186.3803 0.0000 0.0000 0.0000
# 4 0.0000 0.0000 0.0000 -6.4314 0.0000 0.0000
# 5 0.0000 0.0000 0.0000 0.0000 36.1528 0.0000
# 6 0.0000 0.0000 0.0000 0.0000 0.0000 17.6618
#
#
#
# Elastic Compliance Matrix: (Units=1/GPa)
#
#
# Indices 1 2 3 4 5 6 
#
# 1 0.019983 -0.006119 -0.005356 0.000000 0.000000 0.000000
# 2 -0.006119 0.041240 -0.008925 0.000000 0.000000 0.000000
# 3 -0.005356 -0.008925 0.009636 0.000000 0.000000 0.000000
# 4 0.000000 0.000000 0.000000 -0.155487 0.000000 0.000000
# 5 0.000000 0.000000 0.000000 0.000000 0.027660 0.000000
# 6 0.000000 0.000000 0.000000 0.000000 0.000000 0.056619
#
#
# Mechanical properties :
#
#
# Convention : Reuss Voigt Hill
#
# Bulk Modulus (GPa) = 33.26804 64.63102 48.94953
# Shear Modulus (GPa) = 99.06664 20.13673 59.60169
#
# Velocity S-wave (km/s) = 7.41550 3.34327 5.75183
# Velocity P-wave (km/s) = 9.58050 7.12591 8.44288
#
# Compressibility (1/GPa) = 0.03005888
#
# Stress axis : x y z
#
# Youngs Moduli (GPa) = 50.04350 24.24849 103.77293
#
# Poissons Ratio (x) = 0.14838 0.55584
# Poissons Ratio (y) = 0.30622 0.92612
# Poissons Ratio (z) = 0.26805 0.21641
#
# Static dielectric constant tensor:
#      x y z
#    x 3.210020 0.000000 0.000000 
#    y 0.000000 2.991490 0.000000 
#    z 0.000000 0.000000 3.783140 
# 
# 
# High freq. dielectric constant tensor:
#      x y z
#    x 1.678670 0.000000 0.000000 
#    y 0.000000 1.655180 0.000000 
#    z 0.000000 0.000000 1.723220 
# 
# From -- ./inp_files/13067.got.cif
#   From: 2010.03.12/outbox.cif.g09.slc.cpg/sg47_7_cif.got.tgz:13067.got - 2010.04.14 03:12:58.
