data_PCOD8196320
_publ_section_title
;
Structure prediction by ZEFSAII (Michael W. Deem and Ramdas Pophale) SiO2 
 PCOD8196320
Probable space group: P M M M
;
_chemical_formula_sum "Si O2"
_cell_formula_units_Z 48
_cell_length_a 17.733170
_cell_length_b 16.022715
_cell_length_c 8.111361
_cell_angle_alpha 90.000000
_cell_angle_beta 90.000000
_cell_angle_gamma 90.000000
_cell_volume 2304.709626
_symmetry_space_group_name_H-M "P M M M"
_symmetry_group_IT_number 47
_symmetry_cell_setting 'orthorhombic'
loop_
_space_group_symop_operation_xyz
x,y,z
-x,-y,z
x,-y,-z
-x,y,-z
-x,-y,-z
x,y,-z
-x,y,z
x,-y,z
loop_
_atom_site_type_symbol
_atom_site_label
_atom_site_fract_x
_atom_site_fract_y
_atom_site_fract_z
Si Si1 0.325179 0.000000 0.682438
Si Si2 0.086211 0.165441 0.196232
Si Si3 0.082866 0.500000 0.309404
Si Si4 0.160421 0.666491 0.809814
Si Si5 0.416771 0.597371 0.500000
Si Si6 0.414504 0.150625 0.187945
Si Si7 0.836225 0.000000 0.188670
Si Si8 0.662807 0.674169 0.188297
O O1 0.377816 0.920055 0.701735
O O2 0.254341 0.000000 0.804764
O O3 0.290822 0.000000 0.500000
O O4 0.122371 0.250661 0.269081
O O5 0.129683 0.084397 0.270154
O O6 0.000000 0.160441 0.253861
O O7 0.094221 0.166628 0.000000
O O8 0.068565 0.500000 0.500000
O O9 0.129571 0.417775 0.267814
O O10 0.000000 0.500000 0.221660
O O11 0.248875 0.671783 0.778957
O O12 0.139565 0.662750 0.000000
O O13 0.425032 0.500000 0.500000
O O14 0.500000 0.639119 0.500000
O O15 0.375136 0.619377 0.670261
O O16 0.500000 0.167906 0.246573
O O17 0.365123 0.232376 0.211241
O O18 0.413384 0.119738 0.000000
O O19 0.861820 0.000000 0.000000
O O20 0.643877 0.642874 0.000000
#
# Coordination Sequence:
#
# PCOD8196320 Si02
#       8
#     4   8   4   8   4   8   4   8
#     4  12  25  36  53  86 123 160 205 252 304 367
#     4   9  17  32  58  90 118 149 197 252 302 360
#     4  11  25  41  59  87 123 164 207 256 316 376
#     4  10  21  37  61  90 121 159 203 254 313 372
#     4  11  26  44  66  95 127 169 210 258 324 380
#     4  10  21  40  64  87 117 158 201 252 313 373
#     4  10  19  35  59  84 117 157 199 246 297 358
#     4  10  23  42  67  97 127 165 213 261 317 379
#
# _framework density 20.826917999999999
#
# number of rings (size 3 to 8) (size 9 to 14) (size 15 to 20)
#    0.000    1.833    0.000    3.500    3.500    7.667 
#    0.000    1.667    0.000    2.000    0.000    0.000 
#    0.000    0.000    0.000    0.000    0.000    0.000 
#
# Total GULP energy -595133.321801 kJ/mol
# GULP energy per Si atom -12398.610871 kJ/mol
# Density = 2.077951 g / cm^3
# Si number density = 20.826918 Si / 1000 Ang^3
#
#
#
# Elastic Constant Matrix: (Units=GPa)
#
#
# Indices 1 2 3 4 5 6 
#
# 1 157.4697 82.6286 40.4600 0.0000 0.0000 0.0000
# 2 82.6286 164.2791 37.7919 0.0000 0.0000 0.0000
# 3 40.4600 37.7919 68.1622 0.0000 0.0000 0.0000
# 4 0.0000 0.0000 0.0000 11.5627 0.0000 0.0000
# 5 0.0000 0.0000 0.0000 0.0000 17.0218 0.0000
# 6 0.0000 0.0000 0.0000 0.0000 0.0000 44.1317
#
#
#
# Elastic Compliance Matrix: (Units=1/GPa)
#
#
# Indices 1 2 3 4 5 6 
#
# 1 0.009245 -0.003883 -0.003335 0.000000 0.000000 0.000000
# 2 -0.003883 0.008608 -0.002468 0.000000 0.000000 0.000000
# 3 -0.003335 -0.002468 0.018019 0.000000 0.000000 0.000000
# 4 0.000000 0.000000 0.000000 0.086485 0.000000 0.000000
# 5 0.000000 0.000000 0.000000 0.000000 0.058748 0.000000
# 6 0.000000 0.000000 0.000000 0.000000 0.000000 0.022659
#
#
# Mechanical properties :
#
#
# Convention : Reuss Voigt Hill
#
# Bulk Modulus (GPa) = 60.60411 79.07466 69.83938
# Shear Modulus (GPa) = 21.86895 29.81194 25.84045
#
# Velocity S-wave (km/s) = 3.24394 3.78751 3.52621
# Velocity P-wave (km/s) = 6.57213 7.56154 7.08413
#
# Compressibility (1/GPa) = 0.01650053
#
# Stress axis : x y z
#
# Youngs Moduli (GPa) = 108.17146 116.17361 55.49828
#
# Poissons Ratio (x) = 0.45106 0.18507
# Poissons Ratio (y) = 0.41999 0.13696
# Poissons Ratio (z) = 0.36072 0.28670
#
# Static dielectric constant tensor:
#      x y z
#    x 3.905710 0.000000 0.000000 
#    y 0.000000 4.053460 0.000000 
#    z 0.000000 0.000000 3.668690 
# 
# 
# High freq. dielectric constant tensor:
#      x y z
#    x 1.831620 0.000000 0.000000 
#    y 0.000000 1.826300 0.000000 
#    z 0.000000 0.000000 1.792520 
# 
# From -- ./inp_files/9261.got.cif
#   From: 2010.03.12/outbox.cif.g09.slc.cpg/sg47_5_cif.got.tgz:9261.got - 2010.04.14 03:12:58.
