data_PCOD8196995
_publ_section_title
;
Structure prediction by ZEFSAII (Michael W. Deem and Ramdas Pophale) SiO2 
 PCOD8196995
Probable space group: P M M M
;
_chemical_formula_sum "Si O2"
_cell_formula_units_Z 52
_cell_length_a 9.437228
_cell_length_b 15.771690
_cell_length_c 19.491803
_cell_angle_alpha 90.000000
_cell_angle_beta 90.000000
_cell_angle_gamma 90.000000
_cell_volume 2901.180122
_symmetry_space_group_name_H-M "P M M M"
_symmetry_group_IT_number 47
_symmetry_cell_setting 'orthorhombic'
loop_
_space_group_symop_operation_xyz
x,y,z
-x,-y,z
x,-y,-z
-x,y,-z
-x,-y,-z
x,y,-z
-x,y,z
x,-y,z
loop_
_atom_site_type_symbol
_atom_site_label
_atom_site_fract_x
_atom_site_fract_y
_atom_site_fract_z
Si Si1 0.835107 0.093645 0.200356
Si Si2 0.659051 0.000000 0.581050
Si Si3 0.337268 0.151753 0.077636
Si Si4 0.165498 0.163053 0.577747
Si Si5 0.335927 0.651511 0.077531
Si Si6 0.833463 0.249406 0.289137
Si Si7 0.835141 0.405816 0.796783
O O1 0.759592 0.096452 0.127011
O O2 0.772100 0.166503 0.250053
O O3 0.000000 0.109052 0.187424
O O4 0.808141 0.000000 0.232690
O O5 0.744983 0.917066 0.604045
O O6 0.500000 0.000000 0.612875
O O7 0.648759 0.000000 0.500000
O O8 0.500000 0.135187 0.096626
O O9 0.299555 0.250139 0.086964
O O10 0.306639 0.122896 0.000000
O O11 0.204619 0.190630 0.500000
O O12 0.203092 0.240423 0.629648
O O13 0.000000 0.138193 0.583039
O O14 0.500000 0.633813 0.093126
O O15 0.242499 0.598460 0.130351
O O16 0.299332 0.622552 0.000000
O O17 0.771217 0.336593 0.257121
O O18 0.000000 0.251424 0.279481
O O19 0.811369 0.500000 0.765778
O O20 0.000000 0.388354 0.810358
#
# Coordination Sequence:
#
# PCOD8196995 Si02
#       7
#     8   4   8   8   8   8   8
#     4  10  20  32  48  70  95 128 167 201 239 287
#     4   9  17  29  45  71 107 135 158 197 244 283
#     4   9  18  33  51  69  93 127 164 203 245 286
#     4   9  17  30  51  74  96 131 174 204 233 285
#     4   9  18  33  52  73  98 128 161 200 248 297
#     4   9  18  33  51  71  99 128 157 201 247 283
#     4  10  20  34  53  75  97 126 163 200 246 301
#
# _framework density 17.923741
#
# number of rings (size 3 to 8) (size 9 to 14) (size 15 to 20)
#    0.000    2.692    1.538    1.154    1.077    2.769 
#    0.000    6.154    0.000    0.462    0.000    3.231 
#    0.000    0.000    0.000    5.231    0.000    5.538 
#
# Total GULP energy -644536.129213 kJ/mol
# GULP energy per Si atom -12394.925562 kJ/mol
# Density = 1.788295 g / cm^3
# Si number density = 17.923741 Si / 1000 Ang^3
#
#
#
# Elastic Constant Matrix: (Units=GPa)
#
#
# Indices 1 2 3 4 5 6 
#
# 1 42.0052 31.4875 30.7701 0.0000 0.0000 0.0000
# 2 31.4875 115.4055 65.8543 0.0000 0.0000 0.0000
# 3 30.7701 65.8543 108.3533 0.0000 0.0000 0.0000
# 4 0.0000 0.0000 0.0000 19.7399 0.0000 0.0000
# 5 0.0000 0.0000 0.0000 0.0000 9.9492 0.0000
# 6 0.0000 0.0000 0.0000 0.0000 0.0000 16.5088
#
#
#
# Elastic Compliance Matrix: (Units=1/GPa)
#
#
# Indices 1 2 3 4 5 6 
#
# 1 0.032156 -0.005454 -0.005817 0.000000 0.000000 0.000000
# 2 -0.005454 0.014191 -0.007076 0.000000 0.000000 0.000000
# 3 -0.005817 -0.007076 0.015182 0.000000 0.000000 0.000000
# 4 0.000000 0.000000 0.000000 0.050659 0.000000 0.000000
# 5 0.000000 0.000000 0.000000 0.000000 0.100510 0.000000
# 6 0.000000 0.000000 0.000000 0.000000 0.000000 0.060574
#
#
# Mechanical properties :
#
#
# Convention : Reuss Voigt Hill
#
# Bulk Modulus (GPa) = 40.26643 57.99863 49.13253
# Shear Modulus (GPa) = 15.71122 18.41639 17.06380
#
# Velocity S-wave (km/s) = 2.96389 3.20892 3.08883
# Velocity P-wave (km/s) = 5.85039 6.79399 6.33977
#
# Compressibility (1/GPa) = 0.02483459
#
# Stress axis : x y z
#
# Youngs Moduli (GPa) = 31.09831 70.46660 65.86954
#
# Poissons Ratio (x) = 0.38435 0.38314
# Poissons Ratio (y) = 0.16962 0.46610
# Poissons Ratio (z) = 0.18089 0.49863
#
# Static dielectric constant tensor:
#      x y z
#    x 3.163320 0.000000 0.000000 
#    y 0.000000 3.379860 0.000000 
#    z 0.000000 0.000000 3.329980 
# 
# 
# High freq. dielectric constant tensor:
#      x y z
#    x 1.672140 0.000000 0.000000 
#    y 0.000000 1.681610 0.000000 
#    z 0.000000 0.000000 1.686030 
# 
# From -- ./inp_files/24964.got.cif
#   From: 2010.03.12/outbox.cif.g09.slc.cpg/sg47_13_cif.got.tgz:24964.got - 2010.04.14 03:12:58.
