data_PCOD8196671
_publ_section_title
;
Structure prediction by ZEFSAII (Michael W. Deem and Ramdas Pophale) SiO2 
 PCOD8196671
Probable space group: P M M M
;
_chemical_formula_sum "Si O2"
_cell_formula_units_Z 60
_cell_length_a 19.916669
_cell_length_b 18.445915
_cell_length_c 9.248701
_cell_angle_alpha 90.000000
_cell_angle_beta 90.000000
_cell_angle_gamma 90.000000
_cell_volume 3397.798719
_symmetry_space_group_name_H-M "P M M M"
_symmetry_group_IT_number 47
_symmetry_cell_setting 'orthorhombic'
loop_
_space_group_symop_operation_xyz
x,y,z
-x,-y,z
x,-y,-z
-x,y,-z
-x,-y,-z
x,y,-z
-x,y,z
x,-y,z
loop_
_atom_site_type_symbol
_atom_site_label
_atom_site_fract_x
_atom_site_fract_y
_atom_site_fract_z
Si Si1 0.803122 0.229416 0.666326
Si Si2 0.077793 0.714257 0.168243
Si Si3 0.378715 0.860548 0.837055
Si Si4 0.680755 0.703794 0.165378
Si Si5 0.575948 0.417485 0.171515
Si Si6 0.737023 0.920082 0.661893
Si Si7 0.079283 0.578815 0.340589
Si Si8 0.500000 0.918017 0.670449
O O1 0.807329 0.253434 0.500000
O O2 0.875526 0.231932 0.742399
O O3 0.748135 0.282590 0.740838
O O4 0.789722 0.144086 0.682791
O O5 0.101500 0.634038 0.216448
O O6 0.000000 0.729070 0.207480
O O7 0.091361 0.723541 0.000000
O O8 0.363064 0.775953 0.827810
O O9 0.318384 0.911273 0.784919
O O10 0.437586 0.873745 0.726852
O O11 0.397817 0.883046 0.000000
O O12 0.633594 0.638456 0.228895
O O13 0.702631 0.687186 0.000000
O O14 0.500000 0.397812 0.227586
O O15 0.594025 0.500000 0.220113
O O16 0.575175 0.412015 0.000000
O O17 0.705291 0.914188 0.500000
O O18 0.770408 0.000000 0.681746
O O19 0.104318 0.604456 0.500000
O O20 0.110395 0.500000 0.303663
O O21 0.000000 0.572494 0.343308
O O22 0.500000 0.917694 0.500000
O O23 0.500000 0.000000 0.730738
#
# Coordination Sequence:
#
# PCOD8196671 Si02
#       8
#     8   8   8   8   8   8   8   4
#     4  10  20  34  53  75 100 130 167 206 249 304
#     4  10  20  33  51  75 103 134 168 207 251 301
#     4  10  20  31  47  72  98 125 159 200 246 297
#     4   9  18  32  51  73 101 130 161 207 255 298
#     4   8  14  26  48  76 101 129 169 213 253 293
#     4   9  18  34  54  73  95 125 162 203 248 300
#     4   8  14  26  45  69  97 128 161 196 235 282
#     4  11  23  35  45  61  92 131 164 196 237 287
#
# _framework density 17.658491999999999
#
# number of rings (size 3 to 8) (size 9 to 14) (size 15 to 20)
#    0.000    2.733    0.000    2.600    0.933    4.533 
#    0.000    2.000    0.000    3.200    0.000    3.733 
#    0.000    0.000    0.000    0.000    0.000    0.000 
#
# Total GULP energy -743449.450561 kJ/mol
# GULP energy per Si atom -12390.824176 kJ/mol
# Density = 1.761830 g / cm^3
# Si number density = 17.658492 Si / 1000 Ang^3
#
#
#
# Elastic Constant Matrix: (Units=GPa)
#
#
# Indices 1 2 3 4 5 6 
#
# 1 90.1823 52.7276 52.3683 0.0000 0.0000 0.0000
# 2 52.7276 103.6117 40.0943 0.0000 0.0000 0.0000
# 3 52.3683 40.0943 86.5623 0.0000 0.0000 0.0000
# 4 0.0000 0.0000 0.0000 22.6508 0.0000 0.0000
# 5 0.0000 0.0000 0.0000 0.0000 28.2820 0.0000
# 6 0.0000 0.0000 0.0000 0.0000 0.0000 20.2621
#
#
#
# Elastic Compliance Matrix: (Units=1/GPa)
#
#
# Indices 1 2 3 4 5 6 
#
# 1 0.020421 -0.006837 -0.009188 0.000000 0.000000 0.000000
# 2 -0.006837 0.014048 -0.002371 0.000000 0.000000 0.000000
# 3 -0.009188 -0.002371 0.018209 0.000000 0.000000 0.000000
# 4 0.000000 0.000000 0.000000 0.044148 0.000000 0.000000
# 5 0.000000 0.000000 0.000000 0.000000 0.035358 0.000000
# 6 0.000000 0.000000 0.000000 0.000000 0.000000 0.049353
#
#
# Mechanical properties :
#
#
# Convention : Reuss Voigt Hill
#
# Bulk Modulus (GPa) = 62.94224 63.41520 63.17872
# Shear Modulus (GPa) = 22.35892 23.25007 22.80449
#
# Velocity S-wave (km/s) = 3.56221 3.63250 3.59753
# Velocity P-wave (km/s) = 7.25539 7.32007 7.28780
#
# Compressibility (1/GPa) = 0.01588758
#
# Stress axis : x y z
#
# Youngs Moduli (GPa) = 48.96845 71.18399 54.91875
#
# Poissons Ratio (x) = 0.48669 0.50457
# Poissons Ratio (y) = 0.33480 0.13019
# Poissons Ratio (z) = 0.44990 0.16875
#
# Static dielectric constant tensor:
#      x y z
#    x 3.048990 0.000000 0.000000 
#    y 0.000000 3.504570 0.000000 
#    z 0.000000 0.000000 3.290190 
# 
# 
# High freq. dielectric constant tensor:
#      x y z
#    x 1.660010 0.000000 0.000000 
#    y 0.000000 1.683540 0.000000 
#    z 0.000000 0.000000 1.676360 
# 
# From -- ./inp_files/11630.got.cif
#   From: 2010.03.12/outbox.cif.g09.slc.cpg/sg47_6_cif.got.tgz:11630.got - 2010.04.14 03:12:58.
