data_PCOD8196406
_publ_section_title
;
Structure prediction by ZEFSAII (Michael W. Deem and Ramdas Pophale) SiO2 
 PCOD8196406
Probable space group: P M M M
;
_chemical_formula_sum "Si O2"
_cell_formula_units_Z 48
_cell_length_a 9.176007
_cell_length_b 20.808790
_cell_length_c 19.418317
_cell_angle_alpha 90.000000
_cell_angle_beta 90.000000
_cell_angle_gamma 90.000000
_cell_volume 3707.764570
_symmetry_space_group_name_H-M "P M M M"
_symmetry_group_IT_number 47
_symmetry_cell_setting 'orthorhombic'
loop_
_space_group_symop_operation_xyz
x,y,z
-x,-y,z
x,-y,-z
-x,y,-z
-x,-y,-z
x,y,-z
-x,y,z
x,-y,z
loop_
_atom_site_type_symbol
_atom_site_label
_atom_site_fract_x
_atom_site_fract_y
_atom_site_fract_z
Si Si1 0.334975 0.076370 0.424978
Si Si2 0.331549 0.237988 0.081226
Si Si3 0.831138 0.072868 0.294369
Si Si4 0.827156 0.500000 0.075308
Si Si5 0.334114 0.000000 0.918534
Si Si6 0.836672 0.637532 0.082108
Si Si7 0.171899 0.119578 0.853881
O O1 0.275897 0.100184 0.500000
O O2 0.500000 0.099525 0.415977
O O3 0.244563 0.105102 0.361082
O O4 0.323938 0.000000 0.422729
O O5 0.500000 0.230232 0.101794
O O6 0.276011 0.307845 0.105891
O O7 0.234215 0.186632 0.120572
O O8 0.308753 0.228553 0.000000
O O9 0.794664 0.114756 0.227341
O O10 0.000000 0.072410 0.311008
O O11 0.775799 0.000000 0.280666
O O12 0.784075 0.567626 0.112818
O O13 0.000000 0.500000 0.066913
O O14 0.752788 0.500000 0.000000
O O15 0.250986 0.937210 0.893722
O O16 0.500000 0.000000 0.890259
O O17 0.335047 0.000000 0.000000
O O18 0.000000 0.654788 0.108284
O O19 0.838939 0.631701 0.000000
O O20 0.000000 0.115001 0.868933
#
# Coordination Sequence:
#
# PCOD8196406 Si02
#       7
#     8   8   8   4   4   8   8
#     4   8  14  24  38  57  77  94 112 132 160 206
#     4  10  20  31  40  53  73  94 120 155 192 229
#     4   9  17  29  41  55  73  89 112 146 181 217
#     4   7  10  18  35  57  75  89 111 141 170 209
#     4  11  23  35  45  57  70  85 112 153 199 240
#     4   8  13  23  39  56  72  92 116 142 176 217
#     4  11  21  33  45  56  70  91 121 155 189 228
#
# _framework density 12.945805
#
# number of rings (size 3 to 8) (size 9 to 14) (size 15 to 20)
#    0.000    2.833    0.833    3.250    0.000    5.333 
#    0.000    2.083    0.000    2.500    0.000    0.000 
#    0.000    0.000    0.000    0.000    0.000    0.000 
#
# Total GULP energy -594765.831041 kJ/mol
# GULP energy per Si atom -12390.954813 kJ/mol
# Density = 1.291634 g / cm^3
# Si number density = 12.945805 Si / 1000 Ang^3
#
#
#
# Elastic Constant Matrix: (Units=GPa)
#
#
# Indices 1 2 3 4 5 6 
#
# 1 69.8639 38.0155 40.2063 0.0000 0.0000 0.0000
# 2 38.0155 85.0514 31.5368 0.0000 0.0000 0.0000
# 3 40.2063 31.5368 63.0988 0.0000 0.0000 0.0000
# 4 0.0000 0.0000 0.0000 -6.4393 0.0000 0.0000
# 5 0.0000 0.0000 0.0000 0.0000 19.6316 0.0000
# 6 0.0000 0.0000 0.0000 0.0000 0.0000 13.4466
#
#
#
# Elastic Compliance Matrix: (Units=1/GPa)
#
#
# Indices 1 2 3 4 5 6 
#
# 1 0.025246 -0.006529 -0.012823 0.000000 0.000000 0.000000
# 2 -0.006529 0.016121 -0.003897 0.000000 0.000000 0.000000
# 3 -0.012823 -0.003897 0.025967 0.000000 0.000000 0.000000
# 4 0.000000 0.000000 0.000000 -0.155296 0.000000 0.000000
# 5 0.000000 0.000000 0.000000 0.000000 0.050938 0.000000
# 6 0.000000 0.000000 0.000000 0.000000 0.000000 0.074368
#
#
# Mechanical properties :
#
#
# Convention : Reuss Voigt Hill
#
# Bulk Modulus (GPa) = 47.99653 48.61460 48.30557
# Shear Modulus (GPa) = 55.07321 12.54481 33.80901
#
# Velocity S-wave (km/s) = 6.52945 3.11629 5.11591
# Velocity P-wave (km/s) = 9.69538 7.11212 8.50243
#
# Compressibility (1/GPa) = 0.02083484
#
# Stress axis : x y z
#
# Youngs Moduli (GPa) = 39.60991 62.03093 38.51086
#
# Poissons Ratio (x) = 0.40503 0.49384
# Poissons Ratio (y) = 0.25863 0.15007
# Poissons Ratio (z) = 0.50793 0.24172
#
# Static dielectric constant tensor:
#      x y z
#    x 2.692250 0.000000 0.000000 
#    y 0.000000 2.643150 0.000000 
#    z 0.000000 0.000000 2.582240 
# 
# 
# High freq. dielectric constant tensor:
#      x y z
#    x 1.497140 0.000000 0.000000 
#    y 0.000000 1.468190 0.000000 
#    z 0.000000 0.000000 1.457870 
# 
# From -- ./inp_files/30050.got.cif
#   From: 2010.03.12/outbox.cif.g09.slc.cpg/sg47_16_cif.got.tgz:30050.got - 2010.04.14 03:12:58.
