data_PCOD8196502
_publ_section_title
;
Structure prediction by ZEFSAII (Michael W. Deem and Ramdas Pophale) SiO2 
 PCOD8196502
Probable space group: P M M M
;
_chemical_formula_sum "Si O2"
_cell_formula_units_Z 52
_cell_length_a 19.084205
_cell_length_b 18.492596
_cell_length_c 9.196040
_cell_angle_alpha 90.000000
_cell_angle_beta 90.000000
_cell_angle_gamma 90.000000
_cell_volume 3245.434187
_symmetry_space_group_name_H-M "P M M M"
_symmetry_group_IT_number 47
_symmetry_cell_setting 'orthorhombic'
loop_
_space_group_symop_operation_xyz
x,y,z
-x,-y,z
x,-y,-z
-x,y,-z
-x,-y,-z
x,y,-z
-x,y,z
x,-y,z
loop_
_atom_site_type_symbol
_atom_site_label
_atom_site_fract_x
_atom_site_fract_y
_atom_site_fract_z
Si Si1 0.286688 0.840360 0.328152
Si Si2 0.139387 0.583683 0.830388
Si Si3 0.795086 0.297164 0.666596
Si Si4 0.000000 0.585299 0.337339
Si Si5 0.577188 0.081140 0.327420
Si Si6 0.836230 0.083986 0.166880
Si Si7 0.078537 0.807801 0.334438
O O1 0.277938 0.851561 0.500000
O O2 0.268565 0.756823 0.288470
O O3 0.364756 0.861205 0.273001
O O4 0.233636 0.895025 0.252683
O O5 0.156829 0.500000 0.799917
O O6 0.204048 0.631384 0.767704
O O7 0.068979 0.609428 0.749146
O O8 0.129265 0.598561 0.000000
O O9 0.787079 0.321910 0.500000
O O10 0.868425 0.257205 0.695190
O O11 0.000000 0.500000 0.351929
O O12 0.000000 0.620410 0.500000
O O13 0.576207 0.080346 0.500000
O O14 0.500000 0.104406 0.269278
O O15 0.595237 0.000000 0.271337
O O16 0.903585 0.125104 0.230683
O O17 0.851003 0.000000 0.185990
O O18 0.825888 0.106132 0.000000
O O19 0.085915 0.834824 0.500000
O O20 0.000000 0.780178 0.300638
#
# Coordination Sequence:
#
# PCOD8196502 Si02
#       7
#     8   8   8   4   8   8   8
#     4   9  17  30  47  66  89 118 150 181 213 256
#     4  10  20  32  45  64  88 111 141 180 221 268
#     4   9  18  30  45  64  85 113 146 179 218 264
#     4   9  17  29  45  63  83 109 138 171 216 265
#     4   8  13  22  41  71 100 122 147 180 215 251
#     4  10  20  31  43  61  84 111 145 184 224 263
#     4   9  19  34  48  62  80 105 141 184 225 267
#
# _framework density 16.02251
#
# number of rings (size 3 to 8) (size 9 to 14) (size 15 to 20)
#    0.000    2.846    0.000    3.000    1.077    6.769 
#    0.000    1.538    0.000    0.462    0.000    2.154 
#    0.000    0.615    0.000    7.692    0.000    1.231 
#
# Total GULP energy -644567.537281 kJ/mol
# GULP energy per Si atom -12395.529563 kJ/mol
# Density = 1.598604 g / cm^3
# Si number density = 16.022510 Si / 1000 Ang^3
#
#
#
# Elastic Constant Matrix: (Units=GPa)
#
#
# Indices 1 2 3 4 5 6 
#
# 1 97.8251 44.5805 22.0068 0.0000 0.0000 0.0000
# 2 44.5805 79.9841 40.6384 0.0000 0.0000 0.0000
# 3 22.0068 40.6384 62.4021 0.0000 0.0000 0.0000
# 4 0.0000 0.0000 0.0000 24.4726 0.0000 0.0000
# 5 0.0000 0.0000 0.0000 0.0000 6.1452 0.0000
# 6 0.0000 0.0000 0.0000 0.0000 0.0000 23.0387
#
#
#
# Elastic Compliance Matrix: (Units=1/GPa)
#
#
# Indices 1 2 3 4 5 6 
#
# 1 0.013705 -0.007746 0.000211 0.000000 0.000000 0.000000
# 2 -0.007746 0.023063 -0.012288 0.000000 0.000000 0.000000
# 3 0.000211 -0.012288 0.023953 0.000000 0.000000 0.000000
# 4 0.000000 0.000000 0.000000 0.040862 0.000000 0.000000
# 5 0.000000 0.000000 0.000000 0.000000 0.162727 0.000000
# 6 0.000000 0.000000 0.000000 0.000000 0.000000 0.043405
#
#
# Mechanical properties :
#
#
# Convention : Reuss Voigt Hill
#
# Bulk Modulus (GPa) = 47.44785 50.51807 48.98296
# Shear Modulus (GPa) = 14.10894 19.59701 16.85298
#
# Velocity S-wave (km/s) = 2.97066 3.50107 3.24671
# Velocity P-wave (km/s) = 6.43770 6.92396 6.68525
#
# Compressibility (1/GPa) = 0.02107577
#
# Stress axis : x y z
#
# Youngs Moduli (GPa) = 72.96753 43.35956 41.74885
#
# Poissons Ratio (x) = 0.33586 -0.00882
# Poissons Ratio (y) = 0.56520 0.51300
# Poissons Ratio (z) = -0.01542 0.53279
#
# Static dielectric constant tensor:
#      x y z
#    x 3.162930 0.000000 0.000000 
#    y 0.000000 3.003590 0.000000 
#    z 0.000000 0.000000 2.976700 
# 
# 
# High freq. dielectric constant tensor:
#      x y z
#    x 1.586970 0.000000 0.000000 
#    y 0.000000 1.606930 0.000000 
#    z 0.000000 0.000000 1.606670 
# 
# From -- ./inp_files/11518.got.cif
#   From: 2010.03.12/outbox.cif.g09.slc.cpg/sg47_6_cif.got.tgz:11518.got - 2010.04.14 03:12:58.
