data_PCOD8196733
_publ_section_title
;
Structure prediction by ZEFSAII (Michael W. Deem and Ramdas Pophale) SiO2 
 PCOD8196733
Probable space group: P M M M
;
_chemical_formula_sum "Si O2"
_cell_formula_units_Z 48
_cell_length_a 9.049390
_cell_length_b 21.949759
_cell_length_c 17.989527
_cell_angle_alpha 90.000000
_cell_angle_beta 90.000000
_cell_angle_gamma 90.000000
_cell_volume 3573.294461
_symmetry_space_group_name_H-M "P M M M"
_symmetry_group_IT_number 47
_symmetry_cell_setting 'orthorhombic'
loop_
_space_group_symop_operation_xyz
x,y,z
-x,-y,z
x,-y,-z
-x,y,-z
-x,-y,-z
x,y,-z
-x,y,z
x,-y,z
loop_
_atom_site_type_symbol
_atom_site_label
_atom_site_fract_x
_atom_site_fract_y
_atom_site_fract_z
Si Si1 0.836609 0.384216 0.411815
Si Si2 0.324568 0.866851 0.638128
Si Si3 0.830467 0.072159 0.225985
Si Si4 0.831417 0.072080 0.500000
Si Si5 0.334435 0.072289 0.918204
Si Si6 0.173163 0.751001 0.413457
Si Si7 0.664281 0.500000 0.588828
O O1 0.844461 0.389303 0.500000
O O2 0.774239 0.317283 0.391183
O O3 0.738548 0.438762 0.378742
O O4 0.000000 0.392182 0.378309
O O5 0.500000 0.869820 0.630481
O O6 0.275193 0.895374 0.715546
O O7 0.250795 0.905132 0.572739
O O8 0.269945 0.797104 0.635154
O O9 0.779599 0.095172 0.144452
O O10 0.000000 0.091531 0.238649
O O11 0.810953 0.000000 0.234649
O O12 0.000000 0.096887 0.500000
O O13 0.829950 0.000000 0.500000
O O14 0.500000 0.096110 0.900310
O O15 0.335785 0.000000 0.918943
O O16 0.284136 0.096113 0.000000
O O17 0.204321 0.764312 0.500000
O O18 0.000000 0.759028 0.396185
O O19 0.500000 0.500000 0.619694
O O20 0.670031 0.500000 0.500000
#
# Coordination Sequence:
#
# PCOD8196733 Si02
#       7
#     8   8   8   4   8   8   4
#     4   8  14  24  38  53  68  91 119 146 179 223
#     4  12  23  32  44  60  76  96 124 161 202 240
#     4  10  20  32  45  60  78 101 127 156 191 231
#     4  11  23  37  49  57  69  92 123 160 201 243
#     4   8  14  26  44  64  84 102 118 142 181 227
#     4   9  17  30  45  56  70  95 125 158 194 232
#     4   9  15  21  31  51  75  95 111 141 184 219
#
# _framework density 13.432982000000001
#
# number of rings (size 3 to 8) (size 9 to 14) (size 15 to 20)
#    0.000    2.500    0.833    4.500    0.000    5.667 
#    0.000    3.333    0.000    0.000    0.000    0.000 
#    0.000    0.000    0.000    0.000    0.000    0.000 
#
# Total GULP energy -594982.489974 kJ/mol
# GULP energy per Si atom -12395.468541 kJ/mol
# Density = 1.340241 g / cm^3
# Si number density = 13.432982 Si / 1000 Ang^3
#
#
#
# Elastic Constant Matrix: (Units=GPa)
#
#
# Indices 1 2 3 4 5 6 
#
# 1 95.7807 44.7334 35.2942 0.0000 0.0000 0.0000
# 2 44.7334 73.4044 26.5877 0.0000 0.0000 0.0000
# 3 35.2942 26.5877 63.7929 0.0000 0.0000 0.0000
# 4 0.0000 0.0000 0.0000 -0.7716 0.0000 0.0000
# 5 0.0000 0.0000 0.0000 0.0000 18.6739 0.0000
# 6 0.0000 0.0000 0.0000 0.0000 0.0000 14.4031
#
#
#
# Elastic Compliance Matrix: (Units=1/GPa)
#
#
# Indices 1 2 3 4 5 6 
#
# 1 0.016184 -0.007796 -0.005704 0.000000 0.000000 0.000000
# 2 -0.007796 0.019801 -0.003939 0.000000 0.000000 0.000000
# 3 -0.005704 -0.003939 0.020474 0.000000 0.000000 0.000000
# 4 0.000000 0.000000 0.000000 -1.295939 0.000000 0.000000
# 5 0.000000 0.000000 0.000000 0.000000 0.053551 0.000000
# 6 0.000000 0.000000 0.000000 0.000000 0.000000 0.069429
#
#
# Mechanical properties :
#
#
# Convention : Reuss Voigt Hill
#
# Bulk Modulus (GPa) = 46.34295 49.57872 47.96083
# Shear Modulus (GPa) = -4.65364 14.88526 5.11581
#
# Velocity S-wave (km/s) = -1.86329 3.33244 1.95363
# Velocity P-wave (km/s) = 5.47221 7.19689 6.39298
#
# Compressibility (1/GPa) = 0.02157826
#
# Stress axis : x y z
#
# Youngs Moduli (GPa) = 61.79026 50.50193 48.84323
#
# Poissons Ratio (x) = 0.39373 0.27863
# Poissons Ratio (y) = 0.48174 0.19241
# Poissons Ratio (z) = 0.35248 0.19894
#
# Static dielectric constant tensor:
#      x y z
#    x 2.817200 0.000000 0.000000 
#    y 0.000000 2.690030 0.000000 
#    z 0.000000 0.000000 2.577520 
# 
# 
# High freq. dielectric constant tensor:
#      x y z
#    x 1.521750 0.000000 0.000000 
#    y 0.000000 1.493770 0.000000 
#    z 0.000000 0.000000 1.467890 
# 
# From -- ./inp_files/26906.got.cif
#   From: 2010.03.12/outbox.cif.g09.slc.cpg/sg47_14_cif.got.tgz:26906.got - 2010.04.14 03:12:58.
