data_PCOD8196399
_publ_section_title
;
Structure prediction by ZEFSAII (Michael W. Deem and Ramdas Pophale) SiO2 
 PCOD8196399
Probable space group: P M M M
;
_chemical_formula_sum "Si O2"
_cell_formula_units_Z 52
_cell_length_a 9.785805
_cell_length_b 24.614970
_cell_length_c 14.147752
_cell_angle_alpha 90.000000
_cell_angle_beta 90.000000
_cell_angle_gamma 90.000000
_cell_volume 3407.872253
_symmetry_space_group_name_H-M "P M M M"
_symmetry_group_IT_number 47
_symmetry_cell_setting 'orthorhombic'
loop_
_space_group_symop_operation_xyz
x,y,z
-x,-y,z
x,-y,-z
-x,y,-z
-x,-y,-z
x,y,-z
-x,y,z
x,-y,z
loop_
_atom_site_type_symbol
_atom_site_label
_atom_site_fract_x
_atom_site_fract_y
_atom_site_fract_z
Si Si1 0.245648 0.871046 0.387826
Si Si2 0.500000 0.937807 0.387138
Si Si3 0.341538 0.663804 0.284654
Si Si4 0.156180 0.500000 0.111983
Si Si5 0.837584 0.248089 0.389085
Si Si6 0.000000 0.060116 0.613084
Si Si7 0.343438 0.400050 0.108091
Si Si8 0.338074 0.441009 0.605196
O O1 0.243541 0.872075 0.500000
O O2 0.377152 0.901516 0.347547
O O3 0.226665 0.809085 0.355477
O O4 0.126855 0.907678 0.345615
O O5 0.500000 0.940993 0.500000
O O6 0.500000 0.000000 0.347704
O O7 0.500000 0.677409 0.311183
O O8 0.240561 0.709354 0.323428
O O9 0.324548 0.654382 0.171891
O O10 0.288384 0.607267 0.328618
O O11 0.240196 0.446709 0.144451
O O12 0.000000 0.500000 0.152705
O O13 0.150521 0.500000 0.000000
O O14 0.808035 0.259233 0.500000
O O15 0.000000 0.249259 0.369914
O O16 0.000000 0.058400 0.500000
O O17 0.000000 0.000000 0.655542
O O18 0.500000 0.421499 0.119453
O O19 0.313104 0.383400 0.000000
O O20 0.280560 0.430511 0.500000
O O21 0.500000 0.442022 0.602559
O O22 0.284382 0.500000 0.642162
#
# Coordination Sequence:
#
# PCOD8196399 Si02
#       8
#     8   4   8   4   8   4   8   8
#     4   9  16  26  38  55  79 111 146 182 220 253
#     4   9  16  24  36  58  84 108 140 186 229 254
#     4  10  20  30  47  68  82 109 151 186 220 268
#     4   9  17  29  47  69  90 113 138 165 205 264
#     4  10  20  33  45  59  86 120 154 190 227 261
#     4   9  14  22  38  56  76 106 146 182 209 248
#     4   9  18  32  48  68  93 115 138 175 225 274
#     4   8  14  25  40  59  82 103 130 175 220 252
#
# _framework density 15.258787999999999
#
# number of rings (size 3 to 8) (size 9 to 14) (size 15 to 20)
#    0.000    2.846    0.769    1.615    2.154    4.308 
#    0.000    0.000    0.000    0.000    0.000    2.154 
#    0.000    0.000    0.000    0.000    0.000    4.615 
#
# Total GULP energy -644227.442432 kJ/mol
# GULP energy per Si atom -12388.989278 kJ/mol
# Density = 1.522406 g / cm^3
# Si number density = 15.258788 Si / 1000 Ang^3
#
#
#
# Elastic Constant Matrix: (Units=GPa)
#
#
# Indices 1 2 3 4 5 6 
#
# 1 107.4285 65.2594 25.7688 0.0000 0.0000 0.0000
# 2 65.2594 132.1430 40.9349 0.0000 0.0000 0.0000
# 3 25.7688 40.9349 45.2925 0.0000 0.0000 0.0000
# 4 0.0000 0.0000 0.0000 3.9010 0.0000 0.0000
# 5 0.0000 0.0000 0.0000 0.0000 12.8646 0.0000
# 6 0.0000 0.0000 0.0000 0.0000 0.0000 30.5854
#
#
#
# Elastic Compliance Matrix: (Units=1/GPa)
#
#
# Indices 1 2 3 4 5 6 
#
# 1 0.013467 -0.005940 -0.002293 0.000000 0.000000 0.000000
# 2 -0.005940 0.013131 -0.008487 0.000000 0.000000 0.000000
# 3 -0.002293 -0.008487 0.031054 0.000000 0.000000 0.000000
# 4 0.000000 0.000000 0.000000 0.256345 0.000000 0.000000
# 5 0.000000 0.000000 0.000000 0.000000 0.077733 0.000000
# 6 0.000000 0.000000 0.000000 0.000000 0.000000 0.032695
#
#
# Mechanical properties :
#
#
# Convention : Reuss Voigt Hill
#
# Bulk Modulus (GPa) = 41.30548 60.97670 51.14109
# Shear Modulus (GPa) = 10.73107 19.66359 15.19733
#
# Velocity S-wave (km/s) = 2.65480 3.59370 3.15933
# Velocity P-wave (km/s) = 6.04368 7.56757 6.84814
#
# Compressibility (1/GPa) = 0.02420987
#
# Stress axis : x y z
#
# Youngs Moduli (GPa) = 74.25435 76.15853 32.20179
#
# Poissons Ratio (x) = 0.45242 0.07384
# Poissons Ratio (y) = 0.44111 0.27331
# Poissons Ratio (z) = 0.17027 0.64639
#
# Static dielectric constant tensor:
#      x y z
#    x 2.999810 0.000000 0.000000 
#    y 0.000000 3.093370 0.000000 
#    z 0.000000 0.000000 2.626770 
# 
# 
# High freq. dielectric constant tensor:
#      x y z
#    x 1.582080 0.000000 0.000000 
#    y 0.000000 1.582310 0.000000 
#    z 0.000000 0.000000 1.531830 
# 
# From -- ./inp_files/21838.got.cif
#   From: 2010.03.12/outbox.cif.g09.slc.cpg/sg47_11_cif.got.tgz:21838.got - 2010.04.14 03:12:58.
