data_PCOD8196706
_publ_section_title
;
Structure prediction by ZEFSAII (Michael W. Deem and Ramdas Pophale) SiO2 
 PCOD8196706
Probable space group: P M M M
;
_chemical_formula_sum "Si O2"
_cell_formula_units_Z 44
_cell_length_a 22.245141
_cell_length_b 13.809231
_cell_length_c 8.973030
_cell_angle_alpha 90.000000
_cell_angle_beta 90.000000
_cell_angle_gamma 90.000000
_cell_volume 2756.409748
_symmetry_space_group_name_H-M "P M M M"
_symmetry_group_IT_number 47
_symmetry_cell_setting 'orthorhombic'
loop_
_space_group_symop_operation_xyz
x,y,z
-x,-y,z
x,-y,-z
-x,y,-z
-x,-y,-z
x,y,-z
-x,y,z
x,-y,z
loop_
_atom_site_type_symbol
_atom_site_label
_atom_site_fract_x
_atom_site_fract_y
_atom_site_fract_z
Si Si1 0.259482 0.111533 0.176298
Si Si2 0.500000 0.884297 0.168235
Si Si3 0.934449 0.113016 0.837099
Si Si4 0.155513 0.225350 0.672708
Si Si5 0.932454 0.608900 0.323019
Si Si6 0.617479 0.885753 0.666515
O O1 0.214608 0.193687 0.237726
O O2 0.323980 0.141918 0.239530
O O3 0.242493 0.000000 0.223916
O O4 0.261445 0.118493 0.000000
O O5 0.441187 0.842838 0.251737
O O6 0.500000 0.000000 0.167869
O O7 0.500000 0.844526 0.000000
O O8 0.892512 0.140767 0.699498
O O9 0.000000 0.160531 0.813838
O O10 0.941191 0.000000 0.836038
O O11 0.908211 0.145569 0.000000
O O12 0.172402 0.234891 0.500000
O O13 0.121402 0.321580 0.736894
O O14 0.932724 0.616149 0.500000
O O15 0.917119 0.500000 0.270435
O O16 0.000000 0.637197 0.265535
O O17 0.622305 0.841744 0.500000
O O18 0.610665 0.000000 0.656462
#
# Coordination Sequence:
#
# PCOD8196706 Si02
#       6
#     8   4   8   8   8   8
#     4  10  20  32  43  56  81 118 151 175 207 254
#     4   9  15  23  37  57  81 111 146 179 214 255
#     4   9  18  31  43  55  76 107 137 163 197 243
#     4  11  20  28  43  65  83 102 133 172 210 248
#     4   8  15  29  47  65  84 104 128 164 213 265
#     4   9  16  26  40  58  80 107 144 188 221 241
#
# _framework density 15.962794000000001
#
# number of rings (size 3 to 8) (size 9 to 14) (size 15 to 20)
#    0.000    2.636    0.000    4.091    0.000    8.000 
#    0.000    0.909    0.000    2.182    0.000    6.364 
#    0.000    0.000    0.000    0.818    0.000   17.000 
#
# Total GULP energy -545091.147051 kJ/mol
# GULP energy per Si atom -12388.435160 kJ/mol
# Density = 1.592646 g / cm^3
# Si number density = 15.962794 Si / 1000 Ang^3
#
#
#
# Elastic Constant Matrix: (Units=GPa)
#
#
# Indices 1 2 3 4 5 6 
#
# 1 133.8817 49.7341 48.9022 0.0000 0.0000 0.0000
# 2 49.7341 52.1392 24.4927 0.0000 0.0000 0.0000
# 3 48.9022 24.4927 72.7206 0.0000 0.0000 0.0000
# 4 0.0000 0.0000 0.0000 9.5222 0.0000 0.0000
# 5 0.0000 0.0000 0.0000 0.0000 28.3600 0.0000
# 6 0.0000 0.0000 0.0000 0.0000 0.0000 18.5247
#
#
#
# Elastic Compliance Matrix: (Units=1/GPa)
#
#
# Indices 1 2 3 4 5 6 
#
# 1 0.013195 -0.010000 -0.005505 0.000000 0.000000 0.000000
# 2 -0.010000 0.030363 -0.003502 0.000000 0.000000 0.000000
# 3 -0.005505 -0.003502 0.018633 0.000000 0.000000 0.000000
# 4 0.000000 0.000000 0.000000 0.105018 0.000000 0.000000
# 5 0.000000 0.000000 0.000000 0.000000 0.035261 0.000000
# 6 0.000000 0.000000 0.000000 0.000000 0.000000 0.053982
#
#
# Mechanical properties :
#
#
# Convention : Reuss Voigt Hill
#
# Bulk Modulus (GPa) = 41.36176 56.11106 48.73641
# Shear Modulus (GPa) = 16.52757 20.32221 18.42489
#
# Velocity S-wave (km/s) = 3.22122 3.57192 3.40110
# Velocity P-wave (km/s) = 6.30893 7.22765 6.78386
#
# Compressibility (1/GPa) = 0.02417692
#
# Stress axis : x y z
#
# Youngs Moduli (GPa) = 75.78651 32.93443 53.66942
#
# Poissons Ratio (x) = 0.32935 0.29545
# Poissons Ratio (y) = 0.75789 0.18793
# Poissons Ratio (z) = 0.41721 0.11533
#
# Static dielectric constant tensor:
#      x y z
#    x 3.186990 0.000000 0.000000 
#    y 0.000000 2.777460 0.000000 
#    z 0.000000 0.000000 3.098020 
# 
# 
# High freq. dielectric constant tensor:
#      x y z
#    x 1.615480 0.000000 0.000000 
#    y 0.000000 1.554940 0.000000 
#    z 0.000000 0.000000 1.613190 
# 
# From -- ./inp_files/12430.got.cif
#   From: 2010.03.12/outbox.cif.g09.slc.cpg/sg47_7_cif.got.tgz:12430.got - 2010.04.14 03:12:58.
