data_PCOD8196971
_publ_section_title
;
Structure prediction by ZEFSAII (Michael W. Deem and Ramdas Pophale) SiO2 
 PCOD8196971
Probable space group: P M M M
;
_chemical_formula_sum "Si O2"
_cell_formula_units_Z 40
_cell_length_a 9.259705
_cell_length_b 27.471330
_cell_length_c 8.019219
_cell_angle_alpha 90.000000
_cell_angle_beta 90.000000
_cell_angle_gamma 90.000000
_cell_volume 2039.900154
_symmetry_space_group_name_H-M "P M M M"
_symmetry_group_IT_number 47
_symmetry_cell_setting 'orthorhombic'
loop_
_space_group_symop_operation_xyz
x,y,z
-x,-y,z
x,-y,-z
-x,y,-z
-x,-y,-z
x,y,-z
-x,y,z
x,-y,z
loop_
_atom_site_type_symbol
_atom_site_label
_atom_site_fract_x
_atom_site_fract_y
_atom_site_fract_z
Si Si1 0.171923 0.396491 0.186698
Si Si2 0.828477 0.054458 0.000000
Si Si3 0.832275 0.882563 0.687075
Si Si4 0.835322 0.705228 0.310337
Si Si5 0.840471 0.500000 0.800658
Si Si6 0.664289 0.793376 0.809869
O O1 0.221536 0.350472 0.296898
O O2 0.236577 0.448728 0.254029
O O3 0.000000 0.401927 0.188932
O O4 0.227400 0.386268 0.000000
O O5 0.773984 0.080782 0.830212
O O6 0.000000 0.052381 0.000000
O O7 0.763619 0.000000 0.000000
O O8 0.808965 0.904547 0.500000
O O9 0.748185 0.831841 0.696112
O O10 0.000000 0.871206 0.718702
O O11 0.825288 0.722343 0.500000
O O12 0.736115 0.740408 0.201591
O O13 0.000000 0.708549 0.244006
O O14 0.000000 0.500000 0.721603
O O15 0.850743 0.500000 0.000000
O O16 0.500000 0.789962 0.746997
O O17 0.672371 0.811244 0.000000
#
# Coordination Sequence:
#
# PCOD8196971 Si02
#       6
#     8   4   8   8   4   8
#     4   8  13  23  40  62  89 123 161 202 248 299
#     4   9  18  34  57  87 121 151 181 222 265 304
#     4  10  20  35  58  86 114 147 184 220 264 316
#     4  10  20  32  47  71 102 134 169 209 257 315
#     4   7  10  18  35  59  86 117 156 199 244 296
#     4  11  23  37  54  76 102 136 178 222 269 319
#
# _framework density 19.608802000000001
#
# number of rings (size 3 to 8) (size 9 to 14) (size 15 to 20)
#    0.000    2.600    1.000    3.000    0.000    5.600 
#    0.000    2.500    0.000    4.200    0.000    2.100 
#    0.000    5.600    0.000    0.000    0.000    0.000 
#
# Total GULP energy -495656.691228 kJ/mol
# GULP energy per Si atom -12391.417281 kJ/mol
# Density = 1.956417 g / cm^3
# Si number density = 19.608802 Si / 1000 Ang^3
#
#
#
# Elastic Constant Matrix: (Units=GPa)
#
#
# Indices 1 2 3 4 5 6 
#
# 1 53.3802 39.9806 25.7316 0.0000 0.0000 0.0000
# 2 39.9806 152.2425 45.8137 0.0000 0.0000 0.0000
# 3 25.7316 45.8137 88.7927 0.0000 0.0000 0.0000
# 4 0.0000 0.0000 0.0000 22.3059 0.0000 0.0000
# 5 0.0000 0.0000 0.0000 0.0000 14.0779 0.0000
# 6 0.0000 0.0000 0.0000 0.0000 0.0000 0.6951
#
#
#
# Elastic Compliance Matrix: (Units=1/GPa)
#
#
# Indices 1 2 3 4 5 6 
#
# 1 0.024766 -0.005142 -0.004524 0.000000 0.000000 0.000000
# 2 -0.005142 0.008844 -0.003073 0.000000 0.000000 0.000000
# 3 -0.004524 -0.003073 0.014159 0.000000 0.000000 0.000000
# 4 0.000000 0.000000 0.000000 0.044831 0.000000 0.000000
# 5 0.000000 0.000000 0.000000 0.000000 0.071033 0.000000
# 6 0.000000 0.000000 0.000000 0.000000 0.000000 1.438549
#
#
# Mechanical properties :
#
#
# Convention : Reuss Voigt Hill
#
# Bulk Modulus (GPa) = 44.86278 57.49637 51.17958
# Shear Modulus (GPa) = 3.05794 19.60843 11.33318
#
# Velocity S-wave (km/s) = 1.25014 3.16568 2.40670
# Velocity P-wave (km/s) = 5.00124 6.53815 5.82064
#
# Compressibility (1/GPa) = 0.02229019
#
# Stress axis : x y z
#
# Youngs Moduli (GPa) = 40.37836 113.07617 70.62885
#
# Poissons Ratio (x) = 0.58149 0.31950
# Poissons Ratio (y) = 0.20764 0.21702
# Poissons Ratio (z) = 0.18266 0.34745
#
# Static dielectric constant tensor:
#      x y z
#    x 3.039300 0.000000 0.000000 
#    y 0.000000 3.853950 0.000000 
#    z 0.000000 0.000000 3.490750 
# 
# 
# High freq. dielectric constant tensor:
#      x y z
#    x 1.696890 0.000000 0.000000 
#    y 0.000000 1.776030 0.000000 
#    z 0.000000 0.000000 1.758170 
# 
# From -- ./inp_files/1792.got.cif
#   From: 2010.03.12/outbox.cif.g09.slc.cpg/sg47_1_cif.got.tgz:1792.got - 2010.04.14 03:12:58.
