data_PCOD8196214
_publ_section_title
;
Structure prediction by ZEFSAII (Michael W. Deem and Ramdas Pophale) SiO2 
 PCOD8196214
Probable space group: P M M M
;
_chemical_formula_sum "Si O2"
_cell_formula_units_Z 52
_cell_length_a 9.245972
_cell_length_b 15.274305
_cell_length_c 18.765390
_cell_angle_alpha 90.000000
_cell_angle_beta 90.000000
_cell_angle_gamma 90.000000
_cell_volume 2650.157147
_symmetry_space_group_name_H-M "P M M M"
_symmetry_group_IT_number 47
_symmetry_cell_setting 'orthorhombic'
loop_
_space_group_symop_operation_xyz
x,y,z
-x,-y,z
x,-y,-z
-x,y,-z
-x,-y,-z
x,y,-z
-x,y,z
x,-y,z
loop_
_atom_site_type_symbol
_atom_site_label
_atom_site_fract_x
_atom_site_fract_y
_atom_site_fract_z
Si Si1 0.331527 0.899782 0.325971
Si Si2 0.828321 0.602616 0.682103
Si Si3 0.665168 0.180025 0.080558
Si Si4 0.157216 0.899963 0.809159
Si Si5 0.667340 0.346704 0.177495
Si Si6 0.328432 0.500000 0.078397
Si Si7 0.667764 0.265967 0.583008
O O1 0.500000 0.897353 0.308022
O O2 0.253592 0.862262 0.255320
O O3 0.291386 0.831142 0.388120
O O4 0.286380 0.000000 0.347331
O O5 0.784168 0.500000 0.677056
O O6 0.763826 0.647354 0.752544
O O7 0.763055 0.655950 0.615863
O O8 0.000000 0.613214 0.682502
O O9 0.500000 0.148512 0.079894
O O10 0.765896 0.104846 0.113283
O O11 0.690417 0.256705 0.136903
O O12 0.712576 0.205231 0.000000
O O13 0.000000 0.852717 0.810981
O O14 0.133577 0.000000 0.791344
O O15 0.500000 0.362588 0.198373
O O16 0.725899 0.416575 0.121205
O O17 0.500000 0.500000 0.070770
O O18 0.257403 0.500000 0.000000
O O19 0.702213 0.264340 0.500000
O O20 0.500000 0.286378 0.599034
#
# Coordination Sequence:
#
# PCOD8196214 Si02
#       7
#     8   8   8   8   8   4   8
#     4   9  18  35  60  88 117 148 181 221 274 335
#     4  11  24  40  58  81 112 150 192 236 282 333
#     4  10  21  35  52  78 110 142 180 228 281 333
#     4  10  21  36  54  77 106 143 188 232 271 318
#     4  10  19  34  57  82 107 139 180 225 271 326
#     4   9  16  28  51  81 108 135 170 215 265 316
#     4  10  22  39  60  88 118 147 183 228 277 332
#
# _framework density 19.621476999999999
#
# number of rings (size 3 to 8) (size 9 to 14) (size 15 to 20)
#    0.000    2.077    0.769    2.308    0.000   10.154 
#    0.000    4.615    0.000    1.846    0.000    3.231 
#    0.000    0.000    0.000    0.000    0.000    0.000 
#
# Total GULP energy -644584.130043 kJ/mol
# GULP energy per Si atom -12395.848655 kJ/mol
# Density = 1.957682 g / cm^3
# Si number density = 19.621477 Si / 1000 Ang^3
#
#
#
# Elastic Constant Matrix: (Units=GPa)
#
#
# Indices 1 2 3 4 5 6 
#
# 1 83.0603 41.0001 64.6565 0.0000 0.0000 0.0000
# 2 41.0001 70.3676 53.3250 0.0000 0.0000 0.0000
# 3 64.6565 53.3250 156.8378 0.0000 0.0000 0.0000
# 4 0.0000 0.0000 0.0000 26.4234 0.0000 0.0000
# 5 0.0000 0.0000 0.0000 0.0000 7.0393 0.0000
# 6 0.0000 0.0000 0.0000 0.0000 0.0000 17.8871
#
#
#
# Elastic Compliance Matrix: (Units=1/GPa)
#
#
# Indices 1 2 3 4 5 6 
#
# 1 0.020209 -0.007357 -0.005830 0.000000 0.000000 0.000000
# 2 -0.007357 0.021822 -0.004386 0.000000 0.000000 0.000000
# 3 -0.005830 -0.004386 0.010271 0.000000 0.000000 0.000000
# 4 0.000000 0.000000 0.000000 0.037845 0.000000 0.000000
# 5 0.000000 0.000000 0.000000 0.000000 0.142060 0.000000
# 6 0.000000 0.000000 0.000000 0.000000 0.000000 0.055906
#
#
# Mechanical properties :
#
#
# Convention : Reuss Voigt Hill
#
# Bulk Modulus (GPa) = 58.29217 69.80320 64.04769
# Shear Modulus (GPa) = 15.19856 20.35556 17.77706
#
# Velocity S-wave (km/s) = 2.78616 3.22438 3.01325
# Velocity P-wave (km/s) = 6.33428 7.03664 6.69468
#
# Compressibility (1/GPa) = 0.01715496
#
# Stress axis : x y z
#
# Youngs Moduli (GPa) = 49.48251 45.82555 97.36377
#
# Poissons Ratio (x) = 0.33715 0.56761
# Poissons Ratio (y) = 0.36405 0.42708
# Poissons Ratio (z) = 0.28847 0.20101
#
# Static dielectric constant tensor:
#      x y z
#    x 3.650090 0.000000 0.000000 
#    y 0.000000 3.700270 0.000000 
#    z 0.000000 0.000000 3.646650 
# 
# 
# High freq. dielectric constant tensor:
#      x y z
#    x 1.749250 0.000000 0.000000 
#    y 0.000000 1.769190 0.000000 
#    z 0.000000 0.000000 1.766490 
# 
# From -- ./inp_files/26759.got.cif
#   From: 2010.03.12/outbox.cif.g09.slc.cpg/sg47_14_cif.got.tgz:26759.got - 2010.04.14 03:12:58.
