data_PCOD8196083
_publ_section_title
;
Structure prediction by ZEFSAII (Michael W. Deem and Ramdas Pophale) SiO2 
 PCOD8196083
Probable space group: P M M M
;
_chemical_formula_sum "Si O2"
_cell_formula_units_Z 48
_cell_length_a 8.935502
_cell_length_b 15.842952
_cell_length_c 16.779972
_cell_angle_alpha 90.000000
_cell_angle_beta 90.000000
_cell_angle_gamma 90.000000
_cell_volume 2375.452194
_symmetry_space_group_name_H-M "P M M M"
_symmetry_group_IT_number 47
_symmetry_cell_setting 'orthorhombic'
loop_
_space_group_symop_operation_xyz
x,y,z
-x,-y,z
x,-y,-z
-x,y,-z
-x,-y,-z
x,y,-z
-x,y,z
x,-y,z
loop_
_atom_site_type_symbol
_atom_site_label
_atom_site_fract_x
_atom_site_fract_y
_atom_site_fract_z
Si Si1 0.173450 0.094516 0.682284
Si Si2 0.326780 0.247786 0.593329
Si Si3 0.323403 0.842503 0.168512
Si Si4 0.171368 0.405461 0.326802
Si Si5 0.171497 0.327201 0.163330
Si Si6 0.677855 0.905753 0.000000
Si Si7 0.178042 0.406510 0.000000
O O1 0.245378 0.164632 0.625730
O O2 0.248465 0.093559 0.769520
O O3 0.000000 0.117178 0.691559
O O4 0.195242 0.000000 0.646237
O O5 0.297601 0.251732 0.500000
O O6 0.500000 0.238631 0.615248
O O7 0.269391 0.335303 0.629843
O O8 0.500000 0.853788 0.173956
O O9 0.274691 0.748965 0.193371
O O10 0.262633 0.859526 0.079189
O O11 0.225495 0.500000 0.350382
O O12 0.184438 0.398593 0.230852
O O13 0.000000 0.391910 0.353293
O O14 0.236069 0.360094 0.079277
O O15 0.000000 0.296787 0.153826
O O16 0.500000 0.906607 0.000000
O O17 0.742112 0.000000 0.000000
O O18 0.246654 0.500000 0.000000
O O19 0.000000 0.411325 0.000000
#
# Coordination Sequence:
#
# PCOD8196083 Si02
#       7
#     8   8   8   8   8   4   4
#     4  11  24  42  65  93 124 159 201 250 305 364
#     4  11  25  44  66  93 124 158 198 247 303 366
#     4  11  21  35  58  85 118 161 206 249 299 357
#     4  10  21  38  62  91 124 165 209 250 297 358
#     4  10  19  33  55  83 118 159 204 251 298 350
#     4   9  19  34  51  77 114 157 204 249 294 349
#     4   9  17  30  51  81 116 157 206 254 297 345
#
# _framework density 20.206679999999999
#
# number of rings (size 3 to 8) (size 9 to 14) (size 15 to 20)
#    0.000    1.667    1.667    3.000    0.000    6.333 
#    0.000    4.583    0.000    5.000    0.000    0.000 
#    0.000    0.000    0.000    0.000    0.000    0.000 
#
# Total GULP energy -595228.453945 kJ/mol
# GULP energy per Si atom -12400.592791 kJ/mol
# Density = 2.016069 g / cm^3
# Si number density = 20.206680 Si / 1000 Ang^3
#
#
#
# Elastic Constant Matrix: (Units=GPa)
#
#
# Indices 1 2 3 4 5 6 
#
# 1 94.7419 55.1553 54.2468 0.0000 0.0000 0.0000
# 2 55.1553 143.0671 50.0311 0.0000 0.0000 0.0000
# 3 54.2468 50.0311 102.2741 0.0000 0.0000 0.0000
# 4 0.0000 0.0000 0.0000 22.2801 0.0000 0.0000
# 5 0.0000 0.0000 0.0000 0.0000 27.2078 0.0000
# 6 0.0000 0.0000 0.0000 0.0000 0.0000 13.2594
#
#
#
# Elastic Compliance Matrix: (Units=1/GPa)
#
#
# Indices 1 2 3 4 5 6 
#
# 1 0.016931 -0.004086 -0.006982 0.000000 0.000000 0.000000
# 2 -0.004086 0.009418 -0.002440 0.000000 0.000000 0.000000
# 3 -0.006982 -0.002440 0.014674 0.000000 0.000000 0.000000
# 4 0.000000 0.000000 0.000000 0.044883 0.000000 0.000000
# 5 0.000000 0.000000 0.000000 0.000000 0.036754 0.000000
# 6 0.000000 0.000000 0.000000 0.000000 0.000000 0.075418
#
#
# Mechanical properties :
#
#
# Convention : Reuss Voigt Hill
#
# Bulk Modulus (GPa) = 71.38467 73.21661 72.30064
# Shear Modulus (GPa) = 21.76150 24.59280 23.17715
#
# Velocity S-wave (km/s) = 3.28525 3.49243 3.39042
# Velocity P-wave (km/s) = 7.05652 7.25088 7.15436
#
# Compressibility (1/GPa) = 0.01400861
#
# Stress axis : x y z
#
# Youngs Moduli (GPa) = 59.06293 106.17740 68.14565
#
# Poissons Ratio (x) = 0.43382 0.47577
# Poissons Ratio (y) = 0.24132 0.16628
# Poissons Ratio (z) = 0.41236 0.25909
#
# Static dielectric constant tensor:
#      x y z
#    x 3.474120 0.000000 0.000000 
#    y 0.000000 3.701530 0.000000 
#    z 0.000000 0.000000 3.802700 
# 
# 
# High freq. dielectric constant tensor:
#      x y z
#    x 1.770640 0.000000 0.000000 
#    y 0.000000 1.798440 0.000000 
#    z 0.000000 0.000000 1.794930 
# 
# From -- ./inp_files/26541.got.cif
#   From: 2010.03.12/outbox.cif.g09.slc.cpg/sg47_14_cif.got.tgz:26541.got - 2010.04.14 03:12:58.
