data_PCOD8196157
_publ_section_title
;
Structure prediction by ZEFSAII (Michael W. Deem and Ramdas Pophale) SiO2 
 PCOD8196157
Probable space group: P M M M
;
_chemical_formula_sum "Si O2"
_cell_formula_units_Z 64
_cell_length_a 19.359379
_cell_length_b 19.283159
_cell_length_c 9.160806
_cell_angle_alpha 90.000000
_cell_angle_beta 90.000000
_cell_angle_gamma 90.000000
_cell_volume 3419.820336
_symmetry_space_group_name_H-M "P M M M"
_symmetry_group_IT_number 47
_symmetry_cell_setting 'orthorhombic'
loop_
_space_group_symop_operation_xyz
x,y,z
-x,-y,z
x,-y,-z
-x,y,-z
-x,-y,-z
x,y,-z
-x,y,z
x,-y,z
loop_
_atom_site_type_symbol
_atom_site_label
_atom_site_fract_x
_atom_site_fract_y
_atom_site_fract_z
Si Si1 0.335735 0.700116 0.326558
Si Si2 0.186943 0.154512 0.669158
Si Si3 0.576569 0.424660 0.673493
Si Si4 0.920691 0.579433 0.172155
Si Si5 0.075959 0.081604 0.839909
Si Si6 0.821803 0.689746 0.670531
Si Si7 0.692934 0.921421 0.168411
Si Si8 0.579100 0.817708 0.831746
O O1 0.340187 0.708584 0.500000
O O2 0.373796 0.633048 0.262094
O O3 0.257469 0.687479 0.276744
O O4 0.373166 0.765971 0.258864
O O5 0.205223 0.149467 0.500000
O O6 0.126069 0.103011 0.710712
O O7 0.157691 0.231044 0.707616
O O8 0.256408 0.132267 0.751321
O O9 0.575344 0.420914 0.500000
O O10 0.500000 0.411260 0.735011
O O11 0.603430 0.500000 0.724701
O O12 0.902067 0.500000 0.218021
O O13 0.869271 0.634192 0.246837
O O14 0.000000 0.595527 0.218405
O O15 0.912471 0.587846 0.000000
O O16 0.000000 0.112390 0.808504
O O17 0.072363 0.000000 0.841231
O O18 0.101774 0.107696 0.000000
O O19 0.828904 0.672676 0.500000
O O20 0.614385 0.893536 0.185815
O O21 0.697364 0.000000 0.232138
O O22 0.715316 0.922389 0.000000
O O23 0.500000 0.820317 0.772719
O O24 0.579556 0.794398 0.000000
#
# Coordination Sequence:
#
# PCOD8196157 Si02
#       8
#     8   8   8   8   8   8   8   8
#     4  10  19  34  54  77 107 145 184 222 268 326
#     4  11  22  36  53  79 114 146 179 227 280 328
#     4   8  14  25  44  72 101 130 170 216 257 301
#     4   9  20  40  63  86 113 147 189 233 275 323
#     4   9  19  36  56  78 105 139 181 224 266 323
#     4  10  22  36  53  81 114 145 183 226 269 321
#     4  10  21  37  57  79 104 141 187 231 281 341
#     4  10  21  36  55  80 108 140 180 229 285 338
#
# _framework density 18.714434000000001
#
# number of rings (size 3 to 8) (size 9 to 14) (size 15 to 20)
#    0.000    2.375    1.250    2.250    0.000    6.250 
#    0.000    6.250    0.000    0.375    0.000    3.500 
#    0.000    0.000    0.000    0.000    0.000    0.000 
#
# Total GULP energy -793123.882775 kJ/mol
# GULP energy per Si atom -12392.560668 kJ/mol
# Density = 1.867184 g / cm^3
# Si number density = 18.714434 Si / 1000 Ang^3
#
#
#
# Elastic Constant Matrix: (Units=GPa)
#
#
# Indices 1 2 3 4 5 6 
#
# 1 127.3082 65.3983 42.0454 0.0000 0.0000 0.0000
# 2 65.3983 100.6005 43.6894 0.0000 0.0000 0.0000
# 3 42.0454 43.6894 50.8249 0.0000 0.0000 0.0000
# 4 0.0000 0.0000 0.0000 28.0255 0.0000 0.0000
# 5 0.0000 0.0000 0.0000 0.0000 0.8649 0.0000
# 6 0.0000 0.0000 0.0000 0.0000 0.0000 42.8868
#
#
#
# Elastic Compliance Matrix: (Units=1/GPa)
#
#
# Indices 1 2 3 4 5 6 
#
# 1 0.012666 -0.005878 -0.005426 0.000000 0.000000 0.000000
# 2 -0.005878 0.018589 -0.011117 0.000000 0.000000 0.000000
# 3 -0.005426 -0.011117 0.033720 0.000000 0.000000 0.000000
# 4 0.000000 0.000000 0.000000 0.035682 0.000000 0.000000
# 5 0.000000 0.000000 0.000000 0.000000 1.156262 0.000000
# 6 0.000000 0.000000 0.000000 0.000000 0.000000 0.023317
#
#
# Mechanical properties :
#
#
# Convention : Reuss Voigt Hill
#
# Bulk Modulus (GPa) = 49.66561 64.55554 57.11057
# Shear Modulus (GPa) = 3.75435 22.86214 13.30824
#
# Velocity S-wave (km/s) = 1.41791 3.49898 2.66958
# Velocity P-wave (km/s) = 5.41081 7.13398 6.33130
#
# Compressibility (1/GPa) = 0.02013466
#
# Stress axis : x y z
#
# Youngs Moduli (GPa) = 78.94967 53.79429 29.65582
#
# Poissons Ratio (x) = 0.31619 0.16090
# Poissons Ratio (y) = 0.46405 0.32969
# Poissons Ratio (z) = 0.42836 0.59804
#
# Static dielectric constant tensor:
#      x y z
#    x 3.607920 0.000000 0.000000 
#    y 0.000000 3.635150 0.000000 
#    z 0.000000 0.000000 3.208200 
# 
# 
# High freq. dielectric constant tensor:
#      x y z
#    x 1.733880 0.000000 0.000000 
#    y 0.000000 1.732590 0.000000 
#    z 0.000000 0.000000 1.702840 
# 
# From -- ./inp_files/11643.got.cif
#   From: 2010.03.12/outbox.cif.g09.slc.cpg/sg47_6_cif.got.tgz:11643.got - 2010.04.14 03:12:58.
