data_PCOD8196546
_publ_section_title
;
Structure prediction by ZEFSAII (Michael W. Deem and Ramdas Pophale) SiO2 
 PCOD8196546
Probable space group: P M M M
;
_chemical_formula_sum "Si O2"
_cell_formula_units_Z 52
_cell_length_a 13.298712
_cell_length_b 9.713145
_cell_length_c 22.021910
_cell_angle_alpha 90.000000
_cell_angle_beta 90.000000
_cell_angle_gamma 90.000000
_cell_volume 2844.621161
_symmetry_space_group_name_H-M "P M M M"
_symmetry_group_IT_number 47
_symmetry_cell_setting 'orthorhombic'
loop_
_space_group_symop_operation_xyz
x,y,z
-x,-y,z
x,-y,-z
-x,y,-z
-x,-y,-z
x,y,-z
-x,y,z
x,-y,z
loop_
_atom_site_type_symbol
_atom_site_label
_atom_site_fract_x
_atom_site_fract_y
_atom_site_fract_z
Si Si1 0.383624 0.150742 0.331754
Si Si2 0.383526 0.657033 0.110848
Si Si3 0.380541 0.651915 0.432449
Si Si4 0.113856 0.658421 0.322252
Si Si5 0.704062 0.656548 0.761178
Si Si6 0.619166 0.155982 0.000000
Si Si7 0.119332 0.845318 0.567442
O O1 0.500000 0.131030 0.344930
O O2 0.333159 0.234424 0.387643
O O3 0.371284 0.237757 0.270709
O O4 0.332484 0.000000 0.326211
O O5 0.500000 0.686490 0.129020
O O6 0.373924 0.500000 0.087203
O O7 0.308367 0.681997 0.167210
O O8 0.344412 0.761344 0.059335
O O9 0.346504 0.691924 0.500000
O O10 0.500000 0.649770 0.427404
O O11 0.339649 0.500000 0.414736
O O12 0.117366 0.500000 0.341972
O O13 0.182488 0.685630 0.262516
O O14 0.158005 0.744035 0.379329
O O15 0.000000 0.702949 0.305183
O O16 0.671586 0.500000 0.745373
O O17 0.500000 0.152004 0.000000
O O18 0.662975 0.000000 0.000000
O O19 0.156504 0.797299 0.500000
O O20 0.000000 0.842927 0.567891
O O21 0.158242 0.000000 0.580782
#
# Coordination Sequence:
#
# PCOD8196546 Si02
#       7
#     8   8   8   8   8   4   8
#     4  10  20  31  44  65  92 119 148 188 235 278
#     4   9  17  30  49  72  98 129 163 193 220 261
#     4   8  14  26  44  62  80 109 150 191 230 274
#     4   9  18  32  49  70  95 121 154 200 248 289
#     4  10  20  33  49  69  94 127 162 192 228 278
#     4   9  17  29  47  73 104 133 156 184 227 271
#     4   8  14  26  45  67  89 115 149 191 243 301
#
# _framework density 18.280114000000001
#
# number of rings (size 3 to 8) (size 9 to 14) (size 15 to 20)
#    0.000    3.000    0.000    2.077    0.000    4.308 
#    0.000    5.385    0.000    0.923    0.000    0.538 
#    0.000    4.308    0.000    0.000    0.000    0.000 
#
# Total GULP energy -644467.531975 kJ/mol
# GULP energy per Si atom -12393.606384 kJ/mol
# Density = 1.823851 g / cm^3
# Si number density = 18.280114 Si / 1000 Ang^3
#
#
#
# Elastic Constant Matrix: (Units=GPa)
#
#
# Indices 1 2 3 4 5 6 
#
# 1 49.5351 26.8098 32.5066 0.0000 0.0000 0.0000
# 2 26.8098 134.7845 84.5136 0.0000 0.0000 0.0000
# 3 32.5066 84.5136 140.2090 0.0000 0.0000 0.0000
# 4 0.0000 0.0000 0.0000 6.2558 0.0000 0.0000
# 5 0.0000 0.0000 0.0000 0.0000 52.2867 0.0000
# 6 0.0000 0.0000 0.0000 0.0000 0.0000 12.6719
#
#
#
# Elastic Compliance Matrix: (Units=1/GPa)
#
#
# Indices 1 2 3 4 5 6 
#
# 1 0.024168 -0.002080 -0.004349 0.000000 0.000000 0.000000
# 2 -0.002080 0.012106 -0.006815 0.000000 0.000000 0.000000
# 3 -0.004349 -0.006815 0.012248 0.000000 0.000000 0.000000
# 4 0.000000 0.000000 0.000000 0.159852 0.000000 0.000000
# 5 0.000000 0.000000 0.000000 0.000000 0.019125 0.000000
# 6 0.000000 0.000000 0.000000 0.000000 0.000000 0.078915
#
#
# Mechanical properties :
#
#
# Convention : Reuss Voigt Hill
#
# Bulk Modulus (GPa) = 45.38523 68.02095 56.70309
# Shear Modulus (GPa) = 14.69518 26.28946 20.49232
#
# Velocity S-wave (km/s) = 2.83837 3.79640 3.35179
# Velocity P-wave (km/s) = 5.96853 7.51718 6.78717
#
# Compressibility (1/GPa) = 0.02203360
#
# Stress axis : x y z
#
# Youngs Moduli (GPa) = 41.37757 82.60267 81.64302
#
# Poissons Ratio (x) = 0.17181 0.35510
# Poissons Ratio (y) = 0.08606 0.55640
# Poissons Ratio (z) = 0.17997 0.56294
#
# Static dielectric constant tensor:
#      x y z
#    x 3.096110 0.000000 0.000000 
#    y 0.000000 3.739420 0.000000 
#    z 0.000000 0.000000 3.299160 
# 
# 
# High freq. dielectric constant tensor:
#      x y z
#    x 1.683080 0.000000 0.000000 
#    y 0.000000 1.716480 0.000000 
#    z 0.000000 0.000000 1.687580 
# 
# From -- ./inp_files/30838.got.cif
#   From: 2010.03.12/outbox.cif.g09.slc.cpg/sg47_16_cif.got.tgz:30838.got - 2010.04.14 03:12:58.
