data_PCOD8196438
_publ_section_title
;
Structure prediction by ZEFSAII (Michael W. Deem and Ramdas Pophale) SiO2 
 PCOD8196438
Probable space group: P M M M
;
_chemical_formula_sum "Si O2"
_cell_formula_units_Z 52
_cell_length_a 9.158993
_cell_length_b 30.945501
_cell_length_c 12.451145
_cell_angle_alpha 90.000000
_cell_angle_beta 90.000000
_cell_angle_gamma 90.000000
_cell_volume 3529.023384
_symmetry_space_group_name_H-M "P M M M"
_symmetry_group_IT_number 47
_symmetry_cell_setting 'orthorhombic'
loop_
_space_group_symop_operation_xyz
x,y,z
-x,-y,z
x,-y,-z
-x,y,-z
-x,-y,-z
x,y,-z
-x,y,z
x,-y,z
loop_
_atom_site_type_symbol
_atom_site_label
_atom_site_fract_x
_atom_site_fract_y
_atom_site_fract_z
Si Si1 0.164069 0.629450 0.871836
Si Si2 0.165110 0.203397 0.872148
Si Si3 0.840476 0.948920 0.500000
Si Si4 0.664081 0.452386 0.127694
Si Si5 0.334998 0.713005 0.871943
Si Si6 0.826940 0.050026 0.732473
Si Si7 0.331407 0.118444 0.873327
O O1 0.231555 0.584910 0.825475
O O2 0.257689 0.669743 0.828356
O O3 0.000000 0.633814 0.827912
O O4 0.165407 0.629089 0.000000
O O5 0.247255 0.245679 0.827155
O O6 0.250074 0.161215 0.830561
O O7 0.000000 0.202711 0.827424
O O8 0.164585 0.204495 0.000000
O O9 0.764634 0.936058 0.386630
O O10 0.000000 0.927236 0.500000
O O11 0.860645 0.000000 0.500000
O O12 0.500000 0.444290 0.169919
O O13 0.719089 0.500000 0.165074
O O14 0.664358 0.450215 0.000000
O O15 0.500000 0.714492 0.827748
O O16 0.335158 0.713376 0.000000
O O17 0.741217 0.076734 0.821001
O O18 0.000000 0.058849 0.739850
O O19 0.793205 0.000000 0.755322
O O20 0.500000 0.121848 0.840272
O O21 0.312463 0.113451 0.000000
#
# Coordination Sequence:
#
# PCOD8196438 Si02
#       7
#     8   8   4   8   8   8   8
#     4   9  15  20  26  37  51  66  88 119 153 191
#     4   9  16  26  39  52  66  86 114 145 174 207
#     4   7  12  26  47  67  83  99 123 157 193 223
#     4   8  13  20  27  33  43  61  84 111 148 195
#     4   9  15  22  32  44  58  76  98 126 162 202
#     4   9  17  30  48  66  82 102 129 159 189 222
#     4  10  20  31  41  56  81 109 132 154 184 223
#
# _framework density 14.734954999999999
#
# number of rings (size 3 to 8) (size 9 to 14) (size 15 to 20)
#    0.000    3.154    0.000    3.231    0.000    7.385 
#    0.000    3.462    0.000    1.385    0.000    0.000 
#    0.000    0.000    0.000    0.000    0.000    0.000 
#
# Total GULP energy -644382.667348 kJ/mol
# GULP energy per Si atom -12391.974372 kJ/mol
# Density = 1.470142 g / cm^3
# Si number density = 14.734955 Si / 1000 Ang^3
#
#
#
# Elastic Constant Matrix: (Units=GPa)
#
#
# Indices 1 2 3 4 5 6 
#
# 1 121.7304 76.4530 18.6637 0.0000 0.0000 0.0000
# 2 76.4530 126.4568 22.7042 0.0000 0.0000 0.0000
# 3 18.6637 22.7042 14.8937 0.0000 0.0000 0.0000
# 4 0.0000 0.0000 0.0000 0.2619 0.0000 0.0000
# 5 0.0000 0.0000 0.0000 0.0000 6.0761 0.0000
# 6 0.0000 0.0000 0.0000 0.0000 0.0000 32.0407
#
#
#
# Elastic Compliance Matrix: (Units=1/GPa)
#
#
# Indices 1 2 3 4 5 6 
#
# 1 0.013651 -0.007134 -0.006231 0.000000 0.000000 0.000000
# 2 -0.007134 0.014616 -0.013341 0.000000 0.000000 0.000000
# 3 -0.006231 -0.013341 0.095288 0.000000 0.000000 0.000000
# 4 0.000000 0.000000 0.000000 3.818467 0.000000 0.000000
# 5 0.000000 0.000000 0.000000 0.000000 0.164580 0.000000
# 6 0.000000 0.000000 0.000000 0.000000 0.000000 0.031210
#
#
# Mechanical properties :
#
#
# Convention : Reuss Voigt Hill
#
# Bulk Modulus (GPa) = 14.25661 55.41363 34.83512
# Shear Modulus (GPa) = 1.18635 17.35972 9.27303
#
# Velocity S-wave (km/s) = 0.89826 3.43612 2.51135
# Velocity P-wave (km/s) = 3.28210 7.30966 5.66583
#
# Compressibility (1/GPa) = 0.07014289
#
# Stress axis : x y z
#
# Youngs Moduli (GPa) = 73.25516 68.41608 10.49450
#
# Poissons Ratio (x) = 0.48811 0.06539
# Poissons Ratio (y) = 0.52263 0.14001
# Poissons Ratio (z) = 0.45642 0.91276
#
# Static dielectric constant tensor:
#      x y z
#    x 2.976590 0.000000 0.000000 
#    y 0.000000 3.027660 0.000000 
#    z 0.000000 0.000000 2.301720 
# 
# 
# High freq. dielectric constant tensor:
#      x y z
#    x 1.570970 0.000000 0.000000 
#    y 0.000000 1.573610 0.000000 
#    z 0.000000 0.000000 1.474550 
# 
# From -- ./inp_files/15647.got.cif
#   From: 2010.03.12/outbox.cif.g09.slc.cpg/sg47_8_cif.got.tgz:15647.got - 2010.04.14 03:12:58.
