data_PCOD8196086
_publ_section_title
;
Structure prediction by ZEFSAII (Michael W. Deem and Ramdas Pophale) SiO2 
 PCOD8196086
Probable space group: P M M M
;
_chemical_formula_sum "Si O2"
_cell_formula_units_Z 52
_cell_length_a 9.288127
_cell_length_b 20.685954
_cell_length_c 14.362123
_cell_angle_alpha 90.000000
_cell_angle_beta 90.000000
_cell_angle_gamma 90.000000
_cell_volume 2759.448807
_symmetry_space_group_name_H-M "P M M M"
_symmetry_group_IT_number 47
_symmetry_cell_setting 'orthorhombic'
loop_
_space_group_symop_operation_xyz
x,y,z
-x,-y,z
x,-y,-z
-x,y,-z
-x,-y,-z
x,y,-z
-x,y,z
x,-y,z
loop_
_atom_site_type_symbol
_atom_site_label
_atom_site_fract_x
_atom_site_fract_y
_atom_site_fract_z
Si Si1 0.333180 0.428769 0.728482
Si Si2 0.832723 0.818821 0.605193
Si Si3 0.667932 0.309477 0.392892
Si Si4 0.829932 0.763374 0.898447
Si Si5 0.167771 0.620160 0.892983
Si Si6 0.168021 0.886364 0.786146
Si Si7 0.328729 0.000000 0.109387
O O1 0.500000 0.416729 0.747345
O O2 0.307997 0.500000 0.683446
O O3 0.272719 0.372398 0.661444
O O4 0.253300 0.428484 0.827416
O O5 0.787498 0.839323 0.500000
O O6 0.748688 0.755353 0.639674
O O7 0.802045 0.879575 0.674859
O O8 0.000000 0.800545 0.610352
O O9 0.701889 0.323365 0.500000
O O10 0.500000 0.298173 0.374993
O O11 0.773720 0.692544 0.869637
O O12 0.782681 0.817138 0.825420
O O13 0.000000 0.758709 0.905650
O O14 0.767640 0.782669 0.000000
O O15 0.000000 0.613517 0.870883
O O16 0.199333 0.602563 0.000000
O O17 0.265784 0.938779 0.836425
O O18 0.000000 0.902221 0.806188
O O19 0.500000 0.000000 0.118552
O O20 0.282778 0.000000 0.000000
#
# Coordination Sequence:
#
# PCOD8196086 Si02
#       7
#     8   8   8   8   8   8   4
#     4  10  21  34  47  67  97 133 172 213 256 302
#     4   9  18  33  55  84 112 134 163 209 260 302
#     4   9  18  33  53  76 102 134 171 210 255 308
#     4   8  14  26  47  74  97 118 155 207 252 292
#     4   9  18  33  52  73  97 126 163 209 260 312
#     4  10  19  33  56  80 103 138 177 207 243 298
#     4  11  25  41  54  75 110 144 173 211 256 295
#
# _framework density 18.844342999999999
#
# number of rings (size 3 to 8) (size 9 to 14) (size 15 to 20)
#    0.000    2.692    0.000    2.538    0.000    4.923 
#    0.000    4.231    0.000    3.231    0.000    3.231 
#    0.000    0.000    0.000    0.000    0.000    0.000 
#
# Total GULP energy -644512.071846 kJ/mol
# GULP energy per Si atom -12394.462920 kJ/mol
# Density = 1.880145 g / cm^3
# Si number density = 18.844343 Si / 1000 Ang^3
#
#
#
# Elastic Constant Matrix: (Units=GPa)
#
#
# Indices 1 2 3 4 5 6 
#
# 1 46.3283 37.3501 39.7021 0.0000 0.0000 0.0000
# 2 37.3501 88.9260 59.1664 0.0000 0.0000 0.0000
# 3 39.7021 59.1664 104.7510 0.0000 0.0000 0.0000
# 4 0.0000 0.0000 0.0000 -4.8022 0.0000 0.0000
# 5 0.0000 0.0000 0.0000 0.0000 25.3700 0.0000
# 6 0.0000 0.0000 0.0000 0.0000 0.0000 28.1179
#
#
#
# Elastic Compliance Matrix: (Units=1/GPa)
#
#
# Indices 1 2 3 4 5 6 
#
# 1 0.036674 -0.009861 -0.008330 0.000000 0.000000 0.000000
# 2 -0.009861 0.020667 -0.007936 0.000000 0.000000 0.000000
# 3 -0.008330 -0.007936 0.017186 0.000000 0.000000 0.000000
# 4 0.000000 0.000000 0.000000 -0.208240 0.000000 0.000000
# 5 0.000000 0.000000 0.000000 0.000000 0.039417 0.000000
# 6 0.000000 0.000000 0.000000 0.000000 0.000000 0.035565
#
#
# Mechanical properties :
#
#
# Convention : Reuss Voigt Hill
#
# Bulk Modulus (GPa) = 44.89758 56.93804 50.91781
# Shear Modulus (GPa) = 5280.86394 16.65627 2648.76011
#
# Velocity S-wave (km/s) = 52.99475 2.97625 37.53200
# Velocity P-wave (km/s) = 61.38786 6.48778 43.64952
#
# Compressibility (1/GPa) = 0.02227292
#
# Stress axis : x y z
#
# Youngs Moduli (GPa) = 27.26744 48.38573 58.18664
#
# Poissons Ratio (x) = 0.47714 0.48469
# Poissons Ratio (y) = 0.26889 0.46177
# Poissons Ratio (z) = 0.22714 0.38399
#
# Static dielectric constant tensor:
#      x y z
#    x 3.185960 0.000000 0.000000 
#    y 0.000000 3.594510 0.000000 
#    z 0.000000 0.000000 3.663340 
# 
# 
# High freq. dielectric constant tensor:
#      x y z
#    x 1.704840 0.000000 0.000000 
#    y 0.000000 1.724270 0.000000 
#    z 0.000000 0.000000 1.740560 
# 
# From -- ./inp_files/7060.got.cif
#   From: 2010.03.12/outbox.cif.g09.slc.cpg/sg47_4_cif.got.tgz:7060.got - 2010.04.14 03:12:58.
