data_PCOD8196178
_publ_section_title
;
Structure prediction by ZEFSAII (Michael W. Deem and Ramdas Pophale) SiO2 
 PCOD8196178
Probable space group: P M M M
;
_chemical_formula_sum "Si O2"
_cell_formula_units_Z 56
_cell_length_a 18.425678
_cell_length_b 19.097201
_cell_length_c 8.986148
_cell_angle_alpha 90.000000
_cell_angle_beta 90.000000
_cell_angle_gamma 90.000000
_cell_volume 3162.035661
_symmetry_space_group_name_H-M "P M M M"
_symmetry_group_IT_number 47
_symmetry_cell_setting 'orthorhombic'
loop_
_space_group_symop_operation_xyz
x,y,z
-x,-y,z
x,-y,-z
-x,y,-z
-x,-y,-z
x,y,-z
-x,y,z
x,-y,z
loop_
_atom_site_type_symbol
_atom_site_label
_atom_site_fract_x
_atom_site_fract_y
_atom_site_fract_z
Si Si1 0.153370 0.279965 0.169654
Si Si2 0.640929 0.578758 0.827498
Si Si3 0.416501 0.289135 0.329651
Si Si4 0.700344 0.198605 0.829253
Si Si5 0.193757 0.424617 0.177700
Si Si6 0.784733 0.919935 0.328596
Si Si7 0.917840 0.856799 0.823236
O O1 0.236322 0.255712 0.185258
O O2 0.148061 0.358080 0.242926
O O3 0.100115 0.221559 0.240465
O O4 0.129648 0.287346 0.000000
O O5 0.610370 0.500000 0.803960
O O6 0.593197 0.633031 0.735078
O O7 0.723460 0.582095 0.769227
O O8 0.636684 0.600396 0.000000
O O9 0.390902 0.289430 0.500000
O O10 0.500000 0.267508 0.314200
O O11 0.371468 0.230418 0.242551
O O12 0.723356 0.127153 0.747930
O O13 0.684514 0.180166 0.000000
O O14 0.161663 0.500000 0.232398
O O15 0.192926 0.422084 0.000000
O O16 0.791745 0.898004 0.500000
O O17 0.863687 0.911360 0.252628
O O18 0.760319 0.000000 0.310474
O O19 0.000000 0.876882 0.781730
O O20 0.904216 0.859248 0.000000
#
# Coordination Sequence:
#
# PCOD8196178 Si02
#       7
#     8   8   8   8   8   8   8
#     4   8  13  24  44  67  91 123 163 208 256 295
#     4   9  17  30  48  69  94 128 174 224 268 309
#     4  11  23  35  48  70 103 140 173 210 260 312
#     4  10  19  34  56  77  98 128 169 212 250 295
#     4   8  12  20  39  66  91 117 158 213 263 299
#     4  10  21  36  55  80 108 135 161 196 248 306
#     4   9  18  31  48  73 105 140 176 212 247 288
#
# _framework density 17.71011
#
# number of rings (size 3 to 8) (size 9 to 14) (size 15 to 20)
#    0.000    2.714    1.429    3.000    0.000    3.429 
#    0.000    2.857    0.000    0.857    0.000    6.000 
#    0.000    0.000    0.000    3.714    0.000    4.857 
#
# Total GULP energy -693997.587171 kJ/mol
# GULP energy per Si atom -12392.814057 kJ/mol
# Density = 1.766980 g / cm^3
# Si number density = 17.710110 Si / 1000 Ang^3
#
#
#
# Elastic Constant Matrix: (Units=GPa)
#
#
# Indices 1 2 3 4 5 6 
#
# 1 59.2649 32.5738 38.1111 0.0000 0.0000 0.0000
# 2 32.5738 112.3691 45.1991 0.0000 0.0000 0.0000
# 3 38.1111 45.1991 80.9605 0.0000 0.0000 0.0000
# 4 0.0000 0.0000 0.0000 22.1364 0.0000 0.0000
# 5 0.0000 0.0000 0.0000 0.0000 20.0032 0.0000
# 6 0.0000 0.0000 0.0000 0.0000 0.0000 19.0331
#
#
#
# Elastic Compliance Matrix: (Units=1/GPa)
#
#
# Indices 1 2 3 4 5 6 
#
# 1 0.025088 -0.003253 -0.009994 0.000000 0.000000 0.000000
# 2 -0.003253 0.011898 -0.005111 0.000000 0.000000 0.000000
# 3 -0.009994 -0.005111 0.019910 0.000000 0.000000 0.000000
# 4 0.000000 0.000000 0.000000 0.045174 0.000000 0.000000
# 5 0.000000 0.000000 0.000000 0.000000 0.049992 0.000000
# 6 0.000000 0.000000 0.000000 0.000000 0.000000 0.052540
#
#
# Mechanical properties :
#
#
# Convention : Reuss Voigt Hill
#
# Bulk Modulus (GPa) = 49.55416 53.81807 51.68611
# Shear Modulus (GPa) = 20.15767 21.34859 20.75313
#
# Velocity S-wave (km/s) = 3.37738 3.47572 3.42691
# Velocity P-wave (km/s) = 6.57651 6.82362 6.70120
#
# Compressibility (1/GPa) = 0.02017994
#
# Stress axis : x y z
#
# Youngs Moduli (GPa) = 39.86005 84.04679 50.22649
#
# Poissons Ratio (x) = 0.27337 0.50196
# Poissons Ratio (y) = 0.12965 0.25673
# Poissons Ratio (z) = 0.39836 0.42960
#
# Static dielectric constant tensor:
#      x y z
#    x 3.022550 0.000000 0.000000 
#    y 0.000000 3.515630 0.000000 
#    z 0.000000 0.000000 3.077170 
# 
# 
# High freq. dielectric constant tensor:
#      x y z
#    x 1.653430 0.000000 0.000000 
#    y 0.000000 1.693790 0.000000 
#    z 0.000000 0.000000 1.658340 
# 
# From -- ./inp_files/9872.got.cif
#   From: 2010.03.12/outbox.cif.g09.slc.cpg/sg47_5_cif.got.tgz:9872.got - 2010.04.14 03:12:58.
