data_PCOD8196156
_publ_section_title
;
Structure prediction by ZEFSAII (Michael W. Deem and Ramdas Pophale) SiO2 
 PCOD8196156
Probable space group: P M M M
;
_chemical_formula_sum "Si O2"
_cell_formula_units_Z 40
_cell_length_a 9.631947
_cell_length_b 12.368465
_cell_length_c 18.819132
_cell_angle_alpha 90.000000
_cell_angle_beta 90.000000
_cell_angle_gamma 90.000000
_cell_volume 2241.968349
_symmetry_space_group_name_H-M "P M M M"
_symmetry_group_IT_number 47
_symmetry_cell_setting 'orthorhombic'
loop_
_space_group_symop_operation_xyz
x,y,z
-x,-y,z
x,-y,-z
-x,y,-z
-x,-y,-z
x,y,-z
-x,y,z
x,-y,z
loop_
_atom_site_type_symbol
_atom_site_label
_atom_site_fract_x
_atom_site_fract_y
_atom_site_fract_z
Si Si1 0.664371 0.000000 0.077746
Si Si2 0.340912 0.126288 0.419250
Si Si3 0.659129 0.233743 0.915432
Si Si4 0.837263 0.708664 0.337123
Si Si5 0.834868 0.500000 0.579836
Si Si6 0.160796 0.375326 0.816810
O O1 0.706275 0.114153 0.114874
O O2 0.500000 0.000000 0.068454
O O3 0.733864 0.000000 0.000000
O O4 0.298650 0.156509 0.500000
O O5 0.500000 0.159257 0.405331
O O6 0.243124 0.186121 0.363375
O O7 0.319837 0.000000 0.406222
O O8 0.500000 0.256821 0.894669
O O9 0.752592 0.326012 0.881258
O O10 0.678266 0.237180 0.000000
O O11 0.779258 0.606070 0.380588
O O12 0.805167 0.690382 0.254521
O O13 0.000000 0.725762 0.350858
O O14 0.776708 0.500000 0.500000
O O15 0.000000 0.500000 0.582134
O O16 0.202604 0.500000 0.805786
O O17 0.000000 0.365399 0.836731
#
# Coordination Sequence:
#
# PCOD8196156 Si02
#       6
#     4   8   8   8   4   8
#     4   7  12  28  53  77 101 127 158 205 258 299
#     4   9  19  36  55  76 106 140 171 210 262 314
#     4   9  18  34  57  82 105 133 174 218 256 304
#     4  10  19  34  54  76 103 137 177 217 255 305
#     4   9  16  28  51  79 100 125 168 218 261 297
#     4  10  21  37  53  72 106 145 175 211 262 312
#
# _framework density 17.841466
#
# number of rings (size 3 to 8) (size 9 to 14) (size 15 to 20)
#    0.000    2.800    1.000    2.400    0.000    3.600 
#    1.800    4.000    0.000    3.600    0.000    0.000 
#    0.000    0.000    0.000    0.000    0.000    0.000 
#
# Total GULP energy -495811.183801 kJ/mol
# GULP energy per Si atom -12395.279595 kJ/mol
# Density = 1.780086 g / cm^3
# Si number density = 17.841466 Si / 1000 Ang^3
#
#
#
# Elastic Constant Matrix: (Units=GPa)
#
#
# Indices 1 2 3 4 5 6 
#
# 1 61.2575 57.2239 45.1232 0.0000 0.0000 0.0000
# 2 57.2239 100.5844 48.7093 0.0000 0.0000 0.0000
# 3 45.1232 48.7093 70.6951 0.0000 0.0000 0.0000
# 4 0.0000 0.0000 0.0000 29.9539 0.0000 0.0000
# 5 0.0000 0.0000 0.0000 0.0000 27.5544 0.0000
# 6 0.0000 0.0000 0.0000 0.0000 0.0000 30.6773
#
#
#
# Elastic Compliance Matrix: (Units=1/GPa)
#
#
# Indices 1 2 3 4 5 6 
#
# 1 0.044911 -0.017512 -0.016600 0.000000 0.000000 0.000000
# 2 -0.017512 0.021748 -0.003807 0.000000 0.000000 0.000000
# 3 -0.016600 -0.003807 0.027364 0.000000 0.000000 0.000000
# 4 0.000000 0.000000 0.000000 0.033385 0.000000 0.000000
# 5 0.000000 0.000000 0.000000 0.000000 0.036292 0.000000
# 6 0.000000 0.000000 0.000000 0.000000 0.000000 0.032597
#
#
# Mechanical properties :
#
#
# Convention : Reuss Voigt Hill
#
# Bulk Modulus (GPa) = 54.99021 59.40554 57.19787
# Shear Modulus (GPa) = 17.97286 23.06917 20.52102
#
# Velocity S-wave (km/s) = 3.17734 3.59974 3.39512
# Velocity P-wave (km/s) = 6.65952 7.11661 6.89186
#
# Compressibility (1/GPa) = 0.01818506
#
# Stress axis : x y z
#
# Youngs Moduli (GPa) = 22.26625 45.98061 36.54433
#
# Poissons Ratio (x) = 0.80520 0.60664
# Poissons Ratio (y) = 0.38992 0.13914
# Poissons Ratio (z) = 0.36962 0.17507
#
# Static dielectric constant tensor:
#      x y z
#    x 3.011190 0.000000 0.000000 
#    y 0.000000 3.444140 0.000000 
#    z 0.000000 0.000000 3.149030 
# 
# 
# High freq. dielectric constant tensor:
#      x y z
#    x 1.664160 0.000000 0.000000 
#    y 0.000000 1.701630 0.000000 
#    z 0.000000 0.000000 1.679970 
# 
# From -- ./inp_files/29334.got.cif
#   From: 2010.03.12/outbox.cif.g09.slc.cpg/sg47_15_cif.got.tgz:29334.got - 2010.04.14 03:12:58.
