data_PCOD8196728
_publ_section_title
;
Structure prediction by ZEFSAII (Michael W. Deem and Ramdas Pophale) SiO2 
 PCOD8196728
Probable space group: P M M M
;
_chemical_formula_sum "Si O2"
_cell_formula_units_Z 40
_cell_length_a 8.952083
_cell_length_b 14.116097
_cell_length_c 20.752933
_cell_angle_alpha 90.000000
_cell_angle_beta 90.000000
_cell_angle_gamma 90.000000
_cell_volume 2622.516432
_symmetry_space_group_name_H-M "P M M M"
_symmetry_group_IT_number 47
_symmetry_cell_setting 'orthorhombic'
loop_
_space_group_symop_operation_xyz
x,y,z
-x,-y,z
x,-y,-z
-x,y,-z
-x,-y,-z
x,y,-z
-x,y,z
x,-y,z
loop_
_atom_site_type_symbol
_atom_site_label
_atom_site_fract_x
_atom_site_fract_y
_atom_site_fract_z
Si Si1 0.675823 0.109551 0.257072
Si Si2 0.831986 0.887474 0.126839
Si Si3 0.668715 0.886909 0.000000
Si Si4 0.176688 0.216298 0.374231
Si Si5 0.327029 0.607645 0.425746
Si Si6 0.822543 0.106252 0.500000
O O1 0.500000 0.124977 0.256185
O O2 0.740825 0.145995 0.189310
O O3 0.748309 0.172220 0.312039
O O4 0.718111 0.000000 0.269179
O O5 0.000000 0.847053 0.130379
O O6 0.834254 0.000000 0.123256
O O7 0.752029 0.846767 0.063134
O O8 0.500000 0.848401 0.000000
O O9 0.669833 0.000000 0.000000
O O10 0.225968 0.325289 0.381240
O O11 0.236340 0.159472 0.436601
O O12 0.000000 0.209551 0.366844
O O13 0.279684 0.620520 0.500000
O O14 0.500000 0.634124 0.416574
O O15 0.297264 0.500000 0.403758
O O16 0.000000 0.104717 0.500000
O O17 0.757223 0.000000 0.500000
#
# Coordination Sequence:
#
# PCOD8196728 Si02
#       6
#     8   8   4   8   8   4
#     4  10  20  32  44  60  85 118 153 186 221 264
#     4   9  16  26  40  58  80 109 146 185 221 257
#     4   9  15  23  37  57  81 109 142 181 220 257
#     4  11  20  31  47  66  87 113 144 183 225 265
#     4   9  18  33  51  68  87 110 136 173 222 273
#     4   9  18  30  42  59  84 112 143 179 218 257
#
# _framework density 15.252526
#
# number of rings (size 3 to 8) (size 9 to 14) (size 15 to 20)
#    0.000    2.400    1.000    3.300    0.000    6.000 
#    0.000    1.000    0.000    2.400    0.000    0.000 
#    0.000    0.000    0.000    0.900    0.000   16.700 
#
# Total GULP energy -496030.622806 kJ/mol
# GULP energy per Si atom -12400.765570 kJ/mol
# Density = 1.521781 g / cm^3
# Si number density = 15.252526 Si / 1000 Ang^3
#
#
#
# Elastic Constant Matrix: (Units=GPa)
#
#
# Indices 1 2 3 4 5 6 
#
# 1 89.9666 33.4030 56.6118 0.0000 0.0000 0.0000
# 2 33.4030 62.0274 43.9451 0.0000 0.0000 0.0000
# 3 56.6118 43.9451 134.2298 0.0000 0.0000 0.0000
# 4 0.0000 0.0000 0.0000 3.6299 0.0000 0.0000
# 5 0.0000 0.0000 0.0000 0.0000 29.8194 0.0000
# 6 0.0000 0.0000 0.0000 0.0000 0.0000 19.4737
#
#
#
# Elastic Compliance Matrix: (Units=1/GPa)
#
#
# Indices 1 2 3 4 5 6 
#
# 1 0.016273 -0.005079 -0.005201 0.000000 0.000000 0.000000
# 2 -0.005079 0.022576 -0.005249 0.000000 0.000000 0.000000
# 3 -0.005201 -0.005249 0.011362 0.000000 0.000000 0.000000
# 4 0.000000 0.000000 0.000000 0.275492 0.000000 0.000000
# 5 0.000000 0.000000 0.000000 0.000000 0.033535 0.000000
# 6 0.000000 0.000000 0.000000 0.000000 0.000000 0.051351
#
#
# Mechanical properties :
#
#
# Convention : Reuss Voigt Hill
#
# Bulk Modulus (GPa) = 52.20877 61.57150 56.89013
# Shear Modulus (GPa) = 11.15993 20.73551 15.94772
#
# Velocity S-wave (km/s) = 2.70789 3.69111 3.23705
# Velocity P-wave (km/s) = 6.63934 7.65647 7.16597
#
# Compressibility (1/GPa) = 0.01915387
#
# Stress axis : x y z
#
# Youngs Moduli (GPa) = 61.44964 44.29510 88.01501
#
# Poissons Ratio (x) = 0.22498 0.45773
# Poissons Ratio (y) = 0.31211 0.46198
# Poissons Ratio (z) = 0.31957 0.23250
#
# Static dielectric constant tensor:
#      x y z
#    x 2.981150 0.000000 0.000000 
#    y 0.000000 2.617650 0.000000 
#    z 0.000000 0.000000 2.989030 
# 
# 
# High freq. dielectric constant tensor:
#      x y z
#    x 1.594400 0.000000 0.000000 
#    y 0.000000 1.535200 0.000000 
#    z 0.000000 0.000000 1.583160 
# 
# From -- ./inp_files/24832.got.cif
#   From: 2010.03.12/outbox.cif.g09.slc.cpg/sg47_13_cif.got.tgz:24832.got - 2010.04.14 03:12:58.
