data_PCOD8196729
_publ_section_title
;
Structure prediction by ZEFSAII (Michael W. Deem and Ramdas Pophale) SiO2 
 PCOD8196729
Probable space group: P M M M
;
_chemical_formula_sum "Si O2"
_cell_formula_units_Z 52
_cell_length_a 13.953032
_cell_length_b 9.088923
_cell_length_c 23.804632
_cell_angle_alpha 90.000000
_cell_angle_beta 90.000000
_cell_angle_gamma 90.000000
_cell_volume 3018.856618
_symmetry_space_group_name_H-M "P M M M"
_symmetry_group_IT_number 47
_symmetry_cell_setting 'orthorhombic'
loop_
_space_group_symop_operation_xyz
x,y,z
-x,-y,z
x,-y,-z
-x,y,-z
-x,-y,-z
x,y,-z
-x,y,z
x,-y,z
loop_
_atom_site_type_symbol
_atom_site_label
_atom_site_fract_x
_atom_site_fract_y
_atom_site_fract_z
Si Si1 0.393438 0.325001 0.267839
Si Si2 0.278264 0.326636 0.838813
Si Si3 0.193298 0.172423 0.935091
Si Si4 0.891937 0.172164 0.435416
Si Si5 0.781341 0.674084 0.658654
Si Si6 0.000000 0.335776 0.066077
Si Si7 0.895615 0.325940 0.235572
O O1 0.500000 0.262445 0.279248
O O2 0.391746 0.500000 0.268025
O O3 0.360076 0.275221 0.205217
O O4 0.322025 0.270411 0.317277
O O5 0.285090 0.500000 0.850946
O O6 0.281315 0.238771 0.897959
O O7 0.177393 0.276423 0.812118
O O8 0.094768 0.249242 0.915135
O O9 0.182979 0.000000 0.924740
O O10 0.216434 0.207192 0.000000
O O11 0.871095 0.210296 0.500000
O O12 0.809129 0.252533 0.400090
O O13 0.000000 0.225483 0.419631
O O14 0.883382 0.000000 0.424420
O O15 0.779640 0.500000 0.650204
O O16 0.860848 0.726789 0.703315
O O17 0.000000 0.500000 0.093834
O O18 0.000000 0.351880 0.000000
O O19 0.899173 0.500000 0.237005
O O20 0.000000 0.257599 0.222603
#
# Coordination Sequence:
#
# PCOD8196729 Si02
#       7
#     8   8   8   8   8   4   8
#     4   8  15  30  51  74  98 120 147 192 249 294
#     4   9  17  28  46  69  87 115 156 189 225 280
#     4  10  20  32  44  61  91 125 152 187 236 279
#     4   9  18  31  45  64  96 136 167 191 227 271
#     4   9  16  27  47  72  93 119 157 195 232 275
#     4   9  17  29  45  63  83 115 159 193 214 255
#     4   8  14  24  38  60  90 116 140 179 228 270
#
# _framework density 17.225065000000001
#
# number of rings (size 3 to 8) (size 9 to 14) (size 15 to 20)
#    0.000    3.154    0.000    3.462    1.077    3.077 
#    0.000    3.846    0.000    3.692    0.000    6.462 
#    0.000    0.000    0.000    0.000    0.000    0.000 
#
# Total GULP energy -644350.318649 kJ/mol
# GULP energy per Si atom -12391.352282 kJ/mol
# Density = 1.718586 g / cm^3
# Si number density = 17.225065 Si / 1000 Ang^3
#
#
#
# Elastic Constant Matrix: (Units=GPa)
#
#
# Indices 1 2 3 4 5 6 
#
# 1 109.0517 24.2084 50.2856 0.0000 0.0000 0.0000
# 2 24.2084 49.7275 38.5268 0.0000 0.0000 0.0000
# 3 50.2856 38.5268 101.3728 0.0000 0.0000 0.0000
# 4 0.0000 0.0000 0.0000 18.7285 0.0000 0.0000
# 5 0.0000 0.0000 0.0000 0.0000 27.9613 0.0000
# 6 0.0000 0.0000 0.0000 0.0000 0.0000 12.3292
#
#
#
# Elastic Compliance Matrix: (Units=1/GPa)
#
#
# Indices 1 2 3 4 5 6 
#
# 1 0.011995 -0.001743 -0.005288 0.000000 0.000000 0.000000
# 2 -0.001743 0.028755 -0.010064 0.000000 0.000000 0.000000
# 3 -0.005288 -0.010064 0.016312 0.000000 0.000000 0.000000
# 4 0.000000 0.000000 0.000000 0.053395 0.000000 0.000000
# 5 0.000000 0.000000 0.000000 0.000000 0.035764 0.000000
# 6 0.000000 0.000000 0.000000 0.000000 0.000000 0.081108
#
#
# Mechanical properties :
#
#
# Convention : Reuss Voigt Hill
#
# Bulk Modulus (GPa) = 43.71831 54.02151 48.86991
# Shear Modulus (GPa) = 18.57752 21.61255 20.09504
#
# Velocity S-wave (km/s) = 3.28764 3.54604 3.41928
# Velocity P-wave (km/s) = 6.31246 6.94234 6.63488
#
# Compressibility (1/GPa) = 0.02287371
#
# Stress axis : x y z
#
# Youngs Moduli (GPa) = 83.36712 34.77642 61.30318
#
# Poissons Ratio (x) = 0.06061 0.32416
# Poissons Ratio (y) = 0.14529 0.61695
# Poissons Ratio (z) = 0.44083 0.34999
#
# Static dielectric constant tensor:
#      x y z
#    x 3.211890 0.000000 0.000000 
#    y 0.000000 2.846800 0.000000 
#    z 0.000000 0.000000 3.244810 
# 
# 
# High freq. dielectric constant tensor:
#      x y z
#    x 1.640730 0.000000 0.000000 
#    y 0.000000 1.631860 0.000000 
#    z 0.000000 0.000000 1.666580 
# 
# From -- ./inp_files/32640.got.cif
#   From: 2010.03.12/outbox.cif.g09.slc.cpg/sg47_17_cif.got.tgz:32640.got - 2010.04.14 03:12:58.
