data_PCOD8196024
_publ_section_title
;
Structure prediction by ZEFSAII (Michael W. Deem and Ramdas Pophale) SiO2 
 PCOD8196024
Probable space group: P M M M
;
_chemical_formula_sum "Si O2"
_cell_formula_units_Z 52
_cell_length_a 12.751696
_cell_length_b 9.096473
_cell_length_c 25.909141
_cell_angle_alpha 90.000000
_cell_angle_beta 90.000000
_cell_angle_gamma 90.000000
_cell_volume 3005.342686
_symmetry_space_group_name_H-M "P M M M"
_symmetry_group_IT_number 47
_symmetry_cell_setting 'orthorhombic'
loop_
_space_group_symop_operation_xyz
x,y,z
-x,-y,z
x,-y,-z
-x,y,-z
-x,-y,-z
x,y,-z
-x,y,z
x,-y,z
loop_
_atom_site_type_symbol
_atom_site_label
_atom_site_fract_x
_atom_site_fract_y
_atom_site_fract_z
Si Si1 0.500000 0.826049 0.216930
Si Si2 0.620545 0.825838 0.500000
Si Si3 0.307662 0.327151 0.601636
Si Si4 0.121715 0.669865 0.784217
Si Si5 0.115204 0.325386 0.668390
Si Si6 0.379319 0.670235 0.058535
Si Si7 0.297569 0.173912 0.153945
Si Si8 0.500000 0.669961 0.325287
O O1 0.603292 0.768946 0.187278
O O2 0.500000 0.764745 0.274224
O O3 0.500000 0.000000 0.220250
O O4 0.500000 0.773092 0.500000
O O5 0.678730 0.762585 0.549565
O O6 0.629355 0.000000 0.500000
O O7 0.305848 0.500000 0.588766
O O8 0.199884 0.269710 0.627161
O O9 0.399184 0.288401 0.641318
O O10 0.154792 0.500000 0.789487
O O11 0.143327 0.728298 0.726086
O O12 0.189982 0.766290 0.822756
O O13 0.000000 0.690754 0.798506
O O14 0.114011 0.500000 0.669880
O O15 0.000000 0.266275 0.652037
O O16 0.500000 0.717609 0.065174
O O17 0.365098 0.500000 0.072765
O O18 0.307526 0.767443 0.095769
O O19 0.342562 0.699975 0.000000
O O20 0.292813 0.000000 0.152628
O O21 0.500000 0.500000 0.309382
#
# Coordination Sequence:
#
# PCOD8196024 Si02
#       8
#     4   4   8   8   8   8   8   4
#     4  10  22  34  44  70 110 145 169 199 250 309
#     4  11  23  37  52  71  98 134 169 200 247 306
#     4  10  19  33  54  77  99 125 163 211 252 292
#     4   9  18  34  56  79 104 137 177 218 259 305
#     4   8  15  30  53  79 103 128 163 207 253 300
#     4   9  18  33  53  76 101 134 178 223 265 310
#     4  11  21  33  49  74 110 144 175 211 255 311
#     4  10  20  31  49  75  98 126 168 210 252 297
#
# _framework density 17.302520000000001
#
# number of rings (size 3 to 8) (size 9 to 14) (size 15 to 20)
#    0.000    2.385    1.538    3.000    0.000    4.000 
#    0.000    1.923    0.000    4.154    0.000    3.231 
#    0.000    0.000    0.000    0.000    0.000    0.000 
#
# Total GULP energy -644846.459593 kJ/mol
# GULP energy per Si atom -12400.893454 kJ/mol
# Density = 1.726314 g / cm^3
# Si number density = 17.302520 Si / 1000 Ang^3
#
#
#
# Elastic Constant Matrix: (Units=GPa)
#
#
# Indices 1 2 3 4 5 6 
#
# 1 112.7403 39.4697 70.0605 0.0000 0.0000 0.0000
# 2 39.4697 50.0111 46.5419 0.0000 0.0000 0.0000
# 3 70.0605 46.5419 127.8995 0.0000 0.0000 0.0000
# 4 0.0000 0.0000 0.0000 17.0471 0.0000 0.0000
# 5 0.0000 0.0000 0.0000 0.0000 32.8146 0.0000
# 6 0.0000 0.0000 0.0000 0.0000 0.0000 17.9205
#
#
#
# Elastic Compliance Matrix: (Units=1/GPa)
#
#
# Indices 1 2 3 4 5 6 
#
# 1 0.014608 -0.006172 -0.005756 0.000000 0.000000 0.000000
# 2 -0.006172 0.032842 -0.008570 0.000000 0.000000 0.000000
# 3 -0.005756 -0.008570 0.014090 0.000000 0.000000 0.000000
# 4 0.000000 0.000000 0.000000 0.058661 0.000000 0.000000
# 5 0.000000 0.000000 0.000000 0.000000 0.030474 0.000000
# 6 0.000000 0.000000 0.000000 0.000000 0.000000 0.055802
#
#
# Mechanical properties :
#
#
# Convention : Reuss Voigt Hill
#
# Bulk Modulus (GPa) = 48.67595 66.97725 57.82660
# Shear Modulus (GPa) = 19.66014 22.52835 21.09425
#
# Velocity S-wave (km/s) = 3.37450 3.61228 3.49541
# Velocity P-wave (km/s) = 6.58607 7.49611 7.05578
#
# Compressibility (1/GPa) = 0.02054403
#
# Stress axis : x y z
#
# Youngs Moduli (GPa) = 68.45778 30.44841 70.97170
#
# Poissons Ratio (x) = 0.18793 0.40849
# Poissons Ratio (y) = 0.42253 0.60824
# Poissons Ratio (z) = 0.39402 0.26095
#
# Static dielectric constant tensor:
#      x y z
#    x 3.410270 0.000000 0.000000 
#    y 0.000000 2.983430 0.000000 
#    z 0.000000 0.000000 3.219960 
# 
# 
# High freq. dielectric constant tensor:
#      x y z
#    x 1.664220 0.000000 0.000000 
#    y 0.000000 1.649360 0.000000 
#    z 0.000000 0.000000 1.669970 
# 
# From -- ./inp_files/33615.got.cif
#   From: 2010.03.12/outbox.cif.g09.slc.cpg/sg47_17_cif.got.tgz:33615.got - 2010.04.14 03:12:58.
