data_PCOD8196037
_publ_section_title
;
Structure prediction by ZEFSAII (Michael W. Deem and Ramdas Pophale) SiO2 
 PCOD8196037
Probable space group: P M M M
;
_chemical_formula_sum "Si O2"
_cell_formula_units_Z 48
_cell_length_a 8.837109
_cell_length_b 15.501621
_cell_length_c 18.126138
_cell_angle_alpha 90.000000
_cell_angle_beta 90.000000
_cell_angle_gamma 90.000000
_cell_volume 2483.090844
_symmetry_space_group_name_H-M "P M M M"
_symmetry_group_IT_number 47
_symmetry_cell_setting 'orthorhombic'
loop_
_space_group_symop_operation_xyz
x,y,z
-x,-y,z
x,-y,-z
-x,y,-z
-x,-y,-z
x,y,-z
-x,y,z
x,-y,z
loop_
_atom_site_type_symbol
_atom_site_label
_atom_site_fract_x
_atom_site_fract_y
_atom_site_fract_z
Si Si1 0.665002 0.500000 0.347883
Si Si2 0.174170 0.159842 0.085726
Si Si3 0.319492 0.683744 0.661459
Si Si4 0.820587 0.000000 0.678236
Si Si5 0.332519 0.500000 0.173083
Si Si6 0.174844 0.838482 0.415255
Si Si7 0.822795 0.324780 0.818083
Si Si8 0.677149 0.000000 0.162072
O O1 0.500000 0.500000 0.385298
O O2 0.745432 0.590708 0.368836
O O3 0.651347 0.500000 0.260172
O O4 0.214469 0.249993 0.123952
O O5 0.278546 0.084605 0.116966
O O6 0.000000 0.134311 0.100165
O O7 0.209026 0.171141 0.000000
O O8 0.500000 0.678874 0.669834
O O9 0.272567 0.754283 0.602058
O O10 0.250189 0.704993 0.740999
O O11 0.762329 0.915956 0.634847
O O12 0.758687 0.000000 0.759852
O O13 0.000000 0.000000 0.680223
O O14 0.500000 0.500000 0.136874
O O15 0.244173 0.413571 0.148808
O O16 0.197825 0.864713 0.500000
O O17 0.000000 0.818790 0.397762
O O18 0.000000 0.337626 0.805596
O O19 0.500000 0.000000 0.176073
#
# Coordination Sequence:
#
# PCOD8196037 Si02
#       8
#     4   8   8   4   4   8   8   4
#     4   7  14  29  48  71 100 136 175 211 250 303
#     4  10  22  40  59  79 108 147 186 224 270 325
#     4  10  19  33  54  79 108 142 179 221 272 325
#     4  10  21  39  61  80 103 141 181 216 264 326
#     4   9  17  31  52  79 112 146 179 222 276 326
#     4  10  21  37  56  79 107 139 178 223 268 317
#     4  10  19  33  56  83 108 140 186 233 272 315
#     4  12  25  38  57  86 113 138 175 226 278 328
#
# _framework density 19.330746999999999
#
# number of rings (size 3 to 8) (size 9 to 14) (size 15 to 20)
#    0.000    2.167    0.000    4.500    0.000    8.667 
#    0.000    2.083    0.000    6.500    0.000    0.000 
#    0.000    0.000    0.000    0.000    0.000    0.000 
#
# Total GULP energy -595120.703432 kJ/mol
# GULP energy per Si atom -12398.347988 kJ/mol
# Density = 1.928675 g / cm^3
# Si number density = 19.330747 Si / 1000 Ang^3
#
#
#
# Elastic Constant Matrix: (Units=GPa)
#
#
# Indices 1 2 3 4 5 6 
#
# 1 39.4869 27.2762 1.3078 0.0000 0.0000 0.0000
# 2 27.2762 135.4547 26.6075 0.0000 0.0000 0.0000
# 3 1.3078 26.6075 54.6217 0.0000 0.0000 0.0000
# 4 0.0000 0.0000 0.0000 18.0733 0.0000 0.0000
# 5 0.0000 0.0000 0.0000 0.0000 7.7144 0.0000
# 6 0.0000 0.0000 0.0000 0.0000 0.0000 16.1775
#
#
#
# Elastic Compliance Matrix: (Units=1/GPa)
#
#
# Indices 1 2 3 4 5 6 
#
# 1 0.029707 -0.006460 0.002436 0.000000 0.000000 0.000000
# 2 -0.006460 0.009569 -0.004506 0.000000 0.000000 0.000000
# 3 0.002436 -0.004506 0.020445 0.000000 0.000000 0.000000
# 4 0.000000 0.000000 0.000000 0.055330 0.000000 0.000000
# 5 0.000000 0.000000 0.000000 0.000000 0.129628 0.000000
# 6 0.000000 0.000000 0.000000 0.000000 0.000000 0.061814
#
#
# Mechanical properties :
#
#
# Convention : Reuss Voigt Hill
#
# Bulk Modulus (GPa) = 23.44234 37.77181 30.60707
# Shear Modulus (GPa) = 14.80280 20.01783 17.41031
#
# Velocity S-wave (km/s) = 2.77025 3.22148 3.00435
# Velocity P-wave (km/s) = 4.73135 5.78095 5.28228
#
# Compressibility (1/GPa) = 0.04265786
#
# Stress axis : x y z
#
# Youngs Moduli (GPa) = 33.66229 104.50770 48.91262
#
# Poissons Ratio (x) = 0.67517 -0.11914
# Poissons Ratio (y) = 0.21747 0.22042
# Poissons Ratio (z) = -0.08199 0.47096
#
# Static dielectric constant tensor:
#      x y z
#    x 3.502730 0.000000 0.000000 
#    y 0.000000 4.063920 0.000000 
#    z 0.000000 0.000000 3.298830 
# 
# 
# High freq. dielectric constant tensor:
#      x y z
#    x 1.742520 0.000000 0.000000 
#    y 0.000000 1.774800 0.000000 
#    z 0.000000 0.000000 1.732590 
# 
# From -- ./inp_files/26611.got.cif
#   From: 2010.03.12/outbox.cif.g09.slc.cpg/sg47_14_cif.got.tgz:26611.got - 2010.04.14 03:12:58.
