data_PCOD8196958
_publ_section_title
;
Structure prediction by ZEFSAII (Michael W. Deem and Ramdas Pophale) SiO2 
 PCOD8196958
Probable space group: P M M M
;
_chemical_formula_sum "Si O2"
_cell_formula_units_Z 44
_cell_length_a 28.343790
_cell_length_b 9.451647
_cell_length_c 9.446952
_cell_angle_alpha 90.000000
_cell_angle_beta 90.000000
_cell_angle_gamma 90.000000
_cell_volume 2530.795908
_symmetry_space_group_name_H-M "P M M M"
_symmetry_group_IT_number 47
_symmetry_cell_setting 'orthorhombic'
loop_
_space_group_symop_operation_xyz
x,y,z
-x,-y,z
x,-y,-z
-x,y,-z
-x,-y,-z
x,y,-z
-x,y,z
x,-y,z
loop_
_atom_site_type_symbol
_atom_site_label
_atom_site_fract_x
_atom_site_fract_y
_atom_site_fract_z
Si Si1 0.397735 0.337282 0.831047
Si Si2 0.053389 0.161101 0.165543
Si Si3 0.127768 0.666967 0.659714
Si Si4 0.500000 0.333448 0.153546
Si Si5 0.768062 0.656843 0.331953
Si Si6 0.320297 0.165182 0.334184
O O1 0.386006 0.500000 0.791895
O O2 0.450267 0.293947 0.771411
O O3 0.362280 0.233829 0.753287
O O4 0.395173 0.316190 0.000000
O O5 0.088591 0.263805 0.244082
O O6 0.000000 0.196271 0.212833
O O7 0.065753 0.000000 0.204781
O O8 0.059116 0.186931 0.000000
O O9 0.121734 0.723729 0.500000
O O10 0.120865 0.500000 0.664235
O O11 0.180001 0.706159 0.719462
O O12 0.500000 0.500000 0.129881
O O13 0.500000 0.259082 0.000000
O O14 0.769544 0.649066 0.500000
O O15 0.755960 0.500000 0.272047
O O16 0.728750 0.767202 0.279654
O O17 0.328253 0.195412 0.500000
O O18 0.318396 0.000000 0.300676
#
# Coordination Sequence:
#
# PCOD8196958 Si02
#       6
#     8   8   8   4   8   8
#     4   9  17  31  52  74  94 120 157 199 240 281
#     4   9  19  35  51  68  95 131 166 196 229 275
#     4   9  18  32  51  76 100 120 151 198 244 283
#     4   7  12  26  48  71  92 116 152 197 238 277
#     4   8  15  30  50  69  92 124 159 194 234 280
#     4  10  20  32  47  70  99 129 160 193 232 280
#
# _framework density 17.385835
#
# number of rings (size 3 to 8) (size 9 to 14) (size 15 to 20)
#    0.000    3.182    0.000    3.273    0.000    3.636 
#    0.000    6.364    0.000    5.455    0.000    0.000 
#    0.000    0.000    0.000    0.000    0.000    0.000 
#
# Total GULP energy -545239.277933 kJ/mol
# GULP energy per Si atom -12391.801771 kJ/mol
# Density = 1.734626 g / cm^3
# Si number density = 17.385835 Si / 1000 Ang^3
#
#
#
# Elastic Constant Matrix: (Units=GPa)
#
#
# Indices 1 2 3 4 5 6 
#
# 1 158.7739 73.4181 46.4890 0.0000 0.0000 0.0000
# 2 73.4181 79.9659 32.5078 0.0000 0.0000 0.0000
# 3 46.4890 32.5078 32.8706 0.0000 0.0000 0.0000
# 4 0.0000 0.0000 0.0000 27.5076 0.0000 0.0000
# 5 0.0000 0.0000 0.0000 0.0000 29.5284 0.0000
# 6 0.0000 0.0000 0.0000 0.0000 0.0000 -7.4667
#
#
#
# Elastic Compliance Matrix: (Units=1/GPa)
#
#
# Indices 1 2 3 4 5 6 
#
# 1 0.012941 -0.007427 -0.010957 0.000000 0.000000 0.000000
# 2 -0.007427 0.025175 -0.014394 0.000000 0.000000 0.000000
# 3 -0.010957 -0.014394 0.060155 0.000000 0.000000 0.000000
# 4 0.000000 0.000000 0.000000 0.036354 0.000000 0.000000
# 5 0.000000 0.000000 0.000000 0.000000 0.033866 0.000000
# 6 0.000000 0.000000 0.000000 0.000000 0.000000 -0.133928
#
#
# Mechanical properties :
#
#
# Convention : Reuss Voigt Hill
#
# Bulk Modulus (GPa) = 30.56736 64.04891 47.30813
# Shear Modulus (GPa) = 45.03553 17.86022 31.44787
#
# Velocity S-wave (km/s) = 5.09508 3.20861 4.25764
# Velocity P-wave (km/s) = 7.22724 7.11664 7.17215
#
# Compressibility (1/GPa) = 0.03271463
#
# Stress axis : x y z
#
# Youngs Moduli (GPa) = 77.27508 39.72141 16.62382
#
# Poissons Ratio (x) = 0.29500 0.18216
# Poissons Ratio (y) = 0.57390 0.23928
# Poissons Ratio (z) = 0.84674 0.57174
#
# Static dielectric constant tensor:
#      x y z
#    x 3.592390 0.000000 0.000000 
#    y 0.000000 3.125440 0.000000 
#    z 0.000000 0.000000 2.908910 
# 
# 
# High freq. dielectric constant tensor:
#      x y z
#    x 1.690650 0.000000 0.000000 
#    y 0.000000 1.659500 0.000000 
#    z 0.000000 0.000000 1.635820 
# 
# From -- ./inp_files/2053.got.cif
#   From: 2010.03.12/outbox.cif.g09.slc.cpg/sg47_2_cif.got.tgz:2053.got - 2010.04.14 03:12:58.
