data_PCOD8196710
_publ_section_title
;
Structure prediction by ZEFSAII (Michael W. Deem and Ramdas Pophale) SiO2 
 PCOD8196710
Probable space group: P M M M
;
_chemical_formula_sum "Si O2"
_cell_formula_units_Z 52
_cell_length_a 9.083528
_cell_length_b 25.954204
_cell_length_c 17.554166
_cell_angle_alpha 90.000000
_cell_angle_beta 90.000000
_cell_angle_gamma 90.000000
_cell_volume 4138.495374
_symmetry_space_group_name_H-M "P M M M"
_symmetry_group_IT_number 47
_symmetry_cell_setting 'orthorhombic'
loop_
_space_group_symop_operation_xyz
x,y,z
-x,-y,z
x,-y,-z
-x,y,-z
-x,-y,-z
x,y,-z
-x,y,z
x,-y,z
loop_
_atom_site_type_symbol
_atom_site_label
_atom_site_fract_x
_atom_site_fract_y
_atom_site_fract_z
Si Si1 0.166660 0.061474 0.000000
Si Si2 0.333853 0.664780 0.408741
Si Si3 0.829051 0.939479 0.300130
Si Si4 0.834668 0.236320 0.590650
Si Si5 0.666384 0.061307 0.851288
Si Si6 0.670128 0.865337 0.410213
Si Si7 0.325009 0.445446 0.414568
O O1 0.250290 0.082916 0.074386
O O2 0.000000 0.082507 0.000000
O O3 0.166543 0.000000 0.000000
O O4 0.330689 0.663192 0.500000
O O5 0.500000 0.675252 0.380492
O O6 0.232417 0.710564 0.376430
O O7 0.272938 0.609004 0.376929
O O8 0.751904 0.919111 0.223288
O O9 0.755362 0.912527 0.372296
O O10 0.000000 0.925111 0.295674
O O11 0.804736 0.000000 0.310826
O O12 0.832678 0.238192 0.500000
O O13 0.737824 0.188405 0.619486
O O14 0.000000 0.230091 0.621940
O O15 0.500000 0.082816 0.850133
O O16 0.665763 0.000000 0.853542
O O17 0.691683 0.871440 0.500000
O O18 0.500000 0.866810 0.386714
O O19 0.262119 0.447875 0.500000
O O20 0.500000 0.442525 0.417536
O O21 0.276502 0.500000 0.373352
#
# Coordination Sequence:
#
# PCOD8196710 Si02
#       7
#     4   8   8   8   8   8   8
#     4   9  15  23  37  57  79  99 117 135 155 181
#     4   8  12  18  29  43  57  73  94 120 149 182
#     4  10  20  32  44  57  73  91 109 131 163 203
#     4   9  16  25  36  48  61  76  96 125 161 198
#     4   9  16  26  40  57  76  96 116 135 155 183
#     4  10  20  32  44  55  66  82 107 139 172 206
#     4   7   9  13  22  37  55  73  93 116 141 172
#
# _framework density 12.564952999999999
#
# number of rings (size 3 to 8) (size 9 to 14) (size 15 to 20)
#    0.000    3.154    0.000    3.462    0.000    6.769 
#    0.000    1.538    0.000    0.462    0.000    3.231 
#    0.000    0.000    0.000    0.000    0.000    0.000 
#
# Total GULP energy -644252.979665 kJ/mol
# GULP energy per Si atom -12389.480378 kJ/mol
# Density = 1.253635 g / cm^3
# Si number density = 12.564953 Si / 1000 Ang^3
#
#
#
# Elastic Constant Matrix: (Units=GPa)
#
#
# Indices 1 2 3 4 5 6 
#
# 1 97.4136 43.5392 28.6561 0.0000 0.0000 0.0000
# 2 43.5392 66.0424 25.8395 0.0000 0.0000 0.0000
# 3 28.6561 25.8395 31.2871 0.0000 0.0000 0.0000
# 4 0.0000 0.0000 0.0000 0.3873 0.0000 0.0000
# 5 0.0000 0.0000 0.0000 0.0000 16.6825 0.0000
# 6 0.0000 0.0000 0.0000 0.0000 0.0000 11.3253
#
#
#
# Elastic Compliance Matrix: (Units=1/GPa)
#
#
# Indices 1 2 3 4 5 6 
#
# 1 0.016043 -0.007132 -0.008804 0.000000 0.000000 0.000000
# 2 -0.007132 0.025541 -0.014562 0.000000 0.000000 0.000000
# 3 -0.008804 -0.014562 0.052052 0.000000 0.000000 0.000000
# 4 0.000000 0.000000 0.000000 2.582249 0.000000 0.000000
# 5 0.000000 0.000000 0.000000 0.000000 0.059943 0.000000
# 6 0.000000 0.000000 0.000000 0.000000 0.000000 0.088298
#
#
# Mechanical properties :
#
#
# Convention : Reuss Voigt Hill
#
# Bulk Modulus (GPa) = 30.63631 43.42361 37.02996
# Shear Modulus (GPa) = 1.72652 12.12624 6.92638
#
# Velocity S-wave (km/s) = 1.17348 3.10995 2.35041
# Velocity P-wave (km/s) = 5.12556 6.89421 6.07460
#
# Compressibility (1/GPa) = 0.03264100
#
# Stress axis : x y z
#
# Youngs Moduli (GPa) = 62.33277 39.15284 19.21169
#
# Poissons Ratio (x) = 0.27924 0.16913
# Poissons Ratio (y) = 0.44456 0.27975
# Poissons Ratio (z) = 0.54876 0.57013
#
# Static dielectric constant tensor:
#      x y z
#    x 2.653910 0.000000 0.000000 
#    y 0.000000 2.706150 0.000000 
#    z 0.000000 0.000000 2.191260 
# 
# 
# High freq. dielectric constant tensor:
#      x y z
#    x 1.483710 0.000000 0.000000 
#    y 0.000000 1.464240 0.000000 
#    z 0.000000 0.000000 1.414820 
# 
# From -- ./inp_files/21979.got.cif
#   From: 2010.03.12/outbox.cif.g09.slc.cpg/sg47_11_cif.got.tgz:21979.got - 2010.04.14 03:12:58.
