data_PCOD8196496
_publ_section_title
;
Structure prediction by ZEFSAII (Michael W. Deem and Ramdas Pophale) SiO2 
 PCOD8196496
Probable space group: P M M M
;
_chemical_formula_sum "Si O2"
_cell_formula_units_Z 36
_cell_length_a 9.099996
_cell_length_b 17.496394
_cell_length_c 15.081798
_cell_angle_alpha 90.000000
_cell_angle_beta 90.000000
_cell_angle_gamma 90.000000
_cell_volume 2401.280373
_symmetry_space_group_name_H-M "P M M M"
_symmetry_group_IT_number 47
_symmetry_cell_setting 'orthorhombic'
loop_
_space_group_symop_operation_xyz
x,y,z
-x,-y,z
x,-y,-z
-x,y,-z
-x,-y,-z
x,y,-z
-x,y,z
x,-y,z
loop_
_atom_site_type_symbol
_atom_site_label
_atom_site_fract_x
_atom_site_fract_y
_atom_site_fract_z
Si Si1 0.331664 0.090441 0.268465
Si Si2 0.333958 0.351154 0.605505
Si Si3 0.833679 0.500000 0.605799
Si Si4 0.165059 0.090775 0.097523
Si Si5 0.171211 0.199444 0.396394
O O1 0.500000 0.115415 0.278374
O O2 0.273775 0.121586 0.173525
O O3 0.237323 0.126444 0.347178
O O4 0.311970 0.000000 0.275947
O O5 0.333972 0.353485 0.500000
O O6 0.500000 0.350881 0.642448
O O7 0.249604 0.425331 0.642786
O O8 0.250542 0.275727 0.639153
O O9 0.833578 0.500000 0.500000
O O10 0.000000 0.500000 0.641984
O O11 0.000000 0.120064 0.117478
O O12 0.166724 0.000000 0.097595
O O13 0.216416 0.120170 0.000000
O O14 0.200633 0.187096 0.500000
O O15 0.000000 0.207165 0.375246
#
# Coordination Sequence:
#
# PCOD8196496 Si02
#       5
#     8   8   4   8   8
#     4  10  20  31  43  60  81 106 137 173 211 249
#     4   9  16  26  40  57  77 101 130 165 205 245
#     4   9  15  23  37  57  79 101 128 161 196 239
#     4   8  14  26  44  63  81 101 126 159 201 248
#     4  10  20  32  44  57  76 106 143 179 212 245
#
# _framework density 14.992001999999999
#
# number of rings (size 3 to 8) (size 9 to 14) (size 15 to 20)
#    0.000    2.778    0.000    3.000    0.000    7.556 
#    0.000    4.444    0.000    0.000    0.000    0.000 
#    0.000    0.000    0.000    1.000    0.000   18.556 
#
# Total GULP energy -446310.566649 kJ/mol
# GULP energy per Si atom -12397.515740 kJ/mol
# Density = 1.495788 g / cm^3
# Si number density = 14.992002 Si / 1000 Ang^3
#
#
#
# Elastic Constant Matrix: (Units=GPa)
#
#
# Indices 1 2 3 4 5 6 
#
# 1 127.3587 45.6277 46.0960 0.0000 0.0000 0.0000
# 2 45.6277 55.4056 31.0297 0.0000 0.0000 0.0000
# 3 46.0960 31.0297 53.0843 0.0000 0.0000 0.0000
# 4 0.0000 0.0000 0.0000 1.0679 0.0000 0.0000
# 5 0.0000 0.0000 0.0000 0.0000 20.5784 0.0000
# 6 0.0000 0.0000 0.0000 0.0000 0.0000 28.4730
#
#
#
# Elastic Compliance Matrix: (Units=1/GPa)
#
#
# Indices 1 2 3 4 5 6 
#
# 1 0.012826 -0.006430 -0.007379 0.000000 0.000000 0.000000
# 2 -0.006430 0.030056 -0.011986 0.000000 0.000000 0.000000
# 3 -0.007379 -0.011986 0.032252 0.000000 0.000000 0.000000
# 4 0.000000 0.000000 0.000000 0.936397 0.000000 0.000000
# 5 0.000000 0.000000 0.000000 0.000000 0.048595 0.000000
# 6 0.000000 0.000000 0.000000 0.000000 0.000000 0.035121
#
#
# Mechanical properties :
#
#
# Convention : Reuss Voigt Hill
#
# Bulk Modulus (GPa) = 42.47197 53.48393 47.97795
# Shear Modulus (GPa) = 4.33018 17.56354 10.94686
#
# Velocity S-wave (km/s) = 1.70135 3.42647 2.70512
# Velocity P-wave (km/s) = 5.67897 7.16985 6.46751
#
# Compressibility (1/GPa) = 0.02354494
#
# Stress axis : x y z
#
# Youngs Moduli (GPa) = 77.96494 33.27075 31.00616
#
# Poissons Ratio (x) = 0.21393 0.22880
# Poissons Ratio (y) = 0.50132 0.37162
# Poissons Ratio (z) = 0.57532 0.39877
#
# Static dielectric constant tensor:
#      x y z
#    x 3.120450 0.000000 0.000000 
#    y 0.000000 2.756170 0.000000 
#    z 0.000000 0.000000 2.729110 
# 
# 
# High freq. dielectric constant tensor:
#      x y z
#    x 1.592990 0.000000 0.000000 
#    y 0.000000 1.550280 0.000000 
#    z 0.000000 0.000000 1.530200 
# 
# From -- ./inp_files/5498.got.cif
#   From: 2010.03.12/outbox.cif.g09.slc.cpg/sg47_3_cif.got.tgz:5498.got - 2010.04.14 03:12:58.
