data_PCOD8196664
_publ_section_title
;
Structure prediction by ZEFSAII (Michael W. Deem and Ramdas Pophale) SiO2 
 PCOD8196664
Probable space group: P M M M
;
_chemical_formula_sum "Si O2"
_cell_formula_units_Z 48
_cell_length_a 9.247617
_cell_length_b 30.234064
_cell_length_c 9.418842
_cell_angle_alpha 90.000000
_cell_angle_beta 90.000000
_cell_angle_gamma 90.000000
_cell_volume 2633.442708
_symmetry_space_group_name_H-M "P M M M"
_symmetry_group_IT_number 47
_symmetry_cell_setting 'orthorhombic'
loop_
_space_group_symop_operation_xyz
x,y,z
-x,-y,z
x,-y,-z
-x,y,-z
-x,-y,-z
x,y,-z
-x,y,z
x,-y,z
loop_
_atom_site_type_symbol
_atom_site_label
_atom_site_fract_x
_atom_site_fract_y
_atom_site_fract_z
Si Si1 0.666554 0.195672 0.837045
Si Si2 0.171901 0.451179 0.159378
Si Si3 0.170023 0.876585 0.664580
Si Si4 0.171617 0.369422 0.661573
Si Si5 0.666514 0.297880 0.162485
Si Si6 0.666755 0.051101 0.837071
O O1 0.500000 0.183406 0.808783
O O2 0.766553 0.167337 0.734865
O O3 0.695307 0.246786 0.802399
O O4 0.706126 0.185216 0.000000
O O5 0.225598 0.500000 0.208537
O O6 0.234135 0.413629 0.263404
O O7 0.000000 0.450238 0.161908
O O8 0.227486 0.441381 0.000000
O O9 0.212276 0.876575 0.500000
O O10 0.233512 0.920497 0.734852
O O11 0.000000 0.876593 0.688377
O O12 0.224443 0.370574 0.500000
O O13 0.233277 0.326037 0.735129
O O14 0.000000 0.367426 0.673251
O O15 0.500000 0.309928 0.190117
O O16 0.708244 0.308113 0.000000
O O17 0.500000 0.061985 0.804980
O O18 0.700112 0.000000 0.806400
O O19 0.702514 0.062846 0.000000
#
# Coordination Sequence:
#
# PCOD8196664 Si02
#       6
#     8   8   8   8   8   8
#     4   9  19  37  59  79  98 126 170 218 257 299
#     4   8  14  26  45  68  94 127 168 210 249 292
#     4  11  24  37  50  76 113 145 171 205 252 304
#     4  10  20  31  46  73 106 136 165 201 249 303
#     4   9  19  36  56  76  98 128 168 212 256 301
#     4   9  19  37  60  83 105 133 174 220 259 298
#
# _framework density 18.227091000000001
#
# number of rings (size 3 to 8) (size 9 to 14) (size 15 to 20)
#    0.000    2.667    0.000    3.500    0.000    7.667 
#    0.000    9.167    0.000    0.500    0.000    3.500 
#    0.000    0.000    0.000    0.000    0.000    0.000 
#
# Total GULP energy -595199.605018 kJ/mol
# GULP energy per Si atom -12399.991771 kJ/mol
# Density = 1.818560 g / cm^3
# Si number density = 18.227091 Si / 1000 Ang^3
#
#
#
# Elastic Constant Matrix: (Units=GPa)
#
#
# Indices 1 2 3 4 5 6 
#
# 1 51.9990 47.3473 57.9205 0.0000 0.0000 0.0000
# 2 47.3473 122.8085 85.4177 0.0000 0.0000 0.0000
# 3 57.9205 85.4177 138.0106 0.0000 0.0000 0.0000
# 4 0.0000 0.0000 0.0000 9.5963 0.0000 0.0000
# 5 0.0000 0.0000 0.0000 0.0000 28.6044 0.0000
# 6 0.0000 0.0000 0.0000 0.0000 0.0000 -63.9193
#
#
#
# Elastic Compliance Matrix: (Units=1/GPa)
#
#
# Indices 1 2 3 4 5 6 
#
# 1 0.038759 -0.006372 -0.012323 0.000000 0.000000 0.000000
# 2 -0.006372 0.015345 -0.006823 0.000000 0.000000 0.000000
# 3 -0.012323 -0.006823 0.016640 0.000000 0.000000 0.000000
# 4 0.000000 0.000000 0.000000 0.104207 0.000000 0.000000
# 5 0.000000 0.000000 0.000000 0.000000 0.034960 0.000000
# 6 0.000000 0.000000 0.000000 0.000000 0.000000 -0.015645
#
#
# Mechanical properties :
#
#
# Convention : Reuss Voigt Hill
#
# Bulk Modulus (GPa) = 50.73885 77.13213 63.93549
# Shear Modulus (GPa) = 19.85131 2.99846 11.42489
#
# Velocity S-wave (km/s) = 3.30375 1.28399 2.50633
# Velocity P-wave (km/s) = 6.51540 6.67887 6.59764
#
# Compressibility (1/GPa) = 0.01970876
#
# Stress axis : x y z
#
# Youngs Moduli (GPa) = 25.80024 65.16647 60.09490
#
# Poissons Ratio (x) = 0.41527 0.74052
# Poissons Ratio (y) = 0.16441 0.41004
# Poissons Ratio (z) = 0.31792 0.44464
#
# Static dielectric constant tensor:
#      x y z
#    x 3.083080 0.000000 0.000000 
#    y 0.000000 3.484300 0.000000 
#    z 0.000000 0.000000 3.410650 
# 
# 
# High freq. dielectric constant tensor:
#      x y z
#    x 1.681260 0.000000 0.000000 
#    y 0.000000 1.721720 0.000000 
#    z 0.000000 0.000000 1.706110 
# 
# From -- ./inp_files/2468.got.cif
#   From: 2010.03.12/outbox.cif.g09.slc.cpg/sg47_2_cif.got.tgz:2468.got - 2010.04.14 03:12:58.
