data_PCOD8196498
_publ_section_title
;
Structure prediction by ZEFSAII (Michael W. Deem and Ramdas Pophale) SiO2 
 PCOD8196498
Probable space group: P M M M
;
_chemical_formula_sum "Si O2"
_cell_formula_units_Z 52
_cell_length_a 26.816415
_cell_length_b 13.731562
_cell_length_c 9.165965
_cell_angle_alpha 90.000000
_cell_angle_beta 90.000000
_cell_angle_gamma 90.000000
_cell_volume 3375.194889
_symmetry_space_group_name_H-M "P M M M"
_symmetry_group_IT_number 47
_symmetry_cell_setting 'orthorhombic'
loop_
_space_group_symop_operation_xyz
x,y,z
-x,-y,z
x,-y,-z
-x,y,-z
-x,-y,-z
x,y,-z
-x,y,z
x,-y,z
loop_
_atom_site_type_symbol
_atom_site_label
_atom_site_fract_x
_atom_site_fract_y
_atom_site_fract_z
Si Si1 0.613378 0.387898 0.667798
Si Si2 0.351266 0.893445 0.171783
Si Si3 0.096173 0.615903 0.664574
Si Si4 0.702909 0.296253 0.172002
Si Si5 0.193803 0.387561 0.169558
Si Si6 0.000000 0.616216 0.164973
Si Si7 0.443768 0.230008 0.829782
O O1 0.618709 0.356755 0.500000
O O2 0.598849 0.500000 0.684124
O O3 0.665954 0.369305 0.746594
O O4 0.568800 0.327550 0.741407
O O5 0.309250 0.815151 0.220368
O O6 0.406019 0.855469 0.219493
O O7 0.341500 0.000000 0.243973
O O8 0.349601 0.905200 0.000000
O O9 0.094053 0.656170 0.500000
O O10 0.094717 0.500000 0.666312
O O11 0.146837 0.652506 0.740149
O O12 0.048794 0.657079 0.752856
O O13 0.759195 0.322130 0.216552
O O14 0.694474 0.310891 0.000000
O O15 0.205619 0.500000 0.206606
O O16 0.180931 0.375494 0.000000
O O17 0.000000 0.500000 0.165839
O O18 0.000000 0.655980 0.000000
O O19 0.500000 0.196299 0.794589
O O20 0.436600 0.253776 0.000000
#
# Coordination Sequence:
#
# PCOD8196498 Si02
#       7
#     8   8   8   8   8   4   8
#     4  10  20  31  43  60  82 108 135 163 198 238
#     4   8  14  26  45  67  86 102 125 161 203 243
#     4   9  16  24  34  50  73 102 137 174 207 237
#     4   9  17  29  45  63  82 106 136 168 201 240
#     4   9  16  25  37  54  77 105 136 168 200 233
#     4   9  15  23  35  49  69 101 140 177 208 237
#     4   9  18  31  46  64  83 104 132 163 195 235
#
# _framework density 15.406518
#
# number of rings (size 3 to 8) (size 9 to 14) (size 15 to 20)
#    0.000    3.000    0.000    2.538    0.000    6.154 
#    0.000    4.615    0.000    7.385    0.000    4.308 
#    0.000    0.000    0.000    0.692    0.000   16.385 
#
# Total GULP energy -644617.219030 kJ/mol
# GULP energy per Si atom -12396.484981 kJ/mol
# Density = 1.537145 g / cm^3
# Si number density = 15.406518 Si / 1000 Ang^3
#
#
#
# Elastic Constant Matrix: (Units=GPa)
#
#
# Indices 1 2 3 4 5 6 
#
# 1 137.3994 42.9753 47.1750 0.0000 0.0000 0.0000
# 2 42.9753 72.2785 24.5927 0.0000 0.0000 0.0000
# 3 47.1750 24.5927 65.5763 0.0000 0.0000 0.0000
# 4 0.0000 0.0000 0.0000 6.9938 0.0000 0.0000
# 5 0.0000 0.0000 0.0000 0.0000 15.2472 0.0000
# 6 0.0000 0.0000 0.0000 0.0000 0.0000 10.6621
#
#
#
# Elastic Compliance Matrix: (Units=1/GPa)
#
#
# Indices 1 2 3 4 5 6 
#
# 1 0.010715 -0.004297 -0.006097 0.000000 0.000000 0.000000
# 2 -0.004297 0.017582 -0.003503 0.000000 0.000000 0.000000
# 3 -0.006097 -0.003503 0.020949 0.000000 0.000000 0.000000
# 4 0.000000 0.000000 0.000000 0.142984 0.000000 0.000000
# 5 0.000000 0.000000 0.000000 0.000000 0.065586 0.000000
# 6 0.000000 0.000000 0.000000 0.000000 0.000000 0.093791
#
#
# Mechanical properties :
#
#
# Convention : Reuss Voigt Hill
#
# Bulk Modulus (GPa) = 46.61240 56.08224 51.34732
# Shear Modulus (GPa) = 12.93490 17.28137 15.10814
#
# Velocity S-wave (km/s) = 2.90068 3.35280 3.13490
# Velocity P-wave (km/s) = 6.44510 7.17419 6.81940
#
# Compressibility (1/GPa) = 0.02145352
#
# Stress axis : x y z
#
# Youngs Moduli (GPa) = 93.32417 56.87699 47.73433
#
# Poissons Ratio (x) = 0.24437 0.29105
# Poissons Ratio (y) = 0.40097 0.16720
# Poissons Ratio (z) = 0.56902 0.19922
#
# Static dielectric constant tensor:
#      x y z
#    x 3.038350 0.000000 0.000000 
#    y 0.000000 2.824060 0.000000 
#    z 0.000000 0.000000 2.922570 
# 
# 
# High freq. dielectric constant tensor:
#      x y z
#    x 1.592480 0.000000 0.000000 
#    y 0.000000 1.545140 0.000000 
#    z 0.000000 0.000000 1.584210 
# 
# From -- ./inp_files/13393.got.cif
#   From: 2010.03.12/outbox.cif.g09.slc.cpg/sg47_7_cif.got.tgz:13393.got - 2010.04.14 03:12:58.
