data_PCOD8196039
_publ_section_title
;
Structure prediction by ZEFSAII (Michael W. Deem and Ramdas Pophale) SiO2 
 PCOD8196039
Probable space group: P M M M
;
_chemical_formula_sum "Si O2"
_cell_formula_units_Z 64
_cell_length_a 9.046122
_cell_length_b 19.427366
_cell_length_c 19.330480
_cell_angle_alpha 90.000000
_cell_angle_beta 90.000000
_cell_angle_gamma 90.000000
_cell_volume 3397.183459
_symmetry_space_group_name_H-M "P M M M"
_symmetry_group_IT_number 47
_symmetry_cell_setting 'orthorhombic'
loop_
_space_group_symop_operation_xyz
x,y,z
-x,-y,z
x,-y,-z
-x,y,-z
-x,-y,-z
x,y,-z
-x,y,z
x,-y,z
loop_
_atom_site_type_symbol
_atom_site_label
_atom_site_fract_x
_atom_site_fract_y
_atom_site_fract_z
Si Si1 0.674486 0.925189 0.076052
Si Si2 0.824082 0.812540 0.683154
Si Si3 0.175289 0.579247 0.178083
Si Si4 0.172330 0.341634 0.687951
Si Si5 0.675301 0.193599 0.171417
Si Si6 0.336873 0.419100 0.576661
Si Si7 0.326026 0.675844 0.920492
Si Si8 0.673583 0.079129 0.419996
O O1 0.500000 0.915813 0.070171
O O2 0.738985 0.867058 0.124383
O O3 0.714235 0.000000 0.107179
O O4 0.744571 0.917284 0.000000
O O5 0.771186 0.734380 0.667035
O O6 0.762548 0.823173 0.759339
O O7 0.758356 0.867023 0.628778
O O8 0.000000 0.820634 0.681770
O O9 0.223533 0.500000 0.189581
O O10 0.239824 0.625916 0.241463
O O11 0.246075 0.606995 0.106843
O O12 0.000000 0.584974 0.172265
O O13 0.209914 0.390599 0.624843
O O14 0.000000 0.339938 0.699317
O O15 0.500000 0.191014 0.185303
O O16 0.721700 0.262915 0.131427
O O17 0.313565 0.388773 0.500000
O O18 0.500000 0.397896 0.604137
O O19 0.321279 0.500000 0.574451
O O20 0.500000 0.664256 0.917584
O O21 0.277436 0.691165 0.000000
O O22 0.714927 0.094308 0.500000
O O23 0.500000 0.089367 0.408185
O O24 0.717688 0.000000 0.401582
#
# Coordination Sequence:
#
# PCOD8196039 Si02
#       8
#     8   8   8   8   8   8   8   8
#     4   8  14  26  47  76 106 135 172 219 266 312
#     4  11  23  37  56  83 116 149 184 227 275 325
#     4  10  21  38  58  78 104 142 187 233 283 341
#     4  10  21  37  55  77 109 147 186 228 273 329
#     4  10  19  33  54  79 109 146 186 227 273 331
#     4   9  19  35  54  79 110 141 176 221 273 329
#     4  10  21  36  55  80 109 142 183 235 291 342
#     4   9  20  41  66  89 115 150 192 234 275 323
#
# _framework density 18.839134999999999
#
# number of rings (size 3 to 8) (size 9 to 14) (size 15 to 20)
#    0.000    2.375    1.250    2.250    0.000    6.250 
#    0.000    6.250    0.000    1.125    0.000    0.875 
#    0.000    0.000    0.000    0.000    0.000    0.000 
#
# Total GULP energy -793161.388785 kJ/mol
# GULP energy per Si atom -12393.146700 kJ/mol
# Density = 1.879626 g / cm^3
# Si number density = 18.839135 Si / 1000 Ang^3
#
#
#
# Elastic Constant Matrix: (Units=GPa)
#
#
# Indices 1 2 3 4 5 6 
#
# 1 29.2491 45.6749 36.6413 0.0000 0.0000 0.0000
# 2 45.6749 120.4181 79.7472 0.0000 0.0000 0.0000
# 3 36.6413 79.7472 127.5576 0.0000 0.0000 0.0000
# 4 0.0000 0.0000 0.0000 43.2263 0.0000 0.0000
# 5 0.0000 0.0000 0.0000 0.0000 21.2461 0.0000
# 6 0.0000 0.0000 0.0000 0.0000 0.0000 26.6794
#
#
#
# Elastic Compliance Matrix: (Units=1/GPa)
#
#
# Indices 1 2 3 4 5 6 
#
# 1 0.087891 -0.028359 -0.007517 0.000000 0.000000 0.000000
# 2 -0.028359 0.023322 -0.006435 0.000000 0.000000 0.000000
# 3 -0.007517 -0.006435 0.014022 0.000000 0.000000 0.000000
# 4 0.000000 0.000000 0.000000 0.023134 0.000000 0.000000
# 5 0.000000 0.000000 0.000000 0.000000 0.047068 0.000000
# 6 0.000000 0.000000 0.000000 0.000000 0.000000 0.037482
#
#
# Mechanical properties :
#
#
# Convention : Reuss Voigt Hill
#
# Bulk Modulus (GPa) = 24.62235 66.81685 45.71960
# Shear Modulus (GPa) = 15.10213 25.90777 20.50495
#
# Velocity S-wave (km/s) = 2.83439 3.71241 3.30270
# Velocity P-wave (km/s) = 4.87953 7.34302 6.23417
#
# Compressibility (1/GPa) = 0.04061351
#
# Stress axis : x y z
#
# Youngs Moduli (GPa) = 11.37769 42.87725 71.31745
#
# Poissons Ratio (x) = 1.21596 0.53612
# Poissons Ratio (y) = 0.32266 0.45890
# Poissons Ratio (z) = 0.08553 0.27590
#
# Static dielectric constant tensor:
#      x y z
#    x 3.169430 0.000000 0.000000 
#    y 0.000000 3.700820 0.000000 
#    z 0.000000 0.000000 3.619410 
# 
# 
# High freq. dielectric constant tensor:
#      x y z
#    x 1.706040 0.000000 0.000000 
#    y 0.000000 1.740930 0.000000 
#    z 0.000000 0.000000 1.737130 
# 
# From -- ./inp_files/10033.got.cif
#   From: 2010.03.12/outbox.cif.g09.slc.cpg/sg47_6_cif.got.tgz:10033.got - 2010.04.14 03:12:58.
