data_PCOD8196275
_publ_section_title
;
Structure prediction by ZEFSAII (Michael W. Deem and Ramdas Pophale) SiO2 
 PCOD8196275
Probable space group: P M M M
;
_chemical_formula_sum "Si O2"
_cell_formula_units_Z 40
_cell_length_a 18.766096
_cell_length_b 9.064876
_cell_length_c 12.655422
_cell_angle_alpha 90.000000
_cell_angle_beta 90.000000
_cell_angle_gamma 90.000000
_cell_volume 2152.843365
_symmetry_space_group_name_H-M "P M M M"
_symmetry_group_IT_number 47
_symmetry_cell_setting 'orthorhombic'
loop_
_space_group_symop_operation_xyz
x,y,z
-x,-y,z
x,-y,-z
-x,y,-z
-x,-y,-z
x,y,-z
-x,y,z
x,-y,z
loop_
_atom_site_type_symbol
_atom_site_label
_atom_site_fract_x
_atom_site_fract_y
_atom_site_fract_z
Si Si1 0.822026 0.172762 0.877055
Si Si2 0.579394 0.175021 0.616333
Si Si3 0.335837 0.825840 0.184676
Si Si4 0.583969 0.668839 0.000000
Si Si5 0.083911 0.670553 0.290269
Si Si6 0.915228 0.167043 0.500000
O O1 0.745524 0.221840 0.832161
O O2 0.881807 0.261735 0.814513
O O3 0.835167 0.000000 0.859921
O O4 0.827044 0.215304 0.000000
O O5 0.600712 0.235108 0.500000
O O6 0.500000 0.232572 0.646804
O O7 0.638370 0.228930 0.699990
O O8 0.577897 0.000000 0.614467
O O9 0.386459 0.747159 0.102688
O O10 0.344490 0.000000 0.168471
O O11 0.608717 0.500000 0.000000
O O12 0.500000 0.685400 0.000000
O O13 0.104344 0.500000 0.300069
O O14 0.113548 0.751787 0.395130
O O15 0.000000 0.693798 0.279247
O O16 0.000000 0.170930 0.500000
O O17 0.886043 0.000000 0.500000
#
# Coordination Sequence:
#
# PCOD8196275 Si02
#       6
#     8   8   8   4   8   4
#     4  10  21  37  54  77 110 144 185 236 284 330
#     4   8  14  26  48  79 109 135 169 217 268 314
#     4  10  19  35  56  78 106 142 185 227 269 325
#     4  11  23  35  51  79 110 141 182 229 277 326
#     4  10  21  37  58  84 113 146 185 226 271 332
#     4   9  17  33  59  87 113 141 176 223 276 321
#
# _framework density 18.580078
#
# number of rings (size 3 to 8) (size 9 to 14) (size 15 to 20)
#    0.000    2.400    1.000    2.400    0.000    5.600 
#    1.800    2.000    0.000    0.600    0.000    2.800 
#    0.000    0.000    0.000    0.000    0.000    0.000 
#
# Total GULP energy -495978.959378 kJ/mol
# GULP energy per Si atom -12399.473984 kJ/mol
# Density = 1.853779 g / cm^3
# Si number density = 18.580078 Si / 1000 Ang^3
#
#
#
# Elastic Constant Matrix: (Units=GPa)
#
#
# Indices 1 2 3 4 5 6 
#
# 1 58.5565 39.0097 63.9361 0.0000 0.0000 0.0000
# 2 39.0097 71.8826 58.0705 0.0000 0.0000 0.0000
# 3 63.9361 58.0705 168.2466 0.0000 0.0000 0.0000
# 4 0.0000 0.0000 0.0000 3.0384 0.0000 0.0000
# 5 0.0000 0.0000 0.0000 0.0000 16.5178 0.0000
# 6 0.0000 0.0000 0.0000 0.0000 0.0000 21.3647
#
#
#
# Elastic Compliance Matrix: (Units=1/GPa)
#
#
# Indices 1 2 3 4 5 6 
#
# 1 0.034815 -0.011378 -0.009303 0.000000 0.000000 0.000000
# 2 -0.011378 0.023009 -0.003618 0.000000 0.000000 0.000000
# 3 -0.009303 -0.003618 0.010728 0.000000 0.000000 0.000000
# 4 0.000000 0.000000 0.000000 0.329122 0.000000 0.000000
# 5 0.000000 0.000000 0.000000 0.000000 0.060541 0.000000
# 6 0.000000 0.000000 0.000000 0.000000 0.000000 0.046806
#
#
# Mechanical properties :
#
#
# Convention : Reuss Voigt Hill
#
# Bulk Modulus (GPa) = 50.11569 68.96871 59.54220
# Shear Modulus (GPa) = 8.92426 17.36214 13.14320
#
# Velocity S-wave (km/s) = 2.19398 3.06019 2.66255
# Velocity P-wave (km/s) = 5.78355 7.04888 6.44733
#
# Compressibility (1/GPa) = 0.01995383
#
# Stress axis : x y z
#
# Youngs Moduli (GPa) = 28.72290 43.46143 93.21739
#
# Poissons Ratio (x) = 0.49452 0.86721
# Poissons Ratio (y) = 0.32682 0.33723
# Poissons Ratio (z) = 0.26721 0.15723
#
# Static dielectric constant tensor:
#      x y z
#    x 3.333500 0.000000 0.000000 
#    y 0.000000 3.252930 0.000000 
#    z 0.000000 0.000000 5.040670 
# 
# 
# High freq. dielectric constant tensor:
#      x y z
#    x 1.709250 0.000000 0.000000 
#    y 0.000000 1.699510 0.000000 
#    z 0.000000 0.000000 1.736770 
# 
# From -- ./inp_files/18923.got.cif
#   From: 2010.03.12/outbox.cif.g09.slc.cpg/sg47_10_cif.got.tgz:18923.got - 2010.04.14 03:12:58.
