data_PCOD8196112
_publ_section_title
;
Structure prediction by ZEFSAII (Michael W. Deem and Ramdas Pophale) SiO2 
 PCOD8196112
Probable space group: P M M M
;
_chemical_formula_sum "Si O2"
_cell_formula_units_Z 52
_cell_length_a 12.728051
_cell_length_b 12.802361
_cell_length_c 17.191960
_cell_angle_alpha 90.000000
_cell_angle_beta 90.000000
_cell_angle_gamma 90.000000
_cell_volume 2801.414473
_symmetry_space_group_name_H-M "P M M M"
_symmetry_group_IT_number 47
_symmetry_cell_setting 'orthorhombic'
loop_
_space_group_symop_operation_xyz
x,y,z
-x,-y,z
x,-y,-z
-x,y,-z
-x,-y,-z
x,y,-z
-x,y,z
x,-y,z
loop_
_atom_site_type_symbol
_atom_site_label
_atom_site_fract_x
_atom_site_fract_y
_atom_site_fract_z
Si Si1 0.000000 0.623739 0.912585
Si Si2 0.792022 0.622441 0.177098
Si Si3 0.375493 0.000000 0.911697
Si Si4 0.116606 0.378468 0.500000
Si Si5 0.174984 0.118854 0.412461
Si Si6 0.881271 0.311920 0.663257
Si Si7 0.614726 0.117362 0.665088
Si Si8 0.621828 0.210160 0.828391
O O1 0.895450 0.662432 0.868492
O O2 0.000000 0.500000 0.913951
O O3 0.000000 0.669370 0.000000
O O4 0.768797 0.500000 0.162313
O O5 0.810620 0.642748 0.268331
O O6 0.692630 0.689920 0.147189
O O7 0.334407 0.893697 0.871210
O O8 0.500000 0.000000 0.906040
O O9 0.334855 0.000000 0.000000
O O10 0.107757 0.500000 0.500000
O O11 0.172707 0.345691 0.419090
O O12 0.000000 0.327605 0.500000
O O13 0.145883 0.157624 0.500000
O O14 0.117778 0.185416 0.344443
O O15 0.300431 0.131429 0.402640
O O16 0.138345 0.000000 0.401512
O O17 0.000000 0.355086 0.673729
O O18 0.500000 0.139430 0.628362
O O19 0.635246 0.195714 0.736186
O O20 0.619116 0.000000 0.699926
O O21 0.500000 0.232567 0.850702
#
# Coordination Sequence:
#
# PCOD8196112 Si02
#       8
#     4   8   4   4   8   8   8   8
#     4   9  20  40  62  82 106 141 184 226 271 324
#     4  11  22  36  58  84 112 147 188 234 278 332
#     4   9  18  34  58  87 114 142 179 221 267 325
#     4   9  18  30  47  69  96 129 169 227 281 315
#     4  10  20  32  48  73 105 141 181 226 282 342
#     4  11  20  33  51  75 103 137 184 231 276 326
#     4   9  16  29  50  73  99 134 177 223 267 311
#     4  10  19  33  56  85 116 148 180 221 275 330
#
# _framework density 18.562052000000001
#
# number of rings (size 3 to 8) (size 9 to 14) (size 15 to 20)
#    0.000    2.077    3.846    0.462    0.000    2.154 
#    0.000    2.308    0.000    0.462    0.000    5.385 
#    0.000    4.923    0.000    0.000    0.000    0.000 
#
# Total GULP energy -644463.182463 kJ/mol
# GULP energy per Si atom -12393.522740 kJ/mol
# Density = 1.851980 g / cm^3
# Si number density = 18.562052 Si / 1000 Ang^3
#
#
#
# Elastic Constant Matrix: (Units=GPa)
#
#
# Indices 1 2 3 4 5 6 
#
# 1 79.2895 42.2294 22.5128 0.0000 0.0000 0.0000
# 2 42.2294 92.5145 28.1641 0.0000 0.0000 0.0000
# 3 22.5128 28.1641 82.5525 0.0000 0.0000 0.0000
# 4 0.0000 0.0000 0.0000 19.1888 0.0000 0.0000
# 5 0.0000 0.0000 0.0000 0.0000 19.0818 0.0000
# 6 0.0000 0.0000 0.0000 0.0000 0.0000 27.5009
#
#
#
# Elastic Compliance Matrix: (Units=1/GPa)
#
#
# Indices 1 2 3 4 5 6 
#
# 1 0.017020 -0.007093 -0.002222 0.000000 0.000000 0.000000
# 2 -0.007093 0.015018 -0.003189 0.000000 0.000000 0.000000
# 3 -0.002222 -0.003189 0.013807 0.000000 0.000000 0.000000
# 4 0.000000 0.000000 0.000000 0.052114 0.000000 0.000000
# 5 0.000000 0.000000 0.000000 0.000000 0.052406 0.000000
# 6 0.000000 0.000000 0.000000 0.000000 0.000000 0.036362
#
#
# Mechanical properties :
#
#
# Convention : Reuss Voigt Hill
#
# Bulk Modulus (GPa) = 47.98961 48.90769 48.44865
# Shear Modulus (GPa) = 22.86429 23.91763 23.39096
#
# Velocity S-wave (km/s) = 3.51347 3.59349 3.55371
# Velocity P-wave (km/s) = 6.50915 6.60477 6.55714
#
# Compressibility (1/GPa) = 0.02083784
#
# Stress axis : x y z
#
# Youngs Moduli (GPa) = 58.75269 66.58846 72.42459
#
# Poissons Ratio (x) = 0.47230 0.16091
# Poissons Ratio (y) = 0.41672 0.23098
# Poissons Ratio (z) = 0.13054 0.21236
#
# Static dielectric constant tensor:
#      x y z
#    x 3.325150 0.000000 0.000000 
#    y 0.000000 3.411560 0.000000 
#    z 0.000000 0.000000 3.368470 
# 
# 
# High freq. dielectric constant tensor:
#      x y z
#    x 1.697130 0.000000 0.000000 
#    y 0.000000 1.714360 0.000000 
#    z 0.000000 0.000000 1.709820 
# 
# From -- ./inp_files/28216.got.cif
#   From: 2010.03.12/outbox.cif.g09.slc.cpg/sg47_15_cif.got.tgz:28216.got - 2010.04.14 03:12:58.
