data_PCOD8196061
_publ_section_title
;
Structure prediction by ZEFSAII (Michael W. Deem and Ramdas Pophale) SiO2 
 PCOD8196061
Probable space group: P M M M
;
_chemical_formula_sum "Si O2"
_cell_formula_units_Z 64
_cell_length_a 9.027851
_cell_length_b 24.007453
_cell_length_c 15.446966
_cell_angle_alpha 90.000000
_cell_angle_beta 90.000000
_cell_angle_gamma 90.000000
_cell_volume 3347.909121
_symmetry_space_group_name_H-M "P M M M"
_symmetry_group_IT_number 47
_symmetry_cell_setting 'orthorhombic'
loop_
_space_group_symop_operation_xyz
x,y,z
-x,-y,z
x,-y,-z
-x,y,-z
-x,-y,-z
x,y,-z
-x,y,z
x,-y,z
loop_
_atom_site_type_symbol
_atom_site_label
_atom_site_fract_x
_atom_site_fract_y
_atom_site_fract_z
Si Si1 0.829314 0.137663 0.901465
Si Si2 0.673906 0.747310 0.652692
Si Si3 0.176001 0.437893 0.249763
Si Si4 0.829098 0.638491 0.596561
Si Si5 0.676028 0.867318 0.595475
Si Si6 0.325645 0.250231 0.147463
Si Si7 0.674510 0.064555 0.759315
Si Si8 0.169584 0.640257 0.903528
O O1 0.751432 0.197002 0.893647
O O2 0.753577 0.092187 0.840668
O O3 0.000000 0.144144 0.874698
O O4 0.813426 0.116532 0.000000
O O5 0.500000 0.742276 0.639005
O O6 0.747778 0.697194 0.601552
O O7 0.734919 0.805188 0.614176
O O8 0.718458 0.744670 0.752647
O O9 0.244595 0.500000 0.248830
O O10 0.236536 0.405632 0.334591
O O11 0.230030 0.405541 0.163947
O O12 0.000000 0.441870 0.252140
O O13 0.807587 0.613879 0.500000
O O14 0.000000 0.649531 0.617808
O O15 0.731955 0.886410 0.500000
O O16 0.500000 0.867209 0.598094
O O17 0.735044 0.909014 0.669501
O O18 0.500000 0.243904 0.133994
O O19 0.268895 0.304834 0.099130
O O20 0.500000 0.075077 0.769105
O O21 0.715349 0.000000 0.757725
O O22 0.000000 0.656284 0.881055
O O23 0.181095 0.614688 0.000000
#
# Coordination Sequence:
#
# PCOD8196061 Si02
#       8
#     8   8   8   8   8   8   8   8
#     4  11  24  40  59  83 112 147 185 227 277 331
#     4  10  19  33  55  80 109 144 177 216 270 328
#     4   9  18  33  52  75 105 141 182 228 271 312
#     4  10  20  33  52  79 108 139 177 221 270 323
#     4   9  17  32  55  83 113 143 178 221 269 322
#     4  11  21  35  58  85 112 142 178 221 271 329
#     4  10  21  38  59  84 114 148 189 233 274 319
#     4  10  20  34  54  80 109 141 177 218 270 329
#
# _framework density 19.116409000000001
#
# number of rings (size 3 to 8) (size 9 to 14) (size 15 to 20)
#    0.000    2.000    2.500    1.500    0.000    5.250 
#    0.000    5.000    0.000    1.875    0.000    2.625 
#    0.000    0.000    0.000    0.000    0.000    0.000 
#
# Total GULP energy -793661.392791 kJ/mol
# GULP energy per Si atom -12400.959262 kJ/mol
# Density = 1.907290 g / cm^3
# Si number density = 19.116409 Si / 1000 Ang^3
#
#
#
# Elastic Constant Matrix: (Units=GPa)
#
#
# Indices 1 2 3 4 5 6 
#
# 1 36.9018 35.8001 34.7489 0.0000 0.0000 0.0000
# 2 35.8001 150.4973 77.5672 0.0000 0.0000 0.0000
# 3 34.7489 77.5672 152.3403 0.0000 0.0000 0.0000
# 4 0.0000 0.0000 0.0000 30.3108 0.0000 0.0000
# 5 0.0000 0.0000 0.0000 0.0000 20.8765 0.0000
# 6 0.0000 0.0000 0.0000 0.0000 0.0000 21.8342
#
#
#
# Elastic Compliance Matrix: (Units=1/GPa)
#
#
# Indices 1 2 3 4 5 6 
#
# 1 0.038429 -0.006269 -0.005574 0.000000 0.000000 0.000000
# 2 -0.006269 0.010031 -0.003678 0.000000 0.000000 0.000000
# 3 -0.005574 -0.003678 0.009708 0.000000 0.000000 0.000000
# 4 0.000000 0.000000 0.000000 0.032992 0.000000 0.000000
# 5 0.000000 0.000000 0.000000 0.000000 0.047901 0.000000
# 6 0.000000 0.000000 0.000000 0.000000 0.000000 0.045800
#
#
# Mechanical properties :
#
#
# Convention : Reuss Voigt Hill
#
# Bulk Modulus (GPa) = 36.86207 70.66351 53.76279
# Shear Modulus (GPa) = 22.22771 27.37917 24.80344
#
# Velocity S-wave (km/s) = 3.41362 3.78859 3.60598
# Velocity P-wave (km/s) = 5.90439 7.49553 6.74703
#
# Compressibility (1/GPa) = 0.02712815
#
# Stress axis : x y z
#
# Youngs Moduli (GPa) = 26.02185 99.68720 103.00475
#
# Poissons Ratio (x) = 0.62491 0.57414
# Poissons Ratio (y) = 0.16312 0.37883
# Poissons Ratio (z) = 0.14504 0.36663
#
# Static dielectric constant tensor:
#      x y z
#    x 3.207970 0.000000 0.000000 
#    y 0.000000 3.534850 0.000000 
#    z 0.000000 0.000000 3.785870 
# 
# 
# High freq. dielectric constant tensor:
#      x y z
#    x 1.709910 0.000000 0.000000 
#    y 0.000000 1.739010 0.000000 
#    z 0.000000 0.000000 1.763340 
# 
# From -- ./inp_files/7840.got.cif
#   From: 2010.03.12/outbox.cif.g09.slc.cpg/sg47_4_cif.got.tgz:7840.got - 2010.04.14 03:12:58.
