data_PCOD8196414
_publ_section_title
;
Structure prediction by ZEFSAII (Michael W. Deem and Ramdas Pophale) SiO2 
 PCOD8196414
Probable space group: P M M M
;
_chemical_formula_sum "Si O2"
_cell_formula_units_Z 44
_cell_length_a 9.078945
_cell_length_b 20.743144
_cell_length_c 17.549859
_cell_angle_alpha 90.000000
_cell_angle_beta 90.000000
_cell_angle_gamma 90.000000
_cell_volume 3305.092351
_symmetry_space_group_name_H-M "P M M M"
_symmetry_group_IT_number 47
_symmetry_cell_setting 'orthorhombic'
loop_
_space_group_symop_operation_xyz
x,y,z
-x,-y,z
x,-y,-z
-x,y,-z
-x,-y,-z
x,y,-z
-x,y,z
x,-y,z
loop_
_atom_site_type_symbol
_atom_site_label
_atom_site_fract_x
_atom_site_fract_y
_atom_site_fract_z
Si Si1 0.669384 0.331805 0.589897
Si Si2 0.175036 0.068257 0.585353
Si Si3 0.834183 0.793967 0.408988
Si Si4 0.333633 0.423284 0.851359
Si Si5 0.828384 0.575330 0.699908
Si Si6 0.833379 0.423075 0.000000
O O1 0.692287 0.338155 0.500000
O O2 0.500000 0.338248 0.613600
O O3 0.728128 0.262820 0.619974
O O4 0.761552 0.389053 0.627227
O O5 0.238845 0.065350 0.500000
O O6 0.225831 0.136363 0.623686
O O7 0.000000 0.071674 0.581951
O O8 0.223525 0.000000 0.626610
O O9 0.833598 0.798148 0.500000
O O10 0.000000 0.779482 0.379920
O O11 0.500000 0.396472 0.850921
O O12 0.333283 0.500000 0.853633
O O13 0.250040 0.398703 0.776210
O O14 0.249756 0.396135 0.925489
O O15 0.798471 0.500000 0.687888
O O16 0.000000 0.590670 0.707088
O O17 0.832961 0.500000 0.000000
O O18 0.000000 0.396790 0.000000
#
# Coordination Sequence:
#
# PCOD8196414 Si02
#       6
#     8   8   8   8   8   4
#     4  10  20  31  41  52  67  89 117 150 188 227
#     4   7   9  14  27  48  69  85 103 130 164 200
#     4   8  13  22  36  51  66  85 110 140 172 207
#     4   9  16  26  40  57  76  95 113 135 168 210
#     4  10  20  32  44  56  69  86 112 149 190 227
#     4   9  15  23  37  57  79  99 117 135 158 195
#
# _framework density 13.31279
#
# number of rings (size 3 to 8) (size 9 to 14) (size 15 to 20)
#    0.000    3.182    0.000    3.545    0.000    5.818 
#    0.000    1.818    0.000    0.545    0.000    3.818 
#    0.000    0.000    0.000    0.000    0.000    0.000 
#
# Total GULP energy -545085.633109 kJ/mol
# GULP energy per Si atom -12388.309843 kJ/mol
# Density = 1.328249 g / cm^3
# Si number density = 13.312790 Si / 1000 Ang^3
#
#
#
# Elastic Constant Matrix: (Units=GPa)
#
#
# Indices 1 2 3 4 5 6 
#
# 1 88.6740 41.1828 32.0886 0.0000 0.0000 0.0000
# 2 41.1828 66.2195 29.4080 0.0000 0.0000 0.0000
# 3 32.0886 29.4080 40.8485 0.0000 0.0000 0.0000
# 4 0.0000 0.0000 0.0000 0.5203 0.0000 0.0000
# 5 0.0000 0.0000 0.0000 0.0000 20.7526 0.0000
# 6 0.0000 0.0000 0.0000 0.0000 0.0000 9.3743
#
#
#
# Elastic Compliance Matrix: (Units=1/GPa)
#
#
# Indices 1 2 3 4 5 6 
#
# 1 0.017791 -0.007141 -0.008835 0.000000 0.000000 0.000000
# 2 -0.007141 0.025065 -0.012435 0.000000 0.000000 0.000000
# 3 -0.008835 -0.012435 0.040373 0.000000 0.000000 0.000000
# 4 0.000000 0.000000 0.000000 1.922021 0.000000 0.000000
# 5 0.000000 0.000000 0.000000 0.000000 0.048187 0.000000
# 6 0.000000 0.000000 0.000000 0.000000 0.000000 0.106674
#
#
# Mechanical properties :
#
#
# Convention : Reuss Voigt Hill
#
# Bulk Modulus (GPa) = 37.86849 44.56676 41.21763
# Shear Modulus (GPa) = 2.24645 12.33361 7.29003
#
# Velocity S-wave (km/s) = 1.30042 3.04706 2.34262
# Velocity P-wave (km/s) = 5.54633 6.77708 6.19236
#
# Compressibility (1/GPa) = 0.02640718
#
# Stress axis : x y z
#
# Youngs Moduli (GPa) = 56.20929 39.89652 24.76883
#
# Poissons Ratio (x) = 0.28489 0.21882
# Poissons Ratio (y) = 0.40138 0.30801
# Poissons Ratio (z) = 0.49659 0.49613
#
# Static dielectric constant tensor:
#      x y z
#    x 2.701060 0.000000 0.000000 
#    y 0.000000 2.806700 0.000000 
#    z 0.000000 0.000000 2.386500 
# 
# 
# High freq. dielectric constant tensor:
#      x y z
#    x 1.508360 0.000000 0.000000 
#    y 0.000000 1.486100 0.000000 
#    z 0.000000 0.000000 1.459210 
# 
# From -- ./inp_files/9433.got.cif
#   From: 2010.03.12/outbox.cif.g09.slc.cpg/sg47_5_cif.got.tgz:9433.got - 2010.04.14 03:12:58.
