data_PCOD8196078
_publ_section_title
;
Structure prediction by ZEFSAII (Michael W. Deem and Ramdas Pophale) SiO2 
 PCOD8196078
Probable space group: P M M M
;
_chemical_formula_sum "Si O2"
_cell_formula_units_Z 56
_cell_length_a 19.079225
_cell_length_b 8.797945
_cell_length_c 17.474038
_cell_angle_alpha 90.000000
_cell_angle_beta 90.000000
_cell_angle_gamma 90.000000
_cell_volume 2933.156585
_symmetry_space_group_name_H-M "P M M M"
_symmetry_group_IT_number 47
_symmetry_cell_setting 'orthorhombic'
loop_
_space_group_symop_operation_xyz
x,y,z
-x,-y,z
x,-y,-z
-x,y,-z
-x,-y,-z
x,y,-z
-x,y,z
x,-y,z
loop_
_atom_site_type_symbol
_atom_site_label
_atom_site_fract_x
_atom_site_fract_y
_atom_site_fract_z
Si Si1 0.813617 0.826941 0.913125
Si Si2 0.311610 0.822305 0.302160
Si Si3 0.674974 0.321614 0.137584
Si Si4 0.580741 0.674159 0.588457
Si Si5 0.918707 0.319945 0.500000
Si Si6 0.579038 0.318998 0.000000
Si Si7 0.159021 0.179938 0.356224
Si Si8 0.923238 0.179979 0.207504
O O1 0.748769 0.717398 0.900066
O O2 0.877505 0.762131 0.863481
O O3 0.793802 0.000000 0.888527
O O4 0.838631 0.821023 0.000000
O O5 0.332143 0.750719 0.221024
O O6 0.372562 0.786149 0.361781
O O7 0.238031 0.762991 0.337553
O O8 0.305620 0.000000 0.288471
O O9 0.667436 0.500000 0.148104
O O10 0.616518 0.259392 0.077761
O O11 0.595519 0.709565 0.500000
O O12 0.500000 0.705824 0.608392
O O13 0.599944 0.500000 0.607380
O O14 0.919264 0.500000 0.500000
O O15 0.874629 0.262192 0.571819
O O16 0.000000 0.259668 0.500000
O O17 0.581237 0.500000 0.000000
O O18 0.500000 0.255923 0.000000
O O19 0.112063 0.232999 0.285574
O O20 0.157518 0.000000 0.370570
O O21 0.000000 0.254777 0.201791
O O22 0.929036 0.000000 0.205286
#
# Coordination Sequence:
#
# PCOD8196078 Si02
#       8
#     8   8   8   8   4   4   8   8
#     4  10  19  33  55  82 115 149 183 234 288 333
#     4  11  23  38  59  89 121 150 192 242 292 342
#     4  11  21  36  59  84 112 151 194 235 285 345
#     4   9  20  40  63  87 117 153 191 230 279 340
#     4  11  25  41  57  83 118 151 190 245 301 350
#     4   9  20  38  59  85 114 147 192 238 277 331
#     4  10  21  38  59  82 113 154 196 237 283 345
#     4   9  17  32  55  82 111 146 189 233 277 330
#
# _framework density 19.092058000000002
#
# number of rings (size 3 to 8) (size 9 to 14) (size 15 to 20)
#    0.000    2.000    2.143    1.929    1.000    3.714 
#    0.000    3.571    0.000    3.429    0.000    1.000 
#    0.000    0.000    0.000    0.000    0.000    0.000 
#
# Total GULP energy -694359.160745 kJ/mol
# GULP energy per Si atom -12399.270728 kJ/mol
# Density = 1.904860 g / cm^3
# Si number density = 19.092058 Si / 1000 Ang^3
#
#
#
# Elastic Constant Matrix: (Units=GPa)
#
#
# Indices 1 2 3 4 5 6 
#
# 1 158.0337 30.9439 90.8228 0.0000 0.0000 0.0000
# 2 30.9439 42.5292 35.8604 0.0000 0.0000 0.0000
# 3 90.8228 35.8604 150.5662 0.0000 0.0000 0.0000
# 4 0.0000 0.0000 0.0000 27.2873 0.0000 0.0000
# 5 0.0000 0.0000 0.0000 0.0000 34.2242 0.0000
# 6 0.0000 0.0000 0.0000 0.0000 0.0000 25.4691
#
#
#
# Elastic Compliance Matrix: (Units=1/GPa)
#
#
# Indices 1 2 3 4 5 6 
#
# 1 0.009931 -0.002721 -0.005342 0.000000 0.000000 0.000000
# 2 -0.002721 0.030167 -0.005544 0.000000 0.000000 0.000000
# 3 -0.005342 -0.005544 0.011184 0.000000 0.000000 0.000000
# 4 0.000000 0.000000 0.000000 0.036647 0.000000 0.000000
# 5 0.000000 0.000000 0.000000 0.000000 0.029219 0.000000
# 6 0.000000 0.000000 0.000000 0.000000 0.000000 0.039263
#
#
# Mechanical properties :
#
#
# Convention : Reuss Voigt Hill
#
# Bulk Modulus (GPa) = 41.54755 74.04260 57.79507
# Shear Modulus (GPa) = 26.08938 30.29626 28.19282
#
# Velocity S-wave (km/s) = 3.70064 3.98785 3.84693
# Velocity P-wave (km/s) = 6.32997 7.75049 7.07597
#
# Compressibility (1/GPa) = 0.02406881
#
# Stress axis : x y z
#
# Youngs Moduli (GPa) = 100.69697 33.14831 89.40987
#
# Poissons Ratio (x) = 0.09020 0.47765
# Poissons Ratio (y) = 0.27399 0.49566
# Poissons Ratio (z) = 0.53795 0.18376
#
# Static dielectric constant tensor:
#      x y z
#    x 3.787180 0.000000 0.000000 
#    y 0.000000 3.227730 0.000000 
#    z 0.000000 0.000000 3.733020 
# 
# 
# High freq. dielectric constant tensor:
#      x y z
#    x 1.750550 0.000000 0.000000 
#    y 0.000000 1.715440 0.000000 
#    z 0.000000 0.000000 1.758480 
# 
# From -- ./inp_files/25241.got.cif
#   From: 2010.03.12/outbox.cif.g09.slc.cpg/sg47_13_cif.got.tgz:25241.got - 2010.04.14 03:12:58.
