data_PCOD8196725
_publ_section_title
;
Structure prediction by ZEFSAII (Michael W. Deem and Ramdas Pophale) SiO2 
 PCOD8196725
Probable space group: P M M M
;
_chemical_formula_sum "Si O2"
_cell_formula_units_Z 52
_cell_length_a 14.060282
_cell_length_b 9.079766
_cell_length_c 28.610949
_cell_angle_alpha 90.000000
_cell_angle_beta 90.000000
_cell_angle_gamma 90.000000
_cell_volume 3652.590209
_symmetry_space_group_name_H-M "P M M M"
_symmetry_group_IT_number 47
_symmetry_cell_setting 'orthorhombic'
loop_
_space_group_symop_operation_xyz
x,y,z
-x,-y,z
x,-y,-z
-x,y,-z
-x,-y,-z
x,y,-z
-x,y,z
x,-y,z
loop_
_atom_site_type_symbol
_atom_site_label
_atom_site_fract_x
_atom_site_fract_y
_atom_site_fract_z
Si Si1 0.282750 0.174779 0.408709
Si Si2 0.388961 0.327476 0.324459
Si Si3 0.108349 0.670195 0.553905
Si Si4 0.613065 0.834434 0.948599
Si Si5 0.386413 0.665379 0.859272
Si Si6 0.387094 0.165487 0.231103
Si Si7 0.393590 0.825191 0.500000
O O1 0.329391 0.247094 0.363896
O O2 0.174237 0.228243 0.413648
O O3 0.339981 0.231996 0.454033
O O4 0.286083 0.000000 0.403418
O O5 0.500000 0.294880 0.332965
O O6 0.367071 0.500000 0.324816
O O7 0.354201 0.262033 0.275157
O O8 0.121556 0.716282 0.500000
O O9 0.136064 0.500000 0.560861
O O10 0.000000 0.697784 0.569561
O O11 0.500000 0.834086 0.946254
O O12 0.654532 0.731010 0.907805
O O13 0.650595 0.000000 0.940383
O O14 0.646066 0.777523 0.000000
O O15 0.500000 0.667661 0.859364
O O16 0.347895 0.500000 0.854123
O O17 0.346473 0.760425 0.816006
O O18 0.500000 0.161384 0.228578
O O19 0.346175 0.000000 0.235464
O O20 0.500000 0.759564 0.500000
O O21 0.396329 0.000000 0.500000
#
# Coordination Sequence:
#
# PCOD8196725 Si02
#       7
#     8   8   8   8   8   8   4
#     4  11  20  31  47  66  86 108 132 161 194 229
#     4  10  20  32  44  59  80 105 132 162 195 233
#     4   9  18  33  51  68  87 109 130 156 191 230
#     4   8  13  20  28  38  54  77 105 138 178 224
#     4   9  15  21  30  44  61  81 107 142 183 226
#     4   9  16  26  39  52  66  88 119 153 188 226
#     4   9  18  30  42  59  84 110 133 157 186 223
#
# _framework density 14.236473
#
# number of rings (size 3 to 8) (size 9 to 14) (size 15 to 20)
#    0.000    2.692    0.769    3.231    0.000    5.846 
#    0.000    2.308    0.000    1.846    0.000    0.000 
#    0.000    0.000    0.000    0.000    0.000    0.000 
#
# Total GULP energy -644669.812035 kJ/mol
# GULP energy per Si atom -12397.496385 kJ/mol
# Density = 1.420407 g / cm^3
# Si number density = 14.236473 Si / 1000 Ang^3
#
#
#
# Elastic Constant Matrix: (Units=GPa)
#
#
# Indices 1 2 3 4 5 6 
#
# 1 41.1434 28.3988 31.3869 0.0000 0.0000 0.0000
# 2 28.3988 98.2442 62.5157 0.0000 0.0000 0.0000
# 3 31.3869 62.5157 127.5478 0.0000 0.0000 0.0000
# 4 0.0000 0.0000 0.0000 27.6511 0.0000 0.0000
# 5 0.0000 0.0000 0.0000 0.0000 1.1844 0.0000
# 6 0.0000 0.0000 0.0000 0.0000 0.0000 14.4031
#
#
#
# Elastic Compliance Matrix: (Units=1/GPa)
#
#
# Indices 1 2 3 4 5 6 
#
# 1 0.032348 -0.006228 -0.004908 0.000000 0.000000 0.000000
# 2 -0.006228 0.015991 -0.006305 0.000000 0.000000 0.000000
# 3 -0.004908 -0.006305 0.012138 0.000000 0.000000 0.000000
# 4 0.000000 0.000000 0.000000 0.036165 0.000000 0.000000
# 5 0.000000 0.000000 0.000000 0.000000 0.844317 0.000000
# 6 0.000000 0.000000 0.000000 0.000000 0.000000 0.069430
#
#
# Mechanical properties :
#
#
# Convention : Reuss Voigt Hill
#
# Bulk Modulus (GPa) = 39.06878 56.83757 47.95317
# Shear Modulus (GPa) = 4.74472 18.28998 11.51735
#
# Velocity S-wave (km/s) = 1.82757 3.58820 2.84738
# Velocity P-wave (km/s) = 5.65294 7.56158 6.67582
#
# Compressibility (1/GPa) = 0.02559588
#
# Stress axis : x y z
#
# Youngs Moduli (GPa) = 30.91405 62.53445 82.38342
#
# Poissons Ratio (x) = 0.38944 0.40432
# Poissons Ratio (y) = 0.19252 0.51946
# Poissons Ratio (z) = 0.15172 0.39430
#
# Static dielectric constant tensor:
#      x y z
#    x 2.317370 0.000000 0.000000 
#    y 0.000000 2.886490 0.000000 
#    z 0.000000 0.000000 2.959130 
# 
# 
# High freq. dielectric constant tensor:
#      x y z
#    x 1.470570 0.000000 0.000000 
#    y 0.000000 1.554160 0.000000 
#    z 0.000000 0.000000 1.549450 
# 
# From -- ./inp_files/13426.got.cif
#   From: 2010.03.12/outbox.cif.g09.slc.cpg/sg47_7_cif.got.tgz:13426.got - 2010.04.14 03:12:58.
