data_PCOD8196308
_publ_section_title
;
Structure prediction by ZEFSAII (Michael W. Deem and Ramdas Pophale) SiO2 
 PCOD8196308
Probable space group: P M M M
;
_chemical_formula_sum "Si O2"
_cell_formula_units_Z 44
_cell_length_a 17.216713
_cell_length_b 15.461922
_cell_length_c 8.855680
_cell_angle_alpha 90.000000
_cell_angle_beta 90.000000
_cell_angle_gamma 90.000000
_cell_volume 2357.412776
_symmetry_space_group_name_H-M "P M M M"
_symmetry_group_IT_number 47
_symmetry_cell_setting 'orthorhombic'
loop_
_space_group_symop_operation_xyz
x,y,z
-x,-y,z
x,-y,-z
-x,y,-z
-x,-y,-z
x,y,-z
-x,y,z
x,-y,z
loop_
_atom_site_type_symbol
_atom_site_label
_atom_site_fract_x
_atom_site_fract_y
_atom_site_fract_z
Si Si1 0.908970 0.500000 0.837152
Si Si2 0.334705 0.902044 0.674487
Si Si3 0.500000 0.354369 0.822051
Si Si4 0.754234 0.250786 0.822884
Si Si5 0.500000 0.827384 0.327056
Si Si6 0.914644 0.315206 0.820564
Si Si7 0.341975 0.402988 0.325082
O O1 0.889776 0.409675 0.750678
O O2 0.000000 0.500000 0.865773
O O3 0.865432 0.500000 0.000000
O O4 0.315434 0.885509 0.500000
O O5 0.281360 0.839609 0.772587
O O6 0.425150 0.885489 0.707104
O O7 0.315379 0.000000 0.721848
O O8 0.500000 0.253144 0.784439
O O9 0.575042 0.400244 0.754561
O O10 0.500000 0.366677 0.000000
O O11 0.846146 0.248325 0.778690
O O12 0.715147 0.332542 0.744049
O O13 0.741507 0.261968 0.000000
O O14 0.500000 0.794116 0.500000
O O15 0.000000 0.284624 0.759302
O O16 0.920273 0.326735 0.000000
O O17 0.353745 0.380258 0.500000
O O18 0.307475 0.500000 0.303419
#
# Coordination Sequence:
#
# PCOD8196308 Si02
#       7
#     4   8   4   8   4   8   8
#     4   7  10  20  40  66  97 134 173 210 251 309
#     4  10  21  38  60  82 107 144 186 224 271 336
#     4  12  23  36  57  83 111 142 185 237 281 313
#     4  11  22  34  55  86 115 141 178 235 286 324
#     4  10  19  35  59  81 107 143 179 217 269 334
#     4   8  15  28  47  74 109 146 181 219 271 329
#     4  11  24  40  56  75 108 157 198 225 265 325
#
# _framework density 18.664529999999999
#
# number of rings (size 3 to 8) (size 9 to 14) (size 15 to 20)
#    0.000    2.091    1.818    3.545    1.273    4.000 
#    0.000    0.000    0.000    4.364    0.000    5.091 
#    0.000    0.000    0.000    0.000    0.000    0.000 
#
# Total GULP energy -545302.248418 kJ/mol
# GULP energy per Si atom -12393.232919 kJ/mol
# Density = 1.862205 g / cm^3
# Si number density = 18.664530 Si / 1000 Ang^3
#
#
#
# Elastic Constant Matrix: (Units=GPa)
#
#
# Indices 1 2 3 4 5 6 
#
# 1 132.4209 60.6912 43.0585 0.0000 0.0000 0.0000
# 2 60.6912 116.6483 47.6147 0.0000 0.0000 0.0000
# 3 43.0585 47.6147 87.3227 0.0000 0.0000 0.0000
# 4 0.0000 0.0000 0.0000 11.2063 0.0000 0.0000
# 5 0.0000 0.0000 0.0000 0.0000 -13.1038 0.0000
# 6 0.0000 0.0000 0.0000 0.0000 0.0000 36.9131
#
#
#
# Elastic Compliance Matrix: (Units=1/GPa)
#
#
# Indices 1 2 3 4 5 6 
#
# 1 0.010425 -0.004278 -0.002808 0.000000 0.000000 0.000000
# 2 -0.004278 0.012783 -0.004861 0.000000 0.000000 0.000000
# 3 -0.002808 -0.004861 0.015487 0.000000 0.000000 0.000000
# 4 0.000000 0.000000 0.000000 0.089236 0.000000 0.000000
# 5 0.000000 0.000000 0.000000 0.000000 -0.076314 0.000000
# 6 0.000000 0.000000 0.000000 0.000000 0.000000 0.027091
#
#
# Mechanical properties :
#
#
# Convention : Reuss Voigt Hill
#
# Bulk Modulus (GPa) = 67.56047 71.01340 69.28693
# Shear Modulus (GPa) = 46.49677 19.33830 32.91753
#
# Velocity S-wave (km/s) = 4.99659 3.22234 4.20413
# Velocity P-wave (km/s) = 8.34049 7.20933 7.79545
#
# Compressibility (1/GPa) = 0.01480155
#
# Stress axis : x y z
#
# Youngs Moduli (GPa) = 95.91881 78.23106 64.57141
#
# Poissons Ratio (x) = 0.33468 0.18132
# Poissons Ratio (y) = 0.41035 0.31385
# Poissons Ratio (z) = 0.26934 0.38024
#
# Static dielectric constant tensor:
#      x y z
#    x 3.640640 0.000000 0.000000 
#    y 0.000000 3.451710 0.000000 
#    z 0.000000 0.000000 3.212640 
# 
# 
# High freq. dielectric constant tensor:
#      x y z
#    x 1.724100 0.000000 0.000000 
#    y 0.000000 1.715770 0.000000 
#    z 0.000000 0.000000 1.699550 
# 
# From -- ./inp_files/6243.got.cif
#   From: 2010.03.12/outbox.cif.g09.slc.cpg/sg47_4_cif.got.tgz:6243.got - 2010.04.14 03:12:58.
