data_PCOD8196626
_publ_section_title
;
Structure prediction by ZEFSAII (Michael W. Deem and Ramdas Pophale) SiO2 
 PCOD8196626
Probable space group: P M M M
;
_chemical_formula_sum "Si O2"
_cell_formula_units_Z 44
_cell_length_a 9.718375
_cell_length_b 8.092500
_cell_length_c 29.926215
_cell_angle_alpha 90.000000
_cell_angle_beta 90.000000
_cell_angle_gamma 90.000000
_cell_volume 2353.575599
_symmetry_space_group_name_H-M "P M M M"
_symmetry_group_IT_number 47
_symmetry_cell_setting 'orthorhombic'
loop_
_space_group_symop_operation_xyz
x,y,z
-x,-y,z
x,-y,-z
-x,y,-z
-x,-y,-z
x,y,-z
-x,y,z
x,-y,z
loop_
_atom_site_type_symbol
_atom_site_label
_atom_site_fract_x
_atom_site_fract_y
_atom_site_fract_z
Si Si1 0.337206 0.188696 0.451807
Si Si2 0.148799 0.191483 0.283865
Si Si3 0.655580 0.688975 0.359103
Si Si4 0.340132 0.686666 0.892402
Si Si5 0.337102 0.000000 0.049852
Si Si6 0.161123 0.191296 0.814584
O O1 0.279299 0.254639 0.500000
O O2 0.500000 0.206735 0.453309
O O3 0.280110 0.288370 0.408962
O O4 0.292198 0.000000 0.445524
O O5 0.258795 0.215245 0.322460
O O6 0.195510 0.259692 0.235439
O O7 0.000000 0.269456 0.297673
O O8 0.126582 0.000000 0.276028
O O9 0.500000 0.759176 0.358244
O O10 0.659280 0.500000 0.345643
O O11 0.500000 0.716323 0.880792
O O12 0.319647 0.500000 0.912332
O O13 0.287254 0.830454 0.926086
O O14 0.252094 0.698338 0.847369
O O15 0.500000 0.000000 0.047233
O O16 0.273710 0.000000 0.000000
O O17 0.000000 0.215784 0.825090
O O18 0.203712 0.000000 0.820446
#
# Coordination Sequence:
#
# PCOD8196626 Si02
#       6
#     8   8   8   8   4   8
#     4   8  14  26  45  67  90 119 157 199 242 291
#     4   9  19  35  53  72  95 129 172 210 247 297
#     4  10  20  31  45  70 102 131 160 198 246 299
#     4  10  20  33  53  82 111 140 177 219 262 310
#     4   9  18  34  55  79 111 147 179 217 264 309
#     4   9  18  34  55  76 100 134 175 216 260 311
#
# _framework density 18.694958
#
# number of rings (size 3 to 8) (size 9 to 14) (size 15 to 20)
#    0.000    2.818    0.909    2.182    0.000    4.000 
#    0.000    9.091    0.000    1.636    0.000    5.091 
#    0.000    0.000    0.000    0.000    0.000    0.000 
#
# Total GULP energy -545177.523762 kJ/mol
# GULP energy per Si atom -12390.398267 kJ/mol
# Density = 1.865241 g / cm^3
# Si number density = 18.694958 Si / 1000 Ang^3
#
#
#
# Elastic Constant Matrix: (Units=GPa)
#
#
# Indices 1 2 3 4 5 6 
#
# 1 46.6796 21.1916 48.8474 0.0000 0.0000 0.0000
# 2 21.1916 75.2043 44.0994 0.0000 0.0000 0.0000
# 3 48.8474 44.0994 147.4339 0.0000 0.0000 0.0000
# 4 0.0000 0.0000 0.0000 15.2225 0.0000 0.0000
# 5 0.0000 0.0000 0.0000 0.0000 -3.9812 0.0000
# 6 0.0000 0.0000 0.0000 0.0000 0.0000 15.6176
#
#
#
# Elastic Compliance Matrix: (Units=1/GPa)
#
#
# Indices 1 2 3 4 5 6 
#
# 1 0.033560 -0.003561 -0.010054 0.000000 0.000000 0.000000
# 2 -0.003561 0.016503 -0.003756 0.000000 0.000000 0.000000
# 3 -0.010054 -0.003756 0.011237 0.000000 0.000000 0.000000
# 4 0.000000 0.000000 0.000000 0.065692 0.000000 0.000000
# 5 0.000000 0.000000 0.000000 0.000000 -0.251180 0.000000
# 6 0.000000 0.000000 0.000000 0.000000 0.000000 0.064030
#
#
# Mechanical properties :
#
#
# Convention : Reuss Voigt Hill
#
# Bulk Modulus (GPa) = 37.65391 55.28829 46.47110
# Shear Modulus (GPa) = -301.91582 15.71709 -143.09937
#
# Velocity S-wave (km/s) = -12.72189 2.90265 -8.75845
# Velocity P-wave (km/s) = 13.98608 6.39312 8.79598
#
# Compressibility (1/GPa) = 0.02655767
#
# Stress axis : x y z
#
# Youngs Moduli (GPa) = 29.79733 60.59359 88.98923
#
# Poissons Ratio (x) = 0.21579 0.89468
# Poissons Ratio (y) = 0.10612 0.33429
# Poissons Ratio (z) = 0.29958 0.22762
#
# Static dielectric constant tensor:
#      x y z
#    x 3.075520 0.000000 0.000000 
#    y 0.000000 3.357070 0.000000 
#    z 0.000000 0.000000 3.251410 
# 
# 
# High freq. dielectric constant tensor:
#      x y z
#    x 1.683530 0.000000 0.000000 
#    y 0.000000 1.719620 0.000000 
#    z 0.000000 0.000000 1.732380 
# 
# From -- ./inp_files/33950.got.cif
#   From: 2010.03.12/outbox.cif.g09.slc.cpg/sg47_17_cif.got.tgz:33950.got - 2010.04.14 03:12:58.
