data_PCOD8196007
_publ_section_title
;
Structure prediction by ZEFSAII (Michael W. Deem and Ramdas Pophale) SiO2 
 PCOD8196007
Probable space group: P M M M
;
_chemical_formula_sum "Si O2"
_cell_formula_units_Z 52
_cell_length_a 28.059626
_cell_length_b 11.663827
_cell_length_c 9.067272
_cell_angle_alpha 90.000000
_cell_angle_beta 90.000000
_cell_angle_gamma 90.000000
_cell_volume 2967.560567
_symmetry_space_group_name_H-M "P M M M"
_symmetry_group_IT_number 47
_symmetry_cell_setting 'orthorhombic'
loop_
_space_group_symop_operation_xyz
x,y,z
-x,-y,z
x,-y,-z
-x,y,-z
-x,-y,-z
x,y,-z
-x,y,z
x,-y,z
loop_
_atom_site_type_symbol
_atom_site_label
_atom_site_fract_x
_atom_site_fract_y
_atom_site_fract_z
Si Si1 0.906321 0.868208 0.327568
Si Si2 0.555021 0.131527 0.830223
Si Si3 0.810277 0.254429 0.325724
Si Si4 0.000000 0.863685 0.166297
Si Si5 0.276774 0.135378 0.168414
Si Si6 0.672019 0.500000 0.325527
Si Si7 0.778678 0.500000 0.674038
Si Si8 0.363062 0.255836 0.325283
O O1 0.915993 0.856752 0.500000
O O2 0.861455 0.793054 0.276472
O O3 0.952621 0.817394 0.246040
O O4 0.896395 0.000000 0.283346
O O5 0.500000 0.162280 0.804904
O O6 0.585151 0.215291 0.726925
O O7 0.564955 0.000000 0.785859
O O8 0.569462 0.150896 0.000000
O O9 0.802321 0.239740 0.500000
O O10 0.770147 0.182952 0.244597
O O11 0.807205 0.387036 0.275087
O O12 0.000000 0.000000 0.175129
O O13 0.000000 0.818020 0.000000
O O14 0.323348 0.176520 0.253134
O O15 0.274974 0.000000 0.177870
O O16 0.278960 0.178024 0.000000
O O17 0.676120 0.500000 0.500000
O O18 0.725410 0.500000 0.257165
O O19 0.644070 0.612984 0.272200
O O20 0.773654 0.500000 0.500000
O O21 0.358931 0.244415 0.500000
#
# Coordination Sequence:
#
# PCOD8196007 Si02
#       8
#     8   8   8   4   8   4   4   8
#     4   9  17  29  47  73 102 129 162 208 256 301
#     4   9  19  37  58  79 107 139 167 204 259 313
#     4  10  19  33  54  76 100 133 173 213 255 303
#     4   9  17  29  47  70  97 132 168 201 248 309
#     4  11  23  35  48  72 107 139 166 205 258 310
#     4   9  18  34  53  75 103 136 171 213 259 295
#     4   9  16  32  54  74 100 134 172 213 254 297
#     4  11  21  35  56  78 102 135 175 215 252 298
#
# _framework density 17.522808999999999
#
# number of rings (size 3 to 8) (size 9 to 14) (size 15 to 20)
#    0.000    2.231    1.538    2.538    0.000    5.846 
#    0.000    5.385    0.000    2.769    0.000    3.231 
#    0.000    0.000    0.000    0.000    0.000    0.000 
#
# Total GULP energy -644844.323709 kJ/mol
# GULP energy per Si atom -12400.852379 kJ/mol
# Density = 1.748293 g / cm^3
# Si number density = 17.522809 Si / 1000 Ang^3
#
#
#
# Elastic Constant Matrix: (Units=GPa)
#
#
# Indices 1 2 3 4 5 6 
#
# 1 137.4750 65.1602 49.6918 0.0000 0.0000 0.0000
# 2 65.1602 98.9749 35.2193 0.0000 0.0000 0.0000
# 3 49.6918 35.2193 62.1071 0.0000 0.0000 0.0000
# 4 0.0000 0.0000 0.0000 13.8439 0.0000 0.0000
# 5 0.0000 0.0000 0.0000 0.0000 20.9279 0.0000
# 6 0.0000 0.0000 0.0000 0.0000 0.0000 2.4799
#
#
#
# Elastic Compliance Matrix: (Units=1/GPa)
#
#
# Indices 1 2 3 4 5 6 
#
# 1 0.012437 -0.005822 -0.006649 0.000000 0.000000 0.000000
# 2 -0.005822 0.015383 -0.004065 0.000000 0.000000 0.000000
# 3 -0.006649 -0.004065 0.023727 0.000000 0.000000 0.000000
# 4 0.000000 0.000000 0.000000 0.072234 0.000000 0.000000
# 5 0.000000 0.000000 0.000000 0.000000 0.047783 0.000000
# 6 0.000000 0.000000 0.000000 0.000000 0.000000 0.403240
#
#
# Mechanical properties :
#
#
# Convention : Reuss Voigt Hill
#
# Bulk Modulus (GPa) = 54.13104 66.52218 60.32661
# Shear Modulus (GPa) = 8.14287 17.34940 12.74613
#
# Velocity S-wave (km/s) = 2.15803 3.15001 2.69997
# Velocity P-wave (km/s) = 6.09658 7.16070 6.64996
#
# Compressibility (1/GPa) = 0.01847369
#
# Stress axis : x y z
#
# Youngs Moduli (GPa) = 80.40574 65.00725 42.14655
#
# Poissons Ratio (x) = 0.37845 0.28025
# Poissons Ratio (y) = 0.46810 0.17134
# Poissons Ratio (z) = 0.53465 0.26427
#
# Static dielectric constant tensor:
#      x y z
#    x 3.368740 0.000000 0.000000 
#    y 0.000000 3.353210 0.000000 
#    z 0.000000 0.000000 3.194040 
# 
# 
# High freq. dielectric constant tensor:
#      x y z
#    x 1.683000 0.000000 0.000000 
#    y 0.000000 1.666760 0.000000 
#    z 0.000000 0.000000 1.666330 
# 
# From -- ./inp_files/13334.got.cif
#   From: 2010.03.12/outbox.cif.g09.slc.cpg/sg47_7_cif.got.tgz:13334.got - 2010.04.14 03:12:58.
