data_PCOD8196681
_publ_section_title
;
Structure prediction by ZEFSAII (Michael W. Deem and Ramdas Pophale) SiO2 
 PCOD8196681
Probable space group: P M M M
;
_chemical_formula_sum "Si O2"
_cell_formula_units_Z 48
_cell_length_a 15.155792
_cell_length_b 14.486046
_cell_length_c 12.659508
_cell_angle_alpha 90.000000
_cell_angle_beta 90.000000
_cell_angle_gamma 90.000000
_cell_volume 2779.363334
_symmetry_space_group_name_H-M "P M M M"
_symmetry_group_IT_number 47
_symmetry_cell_setting 'orthorhombic'
loop_
_space_group_symop_operation_xyz
x,y,z
-x,-y,z
x,-y,-z
-x,y,-z
-x,-y,-z
x,y,-z
-x,y,z
x,-y,z
loop_
_atom_site_type_symbol
_atom_site_label
_atom_site_fract_x
_atom_site_fract_y
_atom_site_fract_z
Si Si1 0.597363 0.603943 0.374677
Si Si2 0.104832 0.603941 0.000000
Si Si3 0.686808 0.104830 0.692806
Si Si4 0.192021 0.896068 0.120432
Si Si5 0.897314 0.720508 0.800537
Si Si6 0.764134 0.718339 0.380276
Si Si7 0.500000 0.891490 0.382360
O O1 0.599632 0.604074 0.500000
O O2 0.500000 0.639757 0.336984
O O3 0.612527 0.500000 0.332314
O O4 0.676556 0.668544 0.333377
O O5 0.138337 0.655843 0.104934
O O6 0.142395 0.500000 0.000000
O O7 0.000000 0.604742 0.000000
O O8 0.716433 0.113463 0.814870
O O9 0.747730 0.171361 0.621743
O O10 0.586027 0.139289 0.682666
O O11 0.698469 0.000000 0.650737
O O12 0.118952 0.826833 0.166836
O O13 0.153764 0.000000 0.131286
O O14 0.214441 0.871711 0.000000
O O15 0.846098 0.691979 0.694127
O O16 0.000000 0.705726 0.778000
O O17 0.786345 0.687595 0.500000
O O18 0.500000 0.845579 0.500000
O O19 0.500000 0.000000 0.396443
#
# Coordination Sequence:
#
# PCOD8196681 Si02
#       7
#     8   4   8   8   8   8   4
#     4   8  15  29  48  70  96 124 158 202 245 286
#     4   9  18  34  55  75  94 120 156 201 253 299
#     4   9  18  30  44  68 100 132 168 206 244 290
#     4   9  17  31  51  72  96 126 161 206 257 300
#     4  10  20  34  51  73 101 129 165 209 246 293
#     4  10  20  31  48  73 101 136 168 199 246 297
#     4   9  16  26  41  61  90 130 170 205 239 279
#
# _framework density 17.270140999999999
#
# number of rings (size 3 to 8) (size 9 to 14) (size 15 to 20)
#    0.000    2.833    0.833    1.000    1.167    2.333 
#    0.000    1.250    0.000    2.500    0.000    9.917 
#    0.000    2.000    0.000    0.000    0.000    0.000 
#
# Total GULP energy -594921.249231 kJ/mol
# GULP energy per Si atom -12394.192692 kJ/mol
# Density = 1.723083 g / cm^3
# Si number density = 17.270141 Si / 1000 Ang^3
#
#
#
# Elastic Constant Matrix: (Units=GPa)
#
#
# Indices 1 2 3 4 5 6 
#
# 1 103.3286 39.4125 55.4300 0.0000 0.0000 0.0000
# 2 39.4125 75.0452 33.0786 0.0000 0.0000 0.0000
# 3 55.4300 33.0786 93.2093 0.0000 0.0000 0.0000
# 4 0.0000 0.0000 0.0000 15.5208 0.0000 0.0000
# 5 0.0000 0.0000 0.0000 0.0000 20.5447 0.0000
# 6 0.0000 0.0000 0.0000 0.0000 0.0000 21.3500
#
#
#
# Elastic Compliance Matrix: (Units=1/GPa)
#
#
# Indices 1 2 3 4 5 6 
#
# 1 0.015574 -0.004857 -0.007538 0.000000 0.000000 0.000000
# 2 -0.004857 0.017311 -0.003255 0.000000 0.000000 0.000000
# 3 -0.007538 -0.003255 0.016367 0.000000 0.000000 0.000000
# 4 0.000000 0.000000 0.000000 0.064430 0.000000 0.000000
# 5 0.000000 0.000000 0.000000 0.000000 0.048674 0.000000
# 6 0.000000 0.000000 0.000000 0.000000 0.000000 0.046838
#
#
# Mechanical properties :
#
#
# Convention : Reuss Voigt Hill
#
# Bulk Modulus (GPa) = 55.70538 58.60279 57.15409
# Shear Modulus (GPa) = 20.28582 21.06055 20.67319
#
# Velocity S-wave (km/s) = 3.43099 3.49589 3.46359
# Velocity P-wave (km/s) = 6.92971 7.09237 7.01151
#
# Compressibility (1/GPa) = 0.01795159
#
# Stress axis : x y z
#
# Youngs Moduli (GPa) = 64.20927 57.76759 61.10023
#
# Poissons Ratio (x) = 0.28055 0.46058
# Poissons Ratio (y) = 0.31184 0.19889
# Poissons Ratio (z) = 0.48402 0.18805
#
# Static dielectric constant tensor:
#      x y z
#    x 3.186080 0.000000 0.000000 
#    y 0.000000 3.399540 0.000000 
#    z 0.000000 0.000000 3.088710 
# 
# 
# High freq. dielectric constant tensor:
#      x y z
#    x 1.649600 0.000000 0.000000 
#    y 0.000000 1.673670 0.000000 
#    z 0.000000 0.000000 1.642180 
# 
# From -- ./inp_files/17570.got.cif
#   From: 2010.03.12/outbox.cif.g09.slc.cpg/sg47_9_cif.got.tgz:17570.got - 2010.04.14 03:12:58.
