data_PCOD8196035
_publ_section_title
;
Structure prediction by ZEFSAII (Michael W. Deem and Ramdas Pophale) SiO2 
 PCOD8196035
Probable space group: P M M M
;
_chemical_formula_sum "Si O2"
_cell_formula_units_Z 48
_cell_length_a 20.566422
_cell_length_b 8.750851
_cell_length_c 13.985233
_cell_angle_alpha 90.000000
_cell_angle_beta 90.000000
_cell_angle_gamma 90.000000
_cell_volume 2516.974052
_symmetry_space_group_name_H-M "P M M M"
_symmetry_group_IT_number 47
_symmetry_cell_setting 'orthorhombic'
loop_
_space_group_symop_operation_xyz
x,y,z
-x,-y,z
x,-y,-z
-x,y,-z
-x,-y,-z
x,y,-z
-x,y,z
x,-y,z
loop_
_atom_site_type_symbol
_atom_site_label
_atom_site_fract_x
_atom_site_fract_y
_atom_site_fract_z
Si Si1 0.669621 0.322358 0.391781
Si Si2 0.000000 0.818634 0.891803
Si Si3 0.742144 0.675842 0.111823
Si Si4 0.194280 0.825099 0.606429
Si Si5 0.378491 0.821902 0.211920
Si Si6 0.500000 0.319598 0.892466
Si Si7 0.866830 0.821681 0.198937
O O1 0.650559 0.279596 0.500000
O O2 0.659784 0.500000 0.370701
O O3 0.744684 0.282470 0.371764
O O4 0.622294 0.226746 0.323072
O O5 0.936796 0.759661 0.834759
O O6 0.000000 0.000000 0.894397
O O7 0.000000 0.753268 0.000000
O O8 0.731557 0.500000 0.141251
O O9 0.690457 0.779986 0.166161
O O10 0.813899 0.727683 0.140249
O O11 0.732026 0.699710 0.000000
O O12 0.165633 0.791700 0.500000
O O13 0.139675 0.792727 0.686695
O O14 0.218697 0.000000 0.613350
O O15 0.435712 0.734807 0.159696
O O16 0.391510 0.000000 0.202855
O O17 0.500000 0.500000 0.893499
O O18 0.500000 0.253989 0.000000
O O19 0.858251 0.000000 0.174200
#
# Coordination Sequence:
#
# PCOD8196035 Si02
#       7
#     8   4   8   8   8   4   8
#     4  10  20  35  58  87 118 153 191 233 285 342
#     4   9  18  32  50  74 108 149 195 243 291 348
#     4  11  23  37  55  81 112 145 188 243 293 341
#     4   9  17  30  50  79 112 144 183 234 289 343
#     4  12  24  39  61  89 119 153 192 237 286 342
#     4  11  25  45  66  87 118 159 197 238 288 341
#     4  10  19  33  54  79 107 147 192 237 290 346
#
# _framework density 19.070519000000001
#
# number of rings (size 3 to 8) (size 9 to 14) (size 15 to 20)
#    0.000    1.667    1.667    3.750    0.000    5.667 
#    0.000    1.250    0.000    6.500    0.000    0.000 
#    0.000    4.000    0.000    0.000    0.000    0.000 
#
# Total GULP energy -595314.682818 kJ/mol
# GULP energy per Si atom -12402.389225 kJ/mol
# Density = 1.902711 g / cm^3
# Si number density = 19.070519 Si / 1000 Ang^3
#
#
#
# Elastic Constant Matrix: (Units=GPa)
#
#
# Indices 1 2 3 4 5 6 
#
# 1 100.8178 19.0269 54.9294 0.0000 0.0000 0.0000
# 2 19.0269 55.5095 34.9730 0.0000 0.0000 0.0000
# 3 54.9294 34.9730 135.9319 0.0000 0.0000 0.0000
# 4 0.0000 0.0000 0.0000 26.1761 0.0000 0.0000
# 5 0.0000 0.0000 0.0000 0.0000 43.6387 0.0000
# 6 0.0000 0.0000 0.0000 0.0000 0.0000 29.4104
#
#
#
# Elastic Compliance Matrix: (Units=1/GPa)
#
#
# Indices 1 2 3 4 5 6 
#
# 1 0.012803 -0.001347 -0.004827 0.000000 0.000000 0.000000
# 2 -0.001347 0.021642 -0.005024 0.000000 0.000000 0.000000
# 3 -0.004827 -0.005024 0.010600 0.000000 0.000000 0.000000
# 4 0.000000 0.000000 0.000000 0.038203 0.000000 0.000000
# 5 0.000000 0.000000 0.000000 0.000000 0.022915 0.000000
# 6 0.000000 0.000000 0.000000 0.000000 0.000000 0.034002
#
#
# Mechanical properties :
#
#
# Convention : Reuss Voigt Hill
#
# Bulk Modulus (GPa) = 44.15269 56.67977 50.41623
# Shear Modulus (GPa) = 29.39276 32.06704 30.72990
#
# Velocity S-wave (km/s) = 3.93016 4.10506 4.01856
# Velocity P-wave (km/s) = 6.61796 7.22871 6.93007
#
# Compressibility (1/GPa) = 0.02264868
#
# Stress axis : x y z
#
# Youngs Moduli (GPa) = 78.10607 46.20684 94.34234
#
# Poissons Ratio (x) = 0.06225 0.45539
# Poissons Ratio (y) = 0.10523 0.47394
# Poissons Ratio (z) = 0.37702 0.23213
#
# Static dielectric constant tensor:
#      x y z
#    x 3.569300 0.000000 0.000000 
#    y 0.000000 3.448210 0.000000 
#    z 0.000000 0.000000 3.878730 
# 
# 
# High freq. dielectric constant tensor:
#      x y z
#    x 1.719700 0.000000 0.000000 
#    y 0.000000 1.736780 0.000000 
#    z 0.000000 0.000000 1.763570 
# 
# From -- ./inp_files/6414.got.cif
#   From: 2010.03.12/outbox.cif.g09.slc.cpg/sg47_4_cif.got.tgz:6414.got - 2010.04.14 03:12:58.
