data_PCOD8196027
_publ_section_title
;
Structure prediction by ZEFSAII (Michael W. Deem and Ramdas Pophale) SiO2 
 PCOD8196027
Probable space group: P M M M
;
_chemical_formula_sum "Si O2"
_cell_formula_units_Z 44
_cell_length_a 9.277620
_cell_length_b 29.456049
_cell_length_c 8.092993
_cell_angle_alpha 90.000000
_cell_angle_beta 90.000000
_cell_angle_gamma 90.000000
_cell_volume 2211.669550
_symmetry_space_group_name_H-M "P M M M"
_symmetry_group_IT_number 47
_symmetry_cell_setting 'orthorhombic'
loop_
_space_group_symop_operation_xyz
x,y,z
-x,-y,z
x,-y,-z
-x,y,-z
-x,-y,-z
x,y,-z
-x,y,z
x,-y,z
loop_
_atom_site_type_symbol
_atom_site_label
_atom_site_fract_x
_atom_site_fract_y
_atom_site_fract_z
Si Si1 0.328062 0.448435 0.000000
Si Si2 0.835373 0.948329 0.306869
Si Si3 0.336463 0.866013 0.189336
Si Si4 0.328647 0.605992 0.683159
Si Si5 0.836897 0.783180 0.688861
Si Si6 0.338368 0.700758 0.811347
O O1 0.266067 0.425039 0.832067
O O2 0.273037 0.500000 0.000000
O O3 0.500000 0.445849 0.000000
O O4 0.813209 0.939534 0.500000
O O5 0.729689 0.916076 0.205392
O O6 0.000000 0.937902 0.256777
O O7 0.795976 0.000000 0.261255
O O8 0.500000 0.866661 0.255351
O O9 0.244966 0.830717 0.295609
O O10 0.331593 0.850480 0.000000
O O11 0.275994 0.589552 0.500000
O O12 0.500000 0.604053 0.692497
O O13 0.278640 0.658187 0.706634
O O14 0.833154 0.767600 0.500000
O O15 0.762896 0.744145 0.795367
O O16 0.000000 0.789751 0.752133
O O17 0.500000 0.714302 0.753549
O O18 0.340659 0.684493 0.000000
#
# Coordination Sequence:
#
# PCOD8196027 Si02
#       6
#     4   8   8   8   8   8
#     4   9  16  26  40  64 101 141 183 229 274 327
#     4   9  19  37  60  84 109 139 177 220 266 317
#     4  11  24  39  55  79 110 142 178 220 266 319
#     4   9  16  27  44  67  98 138 181 225 275 327
#     4  11  24  39  55  78 107 138 176 222 270 324
#     4  10  19  33  54  78 105 138 179 224 269 325
#
# _framework density 19.894473000000001
#
# number of rings (size 3 to 8) (size 9 to 14) (size 15 to 20)
#    0.000    2.091    0.909    3.273    0.000    9.818 
#    0.000    4.545    0.000    0.000    0.000    0.000 
#    0.000    1.455    0.000    3.818    0.000    3.636 
#
# Total GULP energy -545615.505680 kJ/mol
# GULP energy per Si atom -12400.352402 kJ/mol
# Density = 1.984919 g / cm^3
# Si number density = 19.894473 Si / 1000 Ang^3
#
#
#
# Elastic Constant Matrix: (Units=GPa)
#
#
# Indices 1 2 3 4 5 6 
#
# 1 94.0309 50.6202 25.5146 0.0000 0.0000 0.0000
# 2 50.6202 125.0683 44.7418 0.0000 0.0000 0.0000
# 3 25.5146 44.7418 94.2087 0.0000 0.0000 0.0000
# 4 0.0000 0.0000 0.0000 31.9464 0.0000 0.0000
# 5 0.0000 0.0000 0.0000 0.0000 20.1596 0.0000
# 6 0.0000 0.0000 0.0000 0.0000 0.0000 2.0330
#
#
#
# Elastic Compliance Matrix: (Units=1/GPa)
#
#
# Indices 1 2 3 4 5 6 
#
# 1 0.013728 -0.005091 -0.001300 0.000000 0.000000 0.000000
# 2 -0.005091 0.011520 -0.004092 0.000000 0.000000 0.000000
# 3 -0.001300 -0.004092 0.012910 0.000000 0.000000 0.000000
# 4 0.000000 0.000000 0.000000 0.031302 0.000000 0.000000
# 5 0.000000 0.000000 0.000000 0.000000 0.049604 0.000000
# 6 0.000000 0.000000 0.000000 0.000000 0.000000 0.491875
#
#
# Mechanical properties :
#
#
# Convention : Reuss Voigt Hill
#
# Bulk Modulus (GPa) = 58.16816 61.67345 59.92081
# Shear Modulus (GPa) = 7.84143 23.65657 15.74900
#
# Velocity S-wave (km/s) = 1.98748 3.45208 2.81664
# Velocity P-wave (km/s) = 5.87951 6.85250 6.38456
#
# Compressibility (1/GPa) = 0.01719153
#
# Stress axis : x y z
#
# Youngs Moduli (GPa) = 72.84160 86.80322 77.45702
#
# Poissons Ratio (x) = 0.44195 0.10070
# Poissons Ratio (y) = 0.37086 0.31698
# Poissons Ratio (z) = 0.09470 0.35523
#
# Static dielectric constant tensor:
#      x y z
#    x 3.319950 0.000000 0.000000 
#    y 0.000000 3.553600 0.000000 
#    z 0.000000 0.000000 3.679010 
# 
# 
# High freq. dielectric constant tensor:
#      x y z
#    x 1.736140 0.000000 0.000000 
#    y 0.000000 1.777410 0.000000 
#    z 0.000000 0.000000 1.783110 
# 
# From -- ./inp_files/2097.got.cif
#   From: 2010.03.12/outbox.cif.g09.slc.cpg/sg47_2_cif.got.tgz:2097.got - 2010.04.14 03:12:58.
