data_PCOD8196894
_publ_section_title
;
Structure prediction by ZEFSAII (Michael W. Deem and Ramdas Pophale) SiO2 
 PCOD8196894
Probable space group: P M M M
;
_chemical_formula_sum "Si O2"
_cell_formula_units_Z 44
_cell_length_a 9.332048
_cell_length_b 9.047065
_cell_length_c 28.890432
_cell_angle_alpha 90.000000
_cell_angle_beta 90.000000
_cell_angle_gamma 90.000000
_cell_volume 2439.151132
_symmetry_space_group_name_H-M "P M M M"
_symmetry_group_IT_number 47
_symmetry_cell_setting 'orthorhombic'
loop_
_space_group_symop_operation_xyz
x,y,z
-x,-y,z
x,-y,-z
-x,y,-z
-x,-y,-z
x,y,-z
-x,y,z
x,-y,z
loop_
_atom_site_type_symbol
_atom_site_label
_atom_site_fract_x
_atom_site_fract_y
_atom_site_fract_z
Si Si1 0.166958 0.827090 0.763747
Si Si2 0.334233 0.171659 0.588416
Si Si3 0.838075 0.824129 0.500000
Si Si4 0.661249 0.823422 0.147965
Si Si5 0.664256 0.673971 0.317351
Si Si6 0.670277 0.165550 0.950997
O O1 0.235668 0.766800 0.811406
O O2 0.235051 0.740730 0.721486
O O3 0.000000 0.792085 0.765541
O O4 0.198785 0.000000 0.757223
O O5 0.500000 0.197949 0.576294
O O6 0.242235 0.234538 0.545667
O O7 0.286498 0.261183 0.633553
O O8 0.302144 0.000000 0.597795
O O9 0.000000 0.763759 0.500000
O O10 0.833267 0.000000 0.500000
O O11 0.500000 0.766834 0.158458
O O12 0.719146 0.759873 0.097901
O O13 0.662116 0.000000 0.144934
O O14 0.500000 0.718784 0.306944
O O15 0.684856 0.500000 0.318709
O O16 0.500000 0.158839 0.948618
O O17 0.732510 0.000000 0.953050
O O18 0.717302 0.245708 0.000000
#
# Coordination Sequence:
#
# PCOD8196894 Si02
#       6
#     8   8   4   8   8   8
#     4  10  20  32  47  68  94 125 160 197 237 282
#     4   9  17  31  52  75  98 125 156 190 230 275
#     4   9  17  29  48  75 102 126 156 193 226 261
#     4   8  13  22  38  59  83 114 152 192 231 272
#     4  10  21  36  53  73  96 123 158 200 244 287
#     4   7   9  14  27  50  79 109 142 181 225 271
#
# _framework density 18.039062999999999
#
# number of rings (size 3 to 8) (size 9 to 14) (size 15 to 20)
#    0.000    3.182    0.000    3.000    0.000    4.000 
#    0.000    2.273    0.000    3.273    0.000    3.818 
#    0.000    0.727    0.000    8.364    0.000    9.636 
#
# Total GULP energy -545150.232713 kJ/mol
# GULP energy per Si atom -12389.778016 kJ/mol
# Density = 1.799801 g / cm^3
# Si number density = 18.039063 Si / 1000 Ang^3
#
#
#
# Elastic Constant Matrix: (Units=GPa)
#
#
# Indices 1 2 3 4 5 6 
#
# 1 83.4018 29.4147 88.7391 0.0000 0.0000 0.0000
# 2 29.4147 30.1166 43.3416 0.0000 0.0000 0.0000
# 3 88.7391 43.3416 211.0774 0.0000 0.0000 0.0000
# 4 0.0000 0.0000 0.0000 -3.5446 0.0000 0.0000
# 5 0.0000 0.0000 0.0000 0.0000 3.7955 0.0000
# 6 0.0000 0.0000 0.0000 0.0000 0.0000 13.7114
#
#
#
# Elastic Compliance Matrix: (Units=1/GPa)
#
#
# Indices 1 2 3 4 5 6 
#
# 1 0.024882 -0.013127 -0.007765 0.000000 0.000000 0.000000
# 2 -0.013127 0.054057 -0.005581 0.000000 0.000000 0.000000
# 3 -0.007765 -0.005581 0.009148 0.000000 0.000000 0.000000
# 4 0.000000 0.000000 0.000000 -0.282118 0.000000 0.000000
# 5 0.000000 0.000000 0.000000 0.000000 0.263472 0.000000
# 6 0.000000 0.000000 0.000000 0.000000 0.000000 0.072932
#
#
# Mechanical properties :
#
#
# Convention : Reuss Voigt Hill
#
# Bulk Modulus (GPa) = 28.45698 71.95407 50.20552
# Shear Modulus (GPa) = 24.15067 13.66581 18.90824
#
# Velocity S-wave (km/s) = 3.66293 2.75538 3.24108
# Velocity P-wave (km/s) = 5.80507 7.07795 6.47287
#
# Compressibility (1/GPa) = 0.03514076
#
# Stress axis : x y z
#
# Youngs Moduli (GPa) = 40.18963 18.49894 109.31130
#
# Poissons Ratio (x) = 0.24283 0.84883
# Poissons Ratio (y) = 0.52757 0.61008
# Poissons Ratio (z) = 0.31208 0.10324
#
# Static dielectric constant tensor:
#      x y z
#    x 3.173870 0.000000 0.000000 
#    y 0.000000 2.800580 0.000000 
#    z 0.000000 0.000000 3.922390 
# 
# 
# High freq. dielectric constant tensor:
#      x y z
#    x 1.672880 0.000000 0.000000 
#    y 0.000000 1.637070 0.000000 
#    z 0.000000 0.000000 1.728660 
# 
# From -- ./inp_files/2125.got.cif
#   From: 2010.03.12/outbox.cif.g09.slc.cpg/sg47_2_cif.got.tgz:2125.got - 2010.04.14 03:12:58.
