data_PCOD8196096
_publ_section_title
;
Structure prediction by ZEFSAII (Michael W. Deem and Ramdas Pophale) SiO2 
 PCOD8196096
Probable space group: P M M M
;
_chemical_formula_sum "Si O2"
_cell_formula_units_Z 56
_cell_length_a 20.222825
_cell_length_b 9.388237
_cell_length_c 15.153331
_cell_angle_alpha 90.000000
_cell_angle_beta 90.000000
_cell_angle_gamma 90.000000
_cell_volume 2876.961022
_symmetry_space_group_name_H-M "P M M M"
_symmetry_group_IT_number 47
_symmetry_cell_setting 'orthorhombic'
loop_
_space_group_symop_operation_xyz
x,y,z
-x,-y,z
x,-y,-z
-x,y,-z
-x,-y,-z
x,y,-z
-x,y,z
x,-y,z
loop_
_atom_site_type_symbol
_atom_site_label
_atom_site_fract_x
_atom_site_fract_y
_atom_site_fract_z
Si Si1 0.385661 0.336709 0.905645
Si Si2 0.263694 0.161068 0.865512
Si Si3 0.116540 0.833643 0.099070
Si Si4 0.183298 0.336322 0.400884
Si Si5 0.573667 0.333528 0.715678
Si Si6 0.301754 0.163840 0.334656
Si Si7 0.073655 0.664000 0.262876
O O1 0.366886 0.500000 0.893169
O O2 0.317281 0.254424 0.914641
O O3 0.426918 0.288106 0.819760
O O4 0.423942 0.313206 0.000000
O O5 0.192302 0.216688 0.894450
O O6 0.270387 0.176521 0.761202
O O7 0.274386 0.000000 0.896810
O O8 0.074855 0.748374 0.170860
O O9 0.110336 0.000000 0.121643
O O10 0.090087 0.802010 0.000000
O O11 0.154796 0.323623 0.500000
O O12 0.201118 0.500000 0.378425
O O13 0.250205 0.243503 0.397769
O O14 0.127011 0.277959 0.333933
O O15 0.500000 0.301292 0.679307
O O16 0.591058 0.500000 0.704288
O O17 0.626533 0.240476 0.661504
O O18 0.310801 0.000000 0.364503
O O19 0.088672 0.500000 0.241798
O O20 0.000000 0.682638 0.303084
#
# Coordination Sequence:
#
# PCOD8196096 Si02
#       7
#     8   8   8   8   8   8   8
#     4   9  17  27  41  66  99 135 179 229 276 321
#     4   9  17  30  48  70  99 137 180 226 274 320
#     4  10  20  34  53  77 108 149 194 234 274 324
#     4  10  21  38  62  89 114 142 178 221 274 340
#     4   9  18  32  50  73 105 147 188 225 272 330
#     4  10  19  33  56  82 109 141 179 227 276 323
#     4  10  22  39  58  82 114 149 184 228 278 326
#
# _framework density 19.464984999999999
#
# number of rings (size 3 to 8) (size 9 to 14) (size 15 to 20)
#    0.000    2.429    1.429    0.857    0.000    4.000 
#    0.000    4.286    0.000    0.429    0.000    9.000 
#    0.000    0.000    0.000    0.000    0.000    0.000 
#
# Total GULP energy -694145.400670 kJ/mol
# GULP energy per Si atom -12395.453583 kJ/mol
# Density = 1.942068 g / cm^3
# Si number density = 19.464985 Si / 1000 Ang^3
#
#
#
# Elastic Constant Matrix: (Units=GPa)
#
#
# Indices 1 2 3 4 5 6 
#
# 1 112.4110 48.6958 36.9628 0.0000 0.0000 0.0000
# 2 48.6958 68.0275 29.4349 0.0000 0.0000 0.0000
# 3 36.9628 29.4349 74.1055 0.0000 0.0000 0.0000
# 4 0.0000 0.0000 0.0000 19.8466 0.0000 0.0000
# 5 0.0000 0.0000 0.0000 0.0000 7.7392 0.0000
# 6 0.0000 0.0000 0.0000 0.0000 0.0000 22.7929
#
#
#
# Elastic Compliance Matrix: (Units=1/GPa)
#
#
# Indices 1 2 3 4 5 6 
#
# 1 0.013617 -0.008222 -0.003526 0.000000 0.000000 0.000000
# 2 -0.008222 0.022715 -0.004922 0.000000 0.000000 0.000000
# 3 -0.003526 -0.004922 0.017208 0.000000 0.000000 0.000000
# 4 0.000000 0.000000 0.000000 0.050386 0.000000 0.000000
# 5 0.000000 0.000000 0.000000 0.000000 0.129213 0.000000
# 6 0.000000 0.000000 0.000000 0.000000 0.000000 0.043873
#
#
# Mechanical properties :
#
#
# Convention : Reuss Voigt Hill
#
# Bulk Modulus (GPa) = 49.50302 53.85901 51.68101
# Shear Modulus (GPa) = 15.76868 19.37245 17.57056
#
# Velocity S-wave (km/s) = 2.84932 3.15817 3.00772
# Velocity P-wave (km/s) = 6.02593 6.40535 6.21854
#
# Compressibility (1/GPa) = 0.02020079
#
# Stress axis : x y z
#
# Youngs Moduli (GPa) = 73.43769 44.02449 58.11245
#
# Poissons Ratio (x) = 0.36195 0.20492
# Poissons Ratio (y) = 0.60377 0.28600
# Poissons Ratio (z) = 0.25897 0.21667
#
# Static dielectric constant tensor:
#      x y z
#    x 3.461010 0.000000 0.000000 
#    y 0.000000 3.500510 0.000000 
#    z 0.000000 0.000000 3.441900 
# 
# 
# High freq. dielectric constant tensor:
#      x y z
#    x 1.750180 0.000000 0.000000 
#    y 0.000000 1.747300 0.000000 
#    z 0.000000 0.000000 1.746150 
# 
# From -- ./inp_files/7266.got.cif
#   From: 2010.03.12/outbox.cif.g09.slc.cpg/sg47_4_cif.got.tgz:7266.got - 2010.04.14 03:12:58.
