data_PCOD8196596
_publ_section_title
;
Structure prediction by ZEFSAII (Michael W. Deem and Ramdas Pophale) SiO2 
 PCOD8196596
Probable space group: P M M M
;
_chemical_formula_sum "Si O2"
_cell_formula_units_Z 52
_cell_length_a 23.295189
_cell_length_b 15.276555
_cell_length_c 8.811524
_cell_angle_alpha 90.000000
_cell_angle_beta 90.000000
_cell_angle_gamma 90.000000
_cell_volume 3135.759125
_symmetry_space_group_name_H-M "P M M M"
_symmetry_group_IT_number 47
_symmetry_cell_setting 'orthorhombic'
loop_
_space_group_symop_operation_xyz
x,y,z
-x,-y,z
x,-y,-z
-x,y,-z
-x,-y,-z
x,y,-z
-x,y,z
x,-y,z
loop_
_atom_site_type_symbol
_atom_site_label
_atom_site_fract_x
_atom_site_fract_y
_atom_site_fract_z
Si Si1 0.111770 0.831786 0.177736
Si Si2 0.562641 0.103477 0.330459
Si Si3 0.772645 0.777832 0.320269
Si Si4 0.816602 0.405431 0.678821
Si Si5 0.063581 0.668452 0.324630
Si Si6 0.677610 0.100562 0.177684
Si Si7 0.933599 0.000000 0.332103
O O1 0.170931 0.828168 0.269416
O O2 0.068943 0.753591 0.220350
O O3 0.081816 0.919236 0.227914
O O4 0.125056 0.831411 0.000000
O O5 0.576230 0.138726 0.500000
O O6 0.500000 0.139743 0.276187
O O7 0.613046 0.132276 0.216734
O O8 0.559343 0.000000 0.334409
O O9 0.767605 0.778913 0.500000
O O10 0.778741 0.676541 0.259017
O O11 0.718506 0.828412 0.253855
O O12 0.809250 0.407043 0.500000
O O13 0.796159 0.500000 0.746342
O O14 0.884499 0.396560 0.719548
O O15 0.070270 0.697294 0.500000
O O16 0.000000 0.626352 0.297285
O O17 0.688812 0.000000 0.235318
O O18 0.687109 0.104629 0.000000
O O19 0.903445 0.000000 0.500000
O O20 0.000000 0.000000 0.363137
#
# Coordination Sequence:
#
# PCOD8196596 Si02
#       7
#     8   8   8   8   8   8   4
#     4  11  22  34  48  65  88 116 148 189 233 276
#     4   8  14  26  44  66  94 129 167 201 232 268
#     4  10  20  34  51  69  92 123 157 194 236 281
#     4   8  15  29  49  72  93 114 147 192 239 283
#     4   9  17  30  48  69  92 116 143 177 223 282
#     4  10  20  31  45  68  99 132 166 201 234 270
#     4  11  23  37  51  65  83 111 150 191 230 277
#
# _framework density 16.582906999999999
#
# number of rings (size 3 to 8) (size 9 to 14) (size 15 to 20)
#    0.000    2.538    0.000    4.385    1.077    4.308 
#    0.000    3.077    0.000   11.538    0.000    4.308 
#    0.000    0.615    0.000    7.077    0.000    2.308 
#
# Total GULP energy -644259.573759 kJ/mol
# GULP energy per Si atom -12389.607188 kJ/mol
# Density = 1.654516 g / cm^3
# Si number density = 16.582907 Si / 1000 Ang^3
#
#
#
# Elastic Constant Matrix: (Units=GPa)
#
#
# Indices 1 2 3 4 5 6 
#
# 1 104.2731 46.6178 30.2712 0.0000 0.0000 0.0000
# 2 46.6178 98.5796 30.6267 0.0000 0.0000 0.0000
# 3 30.2712 30.6267 51.7275 0.0000 0.0000 0.0000
# 4 0.0000 0.0000 0.0000 8.3874 0.0000 0.0000
# 5 0.0000 0.0000 0.0000 0.0000 13.0795 0.0000
# 6 0.0000 0.0000 0.0000 0.0000 0.0000 13.2954
#
#
#
# Elastic Compliance Matrix: (Units=1/GPa)
#
#
# Indices 1 2 3 4 5 6 
#
# 1 0.013102 -0.004674 -0.004900 0.000000 0.000000 0.000000
# 2 -0.004674 0.014098 -0.005612 0.000000 0.000000 0.000000
# 3 -0.004900 -0.005612 0.025523 0.000000 0.000000 0.000000
# 4 0.000000 0.000000 0.000000 0.119226 0.000000 0.000000
# 5 0.000000 0.000000 0.000000 0.000000 0.076456 0.000000
# 6 0.000000 0.000000 0.000000 0.000000 0.000000 0.075214
#
#
# Mechanical properties :
#
#
# Convention : Reuss Voigt Hill
#
# Bulk Modulus (GPa) = 44.74135 52.17906 48.46021
# Shear Modulus (GPa) = 13.83353 16.75675 15.29514
#
# Velocity S-wave (km/s) = 2.89139 3.18226 3.04031
# Velocity P-wave (km/s) = 6.17947 6.71090 6.45066
#
# Compressibility (1/GPa) = 0.02235069
#
# Stress axis : x y z
#
# Youngs Moduli (GPa) = 76.32278 70.93354 39.18107
#
# Poissons Ratio (x) = 0.33151 0.19200
# Poissons Ratio (y) = 0.35670 0.21988
# Poissons Ratio (z) = 0.37401 0.39808
#
# Static dielectric constant tensor:
#      x y z
#    x 3.300710 0.000000 0.000000 
#    y 0.000000 3.208800 0.000000 
#    z 0.000000 0.000000 3.046880 
# 
# 
# High freq. dielectric constant tensor:
#      x y z
#    x 1.626840 0.000000 0.000000 
#    y 0.000000 1.613160 0.000000 
#    z 0.000000 0.000000 1.630670 
# 
# From -- ./inp_files/12481.got.cif
#   From: 2010.03.12/outbox.cif.g09.slc.cpg/sg47_7_cif.got.tgz:12481.got - 2010.04.14 03:12:58.
