data_PCOD8196201
_publ_section_title
;
Structure prediction by ZEFSAII (Michael W. Deem and Ramdas Pophale) SiO2 
 PCOD8196201
Probable space group: P M M M
;
_chemical_formula_sum "Si O2"
_cell_formula_units_Z 40
_cell_length_a 21.507671
_cell_length_b 8.787089
_cell_length_c 10.916106
_cell_angle_alpha 90.000000
_cell_angle_beta 90.000000
_cell_angle_gamma 90.000000
_cell_volume 2063.032900
_symmetry_space_group_name_H-M "P M M M"
_symmetry_group_IT_number 47
_symmetry_cell_setting 'orthorhombic'
loop_
_space_group_symop_operation_xyz
x,y,z
-x,-y,z
x,-y,-z
-x,y,-z
-x,-y,-z
x,y,-z
-x,y,z
x,-y,z
loop_
_atom_site_type_symbol
_atom_site_label
_atom_site_fract_x
_atom_site_fract_y
_atom_site_fract_z
Si Si1 0.873816 0.821848 0.282995
Si Si2 0.222696 0.328861 0.140460
Si Si3 0.000000 0.320092 0.640992
Si Si4 0.429407 0.318622 0.000000
Si Si5 0.353478 0.682123 0.233830
Si Si6 0.347240 0.326503 0.500000
Si Si7 0.800118 0.325640 0.500000
O O1 0.838175 0.777401 0.157810
O O2 0.827136 0.759008 0.383742
O O3 0.940432 0.742927 0.288692
O O4 0.884070 0.000000 0.295864
O O5 0.207036 0.500000 0.186673
O O6 0.282697 0.263928 0.211899
O O7 0.241875 0.330776 0.000000
O O8 0.000000 0.500000 0.647803
O O9 0.000000 0.263470 0.500000
O O10 0.397372 0.254354 0.875293
O O11 0.425484 0.500000 0.000000
O O12 0.500000 0.260457 0.000000
O O13 0.355333 0.500000 0.232601
O O14 0.373168 0.744380 0.370781
O O15 0.368577 0.500000 0.500000
O O16 0.273313 0.312972 0.500000
O O17 0.823032 0.500000 0.500000
#
# Coordination Sequence:
#
# PCOD8196201 Si02
#       7
#     8   8   4   4   8   4   4
#     4  12  24  36  53  81 116 143 171 228 294 338
#     4  10  19  34  57  79 101 140 192 233 269 335
#     4  11  23  39  60  79 103 146 194 228 262 335
#     4   9  16  26  42  68 107 150 189 230 279 331
#     4   9  15  26  45  72 102 138 185 231 276 329
#     4   9  16  25  45  74 102 132 177 233 280 323
#     4  11  19  32  54  78 105 143 186 225 270 336
#
# _framework density 19.388929000000001
#
# number of rings (size 3 to 8) (size 9 to 14) (size 15 to 20)
#    0.000    1.800    4.000    2.400    0.000    0.800 
#    0.000    1.000    0.000    6.000    0.000    0.000 
#    0.000    1.600    0.000    1.800    0.000    2.600 
#
# Total GULP energy -495709.699381 kJ/mol
# GULP energy per Si atom -12392.742485 kJ/mol
# Density = 1.934480 g / cm^3
# Si number density = 19.388929 Si / 1000 Ang^3
#
#
#
# Elastic Constant Matrix: (Units=GPa)
#
#
# Indices 1 2 3 4 5 6 
#
# 1 108.3188 22.7374 60.4071 0.0000 0.0000 0.0000
# 2 22.7374 54.5605 15.3146 0.0000 0.0000 0.0000
# 3 60.4071 15.3146 143.8597 0.0000 0.0000 0.0000
# 4 0.0000 0.0000 0.0000 3.5843 0.0000 0.0000
# 5 0.0000 0.0000 0.0000 0.0000 28.9745 0.0000
# 6 0.0000 0.0000 0.0000 0.0000 0.0000 0.1985
#
#
#
# Elastic Compliance Matrix: (Units=1/GPa)
#
#
# Indices 1 2 3 4 5 6 
#
# 1 0.012832 -0.003953 -0.004967 0.000000 0.000000 0.000000
# 2 -0.003953 0.020111 -0.000481 0.000000 0.000000 0.000000
# 3 -0.004967 -0.000481 0.009088 0.000000 0.000000 0.000000
# 4 0.000000 0.000000 0.000000 0.278996 0.000000 0.000000
# 5 0.000000 0.000000 0.000000 0.000000 0.034513 0.000000
# 6 0.000000 0.000000 0.000000 0.000000 0.000000 5.038490
#
#
# Mechanical properties :
#
#
# Convention : Reuss Voigt Hill
#
# Bulk Modulus (GPa) = 43.05164 55.96189 49.50676
# Shear Modulus (GPa) = 0.92241 20.43678 10.67960
#
# Velocity S-wave (km/s) = 0.69049 3.25013 2.34948
# Velocity P-wave (km/s) = 4.78415 6.55819 5.74012
#
# Compressibility (1/GPa) = 0.02322792
#
# Stress axis : x y z
#
# Youngs Moduli (GPa) = 77.92991 49.72463 110.03251
#
# Poissons Ratio (x) = 0.19658 0.54657
# Poissons Ratio (y) = 0.30808 0.05291
# Poissons Ratio (z) = 0.38711 0.02391
#
# Static dielectric constant tensor:
#      x y z
#    x 3.453270 0.000000 0.000000 
#    y 0.000000 3.115640 0.000000 
#    z 0.000000 0.000000 3.612020 
# 
# 
# High freq. dielectric constant tensor:
#      x y z
#    x 1.742200 0.000000 0.000000 
#    y 0.000000 1.702180 0.000000 
#    z 0.000000 0.000000 1.768530 
# 
# From -- ./inp_files/19008.got.cif
#   From: 2010.03.12/outbox.cif.g09.slc.cpg/sg47_10_cif.got.tgz:19008.got - 2010.04.14 03:12:58.
