data_PCOD8196455
_publ_section_title
;
Structure prediction by ZEFSAII (Michael W. Deem and Ramdas Pophale) SiO2 
 PCOD8196455
Probable space group: P M M M
;
_chemical_formula_sum "Si O2"
_cell_formula_units_Z 44
_cell_length_a 8.250049
_cell_length_b 24.445325
_cell_length_c 15.340200
_cell_angle_alpha 90.000000
_cell_angle_beta 90.000000
_cell_angle_gamma 90.000000
_cell_volume 3093.736815
_symmetry_space_group_name_H-M "P M M M"
_symmetry_group_IT_number 47
_symmetry_cell_setting 'orthorhombic'
loop_
_space_group_symop_operation_xyz
x,y,z
-x,-y,z
x,-y,-z
-x,y,-z
-x,-y,-z
x,y,-z
-x,y,z
x,-y,z
loop_
_atom_site_type_symbol
_atom_site_label
_atom_site_fract_x
_atom_site_fract_y
_atom_site_fract_z
Si Si1 0.182116 0.762307 0.603014
Si Si2 0.814203 0.562743 0.725708
Si Si3 0.319170 0.125579 0.603801
Si Si4 0.000000 0.937617 0.396328
Si Si5 0.683412 0.564841 0.905596
Si Si6 0.313075 0.350252 0.402622
O O1 0.200417 0.757364 0.500000
O O2 0.294920 0.811885 0.636644
O O3 0.230492 0.703133 0.641698
O O4 0.000000 0.776834 0.630953
O O5 0.754294 0.500000 0.719730
O O6 0.789427 0.585904 0.824105
O O7 0.712203 0.597007 0.656908
O O8 0.000000 0.568264 0.699922
O O9 0.313363 0.123106 0.500000
O O10 0.500000 0.105813 0.635555
O O11 0.167717 0.089514 0.640150
O O12 0.000000 0.932510 0.500000
O O13 0.000000 0.000000 0.364698
O O14 0.500000 0.584963 0.891011
O O15 0.690853 0.500000 0.908629
O O16 0.747640 0.587146 0.000000
O O17 0.243706 0.362202 0.500000
O O18 0.500000 0.336491 0.408988
#
# Coordination Sequence:
#
# PCOD8196455 Si02
#       6
#     8   8   8   4   8   8
#     4   9  15  25  40  54  68  86 113 151 190 224
#     4  10  20  31  42  57  77  99 121 149 189 235
#     4   9  15  23  35  49  65  87 115 146 182 223
#     4   9  16  24  32  46  68  90 113 143 182 225
#     4   8  14  26  44  62  77  94 116 142 175 218
#     4  10  20  31  42  56  72  94 126 160 194 233
#
# _framework density 14.222282999999999
#
# number of rings (size 3 to 8) (size 9 to 14) (size 15 to 20)
#    0.000    2.818    0.909    2.182    0.000    5.455 
#    0.000    5.455    0.000    0.000    0.000    0.000 
#    0.000    0.000    0.000    0.000    0.000    0.000 
#
# Total GULP energy -545126.905642 kJ/mol
# GULP energy per Si atom -12389.247855 kJ/mol
# Density = 1.418991 g / cm^3
# Si number density = 14.222283 Si / 1000 Ang^3
#
#
#
# Elastic Constant Matrix: (Units=GPa)
#
#
# Indices 1 2 3 4 5 6 
#
# 1 77.5053 34.8377 13.4316 0.0000 0.0000 0.0000
# 2 34.8377 72.7345 23.6505 0.0000 0.0000 0.0000
# 3 13.4316 23.6505 42.6779 0.0000 0.0000 0.0000
# 4 0.0000 0.0000 0.0000 0.1770 0.0000 0.0000
# 5 0.0000 0.0000 0.0000 0.0000 12.3423 0.0000
# 6 0.0000 0.0000 0.0000 0.0000 0.0000 19.6375
#
#
#
# Elastic Compliance Matrix: (Units=1/GPa)
#
#
# Indices 1 2 3 4 5 6 
#
# 1 0.016476 -0.007570 -0.000991 0.000000 0.000000 0.000000
# 2 -0.007570 0.020248 -0.008838 0.000000 0.000000 0.000000
# 3 -0.000991 -0.008838 0.028641 0.000000 0.000000 0.000000
# 4 0.000000 0.000000 0.000000 5.650972 0.000000 0.000000
# 5 0.000000 0.000000 0.000000 0.000000 0.081022 0.000000
# 6 0.000000 0.000000 0.000000 0.000000 0.000000 0.050923
#
#
# Mechanical properties :
#
#
# Convention : Reuss Voigt Hill
#
# Bulk Modulus (GPa) = 32.71373 37.41747 35.06560
# Shear Modulus (GPa) = 0.84843 14.49788 7.67315
#
# Velocity S-wave (km/s) = 0.77320 3.19623 2.32527
# Velocity P-wave (km/s) = 4.88352 6.32356 5.64961
#
# Compressibility (1/GPa) = 0.03056820
#
# Stress axis : x y z
#
# Youngs Moduli (GPa) = 60.69253 49.38714 34.91488
#
# Poissons Ratio (x) = 0.37384 0.03459
# Poissons Ratio (y) = 0.45942 0.30859
# Poissons Ratio (z) = 0.06013 0.43651
#
# Static dielectric constant tensor:
#      x y z
#    x 2.961210 0.000000 0.000000 
#    y 0.000000 2.702970 0.000000 
#    z 0.000000 0.000000 2.614320 
# 
# 
# High freq. dielectric constant tensor:
#      x y z
#    x 1.559310 0.000000 0.000000 
#    y 0.000000 1.521100 0.000000 
#    z 0.000000 0.000000 1.477300 
# 
# From -- ./inp_files/21712.got.cif
#   From: 2010.03.12/outbox.cif.g09.slc.cpg/sg47_11_cif.got.tgz:21712.got - 2010.04.14 03:12:58.
