data_PCOD8196378
_publ_section_title
;
Structure prediction by ZEFSAII (Michael W. Deem and Ramdas Pophale) SiO2 
 PCOD8196378
Probable space group: P M M M
;
_chemical_formula_sum "Si O2"
_cell_formula_units_Z 64
_cell_length_a 30.173019
_cell_length_b 14.938288
_cell_length_c 9.360601
_cell_angle_alpha 90.000000
_cell_angle_beta 90.000000
_cell_angle_gamma 90.000000
_cell_volume 4219.134089
_symmetry_space_group_name_H-M "P M M M"
_symmetry_group_IT_number 47
_symmetry_cell_setting 'orthorhombic'
loop_
_space_group_symop_operation_xyz
x,y,z
-x,-y,z
x,-y,-z
-x,y,-z
-x,-y,-z
x,y,-z
-x,y,z
x,-y,z
loop_
_atom_site_type_symbol
_atom_site_label
_atom_site_fract_x
_atom_site_fract_y
_atom_site_fract_z
Si Si1 0.192649 0.598953 0.339534
Si Si2 0.048935 0.106292 0.160235
Si Si3 0.867768 0.105950 0.335270
Si Si4 0.546872 0.899788 0.669495
Si Si5 0.702061 0.598548 0.660243
Si Si6 0.357504 0.106449 0.335910
Si Si7 0.702057 0.765971 0.163800
Si Si8 0.193094 0.232700 0.164696
O O1 0.175926 0.620846 0.500000
O O2 0.175559 0.500000 0.292635
O O3 0.245287 0.599215 0.337174
O O4 0.174713 0.674073 0.230762
O O5 0.085799 0.142085 0.270230
O O6 0.000000 0.141330 0.206280
O O7 0.048744 0.000000 0.162180
O O8 0.060200 0.140065 0.000000
O O9 0.865773 0.134751 0.500000
O O10 0.827424 0.149720 0.249708
O O11 0.863095 0.000000 0.316785
O O12 0.548719 0.904606 0.500000
O O13 0.500000 0.851197 0.717275
O O14 0.593838 0.856202 0.717477
O O15 0.545198 0.000000 0.731401
O O16 0.685109 0.618971 0.500000
O O17 0.685160 0.500000 0.709419
O O18 0.683572 0.674448 0.765778
O O19 0.348557 0.133413 0.500000
O O20 0.319759 0.148895 0.238672
O O21 0.355619 0.000000 0.317722
O O22 0.754447 0.775135 0.182815
O O23 0.687849 0.764246 0.000000
O O24 0.178662 0.228821 0.000000
#
# Coordination Sequence:
#
# PCOD8196378 Si02
#       8
#     8   8   8   8   8   8   8   8
#     4   8  14  26  44  63  81 101 127 164 210 252
#     4   8  14  26  44  63  82 105 132 164 206 253
#     4  10  20  31  43  60  82 110 144 180 213 243
#     4   7  10  19  37  59  78  95 122 164 209 246
#     4   8  14  26  44  62  78  99 129 166 207 247
#     4   9  17  28  42  59  79 107 141 173 204 239
#     4  10  20  30  40  57  82 112 142 172 205 240
#     4  10  20  31  42  57  80 112 146 176 205 240
#
# _framework density 15.168989
#
# number of rings (size 3 to 8) (size 9 to 14) (size 15 to 20)
#    0.000    3.250    0.000    3.375    0.000    3.750 
#    0.000    6.250    0.000    0.375    0.000    1.750 
#    0.000    1.000    0.000   11.000    0.000    4.875 
#
# Total GULP energy -792859.645888 kJ/mol
# GULP energy per Si atom -12388.431967 kJ/mol
# Density = 1.513446 g / cm^3
# Si number density = 15.168989 Si / 1000 Ang^3
#
#
#
# Elastic Constant Matrix: (Units=GPa)
#
#
# Indices 1 2 3 4 5 6 
#
# 1 49.7329 30.5631 43.1809 0.0000 0.0000 0.0000
# 2 30.5631 56.4099 46.6601 0.0000 0.0000 0.0000
# 3 43.1809 46.6601 104.0703 0.0000 0.0000 0.0000
# 4 0.0000 0.0000 0.0000 18.5111 0.0000 0.0000
# 5 0.0000 0.0000 0.0000 0.0000 13.8865 0.0000
# 6 0.0000 0.0000 0.0000 0.0000 0.0000 1.5680
#
#
#
# Elastic Compliance Matrix: (Units=1/GPa)
#
#
# Indices 1 2 3 4 5 6 
#
# 1 0.035361 -0.011162 -0.009667 0.000000 0.000000 0.000000
# 2 -0.011162 0.031701 -0.009582 0.000000 0.000000 0.000000
# 3 -0.009667 -0.009582 0.017916 0.000000 0.000000 0.000000
# 4 0.000000 0.000000 0.000000 0.054022 0.000000 0.000000
# 5 0.000000 0.000000 0.000000 0.000000 0.072012 0.000000
# 6 0.000000 0.000000 0.000000 0.000000 0.000000 0.637762
#
#
# Mechanical properties :
#
#
# Convention : Reuss Voigt Hill
#
# Bulk Modulus (GPa) = 41.39902 50.11350 45.75626
# Shear Modulus (GPa) = 5.44872 12.78038 9.11455
#
# Velocity S-wave (km/s) = 1.89732 2.90579 2.45392
# Velocity P-wave (km/s) = 5.67017 6.66083 6.18537
#
# Compressibility (1/GPa) = 0.02415516
#
# Stress axis : x y z
#
# Youngs Moduli (GPa) = 28.27985 31.54513 55.81603
#
# Poissons Ratio (x) = 0.35211 0.53959
# Poissons Ratio (y) = 0.31567 0.53481
# Poissons Ratio (z) = 0.27339 0.30225
#
# Static dielectric constant tensor:
#      x y z
#    x 2.976690 0.000000 0.000000 
#    y 0.000000 2.839360 0.000000 
#    z 0.000000 0.000000 2.949120 
# 
# 
# High freq. dielectric constant tensor:
#      x y z
#    x 1.558030 0.000000 0.000000 
#    y 0.000000 1.552050 0.000000 
#    z 0.000000 0.000000 1.576320 
# 
# From -- ./inp_files/14254.got.cif
#   From: 2010.03.12/outbox.cif.g09.slc.cpg/sg47_8_cif.got.tgz:14254.got - 2010.04.14 03:12:58.
