data_PCOD8196539
_publ_section_title
;
Structure prediction by ZEFSAII (Michael W. Deem and Ramdas Pophale) SiO2 
 PCOD8196539
Probable space group: P M M M
;
_chemical_formula_sum "Si O2"
_cell_formula_units_Z 40
_cell_length_a 9.870547
_cell_length_b 11.913334
_cell_length_c 19.995089
_cell_angle_alpha 90.000000
_cell_angle_beta 90.000000
_cell_angle_gamma 90.000000
_cell_volume 2351.244973
_symmetry_space_group_name_H-M "P M M M"
_symmetry_group_IT_number 47
_symmetry_cell_setting 'orthorhombic'
loop_
_space_group_symop_operation_xyz
x,y,z
-x,-y,z
x,-y,-z
-x,y,-z
-x,-y,-z
x,y,-z
-x,y,z
x,-y,z
loop_
_atom_site_type_symbol
_atom_site_label
_atom_site_fract_x
_atom_site_fract_y
_atom_site_fract_z
Si Si1 0.349667 0.500000 0.422042
Si Si2 0.000000 0.874888 0.578175
Si Si3 0.265411 0.742312 0.578211
Si Si4 0.845490 0.133901 0.809680
Si Si5 0.651699 0.866552 0.074835
Si Si6 0.352333 0.126862 0.304825
O O1 0.500000 0.500000 0.387955
O O2 0.375243 0.500000 0.500000
O O3 0.263282 0.389683 0.403062
O O4 0.874016 0.800233 0.600029
O O5 0.000000 0.893558 0.500000
O O6 0.000000 0.000000 0.612235
O O7 0.301920 0.761532 0.500000
O O8 0.371359 0.802648 0.626740
O O9 0.765204 0.181551 0.874427
O O10 0.763011 0.176138 0.744437
O O11 0.000000 0.180256 0.808392
O O12 0.846051 0.000000 0.811381
O O13 0.500000 0.823602 0.093595
O O14 0.652085 0.000000 0.078090
O O15 0.689901 0.826067 0.000000
O O16 0.500000 0.130510 0.268821
O O17 0.314368 0.000000 0.324819
#
# Coordination Sequence:
#
# PCOD8196539 Si02
#       6
#     4   4   8   8   8   8
#     4   9  18  33  51  69  89 114 150 199 248 293
#     4   9  18  31  47  69  95 120 146 184 235 290
#     4  10  20  33  50  69  90 118 153 195 244 293
#     4   9  17  27  39  56  81 114 150 187 227 275
#     4   8  13  22  37  56  79 109 145 184 223 264
#     4  10  20  31  44  63  88 119 154 194 239 288
#
# _framework density 17.012264999999999
#
# number of rings (size 3 to 8) (size 9 to 14) (size 15 to 20)
#    0.000    2.800    0.000    2.400    1.400    5.600 
#    0.000    5.000    0.000    0.000    0.000    0.000 
#    0.000    0.000    0.000    0.900    0.000   12.600 
#
# Total GULP energy -495536.724526 kJ/mol
# GULP energy per Si atom -12388.418113 kJ/mol
# Density = 1.697354 g / cm^3
# Si number density = 17.012265 Si / 1000 Ang^3
#
#
#
# Elastic Constant Matrix: (Units=GPa)
#
#
# Indices 1 2 3 4 5 6 
#
# 1 126.4145 40.7208 51.6472 0.0000 0.0000 0.0000
# 2 40.7208 81.6257 26.2003 0.0000 0.0000 0.0000
# 3 51.6472 26.2003 101.4368 0.0000 0.0000 0.0000
# 4 0.0000 0.0000 0.0000 4.2699 0.0000 0.0000
# 5 0.0000 0.0000 0.0000 0.0000 25.3194 0.0000
# 6 0.0000 0.0000 0.0000 0.0000 0.0000 -1.0066
#
#
#
# Elastic Compliance Matrix: (Units=1/GPa)
#
#
# Indices 1 2 3 4 5 6 
#
# 1 0.011098 -0.004059 -0.004602 0.000000 0.000000 0.000000
# 2 -0.004059 0.014843 -0.001767 0.000000 0.000000 0.000000
# 3 -0.004602 -0.001767 0.012658 0.000000 0.000000 0.000000
# 4 0.000000 0.000000 0.000000 0.234200 0.000000 0.000000
# 5 0.000000 0.000000 0.000000 0.000000 0.039495 0.000000
# 6 0.000000 0.000000 0.000000 0.000000 0.000000 -0.993481
#
#
# Mechanical properties :
#
#
# Convention : Reuss Voigt Hill
#
# Bulk Modulus (GPa) = 56.36252 60.73484 58.54868
# Shear Modulus (GPa) = -7.64042 18.44378 5.40168
#
# Velocity S-wave (km/s) = -2.12153 3.29621 1.78383
# Velocity P-wave (km/s) = 5.21548 7.08977 6.22359
#
# Compressibility (1/GPa) = 0.01774229
#
# Stress axis : x y z
#
# Youngs Moduli (GPa) = 90.10302 67.37013 79.00111
#
# Poissons Ratio (x) = 0.27349 0.36359
# Poissons Ratio (y) = 0.36577 0.13960
# Poissons Ratio (z) = 0.41468 0.11904
#
# Static dielectric constant tensor:
#      x y z
#    x 3.455340 0.000000 0.000000 
#    y 0.000000 2.851080 0.000000 
#    z 0.000000 0.000000 3.158550 
# 
# 
# High freq. dielectric constant tensor:
#      x y z
#    x 1.669890 0.000000 0.000000 
#    y 0.000000 1.589000 0.000000 
#    z 0.000000 0.000000 1.644540 
# 
# From -- ./inp_files/29366.got.cif
#   From: 2010.03.12/outbox.cif.g09.slc.cpg/sg47_15_cif.got.tgz:29366.got - 2010.04.14 03:12:58.
