data_PCOD8196332
_publ_section_title
;
Structure prediction by ZEFSAII (Michael W. Deem and Ramdas Pophale) SiO2 
 PCOD8196332
Probable space group: P M M M
;
_chemical_formula_sum "Si O2"
_cell_formula_units_Z 56
_cell_length_a 8.767058
_cell_length_b 21.136463
_cell_length_c 15.568690
_cell_angle_alpha 90.000000
_cell_angle_beta 90.000000
_cell_angle_gamma 90.000000
_cell_volume 2884.949827
_symmetry_space_group_name_H-M "P M M M"
_symmetry_group_IT_number 47
_symmetry_cell_setting 'orthorhombic'
loop_
_space_group_symop_operation_xyz
x,y,z
-x,-y,z
x,-y,-z
-x,y,-z
-x,-y,-z
x,y,-z
-x,y,z
x,-y,z
loop_
_atom_site_type_symbol
_atom_site_label
_atom_site_fract_x
_atom_site_fract_y
_atom_site_fract_z
Si Si1 0.676186 0.070922 0.320071
Si Si2 0.819100 0.500000 0.100524
Si Si3 0.321128 0.930135 0.000000
Si Si4 0.671472 0.574686 0.592433
Si Si5 0.321724 0.802730 0.591776
Si Si6 0.822687 0.131638 0.161055
Si Si7 0.320991 0.394917 0.221755
Si Si8 0.678254 0.748379 0.232860
O O1 0.500000 0.077033 0.290992
O O2 0.714498 0.122965 0.392194
O O3 0.782729 0.085694 0.239493
O O4 0.710759 0.000000 0.354511
O O5 0.759037 0.562240 0.149787
O O6 0.000000 0.500000 0.104808
O O7 0.765031 0.500000 0.000000
O O8 0.271326 0.891373 0.918640
O O9 0.500000 0.936687 0.000000
O O10 0.246012 0.000000 0.000000
O O11 0.747112 0.597024 0.500000
O O12 0.500000 0.602248 0.593651
O O13 0.668811 0.500000 0.593157
O O14 0.751147 0.596149 0.681838
O O15 0.244952 0.784202 0.500000
O O16 0.500000 0.792515 0.583770
O O17 0.262471 0.757494 0.668507
O O18 0.775139 0.204366 0.175085
O O19 0.000000 0.128145 0.141186
O O20 0.500000 0.412698 0.222957
O O21 0.292929 0.321987 0.197679
O O22 0.500000 0.766642 0.227859
#
# Coordination Sequence:
#
# PCOD8196332 Si02
#       8
#     8   4   4   8   8   8   8   8
#     4   9  17  30  49  73 104 142 182 227 278 323
#     4  11  25  43  60  81 110 144 179 227 286 335
#     4  11  23  39  61  85 109 136 169 218 277 331
#     4   8  13  23  45  81 119 144 167 213 273 324
#     4   8  14  26  46  75 110 143 179 225 271 317
#     4  11  22  36  54  77 107 142 179 221 268 326
#     4  10  19  35  61  87 111 144 187 229 270 324
#     4   9  19  35  55  80 110 145 183 224 271 320
#
# _framework density 19.411083999999999
#
# number of rings (size 3 to 8) (size 9 to 14) (size 15 to 20)
#    0.000    2.571    0.714    3.429    0.000    4.571 
#    1.286    4.286    0.000    7.714    0.000    8.000 
#    0.000    0.000    0.000    0.000    0.000    0.000 
#
# Total GULP energy -693822.248514 kJ/mol
# GULP energy per Si atom -12389.683009 kJ/mol
# Density = 1.936690 g / cm^3
# Si number density = 19.411084 Si / 1000 Ang^3
#
#
#
# Elastic Constant Matrix: (Units=GPa)
#
#
# Indices 1 2 3 4 5 6 
#
# 1 45.1648 21.1794 25.1975 0.0000 0.0000 0.0000
# 2 21.1794 103.9097 48.2639 0.0000 0.0000 0.0000
# 3 25.1975 48.2639 135.2231 0.0000 0.0000 0.0000
# 4 0.0000 0.0000 0.0000 -31.3026 0.0000 0.0000
# 5 0.0000 0.0000 0.0000 0.0000 -3.7074 0.0000
# 6 0.0000 0.0000 0.0000 0.0000 0.0000 11.5674
#
#
#
# Elastic Compliance Matrix: (Units=1/GPa)
#
#
# Indices 1 2 3 4 5 6 
#
# 1 0.025802 -0.003627 -0.003513 0.000000 0.000000 0.000000
# 2 -0.003627 0.012046 -0.003624 0.000000 0.000000 0.000000
# 3 -0.003513 -0.003624 0.009343 0.000000 0.000000 0.000000
# 4 0.000000 0.000000 0.000000 -0.031946 0.000000 0.000000
# 5 0.000000 0.000000 0.000000 0.000000 -0.269730 0.000000
# 6 0.000000 0.000000 0.000000 0.000000 0.000000 0.086450
#
#
# Mechanical properties :
#
#
# Convention : Reuss Voigt Hill
#
# Bulk Modulus (GPa) = 38.96641 52.61991 45.79316
# Shear Modulus (GPa) = -36.24449 7.95526 -14.14461
#
# Velocity S-wave (km/s) = -4.32581 2.02662 -2.70235
# Velocity P-wave (km/s) = 2.19823 5.71343 3.72901
#
# Compressibility (1/GPa) = 0.02566313
#
# Stress axis : x y z
#
# Youngs Moduli (GPa) = 38.75636 83.01401 107.02964
#
# Poissons Ratio (x) = 0.30111 0.37603
# Poissons Ratio (y) = 0.14058 0.38783
# Poissons Ratio (z) = 0.13616 0.30081
#
# Static dielectric constant tensor:
#      x y z
#    x 3.129160 0.000000 0.000000 
#    y 0.000000 3.557210 0.000000 
#    z 0.000000 0.000000 2.986390 
# 
# 
# High freq. dielectric constant tensor:
#      x y z
#    x 1.706380 0.000000 0.000000 
#    y 0.000000 1.760010 0.000000 
#    z 0.000000 0.000000 1.758040 
# 
# From -- ./inp_files/21653.got.cif
#   From: 2010.03.12/outbox.cif.g09.slc.cpg/sg47_11_cif.got.tgz:21653.got - 2010.04.14 03:12:58.
