data_PCOD8196609
_publ_section_title
;
Structure prediction by ZEFSAII (Michael W. Deem and Ramdas Pophale) SiO2 
 PCOD8196609
Probable space group: P M M M
;
_chemical_formula_sum "Si O2"
_cell_formula_units_Z 48
_cell_length_a 30.935862
_cell_length_b 9.542410
_cell_length_c 8.881331
_cell_angle_alpha 90.000000
_cell_angle_beta 90.000000
_cell_angle_gamma 90.000000
_cell_volume 2621.792703
_symmetry_space_group_name_H-M "P M M M"
_symmetry_group_IT_number 47
_symmetry_cell_setting 'orthorhombic'
loop_
_space_group_symop_operation_xyz
x,y,z
-x,-y,z
x,-y,-z
-x,y,-z
-x,-y,-z
x,y,-z
-x,y,z
x,-y,z
loop_
_atom_site_type_symbol
_atom_site_label
_atom_site_fract_x
_atom_site_fract_y
_atom_site_fract_z
Si Si1 0.952069 0.842843 0.679038
Si Si2 0.625946 0.658144 0.821266
Si Si3 0.452057 0.157137 0.179074
Si Si4 0.203667 0.844787 0.678758
Si Si5 0.300841 0.837770 0.675468
Si Si6 0.126043 0.342379 0.320029
O O1 0.950355 0.841761 0.500000
O O2 0.916367 0.736441 0.744109
O O3 0.000000 0.796188 0.733455
O O4 0.941887 0.000000 0.736909
O O5 0.626446 0.500000 0.757754
O O6 0.583529 0.736294 0.754826
O O7 0.668573 0.738473 0.770856
O O8 0.624555 0.657653 0.000000
O O9 0.500000 0.203022 0.234108
O O10 0.441675 0.000000 0.237215
O O11 0.450638 0.158516 0.000000
O O12 0.201066 0.850110 0.500000
O O13 0.251999 0.800244 0.726301
O O14 0.168848 0.734870 0.743060
O O15 0.192929 0.000000 0.742043
O O16 0.307673 0.806655 0.500000
O O17 0.310962 0.000000 0.711343
O O18 0.125938 0.341735 0.500000
O O19 0.125860 0.500000 0.256942
#
# Coordination Sequence:
#
# PCOD8196609 Si02
#       6
#     8   8   8   8   8   8
#     4   8  13  20  28  37  52  79 115 153 194 239
#     4  10  20  31  45  69  98 124 148 176 216 265
#     4   8  14  26  45  67  89 115 148 183 216 251
#     4   8  14  25  39  53  70  94 127 167 207 247
#     4   9  18  32  49  67  86 113 151 190 225 261
#     4   9  15  20  28  44  64  86 115 154 199 244
#
# _framework density 18.308084000000001
#
# number of rings (size 3 to 8) (size 9 to 14) (size 15 to 20)
#    0.000    3.333    0.000    3.000    0.000    4.667 
#    0.000    5.000    0.000    0.500    0.000    3.500 
#    0.000    0.000    0.000    0.000    0.000    0.833 
#
# Total GULP energy -594894.634515 kJ/mol
# GULP energy per Si atom -12393.638219 kJ/mol
# Density = 1.826641 g / cm^3
# Si number density = 18.308084 Si / 1000 Ang^3
#
#
#
# Elastic Constant Matrix: (Units=GPa)
#
#
# Indices 1 2 3 4 5 6 
#
# 1 173.6273 111.0420 8.3345 0.0000 0.0000 0.0000
# 2 111.0420 150.5196 9.3221 0.0000 0.0000 0.0000
# 3 8.3345 9.3221 3.9091 0.0000 0.0000 0.0000
# 4 0.0000 0.0000 0.0000 12.5759 0.0000 0.0000
# 5 0.0000 0.0000 0.0000 0.0000 -21.2153 0.0000
# 6 0.0000 0.0000 0.0000 0.0000 0.0000 20.8717
#
#
#
# Elastic Compliance Matrix: (Units=1/GPa)
#
#
# Indices 1 2 3 4 5 6 
#
# 1 0.010980 -0.007803 -0.004803 0.000000 0.000000 0.000000
# 2 -0.007803 0.013340 -0.015176 0.000000 0.000000 0.000000
# 3 -0.004803 -0.015176 0.302246 0.000000 0.000000 0.000000
# 4 0.000000 0.000000 0.000000 0.079517 0.000000 0.000000
# 5 0.000000 0.000000 0.000000 0.000000 -0.047136 0.000000
# 6 0.000000 0.000000 0.000000 0.000000 0.000000 0.047912
#
#
# Mechanical properties :
#
#
# Convention : Reuss Voigt Hill
#
# Bulk Modulus (GPa) = 3.68999 65.05033 34.37016
# Shear Modulus (GPa) = 9.04556 15.73696 12.39126
#
# Velocity S-wave (km/s) = 2.22519 2.93501 2.60440
# Velocity P-wave (km/s) = 2.93630 6.86249 5.27805
#
# Compressibility (1/GPa) = 0.27100330
#
# Stress axis : x y z
#
# Youngs Moduli (GPa) = 91.07142 74.96249 3.30856
#
# Poissons Ratio (x) = 0.58494 0.01589
# Poissons Ratio (y) = 0.71063 0.05021
# Poissons Ratio (z) = 0.43742 1.13759
#
# Static dielectric constant tensor:
#      x y z
#    x 3.742550 0.000000 0.000000 
#    y 0.000000 3.629760 0.000000 
#    z 0.000000 0.000000 2.588850 
# 
# 
# High freq. dielectric constant tensor:
#      x y z
#    x 1.727850 0.000000 0.000000 
#    y 0.000000 1.711120 0.000000 
#    z 0.000000 0.000000 1.626620 
# 
# From -- ./inp_files/4721.got.cif
#   From: 2010.03.12/outbox.cif.g09.slc.cpg/sg47_3_cif.got.tgz:4721.got - 2010.04.14 03:12:58.
