data_PCOD8196547
_publ_section_title
;
Structure prediction by ZEFSAII (Michael W. Deem and Ramdas Pophale) SiO2 
 PCOD8196547
Probable space group: P M M M
;
_chemical_formula_sum "Si O2"
_cell_formula_units_Z 64
_cell_length_a 9.429563
_cell_length_b 29.264438
_cell_length_c 13.977826
_cell_angle_alpha 90.000000
_cell_angle_beta 90.000000
_cell_angle_gamma 90.000000
_cell_volume 3857.193131
_symmetry_space_group_name_H-M "P M M M"
_symmetry_group_IT_number 47
_symmetry_cell_setting 'orthorhombic'
loop_
_space_group_symop_operation_xyz
x,y,z
-x,-y,z
x,-y,-z
-x,y,-z
-x,-y,-z
x,y,-z
-x,y,z
x,-y,z
loop_
_atom_site_type_symbol
_atom_site_label
_atom_site_fract_x
_atom_site_fract_y
_atom_site_fract_z
Si Si1 0.835274 0.723254 0.390139
Si Si2 0.833823 0.133998 0.105837
Si Si3 0.658624 0.638207 0.612355
Si Si4 0.334308 0.896514 0.611507
Si Si5 0.832992 0.183068 0.293869
Si Si6 0.156945 0.445857 0.895816
Si Si7 0.666713 0.551031 0.720073
Si Si8 0.835174 0.948100 0.763078
O O1 0.791035 0.734250 0.500000
O O2 0.755458 0.679026 0.347656
O O3 0.793997 0.765314 0.321750
O O4 0.000000 0.712046 0.384469
O O5 0.790217 0.173339 0.182694
O O6 0.788850 0.084800 0.149382
O O7 0.000000 0.135276 0.090958
O O8 0.762659 0.141177 0.000000
O O9 0.661995 0.639944 0.500000
O O10 0.500000 0.645607 0.652473
O O11 0.714415 0.587782 0.640916
O O12 0.314512 0.907263 0.500000
O O13 0.500000 0.893060 0.638760
O O14 0.256852 0.849158 0.636479
O O15 0.260369 0.937356 0.670432
O O16 0.000000 0.173168 0.310382
O O17 0.157145 0.500000 0.901146
O O18 0.270549 0.429396 0.818773
O O19 0.000000 0.428461 0.866855
O O20 0.198976 0.425880 0.000000
O O21 0.500000 0.548395 0.731650
O O22 0.725100 0.500000 0.693944
O O23 0.000000 0.939593 0.736392
O O24 0.808489 0.000000 0.795649
#
# Coordination Sequence:
#
# PCOD8196547 Si02
#       8
#     8   8   8   8   8   8   8   8
#     4   9  17  29  46  67  89 114 145 182 223 265
#     4   8  14  26  46  71  94 114 142 184 227 262
#     4   9  18  31  45  63  89 120 152 184 218 260
#     4  10  20  31  44  65  92 120 149 184 227 271
#     4   9  17  30  49  71  92 115 145 181 222 268
#     4   8  14  25  41  61  84 109 138 175 220 264
#     4   9  17  28  43  64  88 116 151 188 225 263
#     4   9  18  31  46  65  89 120 157 191 224 264
#
# _framework density 16.592376000000002
#
# number of rings (size 3 to 8) (size 9 to 14) (size 15 to 20)
#    0.000    3.125    0.000    1.875    0.000    3.750 
#    0.000    6.250    0.000    6.750    0.000    8.750 
#    0.000    0.000    0.000    0.000    0.000    0.000 
#
# Total GULP energy -793079.722025 kJ/mol
# GULP energy per Si atom -12391.870657 kJ/mol
# Density = 1.655461 g / cm^3
# Si number density = 16.592376 Si / 1000 Ang^3
#
#
#
# Elastic Constant Matrix: (Units=GPa)
#
#
# Indices 1 2 3 4 5 6 
#
# 1 39.7358 36.7382 28.8325 0.0000 0.0000 0.0000
# 2 36.7382 121.7792 51.3883 0.0000 0.0000 0.0000
# 3 28.8325 51.3883 83.6612 0.0000 0.0000 0.0000
# 4 0.0000 0.0000 0.0000 17.8872 0.0000 0.0000
# 5 0.0000 0.0000 0.0000 0.0000 18.0433 0.0000
# 6 0.0000 0.0000 0.0000 0.0000 0.0000 21.9876
#
#
#
# Elastic Compliance Matrix: (Units=1/GPa)
#
#
# Indices 1 2 3 4 5 6 
#
# 1 0.038781 -0.008180 -0.008341 0.000000 0.000000 0.000000
# 2 -0.008180 0.012810 -0.005049 0.000000 0.000000 0.000000
# 3 -0.008341 -0.005049 0.017929 0.000000 0.000000 0.000000
# 4 0.000000 0.000000 0.000000 0.055906 0.000000 0.000000
# 5 0.000000 0.000000 0.000000 0.000000 0.055422 0.000000
# 6 0.000000 0.000000 0.000000 0.000000 0.000000 0.045480
#
#
# Mechanical properties :
#
#
# Convention : Reuss Voigt Hill
#
# Bulk Modulus (GPa) = 37.90749 53.23271 45.57010
# Shear Modulus (GPa) = 17.96867 20.13144 19.05005
#
# Velocity S-wave (km/s) = 3.29439 3.48702 3.39207
# Velocity P-wave (km/s) = 6.11282 6.95447 6.54718
#
# Compressibility (1/GPa) = 0.02638001
#
# Stress axis : x y z
#
# Youngs Moduli (GPa) = 25.78569 78.06408 55.77511
#
# Poissons Ratio (x) = 0.63854 0.46522
# Poissons Ratio (y) = 0.21092 0.28163
# Poissons Ratio (z) = 0.21508 0.39418
#
# Static dielectric constant tensor:
#      x y z
#    x 3.108910 0.000000 0.000000 
#    y 0.000000 3.134490 0.000000 
#    z 0.000000 0.000000 3.341330 
# 
# 
# High freq. dielectric constant tensor:
#      x y z
#    x 1.624280 0.000000 0.000000 
#    y 0.000000 1.624700 0.000000 
#    z 0.000000 0.000000 1.629800 
# 
# From -- ./inp_files/22163.got.cif
#   From: 2010.03.12/outbox.cif.g09.slc.cpg/sg47_12_cif.got.tgz:22163.got - 2010.04.14 03:12:58.
