data_PCOD8196005
_publ_section_title
;
Structure prediction by ZEFSAII (Michael W. Deem and Ramdas Pophale) SiO2 
 PCOD8196005
Probable space group: P M M M
;
_chemical_formula_sum "Si O2"
_cell_formula_units_Z 52
_cell_length_a 30.358794
_cell_length_b 9.213566
_cell_length_c 10.910662
_cell_angle_alpha 90.000000
_cell_angle_beta 90.000000
_cell_angle_gamma 90.000000
_cell_volume 3051.851296
_symmetry_space_group_name_H-M "P M M M"
_symmetry_group_IT_number 47
_symmetry_cell_setting 'orthorhombic'
loop_
_space_group_symop_operation_xyz
x,y,z
-x,-y,z
x,-y,-z
-x,y,-z
-x,-y,-z
x,y,-z
-x,y,z
x,-y,z
loop_
_atom_site_type_symbol
_atom_site_label
_atom_site_fract_x
_atom_site_fract_y
_atom_site_fract_z
Si Si1 0.672793 0.170621 0.358667
Si Si2 0.949539 0.828479 0.500000
Si Si3 0.583945 0.662460 0.355910
Si Si4 0.738082 0.828990 0.139803
Si Si5 0.000000 0.328484 0.131469
Si Si6 0.500000 0.835665 0.353527
Si Si7 0.173691 0.335754 0.140817
Si Si8 0.914992 0.671195 0.275174
O O1 0.688261 0.208542 0.500000
O O2 0.628504 0.254036 0.323888
O O3 0.706371 0.221360 0.251443
O O4 0.663496 0.000000 0.349845
O O5 0.919851 0.768850 0.392381
O O6 0.000000 0.766937 0.500000
O O7 0.950839 0.000000 0.500000
O O8 0.577709 0.650683 0.500000
O O9 0.585059 0.500000 0.299018
O O10 0.542879 0.752449 0.301318
O O11 0.785353 0.764873 0.174107
O O12 0.742362 0.000000 0.141073
O O13 0.723482 0.778903 0.000000
O O14 0.955576 0.275336 0.193815
O O15 0.000000 0.500000 0.122009
O O16 0.000000 0.253816 0.000000
O O17 0.500000 0.838169 0.500000
O O18 0.500000 0.000000 0.302665
O O19 0.187033 0.500000 0.174103
O O20 0.131213 0.285319 0.215565
O O21 0.160227 0.322271 0.000000
O O22 0.917591 0.500000 0.304636
#
# Coordination Sequence:
#
# PCOD8196005 Si02
#       8
#     8   4   8   8   4   4   8   8
#     4   9  17  30  47  67  93 125 162 202 242 287
#     4  11  23  37  51  69  99 133 163 195 231 274
#     4   9  16  25  39  62  93 126 160 201 248 292
#     4   9  18  33  52  72  96 129 166 200 240 294
#     4   9  16  27  49  78  98 117 152 195 234 277
#     4   9  15  23  37  59  90 129 168 201 238 288
#     4   9  18  33  53  77 101 122 151 196 244 286
#     4  10  19  33  54  75  97 126 160 194 232 281
#
# _framework density 17.038837999999998
#
# number of rings (size 3 to 8) (size 9 to 14) (size 15 to 20)
#    0.000    2.692    0.769    1.385    0.000    6.154 
#    1.385    0.000    0.000    1.846    0.000    0.538 
#    0.000    4.308    0.000    0.000    0.000    0.000 
#
# Total GULP energy -644373.494585 kJ/mol
# GULP energy per Si atom -12391.797973 kJ/mol
# Density = 1.700006 g / cm^3
# Si number density = 17.038838 Si / 1000 Ang^3
#
#
#
# Elastic Constant Matrix: (Units=GPa)
#
#
# Indices 1 2 3 4 5 6 
#
# 1 143.3014 50.2526 71.1743 0.0000 0.0000 0.0000
# 2 50.2526 51.6999 34.0698 0.0000 0.0000 0.0000
# 3 71.1743 34.0698 99.2125 0.0000 0.0000 0.0000
# 4 0.0000 0.0000 0.0000 -3.9870 0.0000 0.0000
# 5 0.0000 0.0000 0.0000 0.0000 15.0557 0.0000
# 6 0.0000 0.0000 0.0000 0.0000 0.0000 31.2213
#
#
#
# Elastic Compliance Matrix: (Units=1/GPa)
#
#
# Indices 1 2 3 4 5 6 
#
# 1 0.013230 -0.008537 -0.006559 0.000000 0.000000 0.000000
# 2 -0.008537 0.030509 -0.004352 0.000000 0.000000 0.000000
# 3 -0.006559 -0.004352 0.016280 0.000000 0.000000 0.000000
# 4 0.000000 0.000000 0.000000 -0.250818 0.000000 0.000000
# 5 0.000000 0.000000 0.000000 0.000000 0.066420 0.000000
# 6 0.000000 0.000000 0.000000 0.000000 0.000000 0.032029
#
#
# Mechanical properties :
#
#
# Convention : Reuss Voigt Hill
#
# Bulk Modulus (GPa) = 47.34701 67.24524 57.29612
# Shear Modulus (GPa) = -107.72999 17.70582 -45.01209
#
# Velocity S-wave (km/s) = -7.96011 3.22707 -5.14536
# Velocity P-wave (km/s) = 7.52572 7.31005 1.26484
#
# Compressibility (1/GPa) = 0.02112066
#
# Stress axis : x y z
#
# Youngs Moduli (GPa) = 75.58605 32.77767 61.42622
#
# Poissons Ratio (x) = 0.27982 0.40292
# Poissons Ratio (y) = 0.64528 0.26735
# Poissons Ratio (z) = 0.49580 0.14266
#
# Static dielectric constant tensor:
#      x y z
#    x 3.228590 0.000000 0.000000 
#    y 0.000000 3.152210 0.000000 
#    z 0.000000 0.000000 3.065550 
# 
# 
# High freq. dielectric constant tensor:
#      x y z
#    x 1.659980 0.000000 0.000000 
#    y 0.000000 1.651710 0.000000 
#    z 0.000000 0.000000 1.632460 
# 
# From -- ./inp_files/19872.got.cif
#   From: 2010.03.12/outbox.cif.g09.slc.cpg/sg47_10_cif.got.tgz:19872.got - 2010.04.14 03:12:58.
