data_PCOD8196821
_publ_section_title
;
Structure prediction by ZEFSAII (Michael W. Deem and Ramdas Pophale) SiO2 
 PCOD8196821
Probable space group: P M M M
;
_chemical_formula_sum "Si O2"
_cell_formula_units_Z 52
_cell_length_a 10.474931
_cell_length_b 30.189958
_cell_length_c 9.209111
_cell_angle_alpha 90.000000
_cell_angle_beta 90.000000
_cell_angle_gamma 90.000000
_cell_volume 2912.268330
_symmetry_space_group_name_H-M "P M M M"
_symmetry_group_IT_number 47
_symmetry_cell_setting 'orthorhombic'
loop_
_space_group_symop_operation_xyz
x,y,z
-x,-y,z
x,-y,-z
-x,y,-z
-x,-y,-z
x,y,-z
-x,y,z
x,-y,z
loop_
_atom_site_type_symbol
_atom_site_label
_atom_site_fract_x
_atom_site_fract_y
_atom_site_fract_z
Si Si1 0.144970 0.108620 0.327561
Si Si2 0.847255 0.290469 0.162755
Si Si3 0.854998 0.627245 0.340167
Si Si4 0.644067 0.051849 0.832247
Si Si5 0.750623 0.551215 0.828913
Si Si6 0.500000 0.447675 0.662579
Si Si7 0.150684 0.792530 0.660531
O O1 0.151030 0.104806 0.500000
O O2 0.248062 0.075946 0.260246
O O3 0.182541 0.158517 0.278869
O O4 0.000000 0.097090 0.275278
O O5 0.790286 0.332065 0.253263
O O6 0.794100 0.244976 0.232634
O O7 0.000000 0.291242 0.160549
O O8 0.793026 0.293735 0.000000
O O9 0.790569 0.620743 0.500000
O O10 0.855961 0.582150 0.245107
O O11 0.000000 0.640568 0.365095
O O12 0.500000 0.066053 0.784968
O O13 0.661481 0.000000 0.805360
O O14 0.665143 0.063751 0.000000
O O15 0.781852 0.500000 0.794475
O O16 0.620961 0.568042 0.754330
O O17 0.743199 0.559261 0.000000
O O18 0.500000 0.500000 0.651480
O O19 0.500000 0.427136 0.500000
O O20 0.210538 0.785781 0.500000
O O21 0.000000 0.787308 0.648085
#
# Coordination Sequence:
#
# PCOD8196821 Si02
#       7
#     8   8   8   8   8   4   8
#     4   9  18  31  48  74 104 130 161 205 254 301
#     4   9  16  26  42  65  92 121 155 193 231 276
#     4  10  20  32  46  66  94 128 162 193 230 281
#     4   9  19  35  51  68  95 133 175 214 251 296
#     4  10  20  33  49  69  93 120 152 193 238 280
#     4   9  17  31  51  71  89 111 145 187 227 271
#     4   8  14  26  43  64  93 124 151 185 233 285
#
# _framework density 17.855497
#
# number of rings (size 3 to 8) (size 9 to 14) (size 15 to 20)
#    0.000    2.846    0.000    3.000    0.000    6.769 
#    0.000    5.385    0.000    0.000    2.000    0.000 
#    0.000    0.000    0.000    0.000    0.000    0.000 
#
# Total GULP energy -644444.725784 kJ/mol
# GULP energy per Si atom -12393.167804 kJ/mol
# Density = 1.781486 g / cm^3
# Si number density = 17.855497 Si / 1000 Ang^3
#
#
#
# Elastic Constant Matrix: (Units=GPa)
#
#
# Indices 1 2 3 4 5 6 
#
# 1 53.0118 39.2896 32.7438 0.0000 0.0000 0.0000
# 2 39.2896 103.0787 61.0829 0.0000 0.0000 0.0000
# 3 32.7438 61.0829 116.2886 0.0000 0.0000 0.0000
# 4 0.0000 0.0000 0.0000 34.2079 0.0000 0.0000
# 5 0.0000 0.0000 0.0000 0.0000 24.8565 0.0000
# 6 0.0000 0.0000 0.0000 0.0000 0.0000 2.8642
#
#
#
# Elastic Compliance Matrix: (Units=1/GPa)
#
#
# Indices 1 2 3 4 5 6 
#
# 1 0.027087 -0.008428 -0.003200 0.000000 0.000000 0.000000
# 2 -0.008428 0.016708 -0.006403 0.000000 0.000000 0.000000
# 3 -0.003200 -0.006403 0.012864 0.000000 0.000000 0.000000
# 4 0.000000 0.000000 0.000000 0.029233 0.000000 0.000000
# 5 0.000000 0.000000 0.000000 0.000000 0.040231 0.000000
# 6 0.000000 0.000000 0.000000 0.000000 0.000000 0.349134
#
#
# Mechanical properties :
#
#
# Convention : Reuss Voigt Hill
#
# Bulk Modulus (GPa) = 48.55262 59.84574 54.19918
# Shear Modulus (GPa) = 9.64908 21.66991 15.65949
#
# Velocity S-wave (km/s) = 2.32717 3.48749 2.96465
# Velocity P-wave (km/s) = 5.87128 7.05736 6.49147
#
# Compressibility (1/GPa) = 0.02059621
#
# Stress axis : x y z
#
# Youngs Moduli (GPa) = 36.91839 59.85055 77.73825
#
# Poissons Ratio (x) = 0.50444 0.24875
# Poissons Ratio (y) = 0.31116 0.49777
# Poissons Ratio (z) = 0.11813 0.38323
#
# Static dielectric constant tensor:
#      x y z
#    x 2.968260 0.000000 0.000000 
#    y 0.000000 3.366610 0.000000 
#    z 0.000000 0.000000 3.502810 
# 
# 
# High freq. dielectric constant tensor:
#      x y z
#    x 1.641170 0.000000 0.000000 
#    y 0.000000 1.690720 0.000000 
#    z 0.000000 0.000000 1.701110 
# 
# From -- ./inp_files/4572.got.cif
#   From: 2010.03.12/outbox.cif.g09.slc.cpg/sg47_3_cif.got.tgz:4572.got - 2010.04.14 03:12:58.
