data_PCOD8196001
_publ_section_title
;
Structure prediction by ZEFSAII (Michael W. Deem and Ramdas Pophale) SiO2 
 PCOD8196001
Probable space group: P M M M
;
_chemical_formula_sum "Si O2"
_cell_formula_units_Z 44
_cell_length_a 9.362429
_cell_length_b 13.738018
_cell_length_c 19.054163
_cell_angle_alpha 90.000000
_cell_angle_beta 90.000000
_cell_angle_gamma 90.000000
_cell_volume 2450.769655
_symmetry_space_group_name_H-M "P M M M"
_symmetry_group_IT_number 47
_symmetry_cell_setting 'orthorhombic'
loop_
_space_group_symop_operation_xyz
x,y,z
-x,-y,z
x,-y,-z
-x,y,-z
-x,-y,-z
x,y,-z
-x,y,z
x,-y,z
loop_
_atom_site_type_symbol
_atom_site_label
_atom_site_fract_x
_atom_site_fract_y
_atom_site_fract_z
Si Si1 0.337200 0.889183 0.312508
Si Si2 0.670105 0.394412 0.186820
Si Si3 0.670416 0.000000 0.080276
Si Si4 0.332560 0.813386 0.837843
Si Si5 0.165766 0.771992 0.581318
Si Si6 0.338249 0.609625 0.346539
O O1 0.500000 0.870597 0.335743
O O2 0.297912 0.826982 0.244042
O O3 0.234579 0.860850 0.376029
O O4 0.311621 0.000000 0.291589
O O5 0.500000 0.395797 0.185764
O O6 0.725357 0.500000 0.156197
O O7 0.723972 0.297372 0.144016
O O8 0.720837 0.385270 0.267204
O O9 0.735354 0.901195 0.115902
O O10 0.500000 0.000000 0.088228
O O11 0.719725 0.000000 0.000000
O O12 0.500000 0.817896 0.851832
O O13 0.192083 0.793200 0.500000
O O14 0.238916 0.671199 0.602447
O O15 0.000000 0.765264 0.599735
O O16 0.500000 0.650773 0.349494
O O17 0.333639 0.500000 0.374835
#
# Coordination Sequence:
#
# PCOD8196001 Si02
#       6
#     8   8   4   8   8   8
#     4  10  19  33  54  74  89 115 164 217 254 289
#     4   8  13  22  41  68  91 114 151 200 247 283
#     4   9  16  24  38  68 106 135 156 186 239 299
#     4   9  14  24  44  68  94 123 156 198 242 285
#     4  11  24  37  47  64  96 134 164 198 254 316
#     4   9  17  31  52  74  93 119 162 213 256 294
#
# _framework density 17.953543
#
# number of rings (size 3 to 8) (size 9 to 14) (size 15 to 20)
#    0.000    2.636    2.727    1.636    0.000    2.909 
#    0.000    3.636    0.000    0.545    0.000    3.818 
#    0.000    1.455    0.000    0.000    0.000    5.818 
#
# Total GULP energy -545115.252511 kJ/mol
# GULP energy per Si atom -12388.983012 kJ/mol
# Density = 1.791268 g / cm^3
# Si number density = 17.953543 Si / 1000 Ang^3
#
#
#
# Elastic Constant Matrix: (Units=GPa)
#
#
# Indices 1 2 3 4 5 6 
#
# 1 37.9380 23.7771 23.2063 0.0000 0.0000 0.0000
# 2 23.7771 169.3251 47.3801 0.0000 0.0000 0.0000
# 3 23.2063 47.3801 49.9625 0.0000 0.0000 0.0000
# 4 0.0000 0.0000 0.0000 18.9216 0.0000 0.0000
# 5 0.0000 0.0000 0.0000 0.0000 0.0966 0.0000
# 6 0.0000 0.0000 0.0000 0.0000 0.0000 5.7115
#
#
#
# Elastic Compliance Matrix: (Units=1/GPa)
#
#
# Indices 1 2 3 4 5 6 
#
# 1 0.036854 -0.000524 -0.016620 0.000000 0.000000 0.000000
# 2 -0.000524 0.008046 -0.007387 0.000000 0.000000 0.000000
# 3 -0.016620 -0.007387 0.034740 0.000000 0.000000 0.000000
# 4 0.000000 0.000000 0.000000 0.052850 0.000000 0.000000
# 5 0.000000 0.000000 0.000000 0.000000 10.353470 0.000000
# 6 0.000000 0.000000 0.000000 0.000000 0.000000 0.175086
#
#
# Mechanical properties :
#
#
# Convention : Reuss Voigt Hill
#
# Bulk Modulus (GPa) = 32.70459 49.55029 41.12744
# Shear Modulus (GPa) = 0.46640 15.80340 8.13490
#
# Velocity S-wave (km/s) = 0.51024 2.97010 2.13094
# Velocity P-wave (km/s) = 4.31311 6.27862 5.38628
#
# Compressibility (1/GPa) = 0.03057675
#
# Stress axis : x y z
#
# Youngs Moduli (GPa) = 27.13409 124.27858 28.78536
#
# Poissons Ratio (x) = 0.06518 0.47842
# Poissons Ratio (y) = 0.01423 0.21264
# Poissons Ratio (z) = 0.45098 0.91804
#
# Static dielectric constant tensor:
#      x y z
#    x 2.801710 0.000000 0.000000 
#    y 0.000000 3.870640 0.000000 
#    z 0.000000 0.000000 3.034300 
# 
# 
# High freq. dielectric constant tensor:
#      x y z
#    x 1.631430 0.000000 0.000000 
#    y 0.000000 1.727010 0.000000 
#    z 0.000000 0.000000 1.659440 
# 
# From -- ./inp_files/8991.got.cif
#   From: 2010.03.12/outbox.cif.g09.slc.cpg/sg47_5_cif.got.tgz:8991.got - 2010.04.14 03:12:58.
