data_PCOD8196459
_publ_section_title
;
Structure prediction by ZEFSAII (Michael W. Deem and Ramdas Pophale) SiO2 
 PCOD8196459
Probable space group: P M M M
;
_chemical_formula_sum "Si O2"
_cell_formula_units_Z 56
_cell_length_a 17.941250
_cell_length_b 9.298204
_cell_length_c 27.575461
_cell_angle_alpha 90.000000
_cell_angle_beta 90.000000
_cell_angle_gamma 90.000000
_cell_volume 4600.177079
_symmetry_space_group_name_H-M "P M M M"
_symmetry_group_IT_number 47
_symmetry_cell_setting 'orthorhombic'
loop_
_space_group_symop_operation_xyz
x,y,z
-x,-y,z
x,-y,-z
-x,y,-z
-x,-y,-z
x,y,-z
-x,y,z
x,-y,z
loop_
_atom_site_type_symbol
_atom_site_label
_atom_site_fract_x
_atom_site_fract_y
_atom_site_fract_z
Si Si1 0.413685 0.830247 0.800407
Si Si2 0.917704 0.339162 0.057511
Si Si3 0.589395 0.338861 0.396309
Si Si4 0.500000 0.670317 0.946072
Si Si5 0.645487 0.328180 0.889093
Si Si6 0.776365 0.833630 0.057391
Si Si7 0.588494 0.841384 0.307476
Si Si8 0.417716 0.671755 0.500000
O O1 0.500000 0.791923 0.810237
O O2 0.361050 0.737554 0.835399
O O3 0.390616 0.782304 0.745879
O O4 0.400344 0.000000 0.807894
O O5 0.897361 0.500000 0.076180
O O6 0.856855 0.223777 0.075404
O O7 0.000000 0.294426 0.076951
O O8 0.919150 0.340494 0.000000
O O9 0.500000 0.332180 0.397421
O O10 0.617300 0.500000 0.388066
O O11 0.623256 0.251286 0.351171
O O12 0.620748 0.280337 0.448827
O O13 0.500000 0.500000 0.948793
O O14 0.426840 0.724587 0.918567
O O15 0.500000 0.737141 0.000000
O O16 0.652433 0.500000 0.886429
O O17 0.716160 0.263177 0.915817
O O18 0.768610 0.000000 0.072388
O O19 0.766109 0.813040 0.000000
O O20 0.500000 0.845509 0.311788
O O21 0.621848 0.000000 0.313637
O O22 0.423610 0.500000 0.500000
O O23 0.500000 0.739584 0.500000
#
# Coordination Sequence:
#
# PCOD8196459 Si02
#       8
#     8   8   8   4   8   8   8   4
#     4   9  17  29  41  50  64  84 105 135 174 211
#     4   8  14  26  44  63  80  97 115 133 155 185
#     4   8  12  18  28  41  55  73  95 120 147 182
#     4   9  18  30  41  53  67  83 105 136 173 206
#     4  11  20  30  43  56  70  88 113 144 174 205
#     4  10  20  31  42  58  78  97 115 134 161 199
#     4   8  14  23  33  44  58  76  96 122 159 197
#     4   7  10  16  25  37  55  75  93 113 145 183
#
# _framework density 12.173444999999999
#
# number of rings (size 3 to 8) (size 9 to 14) (size 15 to 20)
#    0.000    3.143    0.714    3.429    0.000    2.286 
#    0.000    3.214    0.000    3.857    0.000    0.000 
#    0.000    0.000    0.000    0.000    0.000    0.000 
#
# Total GULP energy -693791.811798 kJ/mol
# GULP energy per Si atom -12389.139496 kJ/mol
# Density = 1.214574 g / cm^3
# Si number density = 12.173445 Si / 1000 Ang^3
#
#
#
# Elastic Constant Matrix: (Units=GPa)
#
#
# Indices 1 2 3 4 5 6 
#
# 1 51.3484 27.3017 25.3414 0.0000 0.0000 0.0000
# 2 27.3017 58.7018 40.2686 0.0000 0.0000 0.0000
# 3 25.3414 40.2686 90.2800 0.0000 0.0000 0.0000
# 4 0.0000 0.0000 0.0000 18.9907 0.0000 0.0000
# 5 0.0000 0.0000 0.0000 0.0000 1.0762 0.0000
# 6 0.0000 0.0000 0.0000 0.0000 0.0000 13.9708
#
#
#
# Elastic Compliance Matrix: (Units=1/GPa)
#
#
# Indices 1 2 3 4 5 6 
#
# 1 0.026349 -0.010347 -0.002781 0.000000 0.000000 0.000000
# 2 -0.010347 0.028609 -0.009856 0.000000 0.000000 0.000000
# 3 -0.002781 -0.009856 0.016254 0.000000 0.000000 0.000000
# 4 0.000000 0.000000 0.000000 0.052657 0.000000 0.000000
# 5 0.000000 0.000000 0.000000 0.000000 0.929196 0.000000
# 6 0.000000 0.000000 0.000000 0.000000 0.000000 0.071578
#
#
# Mechanical properties :
#
#
# Convention : Reuss Voigt Hill
#
# Bulk Modulus (GPa) = 39.61528 42.90594 41.26061
# Shear Modulus (GPa) = 4.24079 13.96878 9.10479
#
# Velocity S-wave (km/s) = 1.86848 3.39112 2.73778
# Velocity P-wave (km/s) = 6.10475 7.11723 6.63034
#
# Compressibility (1/GPa) = 0.02524279
#
# Stress axis : x y z
#
# Youngs Moduli (GPa) = 37.95271 34.95424 61.52493
#
# Poissons Ratio (x) = 0.36167 0.17109
# Poissons Ratio (y) = 0.39269 0.60641
# Poissons Ratio (z) = 0.10554 0.34452
#
# Static dielectric constant tensor:
#      x y z
#    x 2.254220 0.000000 0.000000 
#    y 0.000000 2.548760 0.000000 
#    z 0.000000 0.000000 2.648950 
# 
# 
# High freq. dielectric constant tensor:
#      x y z
#    x 1.406100 0.000000 0.000000 
#    y 0.000000 1.461620 0.000000 
#    z 0.000000 0.000000 1.453660 
# 
# From -- ./inp_files/34640.got.cif
#   From: 2010.03.12/outbox.cif.g09.slc.cpg/sg47_18_cif.got.tgz:34640.got - 2010.04.14 03:12:58.
