data_PCOD8196842
_publ_section_title
;
Structure prediction by ZEFSAII (Michael W. Deem and Ramdas Pophale) SiO2 
 PCOD8196842
Probable space group: P M M M
;
_chemical_formula_sum "Si O2"
_cell_formula_units_Z 52
_cell_length_a 24.696297
_cell_length_b 9.064197
_cell_length_c 13.398645
_cell_angle_alpha 90.000000
_cell_angle_beta 90.000000
_cell_angle_gamma 90.000000
_cell_volume 2999.314836
_symmetry_space_group_name_H-M "P M M M"
_symmetry_group_IT_number 47
_symmetry_cell_setting 'orthorhombic'
loop_
_space_group_symop_operation_xyz
x,y,z
-x,-y,z
x,-y,-z
-x,y,-z
-x,-y,-z
x,y,-z
-x,y,z
x,-y,z
loop_
_atom_site_type_symbol
_atom_site_label
_atom_site_fract_x
_atom_site_fract_y
_atom_site_fract_z
Si Si1 0.281924 0.164969 0.616037
Si Si2 0.651140 0.674480 0.761991
Si Si3 0.133287 0.673993 0.181496
Si Si4 0.562864 0.170290 0.886468
Si Si5 0.247995 0.324728 0.110033
Si Si6 0.829956 0.326288 0.388149
Si Si7 0.938913 0.323662 0.000000
O O1 0.291594 0.157151 0.500000
O O2 0.335183 0.250168 0.656502
O O3 0.226553 0.251078 0.640549
O O4 0.277757 0.000000 0.661001
O O5 0.648039 0.500000 0.750279
O O6 0.595276 0.729738 0.808764
O O7 0.700875 0.732338 0.828990
O O8 0.131654 0.500000 0.167621
O O9 0.192035 0.737750 0.153605
O O10 0.125676 0.714107 0.300641
O O11 0.089428 0.738243 0.102275
O O12 0.500000 0.197684 0.864798
O O13 0.577878 0.000000 0.869902
O O14 0.576781 0.217508 0.000000
O O15 0.246615 0.500000 0.110025
O O16 0.255007 0.260421 0.000000
O O17 0.850264 0.278363 0.500000
O O18 0.818586 0.500000 0.385753
O O19 0.937789 0.500000 0.000000
O O20 0.000000 0.263268 0.000000
#
# Coordination Sequence:
#
# PCOD8196842 Si02
#       7
#     8   8   8   8   8   8   4
#     4  10  20  32  46  67  97 129 159 196 244 298
#     4  11  20  30  48  73  98 126 162 201 243 293
#     4   9  14  23  38  58  88 122 155 194 235 280
#     4   9  19  36  54  71  97 134 168 198 240 291
#     4   9  15  23  37  62  92 120 147 184 236 283
#     4   9  16  27  44  65  89 121 159 195 241 299
#     4   9  16  24  38  62  93 131 168 199 234 282
#
# _framework density 17.337292999999999
#
# number of rings (size 3 to 8) (size 9 to 14) (size 15 to 20)
#    0.000    2.538    2.308    1.846    0.000    2.154 
#    0.000    0.769    0.000    0.923    0.000    6.462 
#    0.000    1.231    0.000    3.846    0.000    4.000 
#
# Total GULP energy -644270.673663 kJ/mol
# GULP energy per Si atom -12389.820647 kJ/mol
# Density = 1.729783 g / cm^3
# Si number density = 17.337293 Si / 1000 Ang^3
#
#
#
# Elastic Constant Matrix: (Units=GPa)
#
#
# Indices 1 2 3 4 5 6 
#
# 1 83.7399 25.9059 50.8957 0.0000 0.0000 0.0000
# 2 25.9059 50.2270 31.9069 0.0000 0.0000 0.0000
# 3 50.8957 31.9069 99.5203 0.0000 0.0000 0.0000
# 4 0.0000 0.0000 0.0000 17.1696 0.0000 0.0000
# 5 0.0000 0.0000 0.0000 0.0000 23.3810 0.0000
# 6 0.0000 0.0000 0.0000 0.0000 0.0000 9.7316
#
#
#
# Elastic Compliance Matrix: (Units=1/GPa)
#
#
# Indices 1 2 3 4 5 6 
#
# 1 0.018046 -0.004326 -0.007842 0.000000 0.000000 0.000000
# 2 -0.004326 0.026039 -0.006136 0.000000 0.000000 0.000000
# 3 -0.007842 -0.006136 0.016026 0.000000 0.000000 0.000000
# 4 0.000000 0.000000 0.000000 0.058242 0.000000 0.000000
# 5 0.000000 0.000000 0.000000 0.000000 0.042770 0.000000
# 6 0.000000 0.000000 0.000000 0.000000 0.000000 0.102758
#
#
# Mechanical properties :
#
#
# Convention : Reuss Voigt Hill
#
# Bulk Modulus (GPa) = 42.54787 50.10048 46.32418
# Shear Modulus (GPa) = 16.21671 18.37502 17.29586
#
# Velocity S-wave (km/s) = 3.06169 3.25907 3.16192
# Velocity P-wave (km/s) = 6.09041 6.56676 6.33307
#
# Compressibility (1/GPa) = 0.02350294
#
# Stress axis : x y z
#
# Youngs Moduli (GPa) = 55.41271 38.40435 62.39900
#
# Poissons Ratio (x) = 0.16614 0.48934
# Poissons Ratio (y) = 0.23973 0.38286
# Poissons Ratio (z) = 0.43455 0.23564
#
# Static dielectric constant tensor:
#      x y z
#    x 3.075990 0.000000 0.000000 
#    y 0.000000 2.945920 0.000000 
#    z 0.000000 0.000000 3.602170 
# 
# 
# High freq. dielectric constant tensor:
#      x y z
#    x 1.637910 0.000000 0.000000 
#    y 0.000000 1.634610 0.000000 
#    z 0.000000 0.000000 1.683670 
# 
# From -- ./inp_files/25399.got.cif
#   From: 2010.03.12/outbox.cif.g09.slc.cpg/sg47_13_cif.got.tgz:25399.got - 2010.04.14 03:12:58.
