data_PCOD8196034
_publ_section_title
;
Structure prediction by ZEFSAII (Michael W. Deem and Ramdas Pophale) SiO2 
 PCOD8196034
Probable space group: P M M M
;
_chemical_formula_sum "Si O2"
_cell_formula_units_Z 48
_cell_length_a 28.823804
_cell_length_b 9.053666
_cell_length_c 10.007853
_cell_angle_alpha 90.000000
_cell_angle_beta 90.000000
_cell_angle_gamma 90.000000
_cell_volume 2611.660270
_symmetry_space_group_name_H-M "P M M M"
_symmetry_group_IT_number 47
_symmetry_cell_setting 'orthorhombic'
loop_
_space_group_symop_operation_xyz
x,y,z
-x,-y,z
x,-y,-z
-x,y,-z
-x,-y,-z
x,y,-z
-x,y,z
x,-y,z
loop_
_atom_site_type_symbol
_atom_site_label
_atom_site_fract_x
_atom_site_fract_y
_atom_site_fract_z
Si Si1 0.448963 0.175121 0.000000
Si Si2 0.297510 0.675140 0.844361
Si Si3 0.051695 0.674526 0.149738
Si Si4 0.119575 0.830067 0.349280
Si Si5 0.772453 0.171330 0.347212
Si Si6 0.552579 0.175228 0.500000
Si Si7 0.389579 0.824655 0.246556
O O1 0.421393 0.231592 0.126977
O O2 0.500000 0.246458 0.000000
O O3 0.453029 0.000000 0.000000
O O4 0.300684 0.500000 0.836670
O O5 0.252675 0.729389 0.763587
O O6 0.340532 0.745407 0.765667
O O7 0.295545 0.727250 0.000000
O O8 0.053939 0.500000 0.154064
O O9 0.089720 0.734530 0.249470
O O10 0.000000 0.727969 0.191374
O O11 0.062901 0.730800 0.000000
O O12 0.106473 0.784616 0.500000
O O13 0.173488 0.799528 0.323785
O O14 0.107825 0.000000 0.324178
O O15 0.758669 0.215159 0.500000
O O16 0.759966 0.000000 0.323665
O O17 0.500000 0.241226 0.500000
O O18 0.582343 0.230467 0.374959
O O19 0.548315 0.000000 0.500000
O O20 0.381200 0.000000 0.246705
#
# Coordination Sequence:
#
# PCOD8196034 Si02
#       7
#     4   8   8   8   8   4   8
#     4   9  16  28  51  79 103 133 175 219 260 303
#     4  11  24  39  54  77 111 145 179 220 266 319
#     4   9  19  35  53  76 110 151 191 228 266 313
#     4   9  19  36  56  81 111 140 175 224 278 328
#     4   9  20  39  61  82 106 138 178 224 274 327
#     4   9  18  32  53  83 111 133 167 217 266 311
#     4  10  19  33  54  79 107 138 173 216 263 311
#
# _framework density 18.379114000000001
#
# number of rings (size 3 to 8) (size 9 to 14) (size 15 to 20)
#    0.000    2.500    0.833    2.500    1.167    6.000 
#    0.000    7.500    0.000    3.000    0.000    0.000 
#    0.000    0.000    0.000    0.000    0.000    0.000 
#
# Total GULP energy -595080.767559 kJ/mol
# GULP energy per Si atom -12397.515991 kJ/mol
# Density = 1.833728 g / cm^3
# Si number density = 18.379114 Si / 1000 Ang^3
#
#
#
# Elastic Constant Matrix: (Units=GPa)
#
#
# Indices 1 2 3 4 5 6 
#
# 1 100.2834 35.7119 70.3846 0.0000 0.0000 0.0000
# 2 35.7119 44.4164 38.6470 0.0000 0.0000 0.0000
# 3 70.3846 38.6470 143.7098 0.0000 0.0000 0.0000
# 4 0.0000 0.0000 0.0000 32.1982 0.0000 0.0000
# 5 0.0000 0.0000 0.0000 0.0000 37.0447 0.0000
# 6 0.0000 0.0000 0.0000 0.0000 0.0000 -31.3329
#
#
#
# Elastic Compliance Matrix: (Units=1/GPa)
#
#
# Indices 1 2 3 4 5 6 
#
# 1 0.017382 -0.008574 -0.006207 0.000000 0.000000 0.000000
# 2 -0.008574 0.033622 -0.004842 0.000000 0.000000 0.000000
# 3 -0.006207 -0.004842 0.011301 0.000000 0.000000 0.000000
# 4 0.000000 0.000000 0.000000 0.031058 0.000000 0.000000
# 5 0.000000 0.000000 0.000000 0.000000 0.026994 0.000000
# 6 0.000000 0.000000 0.000000 0.000000 0.000000 -0.031915
#
#
# Mechanical properties :
#
#
# Convention : Reuss Voigt Hill
#
# Bulk Modulus (GPa) = 43.37184 64.21074 53.79129
# Shear Modulus (GPa) = 36.93479 17.15972 27.04725
#
# Velocity S-wave (km/s) = 4.48773 3.05889 3.84034
# Velocity P-wave (km/s) = 7.10652 6.89118 6.99968
#
# Compressibility (1/GPa) = 0.02305644
#
# Stress axis : x y z
#
# Youngs Moduli (GPa) = 57.53164 29.74286 88.49005
#
# Poissons Ratio (x) = 0.25503 0.54927
# Poissons Ratio (y) = 0.49330 0.42848
# Poissons Ratio (z) = 0.35711 0.14402
#
# Static dielectric constant tensor:
#      x y z
#    x 3.553290 0.000000 0.000000 
#    y 0.000000 3.068930 0.000000 
#    z 0.000000 0.000000 3.561010 
# 
# 
# High freq. dielectric constant tensor:
#      x y z
#    x 1.723210 0.000000 0.000000 
#    y 0.000000 1.683630 0.000000 
#    z 0.000000 0.000000 1.724580 
# 
# From -- ./inp_files/13866.got.cif
#   From: 2010.03.12/outbox.cif.g09.slc.cpg/sg47_7_cif.got.tgz:13866.got - 2010.04.14 03:12:58.
