data_PCOD8196529
_publ_section_title
;
Structure prediction by ZEFSAII (Michael W. Deem and Ramdas Pophale) SiO2 
 PCOD8196529
Probable space group: P M M M
;
_chemical_formula_sum "Si O2"
_cell_formula_units_Z 40
_cell_length_a 25.991126
_cell_length_b 9.101259
_cell_length_c 9.494573
_cell_angle_alpha 90.000000
_cell_angle_beta 90.000000
_cell_angle_gamma 90.000000
_cell_volume 2245.959942
_symmetry_space_group_name_H-M "P M M M"
_symmetry_group_IT_number 47
_symmetry_cell_setting 'orthorhombic'
loop_
_space_group_symop_operation_xyz
x,y,z
-x,-y,z
x,-y,-z
-x,y,-z
-x,-y,-z
x,y,-z
-x,y,z
x,-y,z
loop_
_atom_site_type_symbol
_atom_site_label
_atom_site_fract_x
_atom_site_fract_y
_atom_site_fract_z
Si Si1 0.294663 0.325628 0.839512
Si Si2 0.092840 0.174360 0.344115
Si Si3 0.000000 0.824380 0.842061
Si Si4 0.389636 0.324142 0.341582
Si Si5 0.500000 0.660642 0.333024
Si Si6 0.791539 0.828894 0.663333
O O1 0.292859 0.500000 0.830804
O O2 0.345912 0.264373 0.763090
O O3 0.244823 0.264997 0.762324
O O4 0.295367 0.270036 0.000000
O O5 0.080770 0.237086 0.500000
O O6 0.050901 0.237571 0.235401
O O7 0.150308 0.219490 0.297589
O O8 0.089351 0.000000 0.350043
O O9 0.000000 0.000000 0.841621
O O10 0.000000 0.762169 0.000000
O O11 0.376447 0.270185 0.500000
O O12 0.392590 0.500000 0.339202
O O13 0.445860 0.259920 0.291457
O O14 0.500000 0.500000 0.261200
O O15 0.500000 0.641943 0.500000
O O16 0.780084 0.794003 0.500000
O O17 0.782866 0.000000 0.694627
#
# Coordination Sequence:
#
# PCOD8196529 Si02
#       6
#     8   8   4   8   4   8
#     4  10  20  31  43  64  94 124 152 181 217 265
#     4   8  14  25  40  58  82 110 139 175 218 259
#     4   9  15  21  33  57  86 113 140 169 206 256
#     4   8  13  23  40  60  83 112 145 181 219 258
#     4   7  10  18  35  59  82 105 138 179 220 258
#     4   9  18  32  49  68  88 114 152 192 226 262
#
# _framework density 17.809757999999999
#
# number of rings (size 3 to 8) (size 9 to 14) (size 15 to 20)
#    0.000    3.400    0.000    3.300    0.000    3.600 
#    0.000    2.500    0.000    3.000    0.000    1.400 
#    0.000   11.200    0.000    0.000    0.000    0.000 
#
# Total GULP energy -495608.790333 kJ/mol
# GULP energy per Si atom -12390.219758 kJ/mol
# Density = 1.776922 g / cm^3
# Si number density = 17.809758 Si / 1000 Ang^3
#
#
#
# Elastic Constant Matrix: (Units=GPa)
#
#
# Indices 1 2 3 4 5 6 
#
# 1 179.5527 14.8400 98.6513 0.0000 0.0000 0.0000
# 2 14.8400 6.7903 14.1061 0.0000 0.0000 0.0000
# 3 98.6513 14.1061 122.9268 0.0000 0.0000 0.0000
# 4 0.0000 0.0000 0.0000 15.8247 0.0000 0.0000
# 5 0.0000 0.0000 0.0000 0.0000 11.0545 0.0000
# 6 0.0000 0.0000 0.0000 0.0000 0.0000 22.5199
#
#
#
# Elastic Compliance Matrix: (Units=1/GPa)
#
#
# Indices 1 2 3 4 5 6 
#
# 1 0.010205 -0.006945 -0.007393 0.000000 0.000000 0.000000
# 2 -0.006945 0.198090 -0.017158 0.000000 0.000000 0.000000
# 3 -0.007393 -0.017158 0.016037 0.000000 0.000000 0.000000
# 4 0.000000 0.000000 0.000000 0.063192 0.000000 0.000000
# 5 0.000000 0.000000 0.000000 0.000000 0.090461 0.000000
# 6 0.000000 0.000000 0.000000 0.000000 0.000000 0.044405
#
#
# Mechanical properties :
#
#
# Convention : Reuss Voigt Hill
#
# Bulk Modulus (GPa) = 6.19808 62.71830 34.45819
# Shear Modulus (GPa) = 9.27364 21.99130 15.63247
#
# Velocity S-wave (km/s) = 2.28437 3.51777 2.96589
# Velocity P-wave (km/s) = 3.23195 7.19665 5.57841
#
# Compressibility (1/GPa) = 0.16134041
#
# Stress axis : x y z
#
# Youngs Moduli (GPa) = 97.98781 5.04821 62.35642
#
# Poissons Ratio (x) = 0.03506 0.46100
# Poissons Ratio (y) = 0.68055 1.06988
# Poissons Ratio (z) = 0.72443 0.08662
#
# Static dielectric constant tensor:
#      x y z
#    x 3.770210 0.000000 0.000000 
#    y 0.000000 2.603120 0.000000 
#    z 0.000000 0.000000 3.374960 
# 
# 
# High freq. dielectric constant tensor:
#      x y z
#    x 1.713300 0.000000 0.000000 
#    y 0.000000 1.611970 0.000000 
#    z 0.000000 0.000000 1.677770 
# 
# From -- ./inp_files/13043.got.cif
#   From: 2010.03.12/outbox.cif.g09.slc.cpg/sg47_7_cif.got.tgz:13043.got - 2010.04.14 03:12:58.
