data_PCOD8196125
_publ_section_title
;
Structure prediction by ZEFSAII (Michael W. Deem and Ramdas Pophale) SiO2 
 PCOD8196125
Probable space group: P M M M
;
_chemical_formula_sum "Si O2"
_cell_formula_units_Z 56
_cell_length_a 15.114159
_cell_length_b 8.756881
_cell_length_c 21.414966
_cell_angle_alpha 90.000000
_cell_angle_beta 90.000000
_cell_angle_gamma 90.000000
_cell_volume 2834.332677
_symmetry_space_group_name_H-M "P M M M"
_symmetry_group_IT_number 47
_symmetry_cell_setting 'orthorhombic'
loop_
_space_group_symop_operation_xyz
x,y,z
-x,-y,z
x,-y,-z
-x,y,-z
-x,-y,-z
x,y,-z
-x,y,z
x,-y,z
loop_
_atom_site_type_symbol
_atom_site_label
_atom_site_fract_x
_atom_site_fract_y
_atom_site_fract_z
Si Si1 0.896414 0.170382 0.000000
Si Si2 0.900690 0.818993 0.571201
Si Si3 0.905262 0.828741 0.228802
Si Si4 0.832082 0.675527 0.122038
Si Si5 0.396741 0.669310 0.000000
Si Si6 0.347801 0.178610 0.868193
Si Si7 0.599845 0.676107 0.740432
Si Si8 0.239315 0.821850 0.670680
O O1 0.864798 0.272823 0.944146
O O2 0.000000 0.151487 0.000000
O O3 0.853200 0.000000 0.000000
O O4 0.881774 0.771964 0.500000
O O5 0.816698 0.754902 0.611366
O O6 0.000000 0.758365 0.590479
O O7 0.902038 0.000000 0.580066
O O8 0.908655 0.708173 0.172080
O O9 0.825492 0.786614 0.272938
O O10 0.000000 0.815067 0.264215
O O11 0.894183 0.000000 0.202046
O O12 0.803206 0.500000 0.120532
O O13 0.753372 0.783920 0.145454
O O14 0.370181 0.754352 0.063560
O O15 0.352826 0.500000 0.000000
O O16 0.500000 0.652463 0.000000
O O17 0.400209 0.246244 0.809020
O O18 0.367139 0.000000 0.870405
O O19 0.500000 0.696056 0.713910
O O20 0.624441 0.500000 0.750280
O O21 0.667288 0.742603 0.687896
O O22 0.259696 0.000000 0.661438
#
# Coordination Sequence:
#
# PCOD8196125 Si02
#       8
#     4   8   8   8   4   8   8   8
#     4  11  24  41  58  75 101 141 188 236 287 342
#     4   8  14  27  52  90 132 167 198 235 282 336
#     4  10  20  34  53  80 114 149 186 230 281 336
#     4  12  24  38  56  78 107 142 184 232 283 341
#     4  11  24  41  60  83 111 141 176 226 293 362
#     4  12  24  40  61  84 110 142 186 239 295 355
#     4  11  24  41  60  83 114 152 194 245 304 359
#     4  10  19  33  57  87 118 155 197 239 283 338
#
# _framework density 19.757738
#
# number of rings (size 3 to 8) (size 9 to 14) (size 15 to 20)
#    0.000    1.429    1.429    5.571    0.000    7.714 
#    0.000    0.000    0.000    2.143    0.000    4.000 
#    0.000    0.000    0.000    0.000    0.000    0.000 
#
# Total GULP energy -693846.853612 kJ/mol
# GULP energy per Si atom -12390.122386 kJ/mol
# Density = 1.971277 g / cm^3
# Si number density = 19.757738 Si / 1000 Ang^3
#
#
#
# Elastic Constant Matrix: (Units=GPa)
#
#
# Indices 1 2 3 4 5 6 
#
# 1 121.7649 41.2703 52.8353 0.0000 0.0000 0.0000
# 2 41.2703 104.8062 45.9248 0.0000 0.0000 0.0000
# 3 52.8353 45.9248 112.3818 0.0000 0.0000 0.0000
# 4 0.0000 0.0000 0.0000 8.6132 0.0000 0.0000
# 5 0.0000 0.0000 0.0000 0.0000 36.2146 0.0000
# 6 0.0000 0.0000 0.0000 0.0000 0.0000 49.4543
#
#
#
# Elastic Compliance Matrix: (Units=1/GPa)
#
#
# Indices 1 2 3 4 5 6 
#
# 1 0.010820 -0.002475 -0.004075 0.000000 0.000000 0.000000
# 2 -0.002475 0.012189 -0.003817 0.000000 0.000000 0.000000
# 3 -0.004075 -0.003817 0.012374 0.000000 0.000000 0.000000
# 4 0.000000 0.000000 0.000000 0.116101 0.000000 0.000000
# 5 0.000000 0.000000 0.000000 0.000000 0.027613 0.000000
# 6 0.000000 0.000000 0.000000 0.000000 0.000000 0.020221
#
#
# Mechanical properties :
#
#
# Convention : Reuss Voigt Hill
#
# Bulk Modulus (GPa) = 68.27165 68.77931 68.52548
# Shear Modulus (GPa) = 22.22858 32.11792 27.17325
#
# Velocity S-wave (km/s) = 3.35783 4.03623 3.71256
# Velocity P-wave (km/s) = 7.04718 7.52386 7.28942
#
# Compressibility (1/GPa) = 0.01464737
#
# Stress axis : x y z
#
# Youngs Moduli (GPa) = 92.42382 82.04349 80.81275
#
# Poissons Ratio (x) = 0.20304 0.32935
# Poissons Ratio (y) = 0.22872 0.30850
# Poissons Ratio (z) = 0.37667 0.31319
#
# Static dielectric constant tensor:
#      x y z
#    x 3.883660 0.000000 0.000000 
#    y 0.000000 3.527240 0.000000 
#    z 0.000000 0.000000 3.082230 
# 
# 
# High freq. dielectric constant tensor:
#      x y z
#    x 1.779240 0.000000 0.000000 
#    y 0.000000 1.755400 0.000000 
#    z 0.000000 0.000000 1.756710 
# 
# From -- ./inp_files/31020.got.cif
#   From: 2010.03.12/outbox.cif.g09.slc.cpg/sg47_16_cif.got.tgz:31020.got - 2010.04.14 03:12:58.
