data_PCOD8196255
_publ_section_title
;
Structure prediction by ZEFSAII (Michael W. Deem and Ramdas Pophale) SiO2 
 PCOD8196255
Probable space group: P M M M
;
_chemical_formula_sum "Si O2"
_cell_formula_units_Z 56
_cell_length_a 14.752977
_cell_length_b 22.466310
_cell_length_c 9.451901
_cell_angle_alpha 90.000000
_cell_angle_beta 90.000000
_cell_angle_gamma 90.000000
_cell_volume 3132.784899
_symmetry_space_group_name_H-M "P M M M"
_symmetry_group_IT_number 47
_symmetry_cell_setting 'orthorhombic'
loop_
_space_group_symop_operation_xyz
x,y,z
-x,-y,z
x,-y,-z
-x,y,-z
-x,-y,-z
x,y,-z
-x,y,z
x,-y,z
loop_
_atom_site_type_symbol
_atom_site_label
_atom_site_fract_x
_atom_site_fract_y
_atom_site_fract_z
Si Si1 0.849050 0.567700 0.343666
Si Si2 0.603806 0.740378 0.334305
Si Si3 0.774678 0.223647 0.830376
Si Si4 0.900753 0.330297 0.840759
Si Si5 0.097813 0.000000 0.334128
Si Si6 0.601501 0.500000 0.850461
Si Si7 0.350914 0.392489 0.344208
Si Si8 0.891787 0.870481 0.664251
O O1 0.892678 0.564840 0.500000
O O2 0.836482 0.500000 0.285464
O O3 0.910443 0.607510 0.242744
O O4 0.756426 0.603966 0.350936
O O5 0.626330 0.749931 0.500000
O O6 0.500000 0.760076 0.301127
O O7 0.674356 0.778324 0.239482
O O8 0.615630 0.671548 0.291540
O O9 0.824792 0.284791 0.784225
O O10 0.836017 0.171257 0.768655
O O11 0.767367 0.217212 0.000000
O O12 0.000000 0.299279 0.831547
O O13 0.875746 0.347767 0.000000
O O14 0.145772 0.937217 0.296104
O O15 0.080935 0.000000 0.500000
O O16 0.000000 0.000000 0.257974
O O17 0.500000 0.500000 0.897490
O O18 0.617019 0.440829 0.764430
O O19 0.657790 0.500000 0.000000
O O20 0.391938 0.405654 0.500000
O O21 0.870903 0.854905 0.500000
O O22 0.000000 0.865391 0.691343
#
# Coordination Sequence:
#
# PCOD8196255 Si02
#       8
#     8   8   8   8   4   4   8   8
#     4  10  20  35  54  74  94 119 159 210 261 313
#     4  10  21  37  57  78  99 128 171 221 268 318
#     4  11  22  35  53  78 111 145 176 216 263 317
#     4  10  22  38  53  71  98 134 172 209 254 307
#     4   7  12  26  49  79 114 149 186 225 259 294
#     4  11  23  33  45  71 100 123 154 197 249 318
#     4  10  19  35  55  72  93 123 159 204 260 317
#     4   9  17  31  54  83 115 152 190 224 258 299
#
# _framework density 17.875468000000001
#
# number of rings (size 3 to 8) (size 9 to 14) (size 15 to 20)
#    0.000    2.143    2.143    2.357    0.000    4.857 
#    0.000    1.786    0.000    1.286    0.000    0.500 
#    0.000    4.000    0.000    0.000    0.000    0.000 
#
# Total GULP energy -693788.717178 kJ/mol
# GULP energy per Si atom -12389.084235 kJ/mol
# Density = 1.783478 g / cm^3
# Si number density = 17.875468 Si / 1000 Ang^3
#
#
#
# Elastic Constant Matrix: (Units=GPa)
#
#
# Indices 1 2 3 4 5 6 
#
# 1 88.5258 37.3126 39.2019 0.0000 0.0000 0.0000
# 2 37.3126 101.3773 54.1290 0.0000 0.0000 0.0000
# 3 39.2019 54.1290 85.6956 0.0000 0.0000 0.0000
# 4 0.0000 0.0000 0.0000 17.7199 0.0000 0.0000
# 5 0.0000 0.0000 0.0000 0.0000 23.5766 0.0000
# 6 0.0000 0.0000 0.0000 0.0000 0.0000 27.9814
#
#
#
# Elastic Compliance Matrix: (Units=1/GPa)
#
#
# Indices 1 2 3 4 5 6 
#
# 1 0.014652 -0.002737 -0.004974 0.000000 0.000000 0.000000
# 2 -0.002737 0.015395 -0.008472 0.000000 0.000000 0.000000
# 3 -0.004974 -0.008472 0.019296 0.000000 0.000000 0.000000
# 4 0.000000 0.000000 0.000000 0.056434 0.000000 0.000000
# 5 0.000000 0.000000 0.000000 0.000000 0.042415 0.000000
# 6 0.000000 0.000000 0.000000 0.000000 0.000000 0.035738
#
#
# Mechanical properties :
#
#
# Convention : Reuss Voigt Hill
#
# Bulk Modulus (GPa) = 58.90288 59.65396 59.27842
# Shear Modulus (GPa) = 22.52705 23.51928 23.02316
#
# Velocity S-wave (km/s) = 3.55381 3.63123 3.59273
# Velocity P-wave (km/s) = 7.06136 7.14322 7.10241
#
# Compressibility (1/GPa) = 0.01697710
#
# Stress axis : x y z
#
# Youngs Moduli (GPa) = 68.24812 64.95558 51.82448
#
# Poissons Ratio (x) = 0.17779 0.25777
# Poissons Ratio (y) = 0.18681 0.43906
# Poissons Ratio (z) = 0.33946 0.55031
#
# Static dielectric constant tensor:
#      x y z
#    x 3.250060 0.000000 0.000000 
#    y 0.000000 3.280300 0.000000 
#    z 0.000000 0.000000 3.331870 
# 
# 
# High freq. dielectric constant tensor:
#      x y z
#    x 1.679550 0.000000 0.000000 
#    y 0.000000 1.671520 0.000000 
#    z 0.000000 0.000000 1.687810 
# 
# From -- ./inp_files/7395.got.cif
#   From: 2010.03.12/outbox.cif.g09.slc.cpg/sg47_4_cif.got.tgz:7395.got - 2010.04.14 03:12:58.
