data_PCOD8196266
_publ_section_title
;
Structure prediction by ZEFSAII (Michael W. Deem and Ramdas Pophale) SiO2 
 PCOD8196266
Probable space group: P M M M
;
_chemical_formula_sum "Si O2"
_cell_formula_units_Z 52
_cell_length_a 9.508674
_cell_length_b 15.645099
_cell_length_c 18.672181
_cell_angle_alpha 90.000000
_cell_angle_beta 90.000000
_cell_angle_gamma 90.000000
_cell_volume 2777.751062
_symmetry_space_group_name_H-M "P M M M"
_symmetry_group_IT_number 47
_symmetry_cell_setting 'orthorhombic'
loop_
_space_group_symop_operation_xyz
x,y,z
-x,-y,z
x,-y,-z
-x,y,-z
-x,-y,-z
x,y,-z
-x,y,z
x,-y,z
loop_
_atom_site_type_symbol
_atom_site_label
_atom_site_fract_x
_atom_site_fract_y
_atom_site_fract_z
Si Si1 0.164035 0.098536 0.179669
Si Si2 0.841883 0.810093 0.418578
Si Si3 0.657647 0.500000 0.584288
Si Si4 0.344435 0.900159 0.314988
Si Si5 0.833233 0.403884 0.179168
Si Si6 0.840042 0.364878 0.339538
Si Si7 0.166770 0.252439 0.080072
O O1 0.250242 0.130676 0.248423
O O2 0.208889 0.161605 0.115387
O O3 0.000000 0.109037 0.198742
O O4 0.197805 0.000000 0.158118
O O5 0.803331 0.783963 0.500000
O O6 0.731858 0.879585 0.390058
O O7 0.828564 0.731903 0.364186
O O8 0.000000 0.847591 0.415895
O O9 0.500000 0.500000 0.615968
O O10 0.653403 0.500000 0.500000
O O11 0.738611 0.583428 0.609250
O O12 0.500000 0.857365 0.311991
O O13 0.362255 0.000000 0.310497
O O14 0.776003 0.500000 0.162524
O O15 0.786578 0.375025 0.258344
O O16 0.771173 0.334185 0.123429
O O17 0.000000 0.403904 0.173957
O O18 0.000000 0.398846 0.347023
O O19 0.000000 0.259987 0.077685
O O20 0.230126 0.254329 0.000000
#
# Coordination Sequence:
#
# PCOD8196266 Si02
#       7
#     8   8   4   8   8   8   8
#     4   9  17  31  52  76 103 136 173 215 262 311
#     4  10  21  35  53  78 105 136 175 219 269 320
#     4  11  23  35  49  75 108 135 164 212 269 315
#     4  10  21  36  54  76 103 138 179 220 263 313
#     4   9  16  27  46  72 100 132 170 210 253 302
#     4  10  19  35  56  75  99 135 177 216 255 309
#     4   9  17  28  45  74 109 138 166 208 262 317
#
# _framework density 18.720181
#
# number of rings (size 3 to 8) (size 9 to 14) (size 15 to 20)
#    0.000    2.385    0.769    2.077    0.000    6.462 
#    0.000    4.615    0.000    0.462    0.000    2.154 
#    0.000    0.615    0.000    0.000    0.000    0.000 
#
# Total GULP energy -644637.080909 kJ/mol
# GULP energy per Si atom -12396.866941 kJ/mol
# Density = 1.867757 g / cm^3
# Si number density = 18.720181 Si / 1000 Ang^3
#
#
#
# Elastic Constant Matrix: (Units=GPa)
#
#
# Indices 1 2 3 4 5 6 
#
# 1 70.3380 24.7914 42.3720 0.0000 0.0000 0.0000
# 2 24.7914 79.6252 64.8383 0.0000 0.0000 0.0000
# 3 42.3720 64.8383 131.7942 0.0000 0.0000 0.0000
# 4 0.0000 0.0000 0.0000 32.6143 0.0000 0.0000
# 5 0.0000 0.0000 0.0000 0.0000 9.1126 0.0000
# 6 0.0000 0.0000 0.0000 0.0000 0.0000 6.7503
#
#
#
# Elastic Compliance Matrix: (Units=1/GPa)
#
#
# Indices 1 2 3 4 5 6 
#
# 1 0.017734 -0.001466 -0.004980 0.000000 0.000000 0.000000
# 2 -0.001466 0.021074 -0.009896 0.000000 0.000000 0.000000
# 3 -0.004980 -0.009896 0.014057 0.000000 0.000000 0.000000
# 4 0.000000 0.000000 0.000000 0.030661 0.000000 0.000000
# 5 0.000000 0.000000 0.000000 0.000000 0.109738 0.000000
# 6 0.000000 0.000000 0.000000 0.000000 0.000000 0.148141
#
#
# Mechanical properties :
#
#
# Convention : Reuss Voigt Hill
#
# Bulk Modulus (GPa) = 49.55420 60.64008 55.09714
# Shear Modulus (GPa) = 13.12967 19.67917 16.40442
#
# Velocity S-wave (km/s) = 2.65120 3.24578 2.96344
# Velocity P-wave (km/s) = 5.99169 6.81982 6.41912
#
# Compressibility (1/GPa) = 0.02017992
#
# Stress axis : x y z
#
# Youngs Moduli (GPa) = 56.38913 47.45246 71.13731
#
# Poissons Ratio (x) = 0.06957 0.35428
# Poissons Ratio (y) = 0.08267 0.70399
# Poissons Ratio (z) = 0.28083 0.46960
#
# Static dielectric constant tensor:
#      x y z
#    x 3.356530 0.000000 0.000000 
#    y 0.000000 3.520210 0.000000 
#    z 0.000000 0.000000 3.543750 
# 
# 
# High freq. dielectric constant tensor:
#      x y z
#    x 1.686960 0.000000 0.000000 
#    y 0.000000 1.731050 0.000000 
#    z 0.000000 0.000000 1.727140 
# 
# From -- ./inp_files/26728.got.cif
#   From: 2010.03.12/outbox.cif.g09.slc.cpg/sg47_14_cif.got.tgz:26728.got - 2010.04.14 03:12:58.
