data_PCOD8196519
_publ_section_title
;
Structure prediction by ZEFSAII (Michael W. Deem and Ramdas Pophale) SiO2 
 PCOD8196519
Probable space group: P M M M
;
_chemical_formula_sum "Si O2"
_cell_formula_units_Z 64
_cell_length_a 14.176691
_cell_length_b 31.120797
_cell_length_c 8.916098
_cell_angle_alpha 90.000000
_cell_angle_beta 90.000000
_cell_angle_gamma 90.000000
_cell_volume 3933.692588
_symmetry_space_group_name_H-M "P M M M"
_symmetry_group_IT_number 47
_symmetry_cell_setting 'orthorhombic'
loop_
_space_group_symop_operation_xyz
x,y,z
-x,-y,z
x,-y,-z
-x,y,-z
-x,-y,-z
x,y,-z
-x,y,z
x,-y,z
loop_
_atom_site_type_symbol
_atom_site_label
_atom_site_fract_x
_atom_site_fract_y
_atom_site_fract_z
Si Si1 0.218073 0.371433 0.677779
Si Si2 0.889445 0.131826 0.826333
Si Si3 0.110165 0.707209 0.175024
Si Si4 0.393231 0.660491 0.174068
Si Si5 0.604875 0.250603 0.328833
Si Si6 0.894247 0.547269 0.321792
Si Si7 0.201396 0.788507 0.674246
Si Si8 0.111853 0.952913 0.668160
O O1 0.214095 0.369598 0.500000
O O2 0.163139 0.330595 0.740025
O O3 0.325828 0.371124 0.733161
O O4 0.172706 0.415359 0.742075
O O5 0.829641 0.165029 0.729603
O O6 0.853497 0.084262 0.780544
O O7 0.000000 0.137934 0.790586
O O8 0.867980 0.139211 0.000000
O O9 0.144601 0.752926 0.234266
O O10 0.000000 0.702674 0.208052
O O11 0.133262 0.704084 0.000000
O O12 0.500000 0.646608 0.209980
O O13 0.374904 0.709477 0.221106
O O14 0.369256 0.656445 0.000000
O O15 0.611473 0.267321 0.500000
O O16 0.500000 0.231203 0.297255
O O17 0.685595 0.215326 0.298033
O O18 0.894751 0.548859 0.500000
O O19 0.858917 0.500000 0.268048
O O20 0.000000 0.555437 0.261447
O O21 0.176371 0.783205 0.500000
O O22 0.148596 0.943038 0.500000
O O23 0.000000 0.953979 0.667648
O O24 0.149466 0.000000 0.721073
#
# Coordination Sequence:
#
# PCOD8196519 Si02
#       8
#     8   8   8   8   8   8   8   8
#     4  11  20  31  51  76  97 121 155 195 237 280
#     4  10  20  31  43  62  92 130 165 197 235 279
#     4  11  23  35  46  64  95 131 161 192 229 272
#     4  10  20  33  50  71  95 124 156 191 234 283
#     4   9  18  33  51  70  91 116 152 198 243 283
#     4   8  15  29  49  73  99 124 152 190 234 278
#     4  11  21  32  48  68  91 124 160 196 236 279
#     4   8  14  26  44  64  86 115 155 202 244 280
#
# _framework density 16.269701000000001
#
# number of rings (size 3 to 8) (size 9 to 14) (size 15 to 20)
#    0.000    2.250    1.250    3.375    0.000    5.250 
#    0.000    1.250    0.000    1.875    0.000    7.000 
#    0.000    0.500    0.000    5.750    0.000    1.875 
#
# Total GULP energy -793444.472555 kJ/mol
# GULP energy per Si atom -12397.569884 kJ/mol
# Density = 1.623267 g / cm^3
# Si number density = 16.269701 Si / 1000 Ang^3
#
#
#
# Elastic Constant Matrix: (Units=GPa)
#
#
# Indices 1 2 3 4 5 6 
#
# 1 88.4978 49.7696 39.1530 0.0000 0.0000 0.0000
# 2 49.7696 103.3318 29.4395 0.0000 0.0000 0.0000
# 3 39.1530 29.4395 60.9559 0.0000 0.0000 0.0000
# 4 0.0000 0.0000 0.0000 -0.0131 0.0000 0.0000
# 5 0.0000 0.0000 0.0000 0.0000 21.7061 0.0000
# 6 0.0000 0.0000 0.0000 0.0000 0.0000 10.8149
#
#
#
# Elastic Compliance Matrix: (Units=1/GPa)
#
#
# Indices 1 2 3 4 5 6 
#
# 1 0.018989 -0.006576 -0.009021 0.000000 0.000000 0.000000
# 2 -0.006576 0.013499 -0.002296 0.000000 0.000000 0.000000
# 3 -0.009021 -0.002296 0.023308 0.000000 0.000000 0.000000
# 4 0.000000 0.000000 0.000000-76.351034 0.000000 0.000000
# 5 0.000000 0.000000 0.000000 0.000000 0.046070 0.000000
# 6 0.000000 0.000000 0.000000 0.000000 0.000000 0.092465
#
#
# Mechanical properties :
#
#
# Convention : Reuss Voigt Hill
#
# Bulk Modulus (GPa) = 49.97234 54.38997 52.18116
# Shear Modulus (GPa) = -0.06569 15.46314 7.69873
#
# Velocity S-wave (km/s) = -0.20116 3.08624 2.17766
# Velocity P-wave (km/s) = 5.54326 6.79725 6.20203
#
# Compressibility (1/GPa) = 0.02001107
#
# Stress axis : x y z
#
# Youngs Moduli (GPa) = 52.66235 74.08035 42.90302
#
# Poissons Ratio (x) = 0.48714 0.38703
# Poissons Ratio (y) = 0.34630 0.09849
# Poissons Ratio (z) = 0.47507 0.17007
#
# Static dielectric constant tensor:
#      x y z
#    x 3.153900 0.000000 0.000000 
#    y 0.000000 3.230280 0.000000 
#    z 0.000000 0.000000 3.098910 
# 
# 
# High freq. dielectric constant tensor:
#      x y z
#    x 1.608520 0.000000 0.000000 
#    y 0.000000 1.614190 0.000000 
#    z 0.000000 0.000000 1.627350 
# 
# From -- ./inp_files/8350.got.cif
#   From: 2010.03.12/outbox.cif.g09.slc.cpg/sg47_5_cif.got.tgz:8350.got - 2010.04.14 03:12:58.
