data_PCOD8196540
_publ_section_title
;
Structure prediction by ZEFSAII (Michael W. Deem and Ramdas Pophale) SiO2 
 PCOD8196540
Probable space group: P M M M
;
_chemical_formula_sum "Si O2"
_cell_formula_units_Z 60
_cell_length_a 9.228828
_cell_length_b 17.234838
_cell_length_c 23.477883
_cell_angle_alpha 90.000000
_cell_angle_beta 90.000000
_cell_angle_gamma 90.000000
_cell_volume 3734.329983
_symmetry_space_group_name_H-M "P M M M"
_symmetry_group_IT_number 47
_symmetry_cell_setting 'orthorhombic'
loop_
_space_group_symop_operation_xyz
x,y,z
-x,-y,z
x,-y,-z
-x,y,-z
-x,-y,-z
x,y,-z
-x,y,z
x,-y,z
loop_
_atom_site_type_symbol
_atom_site_label
_atom_site_fract_x
_atom_site_fract_y
_atom_site_fract_z
Si Si1 0.831337 0.709051 0.680307
Si Si2 0.330328 0.086476 0.144374
Si Si3 0.659756 0.500000 0.432840
Si Si4 0.833161 0.649560 0.563323
Si Si5 0.329943 0.773140 0.934296
Si Si6 0.331104 0.409867 0.242323
Si Si7 0.160308 0.174844 0.769039
Si Si8 0.163568 0.676473 0.849357
O O1 0.807895 0.715023 0.611745
O O2 0.736529 0.639557 0.706210
O O3 0.787398 0.792830 0.707211
O O4 0.000000 0.691948 0.695236
O O5 0.500000 0.089120 0.152899
O O6 0.280883 0.145910 0.095144
O O7 0.264494 0.109150 0.205863
O O8 0.278365 0.000000 0.127198
O O9 0.500000 0.500000 0.404312
O O10 0.645500 0.500000 0.500000
O O11 0.744925 0.423943 0.413803
O O12 0.782570 0.678035 0.500000
O O13 0.000000 0.624473 0.560514
O O14 0.500000 0.758803 0.925349
O O15 0.244442 0.700226 0.907769
O O16 0.287506 0.779924 0.000000
O O17 0.500000 0.388489 0.235959
O O18 0.309034 0.500000 0.257073
O O19 0.251660 0.391516 0.182379
O O20 0.162067 0.249341 0.809195
O O21 0.000000 0.138571 0.765213
O O22 0.000000 0.648545 0.863138
#
# Coordination Sequence:
#
# PCOD8196540 Si02
#       8
#     8   8   4   8   8   8   8   8
#     4   9  18  30  44  62  84 112 145 182 218 258
#     4   9  17  28  43  65  92 119 145 172 203 243
#     4   9  17  27  37  51  75 107 141 177 214 251
#     4   9  17  29  43  58  79 111 148 181 217 261
#     4   9  17  29  46  67  91 120 149 174 203 243
#     4  10  20  31  44  64  86 108 139 181 226 268
#     4   8  15  28  43  60  82 109 142 175 212 254
#     4   9  17  30  47  64  84 112 144 179 218 258
#
# _framework density 16.067139999999998
#
# number of rings (size 3 to 8) (size 9 to 14) (size 15 to 20)
#    0.000    3.000    0.000    1.800    0.933    6.400 
#    0.000    1.333    0.000    0.400    0.000    6.533 
#    0.000    0.533    0.000    6.667    0.000    1.067 
#
# Total GULP energy -743587.164900 kJ/mol
# GULP energy per Si atom -12393.119415 kJ/mol
# Density = 1.603057 g / cm^3
# Si number density = 16.067140 Si / 1000 Ang^3
#
#
#
# Elastic Constant Matrix: (Units=GPa)
#
#
# Indices 1 2 3 4 5 6 
#
# 1 59.6466 20.2898 33.6293 0.0000 0.0000 0.0000
# 2 20.2898 30.2376 31.8644 0.0000 0.0000 0.0000
# 3 33.6293 31.8644 111.0839 0.0000 0.0000 0.0000
# 4 0.0000 0.0000 0.0000 19.3346 0.0000 0.0000
# 5 0.0000 0.0000 0.0000 0.0000 19.7620 0.0000
# 6 0.0000 0.0000 0.0000 0.0000 0.0000 19.6369
#
#
#
# Elastic Compliance Matrix: (Units=1/GPa)
#
#
# Indices 1 2 3 4 5 6 
#
# 1 0.022678 -0.011440 -0.003584 0.000000 0.000000 0.000000
# 2 -0.011440 0.053171 -0.011789 0.000000 0.000000 0.000000
# 3 -0.003584 -0.011789 0.013469 0.000000 0.000000 0.000000
# 4 0.000000 0.000000 0.000000 0.051721 0.000000 0.000000
# 5 0.000000 0.000000 0.000000 0.000000 0.050602 0.000000
# 6 0.000000 0.000000 0.000000 0.000000 0.000000 0.050925
#
#
# Mechanical properties :
#
#
# Convention : Reuss Voigt Hill
#
# Bulk Modulus (GPa) = 28.01773 41.39278 34.70525
# Shear Modulus (GPa) = 16.22917 19.42567 17.82742
#
# Velocity S-wave (km/s) = 3.18163 3.48088 3.33462
# Velocity P-wave (km/s) = 5.56532 6.47871 6.03931
#
# Compressibility (1/GPa) = 0.03569169
#
# Stress axis : x y z
#
# Youngs Moduli (GPa) = 44.09642 18.80729 74.24634
#
# Poissons Ratio (x) = 0.21516 0.26607
# Poissons Ratio (y) = 0.50448 0.87526
# Poissons Ratio (z) = 0.15803 0.22171
#
# Static dielectric constant tensor:
#      x y z
#    x 3.201410 0.000000 0.000000 
#    y 0.000000 2.913490 0.000000 
#    z 0.000000 0.000000 3.196700 
# 
# 
# High freq. dielectric constant tensor:
#      x y z
#    x 1.622950 0.000000 0.000000 
#    y 0.000000 1.575790 0.000000 
#    z 0.000000 0.000000 1.610700 
# 
# From -- ./inp_files/32197.got.cif
#   From: 2010.03.12/outbox.cif.g09.slc.cpg/sg47_17_cif.got.tgz:32197.got - 2010.04.14 03:12:58.
