data_PCOD8196920
_publ_section_title
;
Structure prediction by ZEFSAII (Michael W. Deem and Ramdas Pophale) SiO2 
 PCOD8196920
Probable space group: P M M M
;
_chemical_formula_sum "Si O2"
_cell_formula_units_Z 64
_cell_length_a 18.852275
_cell_length_b 9.174980
_cell_length_c 20.749858
_cell_angle_alpha 90.000000
_cell_angle_beta 90.000000
_cell_angle_gamma 90.000000
_cell_volume 3589.087295
_symmetry_space_group_name_H-M "P M M M"
_symmetry_group_IT_number 47
_symmetry_cell_setting 'orthorhombic'
loop_
_space_group_symop_operation_xyz
x,y,z
-x,-y,z
x,-y,-z
-x,y,-z
-x,-y,-z
x,y,-z
-x,y,z
x,-y,z
loop_
_atom_site_type_symbol
_atom_site_label
_atom_site_fract_x
_atom_site_fract_y
_atom_site_fract_z
Si Si1 0.419735 0.326521 0.821955
Si Si2 0.169578 0.169838 0.073948
Si Si3 0.672038 0.330971 0.293917
Si Si4 0.081117 0.327934 0.180322
Si Si5 0.827131 0.170070 0.429347
Si Si6 0.166165 0.672431 0.695308
Si Si7 0.668813 0.167055 0.074925
Si Si8 0.318021 0.333298 0.431638
O O1 0.500000 0.268791 0.817513
O O2 0.418171 0.500000 0.822732
O O3 0.376934 0.258076 0.760777
O O4 0.384489 0.270236 0.887124
O O5 0.116636 0.260380 0.117643
O O6 0.250440 0.212199 0.090908
O O7 0.157085 0.000000 0.086361
O O8 0.153050 0.209359 0.000000
O O9 0.673310 0.500000 0.277439
O O10 0.753036 0.273256 0.292297
O O11 0.638096 0.301098 0.365727
O O12 0.088301 0.500000 0.174384
O O13 0.119390 0.271863 0.245055
O O14 0.000000 0.276916 0.183440
O O15 0.863167 0.199368 0.500000
O O16 0.865007 0.255414 0.370453
O O17 0.746709 0.223322 0.433606
O O18 0.828199 0.000000 0.413116
O O19 0.161554 0.500000 0.686885
O O20 0.655733 0.000000 0.094727
O O21 0.652956 0.189888 0.000000
O O22 0.361189 0.315552 0.500000
O O23 0.289025 0.500000 0.426199
#
# Coordination Sequence:
#
# PCOD8196920 Si02
#       8
#     8   8   8   8   8   8   8   8
#     4  10  20  32  47  69  98 130 161 195 237 286
#     4   9  19  36  56  77 100 127 161 199 240 289
#     4   8  14  26  44  65  89 119 155 192 230 272
#     4  10  21  35  51  74 103 132 163 200 240 283
#     4   9  16  25  40  66  96 119 146 193 246 288
#     4   9  17  30  48  67  90 124 162 197 235 283
#     4   9  19  36  55  73  94 121 155 197 241 283
#     4   8  13  23  41  63  87 118 155 192 232 280
#
# _framework density 17.831831000000001
#
# number of rings (size 3 to 8) (size 9 to 14) (size 15 to 20)
#    0.000    3.000    0.000    2.625    0.000    4.250 
#    0.000    7.500    0.000    0.750    0.000    5.250 
#    0.000    0.000    0.000   32.625    0.000   30.250 
#
# Total GULP energy -792965.228195 kJ/mol
# GULP energy per Si atom -12390.081691 kJ/mol
# Density = 1.779124 g / cm^3
# Si number density = 17.831831 Si / 1000 Ang^3
#
#
#
# Elastic Constant Matrix: (Units=GPa)
#
#
# Indices 1 2 3 4 5 6 
#
# 1 92.6851 25.8735 72.0780 0.0000 0.0000 0.0000
# 2 25.8735 30.9093 36.3629 0.0000 0.0000 0.0000
# 3 72.0780 36.3629 146.1592 0.0000 0.0000 0.0000
# 4 0.0000 0.0000 0.0000 24.7251 0.0000 0.0000
# 5 0.0000 0.0000 0.0000 0.0000 5.4833 0.0000
# 6 0.0000 0.0000 0.0000 0.0000 0.0000 17.0491
#
#
#
# Elastic Compliance Matrix: (Units=1/GPa)
#
#
# Indices 1 2 3 4 5 6 
#
# 1 0.018431 -0.006695 -0.007424 0.000000 0.000000 0.000000
# 2 -0.006695 0.048172 -0.008683 0.000000 0.000000 0.000000
# 3 -0.007424 -0.008683 0.012663 0.000000 0.000000 0.000000
# 4 0.000000 0.000000 0.000000 0.040445 0.000000 0.000000
# 5 0.000000 0.000000 0.000000 0.000000 0.182371 0.000000
# 6 0.000000 0.000000 0.000000 0.000000 0.000000 0.058654
#
#
# Mechanical properties :
#
#
# Convention : Reuss Voigt Hill
#
# Bulk Modulus (GPa) = 29.70624 59.82029 44.76327
# Shear Modulus (GPa) = 11.97429 18.48078 15.22754
#
# Velocity S-wave (km/s) = 2.59417 3.22280 2.92542
# Velocity P-wave (km/s) = 5.06638 6.88972 6.04717
#
# Compressibility (1/GPa) = 0.03366296
#
# Stress axis : x y z
#
# Youngs Moduli (GPa) = 54.25553 20.75891 78.96948
#
# Poissons Ratio (x) = 0.13898 0.58625
# Poissons Ratio (y) = 0.36324 0.68570
# Poissons Ratio (z) = 0.40278 0.18025
#
# Static dielectric constant tensor:
#      x y z
#    x 3.081860 0.000000 0.000000 
#    y 0.000000 3.069090 0.000000 
#    z 0.000000 0.000000 3.776870 
# 
# 
# High freq. dielectric constant tensor:
#      x y z
#    x 1.646960 0.000000 0.000000 
#    y 0.000000 1.669810 0.000000 
#    z 0.000000 0.000000 1.716630 
# 
# From -- ./inp_files/9918.got.cif
#   From: 2010.03.12/outbox.cif.g09.slc.cpg/sg47_5_cif.got.tgz:9918.got - 2010.04.14 03:12:58.
