data_PCOD8196426
_publ_section_title
;
Structure prediction by ZEFSAII (Michael W. Deem and Ramdas Pophale) SiO2 
 PCOD8196426
Probable space group: P M M M
;
_chemical_formula_sum "Si O2"
_cell_formula_units_Z 52
_cell_length_a 9.294311
_cell_length_b 17.612142
_cell_length_c 25.411598
_cell_angle_alpha 90.000000
_cell_angle_beta 90.000000
_cell_angle_gamma 90.000000
_cell_volume 4159.693726
_symmetry_space_group_name_H-M "P M M M"
_symmetry_group_IT_number 47
_symmetry_cell_setting 'orthorhombic'
loop_
_space_group_symop_operation_xyz
x,y,z
-x,-y,z
x,-y,-z
-x,y,-z
-x,-y,-z
x,y,-z
-x,y,z
x,-y,z
loop_
_atom_site_type_symbol
_atom_site_label
_atom_site_fract_x
_atom_site_fract_y
_atom_site_fract_z
Si Si1 0.166435 0.706424 0.561990
Si Si2 0.338444 0.590248 0.057931
Si Si3 0.659307 0.409807 0.253282
Si Si4 0.332895 0.588677 0.629001
Si Si5 0.839070 0.590750 0.155875
Si Si6 0.663387 0.854229 0.562599
Si Si7 0.836228 0.000000 0.562757
O O1 0.184633 0.695957 0.500000
O O2 0.230507 0.631930 0.588841
O O3 0.255133 0.779118 0.582541
O O4 0.000000 0.716977 0.577478
O O5 0.500000 0.620393 0.067007
O O6 0.337867 0.500000 0.060934
O O7 0.238391 0.623922 0.103865
O O8 0.282619 0.616108 0.000000
O O9 0.500000 0.377697 0.241882
O O10 0.654828 0.500000 0.250438
O O11 0.709546 0.385717 0.311691
O O12 0.764701 0.376870 0.208675
O O13 0.500000 0.607466 0.617866
O O14 0.303480 0.500000 0.620859
O O15 0.835222 0.500000 0.155697
O O16 0.000000 0.622219 0.155328
O O17 0.660883 0.856452 0.500000
O O18 0.500000 0.855365 0.584622
O O19 0.751478 0.926486 0.584268
O O20 0.838871 0.000000 0.500000
O O21 0.000000 0.000000 0.584336
#
# Coordination Sequence:
#
# PCOD8196426 Si02
#       7
#     8   8   8   8   8   8   4
#     4  10  20  31  41  54  72  91 109 132 166 205
#     4   8  13  20  28  37  51  73  97 116 137 171
#     4   8  14  25  38  48  58  73  95 124 157 193
#     4   9  18  31  44  55  65  81 108 140 172 206
#     4   9  15  20  28  43  59  73  90 115 148 183
#     4   9  16  26  40  56  73  93 115 134 152 181
#     4   9  15  23  37  57  79  97 111 129 153 181
#
# _framework density 12.500920000000001
#
# number of rings (size 3 to 8) (size 9 to 14) (size 15 to 20)
#    0.000    3.154    0.000    3.000    0.000    7.077 
#    0.000    4.615    0.000    0.000    0.000    0.000 
#    0.000    0.000    0.000    0.000    0.000    0.000 
#
# Total GULP energy -644507.114674 kJ/mol
# GULP energy per Si atom -12394.367590 kJ/mol
# Density = 1.247247 g / cm^3
# Si number density = 12.500920 Si / 1000 Ang^3
#
#
#
# Elastic Constant Matrix: (Units=GPa)
#
#
# Indices 1 2 3 4 5 6 
#
# 1 108.2432 37.0080 44.4296 0.0000 0.0000 0.0000
# 2 37.0080 41.5888 24.1470 0.0000 0.0000 0.0000
# 3 44.4296 24.1470 51.1685 0.0000 0.0000 0.0000
# 4 0.0000 0.0000 0.0000 0.1603 0.0000 0.0000
# 5 0.0000 0.0000 0.0000 0.0000 15.2749 0.0000
# 6 0.0000 0.0000 0.0000 0.0000 0.0000 16.5072
#
#
#
# Elastic Compliance Matrix: (Units=1/GPa)
#
#
# Indices 1 2 3 4 5 6 
#
# 1 0.016355 -0.008689 -0.010101 0.000000 0.000000 0.000000
# 2 -0.008689 0.037736 -0.010263 0.000000 0.000000 0.000000
# 3 -0.010101 -0.010263 0.033157 0.000000 0.000000 0.000000
# 4 0.000000 0.000000 0.000000 6.239846 0.000000 0.000000
# 5 0.000000 0.000000 0.000000 0.000000 0.065467 0.000000
# 6 0.000000 0.000000 0.000000 0.000000 0.000000 0.060580
#
#
# Mechanical properties :
#
#
# Convention : Reuss Voigt Hill
#
# Bulk Modulus (GPa) = 34.31472 45.79664 40.05568
# Shear Modulus (GPa) = 0.76676 12.74952 6.75814
#
# Velocity S-wave (km/s) = 0.78402 3.19703 2.32763
# Velocity P-wave (km/s) = 5.32249 7.09522 6.27181
#
# Compressibility (1/GPa) = 0.02914201
#
# Stress axis : x y z
#
# Youngs Moduli (GPa) = 61.14268 26.49986 30.15948
#
# Poissons Ratio (x) = 0.23026 0.30463
# Poissons Ratio (y) = 0.53128 0.30954
# Poissons Ratio (z) = 0.61758 0.27198
#
# Static dielectric constant tensor:
#      x y z
#    x 2.757350 0.000000 0.000000 
#    y 0.000000 2.177840 0.000000 
#    z 0.000000 0.000000 2.540340 
# 
# 
# High freq. dielectric constant tensor:
#      x y z
#    x 1.489630 0.000000 0.000000 
#    y 0.000000 1.414890 0.000000 
#    z 0.000000 0.000000 1.453920 
# 
# From -- ./inp_files/10084.got.cif
#   From: 2010.03.12/outbox.cif.g09.slc.cpg/sg47_6_cif.got.tgz:10084.got - 2010.04.14 03:12:58.
