data_PCOD8196092
_publ_section_title
;
Structure prediction by ZEFSAII (Michael W. Deem and Ramdas Pophale) SiO2 
 PCOD8196092
Probable space group: P M M M
;
_chemical_formula_sum "Si O2"
_cell_formula_units_Z 48
_cell_length_a 9.050169
_cell_length_b 15.545974
_cell_length_c 17.816557
_cell_angle_alpha 90.000000
_cell_angle_beta 90.000000
_cell_angle_gamma 90.000000
_cell_volume 2506.677183
_symmetry_space_group_name_H-M "P M M M"
_symmetry_group_IT_number 47
_symmetry_cell_setting 'orthorhombic'
loop_
_space_group_symop_operation_xyz
x,y,z
-x,-y,z
x,-y,-z
-x,y,-z
-x,-y,-z
x,y,-z
-x,y,z
x,-y,z
loop_
_atom_site_type_symbol
_atom_site_label
_atom_site_fract_x
_atom_site_fract_y
_atom_site_fract_z
Si Si1 0.674435 0.168556 0.157346
Si Si2 0.175007 0.764521 0.416867
Si Si3 0.324357 0.903131 0.000000
Si Si4 0.830322 0.595475 0.667049
Si Si5 0.166552 0.500000 0.088362
Si Si6 0.171364 0.097249 0.297926
Si Si7 0.325786 0.363707 0.817962
O O1 0.500000 0.155596 0.161827
O O2 0.734653 0.144315 0.074670
O O3 0.746274 0.106845 0.219013
O O4 0.723047 0.265252 0.175051
O O5 0.241950 0.780018 0.500000
O O6 0.222357 0.668691 0.390983
O O7 0.237960 0.836776 0.359868
O O8 0.000000 0.772633 0.420539
O O9 0.500000 0.902122 0.000000
O O10 0.263243 0.000000 0.000000
O O11 0.813724 0.500000 0.630612
O O12 0.728213 0.598427 0.739651
O O13 0.000000 0.612421 0.690873
O O14 0.250392 0.585196 0.114730
O O15 0.000000 0.500000 0.120796
O O16 0.165960 0.500000 0.000000
O O17 0.000000 0.117724 0.284259
O O18 0.194628 0.000000 0.327434
O O19 0.500000 0.375463 0.824520
#
# Coordination Sequence:
#
# PCOD8196092 Si02
#       7
#     8   8   4   8   4   8   8
#     4  10  21  36  57  82 109 144 184 229 280 334
#     4   9  18  33  53  80 114 148 185 233 284 334
#     4   9  18  34  55  78 105 138 178 223 271 327
#     4  10  19  33  56  81 108 144 183 227 277 334
#     4  11  25  41  57  81 114 151 190 229 279 334
#     4  10  20  34  55  82 111 146 188 233 280 333
#     4  11  22  35  56  83 110 145 188 232 276 329
#
# _framework density 19.148855000000001
#
# number of rings (size 3 to 8) (size 9 to 14) (size 15 to 20)
#    0.000    2.000    2.500    1.250    1.167    3.000 
#    0.000    3.750    0.000    3.500    0.000    2.333 
#    0.000    0.000    0.000    0.000    0.000    0.000 
#
# Total GULP energy -595235.514164 kJ/mol
# GULP energy per Si atom -12400.739878 kJ/mol
# Density = 1.910527 g / cm^3
# Si number density = 19.148855 Si / 1000 Ang^3
#
#
#
# Elastic Constant Matrix: (Units=GPa)
#
#
# Indices 1 2 3 4 5 6 
#
# 1 41.5932 27.3963 20.2547 0.0000 0.0000 0.0000
# 2 27.3963 138.8367 58.0324 0.0000 0.0000 0.0000
# 3 20.2547 58.0324 132.8338 0.0000 0.0000 0.0000
# 4 0.0000 0.0000 0.0000 29.5275 0.0000 0.0000
# 5 0.0000 0.0000 0.0000 0.0000 12.4172 0.0000
# 6 0.0000 0.0000 0.0000 0.0000 0.0000 22.1126
#
#
#
# Elastic Compliance Matrix: (Units=1/GPa)
#
#
# Indices 1 2 3 4 5 6 
#
# 1 0.028190 -0.004607 -0.002286 0.000000 0.000000 0.000000
# 2 -0.004607 0.009565 -0.003476 0.000000 0.000000 0.000000
# 3 -0.002286 -0.003476 0.009395 0.000000 0.000000 0.000000
# 4 0.000000 0.000000 0.000000 0.033867 0.000000 0.000000
# 5 0.000000 0.000000 0.000000 0.000000 0.080534 0.000000
# 6 0.000000 0.000000 0.000000 0.000000 0.000000 0.045223
#
#
# Mechanical properties :
#
#
# Convention : Reuss Voigt Hill
#
# Bulk Modulus (GPa) = 37.86133 58.29227 48.07680
# Shear Modulus (GPa) = 21.15808 26.65013 23.90411
#
# Velocity S-wave (km/s) = 3.32765 3.73464 3.53701
# Velocity P-wave (km/s) = 5.88042 7.00746 6.46853
#
# Compressibility (1/GPa) = 0.02641217
#
# Stress axis : x y z
#
# Youngs Moduli (GPa) = 35.47338 104.54928 106.43523
#
# Poissons Ratio (x) = 0.48169 0.24327
# Poissons Ratio (y) = 0.16344 0.36999
# Poissons Ratio (z) = 0.08108 0.36343
#
# Static dielectric constant tensor:
#      x y z
#    x 3.226410 0.000000 0.000000 
#    y 0.000000 3.823430 0.000000 
#    z 0.000000 0.000000 3.574600 
# 
# 
# High freq. dielectric constant tensor:
#      x y z
#    x 1.712020 0.000000 0.000000 
#    y 0.000000 1.762650 0.000000 
#    z 0.000000 0.000000 1.742440 
# 
# From -- ./inp_files/26532.got.cif
#   From: 2010.03.12/outbox.cif.g09.slc.cpg/sg47_14_cif.got.tgz:26532.got - 2010.04.14 03:12:58.
