data_PCOD8196468
_publ_section_title
;
Structure prediction by ZEFSAII (Michael W. Deem and Ramdas Pophale) SiO2 
 PCOD8196468
Probable space group: P M M M
;
_chemical_formula_sum "Si O2"
_cell_formula_units_Z 44
_cell_length_a 19.375458
_cell_length_b 17.978287
_cell_length_c 9.199417
_cell_angle_alpha 90.000000
_cell_angle_beta 90.000000
_cell_angle_gamma 90.000000
_cell_volume 3204.502330
_symmetry_space_group_name_H-M "P M M M"
_symmetry_group_IT_number 47
_symmetry_cell_setting 'orthorhombic'
loop_
_space_group_symop_operation_xyz
x,y,z
-x,-y,z
x,-y,-z
-x,y,-z
-x,-y,-z
x,y,-z
-x,y,z
x,-y,z
loop_
_atom_site_type_symbol
_atom_site_label
_atom_site_fract_x
_atom_site_fract_y
_atom_site_fract_z
Si Si1 0.918302 0.724341 0.832511
Si Si2 0.705757 0.084383 0.668255
Si Si3 0.424777 0.088398 0.164543
Si Si4 0.081612 0.000000 0.165298
Si Si5 0.918121 0.417989 0.662692
Si Si6 0.854410 0.138386 0.671413
O O1 0.892345 0.643708 0.776995
O O2 0.880366 0.784158 0.733607
O O3 0.000000 0.734003 0.812800
O O4 0.896682 0.733814 0.000000
O O5 0.688509 0.083952 0.500000
O O6 0.639115 0.121581 0.744771
O O7 0.772904 0.133065 0.703825
O O8 0.719786 0.000000 0.722988
O O9 0.500000 0.115964 0.223189
O O10 0.422556 0.000000 0.175291
O O11 0.415539 0.115283 0.000000
O O12 0.106169 0.072597 0.248834
O O13 0.000000 0.000000 0.162891
O O14 0.110376 0.000000 0.000000
O O15 0.891361 0.398833 0.500000
O O16 0.890835 0.500000 0.709956
O O17 0.000000 0.419017 0.661529
O O18 0.869841 0.132934 0.500000
#
# Coordination Sequence:
#
# PCOD8196468 Si02
#       6
#     8   8   8   4   8   8
#     4  10  20  31  42  59  81 102 129 166 205 243
#     4   9  17  29  41  55  74  95 126 163 197 234
#     4   8  14  24  38  57  77  95 118 148 185 231
#     4  11  23  35  45  57  72  93 128 173 215 250
#     4   8  14  26  44  63  80  99 124 153 190 239
#     4  11  21  33  45  57  75 101 134 169 204 242
#
# _framework density 13.730681000000001
#
# number of rings (size 3 to 8) (size 9 to 14) (size 15 to 20)
#    0.000    2.636    0.909    3.000    0.000    6.182 
#    0.000    3.636    0.000    0.000    0.000    0.000 
#    0.000    0.000    0.000    0.000    0.000    0.909 
#
# Total GULP energy -545360.616214 kJ/mol
# GULP energy per Si atom -12394.559459 kJ/mol
# Density = 1.369943 g / cm^3
# Si number density = 13.730681 Si / 1000 Ang^3
#
#
#
# Elastic Constant Matrix: (Units=GPa)
#
#
# Indices 1 2 3 4 5 6 
#
# 1 70.8656 31.5509 47.0447 0.0000 0.0000 0.0000
# 2 31.5509 76.4175 42.4993 0.0000 0.0000 0.0000
# 3 47.0447 42.4993 85.0031 0.0000 0.0000 0.0000
# 4 0.0000 0.0000 0.0000 18.5020 0.0000 0.0000
# 5 0.0000 0.0000 0.0000 0.0000 22.7398 0.0000
# 6 0.0000 0.0000 0.0000 0.0000 0.0000 -22.8291
#
#
#
# Elastic Compliance Matrix: (Units=1/GPa)
#
#
# Indices 1 2 3 4 5 6 
#
# 1 0.022904 -0.003334 -0.011010 0.000000 0.000000 0.000000
# 2 -0.003334 0.018611 -0.007460 0.000000 0.000000 0.000000
# 3 -0.011010 -0.007460 0.021587 0.000000 0.000000 0.000000
# 4 0.000000 0.000000 0.000000 0.054048 0.000000 0.000000
# 5 0.000000 0.000000 0.000000 0.000000 0.043976 0.000000
# 6 0.000000 0.000000 0.000000 0.000000 0.000000 -0.043804
#
#
# Mechanical properties :
#
#
# Convention : Reuss Voigt Hill
#
# Bulk Modulus (GPa) = 51.29211 52.71956 52.00584
# Shear Modulus (GPa) = 29.86345 11.09528 20.47936
#
# Velocity S-wave (km/s) = 4.66869 2.84573 3.86619
# Velocity P-wave (km/s) = 8.15470 7.01971 7.60840
#
# Compressibility (1/GPa) = 0.01949617
#
# Stress axis : x y z
#
# Youngs Moduli (GPa) = 43.66009 53.73070 46.32339
#
# Poissons Ratio (x) = 0.17912 0.51000
# Poissons Ratio (y) = 0.14555 0.34558
# Poissons Ratio (z) = 0.48068 0.40084
#
# Static dielectric constant tensor:
#      x y z
#    x 2.770940 0.000000 0.000000 
#    y 0.000000 2.641640 0.000000 
#    z 0.000000 0.000000 2.888180 
# 
# 
# High freq. dielectric constant tensor:
#      x y z
#    x 1.499670 0.000000 0.000000 
#    y 0.000000 1.490200 0.000000 
#    z 0.000000 0.000000 1.535410 
# 
# From -- ./inp_files/9422.got.cif
#   From: 2010.03.12/outbox.cif.g09.slc.cpg/sg47_5_cif.got.tgz:9422.got - 2010.04.14 03:12:58.
