data_PCOD8196281
_publ_section_title
;
Structure prediction by ZEFSAII (Michael W. Deem and Ramdas Pophale) SiO2 
 PCOD8196281
Probable space group: P M M M
;
_chemical_formula_sum "Si O2"
_cell_formula_units_Z 52
_cell_length_a 22.945305
_cell_length_b 14.113474
_cell_length_c 9.073535
_cell_angle_alpha 90.000000
_cell_angle_beta 90.000000
_cell_angle_gamma 90.000000
_cell_volume 2938.355115
_symmetry_space_group_name_H-M "P M M M"
_symmetry_group_IT_number 47
_symmetry_cell_setting 'orthorhombic'
loop_
_space_group_symop_operation_xyz
x,y,z
-x,-y,z
x,-y,-z
-x,y,-z
-x,-y,-z
x,y,-z
-x,y,z
x,-y,z
loop_
_atom_site_type_symbol
_atom_site_label
_atom_site_fract_x
_atom_site_fract_y
_atom_site_fract_z
Si Si1 0.000000 0.391288 0.825572
Si Si2 0.716366 0.108464 0.829024
Si Si3 0.336477 0.724121 0.325536
Si Si4 0.892313 0.295767 0.671086
Si Si5 0.567467 0.608577 0.830615
Si Si6 0.773635 0.605665 0.674746
Si Si7 0.835848 0.106003 0.668713
O O1 0.943710 0.337238 0.767525
O O2 0.000000 0.500000 0.769606
O O3 0.000000 0.386933 0.000000
O O4 0.668901 0.171645 0.744307
O O5 0.781004 0.129320 0.770099
O O6 0.698881 0.000000 0.800040
O O7 0.715456 0.134302 0.000000
O O8 0.336554 0.733077 0.500000
O O9 0.396288 0.676795 0.274773
O O10 0.282209 0.662201 0.265354
O O11 0.904907 0.318172 0.500000
O O12 0.832631 0.343598 0.726144
O O13 0.886904 0.182372 0.698884
O O14 0.500000 0.631570 0.803715
O O15 0.580914 0.500000 0.788411
O O16 0.584302 0.627421 0.000000
O O17 0.771017 0.602211 0.500000
O O18 0.772288 0.500000 0.741657
O O19 0.814252 0.116356 0.500000
O O20 0.860310 0.000000 0.699578
#
# Coordination Sequence:
#
# PCOD8196281 Si02
#       7
#     4   8   8   8   8   8   8
#     4  11  25  41  54  73 102 136 177 223 266 309
#     4  10  20  33  51  77 109 144 179 215 263 325
#     4  11  20  32  52  80 111 141 177 224 273 315
#     4  10  19  35  57  78 101 137 177 212 258 316
#     4   9  19  36  55  76 108 150 189 222 261 315
#     4   9  17  29  47  75 107 133 164 211 261 308
#     4   9  17  32  55  82 109 134 167 215 266 315
#
# _framework density 17.696975999999999
#
# number of rings (size 3 to 8) (size 9 to 14) (size 15 to 20)
#    0.000    2.231    1.538    2.538    0.000    4.000 
#    0.000    1.154    0.000    5.538    0.000    3.231 
#    0.000    0.000    0.000    0.000    0.000    0.000 
#
# Total GULP energy -644851.625695 kJ/mol
# GULP energy per Si atom -12400.992802 kJ/mol
# Density = 1.765670 g / cm^3
# Si number density = 17.696976 Si / 1000 Ang^3
#
#
#
# Elastic Constant Matrix: (Units=GPa)
#
#
# Indices 1 2 3 4 5 6 
#
# 1 95.8799 59.9989 45.8874 0.0000 0.0000 0.0000
# 2 59.9989 133.0512 55.7926 0.0000 0.0000 0.0000
# 3 45.8874 55.7926 76.2946 0.0000 0.0000 0.0000
# 4 0.0000 0.0000 0.0000 26.0628 0.0000 0.0000
# 5 0.0000 0.0000 0.0000 0.0000 27.8872 0.0000
# 6 0.0000 0.0000 0.0000 0.0000 0.0000 29.4919
#
#
#
# Elastic Compliance Matrix: (Units=1/GPa)
#
#
# Indices 1 2 3 4 5 6 
#
# 1 0.016474 -0.004722 -0.006455 0.000000 0.000000 0.000000
# 2 -0.004722 0.012193 -0.006077 0.000000 0.000000 0.000000
# 3 -0.006455 -0.006077 0.021433 0.000000 0.000000 0.000000
# 4 0.000000 0.000000 0.000000 0.038369 0.000000 0.000000
# 5 0.000000 0.000000 0.000000 0.000000 0.035859 0.000000
# 6 0.000000 0.000000 0.000000 0.000000 0.000000 0.033908
#
#
# Mechanical properties :
#
#
# Convention : Reuss Voigt Hill
#
# Bulk Modulus (GPa) = 64.13171 69.84262 66.98717
# Shear Modulus (GPa) = 25.25997 26.25817 25.75907
#
# Velocity S-wave (km/s) = 3.78214 3.85615 3.81932
# Velocity P-wave (km/s) = 7.44246 7.70571 7.57523
#
# Compressibility (1/GPa) = 0.01559291
#
# Stress axis : x y z
#
# Youngs Moduli (GPa) = 60.70161 82.01115 46.65624
#
# Poissons Ratio (x) = 0.38726 0.30117
# Poissons Ratio (y) = 0.28663 0.28352
# Poissons Ratio (z) = 0.39184 0.49836
#
# Static dielectric constant tensor:
#      x y z
#    x 3.109170 0.000000 0.000000 
#    y 0.000000 3.582790 0.000000 
#    z 0.000000 0.000000 3.142700 
# 
# 
# High freq. dielectric constant tensor:
#      x y z
#    x 1.663880 0.000000 0.000000 
#    y 0.000000 1.697230 0.000000 
#    z 0.000000 0.000000 1.672760 
# 
# From -- ./inp_files/11055.got.cif
#   From: 2010.03.12/outbox.cif.g09.slc.cpg/sg47_6_cif.got.tgz:11055.got - 2010.04.14 03:12:58.
