data_PCOD8196666
_publ_section_title
;
Structure prediction by ZEFSAII (Michael W. Deem and Ramdas Pophale) SiO2 
 PCOD8196666
Probable space group: P M M M
;
_chemical_formula_sum "Si O2"
_cell_formula_units_Z 52
_cell_length_a 9.224658
_cell_length_b 10.289875
_cell_length_c 30.464755
_cell_angle_alpha 90.000000
_cell_angle_beta 90.000000
_cell_angle_gamma 90.000000
_cell_volume 2891.732145
_symmetry_space_group_name_H-M "P M M M"
_symmetry_group_IT_number 47
_symmetry_cell_setting 'orthorhombic'
loop_
_space_group_symop_operation_xyz
x,y,z
-x,-y,z
x,-y,-z
-x,y,-z
-x,-y,-z
x,y,-z
-x,y,z
x,-y,z
loop_
_atom_site_type_symbol
_atom_site_label
_atom_site_fract_x
_atom_site_fract_y
_atom_site_fract_z
Si Si1 0.171610 0.649066 0.196508
Si Si2 0.159476 0.347081 0.295329
Si Si3 0.661785 0.000000 0.551814
Si Si4 0.838169 0.153816 0.048214
Si Si5 0.329272 0.151549 0.866962
Si Si6 0.170850 0.254211 0.550574
Si Si7 0.342092 0.646711 0.626090
O O1 0.214223 0.500000 0.183973
O O2 0.219267 0.679327 0.246515
O O3 0.255316 0.754851 0.168094
O O4 0.000000 0.667445 0.190715
O O5 0.145574 0.500000 0.303119
O O6 0.263367 0.283300 0.332500
O O7 0.000000 0.284112 0.300768
O O8 0.753710 0.122832 0.567273
O O9 0.500000 0.000000 0.572438
O O10 0.649875 0.000000 0.500000
O O11 0.725653 0.199289 0.085272
O O12 0.000000 0.205230 0.059733
O O13 0.840885 0.000000 0.046305
O O14 0.790610 0.207254 0.000000
O O15 0.500000 0.171480 0.865009
O O16 0.287692 0.000000 0.858123
O O17 0.207254 0.288021 0.500000
O O18 0.241747 0.359649 0.582495
O O19 0.000000 0.244425 0.557577
O O20 0.500000 0.712714 0.617144
O O21 0.369404 0.500000 0.640207
#
# Coordination Sequence:
#
# PCOD8196666 Si02
#       7
#     8   8   4   8   8   8   8
#     4   9  18  33  54  77  98 126 168 213 254 300
#     4   8  15  30  51  72  93 119 155 199 242 286
#     4   9  17  31  51  71  91 117 151 191 233 275
#     4   8  14  26  45  68  94 128 171 213 250 293
#     4  10  20  31  46  73 107 139 168 203 252 304
#     4  10  20  33  50  71  95 125 160 196 233 277
#     4  10  20  32  48  72 100 128 157 192 238 289
#
# _framework density 17.982301
#
# number of rings (size 3 to 8) (size 9 to 14) (size 15 to 20)
#    0.000    2.846    0.000    3.000    0.000    5.231 
#    0.000    4.615    1.692    0.462    0.000    3.231 
#    0.000    0.000    0.000    0.000    0.000    0.000 
#
# Total GULP energy -644312.185007 kJ/mol
# GULP energy per Si atom -12390.618942 kJ/mol
# Density = 1.794137 g / cm^3
# Si number density = 17.982301 Si / 1000 Ang^3
#
#
#
# Elastic Constant Matrix: (Units=GPa)
#
#
# Indices 1 2 3 4 5 6 
#
# 1 118.5066 35.9066 78.7582 0.0000 0.0000 0.0000
# 2 35.9066 46.3184 40.0351 0.0000 0.0000 0.0000
# 3 78.7582 40.0351 137.5162 0.0000 0.0000 0.0000
# 4 0.0000 0.0000 0.0000 19.1893 0.0000 0.0000
# 5 0.0000 0.0000 0.0000 0.0000 24.3024 0.0000
# 6 0.0000 0.0000 0.0000 0.0000 0.0000 23.9028
#
#
#
# Elastic Compliance Matrix: (Units=1/GPa)
#
#
# Indices 1 2 3 4 5 6 
#
# 1 0.014590 -0.005462 -0.006766 0.000000 0.000000 0.000000
# 2 -0.005462 0.030894 -0.005866 0.000000 0.000000 0.000000
# 3 -0.006766 -0.005866 0.012854 0.000000 0.000000 0.000000
# 4 0.000000 0.000000 0.000000 0.052112 0.000000 0.000000
# 5 0.000000 0.000000 0.000000 0.000000 0.041148 0.000000
# 6 0.000000 0.000000 0.000000 0.000000 0.000000 0.041836
#
#
# Mechanical properties :
#
#
# Convention : Reuss Voigt Hill
#
# Bulk Modulus (GPa) = 45.14505 67.97122 56.55814
# Shear Modulus (GPa) = 21.09649 23.32165 22.20907
#
# Velocity S-wave (km/s) = 3.42889 3.60519 3.51814
# Velocity P-wave (km/s) = 6.39032 7.43040 6.92990
#
# Compressibility (1/GPa) = 0.02215082
#
# Stress axis : x y z
#
# Youngs Moduli (GPa) = 68.54136 32.36848 77.79459
#
# Poissons Ratio (x) = 0.17681 0.52632
# Poissons Ratio (y) = 0.37440 0.45633
# Poissons Ratio (z) = 0.46372 0.18987
#
# Static dielectric constant tensor:
#      x y z
#    x 3.644520 0.000000 0.000000 
#    y 0.000000 2.993960 0.000000 
#    z 0.000000 0.000000 3.509710 
# 
# 
# High freq. dielectric constant tensor:
#      x y z
#    x 1.704440 0.000000 0.000000 
#    y 0.000000 1.648570 0.000000 
#    z 0.000000 0.000000 1.698540 
# 
# From -- ./inp_files/33250.got.cif
#   From: 2010.03.12/outbox.cif.g09.slc.cpg/sg47_17_cif.got.tgz:33250.got - 2010.04.14 03:12:58.
