data_PCOD8196581
_publ_section_title
;
Structure prediction by ZEFSAII (Michael W. Deem and Ramdas Pophale) SiO2 
 PCOD8196581
Probable space group: P M M M
;
_chemical_formula_sum "Si O2"
_cell_formula_units_Z 56
_cell_length_a 19.829402
_cell_length_b 17.564795
_cell_length_c 9.186046
_cell_angle_alpha 90.000000
_cell_angle_beta 90.000000
_cell_angle_gamma 90.000000
_cell_volume 3199.494137
_symmetry_space_group_name_H-M "P M M M"
_symmetry_group_IT_number 47
_symmetry_cell_setting 'orthorhombic'
loop_
_space_group_symop_operation_xyz
x,y,z
-x,-y,z
x,-y,-z
-x,y,-z
-x,-y,-z
x,y,-z
-x,y,z
x,-y,z
loop_
_atom_site_type_symbol
_atom_site_label
_atom_site_fract_x
_atom_site_fract_y
_atom_site_fract_z
Si Si1 0.246995 0.918276 0.835033
Si Si2 0.810521 0.301549 0.665517
Si Si3 0.688130 0.758651 0.831187
Si Si4 0.924919 0.586345 0.327097
Si Si5 0.872072 0.135479 0.335687
Si Si6 0.000000 0.912429 0.171719
Si Si7 0.577947 0.000000 0.670916
Si Si8 0.579159 0.833412 0.329615
O O1 0.291303 0.845561 0.800941
O O2 0.183710 0.921359 0.727012
O O3 0.285835 0.000000 0.812443
O O4 0.219591 0.912569 0.000000
O O5 0.791395 0.323858 0.500000
O O6 0.741197 0.300094 0.759081
O O7 0.864257 0.361279 0.734880
O O8 0.845825 0.220866 0.671509
O O9 0.615236 0.761968 0.752686
O O10 0.681118 0.737154 0.000000
O O11 0.924785 0.593216 0.500000
O O12 0.910578 0.500000 0.277315
O O13 0.000000 0.611426 0.271016
O O14 0.889716 0.111226 0.500000
O O15 0.936706 0.131524 0.235205
O O16 0.000000 0.000000 0.222234
O O17 0.000000 0.904589 0.000000
O O18 0.605603 0.082360 0.728715
O O19 0.500000 0.000000 0.710064
O O20 0.589314 0.000000 0.500000
O O21 0.595486 0.825994 0.500000
O O22 0.500000 0.824844 0.299558
#
# Coordination Sequence:
#
# PCOD8196581 Si02
#       8
#     8   8   8   8   8   4   4   8
#     4   9  18  32  45  56  78 113 150 189 235 282
#     4   9  18  32  50  70  97 125 152 189 230 276
#     4  10  20  31  45  65  92 124 160 197 236 283
#     4   8  14  26  49  80 106 127 153 187 228 274
#     4  10  20  31  45  65  84 106 143 190 234 272
#     4  11  23  35  45  57  78 111 148 188 237 285
#     4   7  12  24  41  61  85 115 150 193 246 297
#     4   9  17  30  47  66  90 120 157 201 248 295
#
# _framework density 17.502768
#
# number of rings (size 3 to 8) (size 9 to 14) (size 15 to 20)
#    0.000    2.857    0.000    2.786    2.000    4.000 
#    0.000    0.000    0.000    1.714    0.000    1.000 
#    0.000    0.571    0.000    6.571    0.000    1.857 
#
# Total GULP energy -693753.832039 kJ/mol
# GULP energy per Si atom -12388.461286 kJ/mol
# Density = 1.746293 g / cm^3
# Si number density = 17.502768 Si / 1000 Ang^3
#
#
#
# Elastic Constant Matrix: (Units=GPa)
#
#
# Indices 1 2 3 4 5 6 
#
# 1 71.5654 29.3779 29.9510 0.0000 0.0000 0.0000
# 2 29.3779 50.5466 14.0683 0.0000 0.0000 0.0000
# 3 29.9510 14.0683 58.0471 0.0000 0.0000 0.0000
# 4 0.0000 0.0000 0.0000 10.6021 0.0000 0.0000
# 5 0.0000 0.0000 0.0000 0.0000 20.9629 0.0000
# 6 0.0000 0.0000 0.0000 0.0000 0.0000 31.5560
#
#
#
# Elastic Compliance Matrix: (Units=1/GPa)
#
#
# Indices 1 2 3 4 5 6 
#
# 1 0.021867 -0.010261 -0.008796 0.000000 0.000000 0.000000
# 2 -0.010261 0.026030 -0.001014 0.000000 0.000000 0.000000
# 3 -0.008796 -0.001014 0.022012 0.000000 0.000000 0.000000
# 4 0.000000 0.000000 0.000000 0.094321 0.000000 0.000000
# 5 0.000000 0.000000 0.000000 0.000000 0.047703 0.000000
# 6 0.000000 0.000000 0.000000 0.000000 0.000000 0.031690
#
#
# Mechanical properties :
#
#
# Convention : Reuss Voigt Hill
#
# Bulk Modulus (GPa) = 33.59523 36.32816 34.96169
# Shear Modulus (GPa) = 17.02502 19.74166 18.38334
#
# Velocity S-wave (km/s) = 3.12220 3.36209 3.24437
# Velocity P-wave (km/s) = 5.67745 5.98935 5.83548
#
# Compressibility (1/GPa) = 0.02976613
#
# Stress axis : x y z
#
# Youngs Moduli (GPa) = 45.73202 38.41779 45.43046
#
# Poissons Ratio (x) = 0.39420 0.39960
# Poissons Ratio (y) = 0.46925 0.04607
# Poissons Ratio (z) = 0.40225 0.03896
#
# Static dielectric constant tensor:
#      x y z
#    x 3.760730 0.000000 0.000000 
#    y 0.000000 3.085840 0.000000 
#    z 0.000000 0.000000 3.149930 
# 
# 
# High freq. dielectric constant tensor:
#      x y z
#    x 1.676490 0.000000 0.000000 
#    y 0.000000 1.636140 0.000000 
#    z 0.000000 0.000000 1.660390 
# 
# From -- ./inp_files/11758.got.cif
#   From: 2010.03.12/outbox.cif.g09.slc.cpg/sg47_6_cif.got.tgz:11758.got - 2010.04.14 03:12:58.
