data_PCOD8196134
_publ_section_title
;
Structure prediction by ZEFSAII (Michael W. Deem and Ramdas Pophale) SiO2 
 PCOD8196134
Probable space group: P M M M
;
_chemical_formula_sum "Si O2"
_cell_formula_units_Z 56
_cell_length_a 9.246841
_cell_length_b 15.706241
_cell_length_c 22.631502
_cell_angle_alpha 90.000000
_cell_angle_beta 90.000000
_cell_angle_gamma 90.000000
_cell_volume 3286.843493
_symmetry_space_group_name_H-M "P M M M"
_symmetry_group_IT_number 47
_symmetry_cell_setting 'orthorhombic'
loop_
_space_group_symop_operation_xyz
x,y,z
-x,-y,z
x,-y,-z
-x,y,-z
-x,-y,-z
x,y,-z
-x,y,z
x,-y,z
loop_
_atom_site_type_symbol
_atom_site_label
_atom_site_fract_x
_atom_site_fract_y
_atom_site_fract_z
Si Si1 0.337931 0.399324 0.000000
Si Si2 0.830049 0.598158 0.884105
Si Si3 0.841298 0.000000 0.431348
Si Si4 0.832028 0.735172 0.787189
Si Si5 0.667462 0.135229 0.366339
Si Si6 0.667724 0.904565 0.768218
Si Si7 0.339247 0.400175 0.434643
Si Si8 0.168588 0.700024 0.346471
O O1 0.252802 0.368835 0.942057
O O2 0.344673 0.500000 0.000000
O O3 0.500000 0.360604 0.000000
O O4 0.789307 0.500000 0.867719
O O5 0.780152 0.662212 0.832456
O O6 0.000000 0.604849 0.896437
O O7 0.751193 0.918200 0.414225
O O8 0.864118 0.000000 0.500000
O O9 0.000000 0.000000 0.400450
O O10 0.753252 0.826134 0.798644
O O11 0.798310 0.694263 0.723353
O O12 0.000000 0.755281 0.794965
O O13 0.500000 0.135653 0.382247
O O14 0.696101 0.097512 0.301532
O O15 0.732808 0.227575 0.374168
O O16 0.500000 0.890256 0.782865
O O17 0.716066 0.000000 0.790293
O O18 0.293377 0.364666 0.500000
O O19 0.500000 0.365173 0.418195
O O20 0.346444 0.500000 0.438844
O O21 0.222106 0.381281 0.383151
O O22 0.000000 0.716969 0.357485
#
# Coordination Sequence:
#
# PCOD8196134 Si02
#       8
#     4   8   4   8   8   8   8   8
#     4   9  17  29  47  73 102 133 174 215 247 282
#     4   9  17  31  50  71 102 142 176 204 238 287
#     4  11  23  35  47  67  93 117 147 192 243 292
#     4   9  19  32  47  74 104 131 166 203 245 297
#     4  10  19  34  52  68  89 120 156 189 230 290
#     4   9  17  31  50  71  94 123 160 201 244 291
#     4   9  19  36  54  69  87 117 160 204 244 293
#     4  10  20  33  50  74 100 124 154 197 249 296
#
# _framework density 17.037624000000001
#
# number of rings (size 3 to 8) (size 9 to 14) (size 15 to 20)
#    0.000    2.571    0.714    1.714    0.000    5.143 
#    0.000    2.143    0.000    1.714    0.000    0.500 
#    0.000    4.000    0.000    0.000    0.000    0.000 
#
# Total GULP energy -694045.196998 kJ/mol
# GULP energy per Si atom -12393.664232 kJ/mol
# Density = 1.699885 g / cm^3
# Si number density = 17.037624 Si / 1000 Ang^3
#
#
#
# Elastic Constant Matrix: (Units=GPa)
#
#
# Indices 1 2 3 4 5 6 
#
# 1 91.9818 45.7420 51.5778 0.0000 0.0000 0.0000
# 2 45.7420 89.4742 52.3498 0.0000 0.0000 0.0000
# 3 51.5778 52.3498 89.5205 0.0000 0.0000 0.0000
# 4 0.0000 0.0000 0.0000 18.9012 0.0000 0.0000
# 5 0.0000 0.0000 0.0000 0.0000 23.5385 0.0000
# 6 0.0000 0.0000 0.0000 0.0000 0.0000 30.8110
#
#
#
# Elastic Compliance Matrix: (Units=1/GPa)
#
#
# Indices 1 2 3 4 5 6 
#
# 1 0.017200 -0.004553 -0.007247 0.000000 0.000000 0.000000
# 2 -0.004553 0.018194 -0.008017 0.000000 0.000000 0.000000
# 3 -0.007247 -0.008017 0.020034 0.000000 0.000000 0.000000
# 4 0.000000 0.000000 0.000000 0.052907 0.000000 0.000000
# 5 0.000000 0.000000 0.000000 0.000000 0.042484 0.000000
# 6 0.000000 0.000000 0.000000 0.000000 0.000000 0.032456
#
#
# Mechanical properties :
#
#
# Convention : Reuss Voigt Hill
#
# Bulk Modulus (GPa) = 63.31190 63.36837 63.34013
# Shear Modulus (GPa) = 21.91327 22.73728 22.32528
#
# Velocity S-wave (km/s) = 3.59021 3.65709 3.62381
# Velocity P-wave (km/s) = 7.37746 7.42337 7.40045
#
# Compressibility (1/GPa) = 0.01579482
#
# Stress axis : x y z
#
# Youngs Moduli (GPa) = 58.14087 54.96247 49.91474
#
# Poissons Ratio (x) = 0.25023 0.36175
# Poissons Ratio (y) = 0.26470 0.40015
# Poissons Ratio (z) = 0.42137 0.44061
#
# Static dielectric constant tensor:
#      x y z
#    x 3.280400 0.000000 0.000000 
#    y 0.000000 3.171670 0.000000 
#    z 0.000000 0.000000 3.082210 
# 
# 
# High freq. dielectric constant tensor:
#      x y z
#    x 1.663950 0.000000 0.000000 
#    y 0.000000 1.650680 0.000000 
#    z 0.000000 0.000000 1.632420 
# 
# From -- ./inp_files/29749.got.cif
#   From: 2010.03.12/outbox.cif.g09.slc.cpg/sg47_15_cif.got.tgz:29749.got - 2010.04.14 03:12:58.
