data_PCOD8196574
_publ_section_title
;
Structure prediction by ZEFSAII (Michael W. Deem and Ramdas Pophale) SiO2 
 PCOD8196574
Probable space group: P M M M
;
_chemical_formula_sum "Si O2"
_cell_formula_units_Z 64
_cell_length_a 28.494113
_cell_length_b 9.107881
_cell_length_c 14.311021
_cell_angle_alpha 90.000000
_cell_angle_beta 90.000000
_cell_angle_gamma 90.000000
_cell_volume 3714.010344
_symmetry_space_group_name_H-M "P M M M"
_symmetry_group_IT_number 47
_symmetry_cell_setting 'orthorhombic'
loop_
_space_group_symop_operation_xyz
x,y,z
-x,-y,z
x,-y,-z
-x,y,-z
-x,-y,-z
x,y,-z
-x,y,z
x,-y,z
loop_
_atom_site_type_symbol
_atom_site_label
_atom_site_fract_x
_atom_site_fract_y
_atom_site_fract_z
Si Si1 0.948483 0.164214 0.110672
Si Si2 0.552405 0.830832 0.270931
Si Si3 0.776767 0.826885 0.224605
Si Si4 0.734382 0.672202 0.607157
Si Si5 0.372277 0.665614 0.609421
Si Si6 0.592634 0.327042 0.106114
Si Si7 0.142880 0.672000 0.891085
Si Si8 0.686295 0.168246 0.892353
O O1 0.908698 0.277861 0.143675
O O2 0.000000 0.213035 0.148956
O O3 0.936461 0.000000 0.147064
O O4 0.950342 0.162553 0.000000
O O5 0.500000 0.808897 0.312222
O O6 0.590574 0.771650 0.342829
O O7 0.554088 0.746146 0.172237
O O8 0.563425 0.000000 0.252150
O O9 0.770469 0.762280 0.328537
O O10 0.820608 0.756052 0.173243
O O11 0.730977 0.783131 0.166357
O O12 0.784619 0.000000 0.230262
O O13 0.746083 0.711375 0.500000
O O14 0.741009 0.500000 0.625074
O O15 0.680747 0.718481 0.630693
O O16 0.381821 0.670822 0.500000
O O17 0.379684 0.500000 0.647017
O O18 0.590653 0.500000 0.116975
O O19 0.643622 0.271358 0.139315
O O20 0.582476 0.277447 0.000000
O O21 0.147964 0.500000 0.874408
O O22 0.151154 0.713009 0.000000
O O23 0.672084 0.000000 0.873220
O O24 0.699190 0.194184 0.000000
#
# Coordination Sequence:
#
# PCOD8196574 Si02
#       8
#     8   8   8   8   8   8   8   8
#     4   8  14  26  44  64  89 126 170 213 255 295
#     4  11  24  38  52  73 100 128 156 188 230 279
#     4  11  21  31  47  71  99 130 163 200 241 286
#     4   9  19  36  55  74  97 124 155 193 237 286
#     4   9  19  37  60  82 101 123 152 187 230 281
#     4  10  21  36  54  74  94 120 157 199 238 277
#     4  10  20  31  44  66  98 136 175 212 249 290
#     4   9  18  32  49  70  97 128 159 191 232 283
#
# _framework density 17.232044999999999
#
# number of rings (size 3 to 8) (size 9 to 14) (size 15 to 20)
#    0.000    2.375    0.000    3.750    0.000    7.750 
#    0.000    6.250    0.000    0.000    0.000    0.000 
#    0.000    0.500    0.000    5.250    0.000    2.500 
#
# Total GULP energy -793581.430960 kJ/mol
# GULP energy per Si atom -12399.709859 kJ/mol
# Density = 1.719282 g / cm^3
# Si number density = 17.232045 Si / 1000 Ang^3
#
#
#
# Elastic Constant Matrix: (Units=GPa)
#
#
# Indices 1 2 3 4 5 6 
#
# 1 100.2428 55.5953 49.4845 0.0000 0.0000 0.0000
# 2 55.5953 83.2003 36.6104 0.0000 0.0000 0.0000
# 3 49.4845 36.6104 64.5506 0.0000 0.0000 0.0000
# 4 0.0000 0.0000 0.0000 25.6507 0.0000 0.0000
# 5 0.0000 0.0000 0.0000 0.0000 16.4059 0.0000
# 6 0.0000 0.0000 0.0000 0.0000 0.0000 28.0174
#
#
#
# Elastic Compliance Matrix: (Units=1/GPa)
#
#
# Indices 1 2 3 4 5 6 
#
# 1 0.019932 -0.008789 -0.010296 0.000000 0.000000 0.000000
# 2 -0.008789 0.019891 -0.004544 0.000000 0.000000 0.000000
# 3 -0.010296 -0.004544 0.025962 0.000000 0.000000 0.000000
# 4 0.000000 0.000000 0.000000 0.038985 0.000000 0.000000
# 5 0.000000 0.000000 0.000000 0.000000 0.060954 0.000000
# 6 0.000000 0.000000 0.000000 0.000000 0.000000 0.035692
#
#
# Mechanical properties :
#
#
# Convention : Reuss Voigt Hill
#
# Bulk Modulus (GPa) = 53.97094 59.04157 56.50625
# Shear Modulus (GPa) = 19.61941 21.10171 20.36056
#
# Velocity S-wave (km/s) = 3.37789 3.50317 3.44110
# Velocity P-wave (km/s) = 6.82654 7.12039 6.97501
#
# Compressibility (1/GPa) = 0.01852849
#
# Stress axis : x y z
#
# Youngs Moduli (GPa) = 50.16942 50.27285 38.51846
#
# Poissons Ratio (x) = 0.44183 0.39657
# Poissons Ratio (y) = 0.44093 0.17503
# Poissons Ratio (z) = 0.51652 0.22845
#
# Static dielectric constant tensor:
#      x y z
#    x 3.302560 0.000000 0.000000 
#    y 0.000000 3.237870 0.000000 
#    z 0.000000 0.000000 3.101740 
# 
# 
# High freq. dielectric constant tensor:
#      x y z
#    x 1.655010 0.000000 0.000000 
#    y 0.000000 1.671540 0.000000 
#    z 0.000000 0.000000 1.645340 
# 
# From -- ./inp_files/14361.got.cif
#   From: 2010.03.12/outbox.cif.g09.slc.cpg/sg47_8_cif.got.tgz:14361.got - 2010.04.14 03:12:58.
