data_PCOD8196679
_publ_section_title
;
Structure prediction by ZEFSAII (Michael W. Deem and Ramdas Pophale) SiO2 
 PCOD8196679
Probable space group: P M M M
;
_chemical_formula_sum "Si O2"
_cell_formula_units_Z 48
_cell_length_a 7.724944
_cell_length_b 8.869200
_cell_length_c 34.277884
_cell_angle_alpha 90.000000
_cell_angle_beta 90.000000
_cell_angle_gamma 90.000000
_cell_volume 2348.517458
_symmetry_space_group_name_H-M "P M M M"
_symmetry_group_IT_number 47
_symmetry_cell_setting 'orthorhombic'
loop_
_space_group_symop_operation_xyz
x,y,z
-x,-y,z
x,-y,-z
-x,y,-z
-x,-y,-z
x,y,-z
-x,y,z
x,-y,z
loop_
_atom_site_type_symbol
_atom_site_label
_atom_site_fract_x
_atom_site_fract_y
_atom_site_fract_z
Si Si1 0.000000 0.178536 0.824811
Si Si2 0.000000 0.323100 0.091700
Si Si3 0.696782 0.163582 0.301679
Si Si4 0.297045 0.323497 0.774995
Si Si5 0.702605 0.674608 0.458232
Si Si6 0.302555 0.826787 0.045713
Si Si7 0.196193 0.330194 0.623900
O O1 0.177307 0.240828 0.806275
O O2 0.000000 0.225689 0.869440
O O3 0.000000 0.000000 0.820587
O O4 0.172904 0.283875 0.067826
O O5 0.000000 0.500000 0.101382
O O6 0.500000 0.136443 0.290962
O O7 0.770582 0.271800 0.267904
O O8 0.701818 0.234813 0.344516
O O9 0.792262 0.000000 0.301474
O O10 0.500000 0.285204 0.782615
O O11 0.264000 0.500000 0.778117
O O12 0.765815 0.746373 0.500000
O O13 0.500000 0.698787 0.454223
O O14 0.753144 0.500000 0.459514
O O15 0.789019 0.745470 0.419389
O O16 0.500000 0.789561 0.058185
O O17 0.258352 0.000000 0.056070
O O18 0.278697 0.799231 0.000000
O O19 0.273410 0.500000 0.622784
O O20 0.000000 0.331937 0.637686
#
# Coordination Sequence:
#
# PCOD8196679 Si02
#       7
#     4   4   8   8   8   8   8
#     4  12  26  43  65  90 122 165 207 251 302 364
#     4  12  25  39  58  89 128 168 210 259 313 368
#     4  10  21  37  57  80 106 139 180 224 273 333
#     4  10  22  42  67  92 119 152 193 246 304 360
#     4   8  14  26  45  68  95 130 172 216 262 315
#     4   9  19  38  64  92 124 166 215 265 317 373
#     4  10  20  31  47  75 107 138 171 213 267 326
#
# _framework density 20.438426
#
# number of rings (size 3 to 8) (size 9 to 14) (size 15 to 20)
#    0.000    2.167    0.000    4.250    1.167    5.667 
#    0.000    2.500    0.000    0.500    0.000    3.500 
#    0.000    0.000    0.000    0.000    0.000    0.000 
#
# Total GULP energy -594883.539618 kJ/mol
# GULP energy per Si atom -12393.407075 kJ/mol
# Density = 2.039191 g / cm^3
# Si number density = 20.438426 Si / 1000 Ang^3
#
#
#
# Elastic Constant Matrix: (Units=GPa)
#
#
# Indices 1 2 3 4 5 6 
#
# 1 80.9690 40.5078 45.6760 0.0000 0.0000 0.0000
# 2 40.5078 109.3669 46.7789 0.0000 0.0000 0.0000
# 3 45.6760 46.7789 116.7085 0.0000 0.0000 0.0000
# 4 0.0000 0.0000 0.0000 8.0541 0.0000 0.0000
# 5 0.0000 0.0000 0.0000 0.0000 -22.6161 0.0000
# 6 0.0000 0.0000 0.0000 0.0000 0.0000 24.8498
#
#
#
# Elastic Compliance Matrix: (Units=1/GPa)
#
#
# Indices 1 2 3 4 5 6 
#
# 1 0.017345 -0.004249 -0.005085 0.000000 0.000000 0.000000
# 2 -0.004249 0.012076 -0.003177 0.000000 0.000000 0.000000
# 3 -0.005085 -0.003177 0.011832 0.000000 0.000000 0.000000
# 4 0.000000 0.000000 0.000000 0.124160 0.000000 0.000000
# 5 0.000000 0.000000 0.000000 0.000000 -0.044216 0.000000
# 6 0.000000 0.000000 0.000000 0.000000 0.000000 0.040242
#
#
# Mechanical properties :
#
#
# Convention : Reuss Voigt Hill
#
# Bulk Modulus (GPa) = 61.61479 63.66331 62.63905
# Shear Modulus (GPa) = 26.05898 13.66299 19.86098
#
# Velocity S-wave (km/s) = 3.57459 2.58833 3.12067
# Velocity P-wave (km/s) = 6.87378 6.33633 6.61052
#
# Compressibility (1/GPa) = 0.01622987
#
# Stress axis : x y z
#
# Youngs Moduli (GPa) = 57.65415 82.80569 84.51615
#
# Poissons Ratio (x) = 0.35186 0.42977
# Poissons Ratio (y) = 0.24499 0.26855
# Poissons Ratio (z) = 0.29317 0.26311
#
# Static dielectric constant tensor:
#      x y z
#    x 3.652380 0.000000 0.000000 
#    y 0.000000 3.597450 0.000000 
#    z 0.000000 0.000000 3.818570 
# 
# 
# High freq. dielectric constant tensor:
#      x y z
#    x 1.797730 0.000000 0.000000 
#    y 0.000000 1.772600 0.000000 
#    z 0.000000 0.000000 1.808490 
# 
# From -- ./inp_files/34131.got.cif
#   From: 2010.03.12/outbox.cif.g09.slc.cpg/sg47_18_cif.got.tgz:34131.got - 2010.04.14 03:12:58.
