data_PCOD8196360
_publ_section_title
;
Structure prediction by ZEFSAII (Michael W. Deem and Ramdas Pophale) SiO2 
 PCOD8196360
Probable space group: P M M M
;
_chemical_formula_sum "Si O2"
_cell_formula_units_Z 52
_cell_length_a 21.657729
_cell_length_b 14.201059
_cell_length_c 9.488415
_cell_angle_alpha 90.000000
_cell_angle_beta 90.000000
_cell_angle_gamma 90.000000
_cell_volume 2918.282416
_symmetry_space_group_name_H-M "P M M M"
_symmetry_group_IT_number 47
_symmetry_cell_setting 'orthorhombic'
loop_
_space_group_symop_operation_xyz
x,y,z
-x,-y,z
x,-y,-z
-x,y,-z
-x,-y,-z
x,y,-z
-x,y,z
x,-y,z
loop_
_atom_site_type_symbol
_atom_site_label
_atom_site_fract_x
_atom_site_fract_y
_atom_site_fract_z
Si Si1 0.395331 0.892706 0.159944
Si Si2 0.664535 0.610631 0.842011
Si Si3 0.163280 0.772426 0.655806
Si Si4 0.072290 0.889014 0.500000
Si Si5 0.806551 0.607357 0.164054
Si Si6 0.747162 0.891109 0.842028
Si Si7 0.568880 0.274744 0.661682
O O1 0.324020 0.862575 0.169343
O O2 0.433441 0.826882 0.264129
O O3 0.404820 0.000000 0.208833
O O4 0.419021 0.880083 0.000000
O O5 0.654570 0.500000 0.833954
O O6 0.735415 0.634893 0.804872
O O7 0.618117 0.657232 0.733274
O O8 0.649627 0.647062 0.000000
O O9 0.187053 0.743053 0.500000
O O10 0.101972 0.838319 0.638849
O O11 0.150003 0.677484 0.745400
O O12 0.216037 0.831707 0.729852
O O13 0.000000 0.870343 0.500000
O O14 0.087826 0.000000 0.500000
O O15 0.819954 0.500000 0.210270
O O16 0.821779 0.620275 0.000000
O O17 0.756246 0.000000 0.806130
O O18 0.771293 0.869132 0.000000
O O19 0.588381 0.261528 0.500000
O O20 0.500000 0.318547 0.673595
#
# Coordination Sequence:
#
# PCOD8196360 Si02
#       7
#     8   8   8   4   8   8   8
#     4   9  19  35  53  72  95 127 166 210 264 322
#     4   9  19  36  57  78 100 130 167 208 258 316
#     4  10  20  29  51  81 106 139 182 218 251 301
#     4   9  20  38  55  75 111 155 189 218 252 288
#     4   9  18  34  55  81 113 140 165 210 273 329
#     4   9  17  30  49  75 106 132 160 210 273 329
#     4  11  24  37  48  67  97 132 171 214 262 313
#
# _framework density 17.818701000000001
#
# number of rings (size 3 to 8) (size 9 to 14) (size 15 to 20)
#    0.462    2.077    0.000    4.154    0.000    7.692 
#    0.000    6.154    0.000    2.769    0.000    6.462 
#    0.000    0.000    0.000    0.000    0.000    0.000 
#
# Total GULP energy -644593.054441 kJ/mol
# GULP energy per Si atom -12396.020278 kJ/mol
# Density = 1.777814 g / cm^3
# Si number density = 17.818701 Si / 1000 Ang^3
#
#
#
# Elastic Constant Matrix: (Units=GPa)
#
#
# Indices 1 2 3 4 5 6 
#
# 1 55.7649 53.0952 38.6820 0.0000 0.0000 0.0000
# 2 53.0952 77.5292 53.7048 0.0000 0.0000 0.0000
# 3 38.6820 53.7048 100.8359 0.0000 0.0000 0.0000
# 4 0.0000 0.0000 0.0000 27.8269 0.0000 0.0000
# 5 0.0000 0.0000 0.0000 0.0000 -11.4437 0.0000
# 6 0.0000 0.0000 0.0000 0.0000 0.0000 19.7276
#
#
#
# Elastic Compliance Matrix: (Units=1/GPa)
#
#
# Indices 1 2 3 4 5 6 
#
# 1 0.051690 -0.034329 -0.001546 0.000000 0.000000 0.000000
# 2 -0.034329 0.043238 -0.009859 0.000000 0.000000 0.000000
# 3 -0.001546 -0.009859 0.015761 0.000000 0.000000 0.000000
# 4 0.000000 0.000000 0.000000 0.035936 0.000000 0.000000
# 5 0.000000 0.000000 0.000000 0.000000 -0.087384 0.000000
# 6 0.000000 0.000000 0.000000 0.000000 0.000000 0.050690
#
#
# Mechanical properties :
#
#
# Convention : Reuss Voigt Hill
#
# Bulk Modulus (GPa) = 52.02534 58.34376 55.18455
# Shear Modulus (GPa) = 24.06097 13.13202 18.59649
#
# Velocity S-wave (km/s) = 3.67866 2.71768 3.23406
# Velocity P-wave (km/s) = 6.87778 6.53160 6.70692
#
# Compressibility (1/GPa) = 0.01922140
#
# Stress axis : x y z
#
# Youngs Moduli (GPa) = 19.34619 23.12799 63.44778
#
# Poissons Ratio (x) = 0.79395 0.09806
# Poissons Ratio (y) = 0.66413 0.62555
# Poissons Ratio (z) = 0.02990 0.22802
#
# Static dielectric constant tensor:
#      x y z
#    x 2.945130 0.000000 0.000000 
#    y 0.000000 3.428100 0.000000 
#    z 0.000000 0.000000 3.277540 
# 
# 
# High freq. dielectric constant tensor:
#      x y z
#    x 1.652050 0.000000 0.000000 
#    y 0.000000 1.704860 0.000000 
#    z 0.000000 0.000000 1.685210 
# 
# From -- ./inp_files/12469.got.cif
#   From: 2010.03.12/outbox.cif.g09.slc.cpg/sg47_7_cif.got.tgz:12469.got - 2010.04.14 03:12:58.
