data_PCOD8196294
_publ_section_title
;
Structure prediction by ZEFSAII (Michael W. Deem and Ramdas Pophale) SiO2 
 PCOD8196294
Probable space group: P M M M
;
_chemical_formula_sum "Si O2"
_cell_formula_units_Z 64
_cell_length_a 24.843243
_cell_length_b 8.883021
_cell_length_c 15.226779
_cell_angle_alpha 90.000000
_cell_angle_beta 90.000000
_cell_angle_gamma 90.000000
_cell_volume 3360.292020
_symmetry_space_group_name_H-M "P M M M"
_symmetry_group_IT_number 47
_symmetry_cell_setting 'orthorhombic'
loop_
_space_group_symop_operation_xyz
x,y,z
-x,-y,z
x,-y,-z
-x,y,-z
-x,-y,-z
x,y,-z
-x,y,z
x,-y,z
loop_
_atom_site_type_symbol
_atom_site_label
_atom_site_fract_x
_atom_site_fract_y
_atom_site_fract_z
Si Si1 0.562844 0.827299 0.899724
Si Si2 0.782103 0.831747 0.632626
Si Si3 0.102990 0.179138 0.405311
Si Si4 0.355644 0.677181 0.773940
Si Si5 0.060320 0.177822 0.777183
Si Si6 0.147806 0.671027 0.099779
Si Si7 0.246354 0.169783 0.828544
Si Si8 0.665797 0.822111 0.597297
O O1 0.500000 0.799353 0.885119
O O2 0.593694 0.717309 0.834041
O O3 0.577778 0.000000 0.878583
O O4 0.578773 0.788843 0.000000
O O5 0.836287 0.751401 0.598288
O O6 0.785468 0.830606 0.737373
O O7 0.726829 0.755105 0.599295
O O8 0.780916 0.000000 0.594900
O O9 0.077289 0.225830 0.500000
O O10 0.068430 0.238198 0.323006
O O11 0.106893 0.000000 0.397798
O O12 0.348874 0.500000 0.767380
O O13 0.302913 0.745646 0.819621
O O14 0.366787 0.741339 0.675440
O O15 0.102657 0.250913 0.842002
O O16 0.000000 0.222831 0.806065
O O17 0.068887 0.000000 0.781421
O O18 0.154221 0.500000 0.131691
O O19 0.206466 0.748536 0.104056
O O20 0.127677 0.680724 0.000000
O O21 0.258078 0.000000 0.860943
O O22 0.641054 0.789616 0.500000
O O23 0.666009 0.000000 0.618214
#
# Coordination Sequence:
#
# PCOD8196294 Si02
#       8
#     8   8   8   8   8   8   8   8
#     4   9  19  38  63  87 111 145 194 246 288 331
#     4   8  13  24  46  75 103 132 170 217 265 311
#     4   9  15  25  47  79 109 134 166 213 266 316
#     4  11  22  34  53  85 124 159 189 227 280 340
#     4  10  21  37  56  79 106 137 178 224 266 319
#     4  11  24  40  58  80 106 136 173 222 283 343
#     4  10  19  35  58  81 109 144 183 223 266 322
#     4   9  17  30  50  77 110 151 199 243 279 322
#
# _framework density 19.045964000000001
#
# number of rings (size 3 to 8) (size 9 to 14) (size 15 to 20)
#    0.000    2.375    1.250    3.375    0.000    4.500 
#    0.000    3.125    0.000    0.750    0.000    3.500 
#    0.000    0.000    0.000    0.000    0.000    0.000 
#
# Total GULP energy -793210.353699 kJ/mol
# GULP energy per Si atom -12393.911777 kJ/mol
# Density = 1.900261 g / cm^3
# Si number density = 19.045964 Si / 1000 Ang^3
#
#
#
# Elastic Constant Matrix: (Units=GPa)
#
#
# Indices 1 2 3 4 5 6 
#
# 1 77.0884 42.6347 50.9465 0.0000 0.0000 0.0000
# 2 42.6347 84.1753 40.4220 0.0000 0.0000 0.0000
# 3 50.9465 40.4220 107.8112 0.0000 0.0000 0.0000
# 4 0.0000 0.0000 0.0000 15.0104 0.0000 0.0000
# 5 0.0000 0.0000 0.0000 0.0000 20.3581 0.0000
# 6 0.0000 0.0000 0.0000 0.0000 0.0000 18.6272
#
#
#
# Elastic Compliance Matrix: (Units=1/GPa)
#
#
# Indices 1 2 3 4 5 6 
#
# 1 0.022227 -0.007579 -0.007662 0.000000 0.000000 0.000000
# 2 -0.007579 0.017073 -0.002820 0.000000 0.000000 0.000000
# 3 -0.007662 -0.002820 0.013953 0.000000 0.000000 0.000000
# 4 0.000000 0.000000 0.000000 0.066621 0.000000 0.000000
# 5 0.000000 0.000000 0.000000 0.000000 0.049120 0.000000
# 6 0.000000 0.000000 0.000000 0.000000 0.000000 0.053685
#
#
# Mechanical properties :
#
#
# Convention : Reuss Voigt Hill
#
# Bulk Modulus (GPa) = 58.36916 59.67569 59.02242
# Shear Modulus (GPa) = 18.90278 19.80392 19.35335
#
# Velocity S-wave (km/s) = 3.15379 3.22809 3.19115
# Velocity P-wave (km/s) = 6.63135 6.73012 6.68092
#
# Compressibility (1/GPa) = 0.01713234
#
# Stress axis : x y z
#
# Youngs Moduli (GPa) = 44.98955 58.57316 71.66685
#
# Poissons Ratio (x) = 0.44391 0.54912
# Poissons Ratio (y) = 0.34096 0.20208
# Poissons Ratio (z) = 0.34472 0.16516
#
# Static dielectric constant tensor:
#      x y z
#    x 3.333710 0.000000 0.000000 
#    y 0.000000 3.206440 0.000000 
#    z 0.000000 0.000000 3.585970 
# 
# 
# High freq. dielectric constant tensor:
#      x y z
#    x 1.723860 0.000000 0.000000 
#    y 0.000000 1.705120 0.000000 
#    z 0.000000 0.000000 1.748440 
# 
# From -- ./inp_files/25594.got.cif
#   From: 2010.03.12/outbox.cif.g09.slc.cpg/sg47_13_cif.got.tgz:25594.got - 2010.04.14 03:12:58.
