data_PCOD8196093
_publ_section_title
;
Structure prediction by ZEFSAII (Michael W. Deem and Ramdas Pophale) SiO2 
 PCOD8196093
Probable space group: P M M M
;
_chemical_formula_sum "Si O2"
_cell_formula_units_Z 44
_cell_length_a 14.215366
_cell_length_b 9.399648
_cell_length_c 17.958574
_cell_angle_alpha 90.000000
_cell_angle_beta 90.000000
_cell_angle_gamma 90.000000
_cell_volume 2399.614540
_symmetry_space_group_name_H-M "P M M M"
_symmetry_group_IT_number 47
_symmetry_cell_setting 'orthorhombic'
loop_
_space_group_symop_operation_xyz
x,y,z
-x,-y,z
x,-y,-z
-x,y,-z
-x,-y,-z
x,y,-z
-x,y,z
x,-y,z
loop_
_atom_site_type_symbol
_atom_site_label
_atom_site_fract_x
_atom_site_fract_y
_atom_site_fract_z
Si Si1 0.105165 0.830980 0.000000
Si Si2 0.606303 0.334970 0.183769
Si Si3 0.398467 0.668523 0.646507
Si Si4 0.779416 0.831825 0.142220
Si Si5 0.108500 0.163948 0.711497
Si Si6 0.795344 0.667390 0.415621
O O1 0.158505 0.776655 0.926576
O O2 0.000000 0.766908 0.000000
O O3 0.100113 0.000000 0.000000
O O4 0.500000 0.308599 0.155112
O O5 0.633296 0.500000 0.176414
O O6 0.616220 0.282418 0.268728
O O7 0.677934 0.242385 0.134957
O O8 0.500000 0.727753 0.617131
O O9 0.402546 0.500000 0.643372
O O10 0.311410 0.724572 0.597375
O O11 0.830622 0.783994 0.218251
O O12 0.765068 0.000000 0.139062
O O13 0.132682 0.254861 0.638733
O O14 0.000000 0.187428 0.732157
O O15 0.129579 0.000000 0.693255
O O16 0.824631 0.702681 0.500000
O O17 0.800928 0.500000 0.399273
#
# Coordination Sequence:
#
# PCOD8196093 Si02
#       6
#     4   8   8   8   8   8
#     4   9  18  34  56  81 108 136 169 215 266 309
#     4   9  17  31  53  78 105 139 173 205 249 306
#     4   8  14  27  48  73 100 130 164 202 247 298
#     4  10  19  33  56  82 104 131 170 215 258 303
#     4  10  21  36  53  73  98 132 172 210 255 312
#     4  10  20  33  51  76 103 131 169 216 258 297
#
# _framework density 18.336278
#
# number of rings (size 3 to 8) (size 9 to 14) (size 15 to 20)
#    0.000    2.636    1.818    1.636    0.000    4.000 
#    0.000    4.545    0.000    5.455    0.000    1.273 
#    0.000    0.000    0.000    0.000    0.000    0.000 
#
# Total GULP energy -545492.752111 kJ/mol
# GULP energy per Si atom -12397.562548 kJ/mol
# Density = 1.829454 g / cm^3
# Si number density = 18.336278 Si / 1000 Ang^3
#
#
#
# Elastic Constant Matrix: (Units=GPa)
#
#
# Indices 1 2 3 4 5 6 
#
# 1 117.8414 40.3623 54.9543 0.0000 0.0000 0.0000
# 2 40.3623 36.6795 36.3342 0.0000 0.0000 0.0000
# 3 54.9543 36.3342 103.8498 0.0000 0.0000 0.0000
# 4 0.0000 0.0000 0.0000 20.1446 0.0000 0.0000
# 5 0.0000 0.0000 0.0000 0.0000 29.0653 0.0000
# 6 0.0000 0.0000 0.0000 0.0000 0.0000 29.9572
#
#
#
# Elastic Compliance Matrix: (Units=1/GPa)
#
#
# Indices 1 2 3 4 5 6 
#
# 1 0.014261 -0.012576 -0.003146 0.000000 0.000000 0.000000
# 2 -0.012576 0.052814 -0.011823 0.000000 0.000000 0.000000
# 3 -0.003146 -0.011823 0.015431 0.000000 0.000000 0.000000
# 4 0.000000 0.000000 0.000000 0.049641 0.000000 0.000000
# 5 0.000000 0.000000 0.000000 0.000000 0.034405 0.000000
# 6 0.000000 0.000000 0.000000 0.000000 0.000000 0.033381
#
#
# Mechanical properties :
#
#
# Convention : Reuss Voigt Hill
#
# Bulk Modulus (GPa) = 36.47733 57.96359 47.22046
# Shear Modulus (GPa) = 18.92780 24.28139 21.60460
#
# Velocity S-wave (km/s) = 3.21637 3.64294 3.43628
# Velocity P-wave (km/s) = 5.80776 7.02672 6.44612
#
# Compressibility (1/GPa) = 0.02741429
#
# Stress axis : x y z
#
# Youngs Moduli (GPa) = 70.12318 18.93452 64.80473
#
# Poissons Ratio (x) = 0.23811 0.20390
# Poissons Ratio (y) = 0.88184 0.76621
# Poissons Ratio (z) = 0.22064 0.22387
#
# Static dielectric constant tensor:
#      x y z
#    x 3.709520 0.000000 0.000000 
#    y 0.000000 2.986150 0.000000 
#    z 0.000000 0.000000 3.291450 
# 
# 
# High freq. dielectric constant tensor:
#      x y z
#    x 1.726160 0.000000 0.000000 
#    y 0.000000 1.670910 0.000000 
#    z 0.000000 0.000000 1.698610 
# 
# From -- ./inp_files/6150.got.cif
#   From: 2010.03.12/outbox.cif.g09.slc.cpg/sg47_4_cif.got.tgz:6150.got - 2010.04.14 03:12:58.
