data_PCOD8196717
_publ_section_title
;
Structure prediction by ZEFSAII (Michael W. Deem and Ramdas Pophale) SiO2 
 PCOD8196717
Probable space group: P M M M
;
_chemical_formula_sum "Si O2"
_cell_formula_units_Z 60
_cell_length_a 9.090085
_cell_length_b 22.773109
_cell_length_c 25.517901
_cell_angle_alpha 90.000000
_cell_angle_beta 90.000000
_cell_angle_gamma 90.000000
_cell_volume 5282.447838
_symmetry_space_group_name_H-M "P M M M"
_symmetry_group_IT_number 47
_symmetry_cell_setting 'orthorhombic'
loop_
_space_group_symop_operation_xyz
x,y,z
-x,-y,z
x,-y,-z
-x,y,-z
-x,-y,-z
x,y,-z
-x,y,z
x,-y,z
loop_
_atom_site_type_symbol
_atom_site_label
_atom_site_fract_x
_atom_site_fract_y
_atom_site_fract_z
Si Si1 0.834617 0.569810 0.557640
Si Si2 0.829391 0.346150 0.938341
Si Si3 0.834239 0.569860 0.240829
Si Si4 0.833476 0.114940 0.937505
Si Si5 0.334802 0.570111 0.342343
Si Si6 0.670210 0.569213 0.862925
Si Si7 0.666441 0.000000 0.937545
Si Si8 0.666312 0.229470 0.062355
O O1 0.777796 0.590149 0.500000
O O2 0.834233 0.500000 0.560316
O O3 0.731310 0.595472 0.603360
O O4 0.000000 0.592964 0.566859
O O5 0.752766 0.401517 0.911503
O O6 0.752969 0.286704 0.917801
O O7 0.000000 0.343618 0.922981
O O8 0.807224 0.354040 0.000000
O O9 0.834933 0.500000 0.242282
O O10 0.759540 0.594511 0.293640
O O11 0.741662 0.592115 0.191074
O O12 0.000000 0.594464 0.237106
O O13 0.750316 0.057372 0.916159
O O14 0.749029 0.172049 0.915633
O O15 0.000000 0.115085 0.916028
O O16 0.833939 0.115243 0.000000
O O17 0.500000 0.593890 0.336698
O O18 0.332403 0.500000 0.342602
O O19 0.500000 0.587298 0.862988
O O20 0.690928 0.500000 0.869335
O O21 0.500000 0.000000 0.915959
O O22 0.665739 0.000000 0.000000
O O23 0.500000 0.230760 0.084255
O O24 0.665272 0.227670 0.000000
#
# Coordination Sequence:
#
# PCOD8196717 Si02
#       8
#     8   8   8   8   8   8   4   8
#     4   8  13  20  28  38  54  76  99 119 137 157
#     4  10  20  32  44  56  68  81  97 116 140 175
#     4   9  16  26  39  51  62  76  93 112 136 168
#     4   9  15  22  32  46  64  84 104 124 144 164
#     4   9  15  21  30  44  60  76  94 115 137 161
#     4  10  20  32  44  56  68  79  92 114 145 180
#     4   9  15  21  29  43  63  85 107 127 145 163
#     4   9  16  26  39  52  65  81 100 120 141 166
#
# _framework density 11.358370000000001
#
# number of rings (size 3 to 8) (size 9 to 14) (size 15 to 20)
#    0.000    2.867    0.000    3.000    0.000    9.333 
#    0.000    2.667    0.000    0.000    0.000    0.000 
#    0.000    0.000    0.000    0.000    0.000    0.000 
#
# Total GULP energy -743825.323507 kJ/mol
# GULP energy per Si atom -12397.088725 kJ/mol
# Density = 1.133252 g / cm^3
# Si number density = 11.358370 Si / 1000 Ang^3
#
#
#
# Elastic Constant Matrix: (Units=GPa)
#
#
# Indices 1 2 3 4 5 6 
#
# 1 114.6615 33.3480 38.3405 0.0000 0.0000 0.0000
# 2 33.3480 36.2686 21.7901 0.0000 0.0000 0.0000
# 3 38.3405 21.7901 44.7448 0.0000 0.0000 0.0000
# 4 0.0000 0.0000 0.0000 0.2607 0.0000 0.0000
# 5 0.0000 0.0000 0.0000 0.0000 17.2478 0.0000
# 6 0.0000 0.0000 0.0000 0.0000 0.0000 17.0112
#
#
#
# Elastic Compliance Matrix: (Units=1/GPa)
#
#
# Indices 1 2 3 4 5 6 
#
# 1 0.013622 -0.007792 -0.007877 0.000000 0.000000 0.000000
# 2 -0.007792 0.043433 -0.014475 0.000000 0.000000 0.000000
# 3 -0.007877 -0.014475 0.036148 0.000000 0.000000 0.000000
# 4 0.000000 0.000000 0.000000 3.835343 0.000000 0.000000
# 5 0.000000 0.000000 0.000000 0.000000 0.057979 0.000000
# 6 0.000000 0.000000 0.000000 0.000000 0.000000 0.058785
#
#
# Mechanical properties :
#
#
# Convention : Reuss Voigt Hill
#
# Bulk Modulus (GPa) = 30.38177 42.51469 36.44823
# Shear Modulus (GPa) = 1.21460 13.71702 7.46581
#
# Velocity S-wave (km/s) = 1.03521 3.47891 2.56656
# Velocity P-wave (km/s) = 5.31369 7.32452 6.39859
#
# Compressibility (1/GPa) = 0.03291448
#
# Stress axis : x y z
#
# Youngs Moduli (GPa) = 73.41313 23.02411 27.66424
#
# Poissons Ratio (x) = 0.17940 0.21792
# Poissons Ratio (y) = 0.57203 0.40043
# Poissons Ratio (z) = 0.57830 0.33326
#
# Static dielectric constant tensor:
#      x y z
#    x 2.635840 0.000000 0.000000 
#    y 0.000000 2.143240 0.000000 
#    z 0.000000 0.000000 2.261520 
# 
# 
# High freq. dielectric constant tensor:
#      x y z
#    x 1.451970 0.000000 0.000000 
#    y 0.000000 1.382250 0.000000 
#    z 0.000000 0.000000 1.394100 
# 
# From -- ./inp_files/33507.got.cif
#   From: 2010.03.12/outbox.cif.g09.slc.cpg/sg47_17_cif.got.tgz:33507.got - 2010.04.14 03:12:58.
