data_PCOD8196553
_publ_section_title
;
Structure prediction by ZEFSAII (Michael W. Deem and Ramdas Pophale) SiO2 
 PCOD8196553
Probable space group: P M M M
;
_chemical_formula_sum "Si O2"
_cell_formula_units_Z 64
_cell_length_a 13.934437
_cell_length_b 9.561716
_cell_length_c 28.833331
_cell_angle_alpha 90.000000
_cell_angle_beta 90.000000
_cell_angle_gamma 90.000000
_cell_volume 3841.670248
_symmetry_space_group_name_H-M "P M M M"
_symmetry_group_IT_number 47
_symmetry_cell_setting 'orthorhombic'
loop_
_space_group_symop_operation_xyz
x,y,z
-x,-y,z
x,-y,-z
-x,y,-z
-x,-y,-z
x,y,-z
-x,y,z
x,-y,z
loop_
_atom_site_type_symbol
_atom_site_label
_atom_site_fract_x
_atom_site_fract_y
_atom_site_fract_z
Si Si1 0.112723 0.345332 0.622707
Si Si2 0.779143 0.162293 0.554372
Si Si3 0.206506 0.663978 0.184571
Si Si4 0.391268 0.662331 0.870147
Si Si5 0.707040 0.837639 0.052795
Si Si6 0.605304 0.655438 0.444978
Si Si7 0.891812 0.839828 0.108213
Si Si8 0.892909 0.334259 0.276158
O O1 0.156359 0.500000 0.611782
O O2 0.136198 0.236295 0.582219
O O3 0.147456 0.287868 0.673181
O O4 0.000000 0.359453 0.625501
O O5 0.795902 0.189187 0.500000
O O6 0.680446 0.230363 0.573015
O O7 0.776707 0.000000 0.566327
O O8 0.186897 0.500000 0.178904
O O9 0.317097 0.700916 0.171448
O O10 0.132241 0.741907 0.151390
O O11 0.182747 0.715057 0.236854
O O12 0.500000 0.697780 0.854029
O O13 0.381428 0.500000 0.883344
O O14 0.366011 0.749963 0.915840
O O15 0.817772 0.808476 0.066561
O O16 0.681236 0.000000 0.059156
O O17 0.693249 0.789210 0.000000
O O18 0.602752 0.657376 0.500000
O O19 0.500000 0.695182 0.425542
O O20 0.634391 0.500000 0.427732
O O21 0.000000 0.808172 0.090776
O O22 0.881882 0.000000 0.124736
O O23 0.900947 0.500000 0.276602
O O24 0.000000 0.272149 0.266441
#
# Coordination Sequence:
#
# PCOD8196553 Si02
#       8
#     8   8   8   8   8   8   8   8
#     4   9  18  32  48  65  87 118 155 190 223 264
#     4  10  20  31  44  65  93 124 155 188 228 270
#     4   9  16  28  48  69  88 113 144 178 219 268
#     4   9  18  31  46  66  91 117 146 182 224 266
#     4   9  18  31  45  62  85 116 155 191 220 257
#     4   8  14  26  45  67  88 111 143 183 222 259
#     4   9  17  28  42  63  91 117 141 176 222 268
#     4   8  14  26  46  70  90 109 139 180 223 265
#
# _framework density 16.659420000000001
#
# number of rings (size 3 to 8) (size 9 to 14) (size 15 to 20)
#    0.000    3.125    0.000    1.875    0.000    3.250 
#    0.000    5.625    0.000    1.500    0.000    7.000 
#    0.000    0.000    0.000    0.000    0.000    0.000 
#
# Total GULP energy -793174.955346 kJ/mol
# GULP energy per Si atom -12393.358677 kJ/mol
# Density = 1.662150 g / cm^3
# Si number density = 16.659420 Si / 1000 Ang^3
#
#
#
# Elastic Constant Matrix: (Units=GPa)
#
#
# Indices 1 2 3 4 5 6 
#
# 1 85.2836 32.3772 43.2209 0.0000 0.0000 0.0000
# 2 32.3772 61.3633 45.3067 0.0000 0.0000 0.0000
# 3 43.2209 45.3067 91.5332 0.0000 0.0000 0.0000
# 4 0.0000 0.0000 0.0000 16.0502 0.0000 0.0000
# 5 0.0000 0.0000 0.0000 0.0000 18.5399 0.0000
# 6 0.0000 0.0000 0.0000 0.0000 0.0000 19.7168
#
#
#
# Elastic Compliance Matrix: (Units=1/GPa)
#
#
# Indices 1 2 3 4 5 6 
#
# 1 0.016187 -0.004566 -0.005383 0.000000 0.000000 0.000000
# 2 -0.004566 0.026970 -0.011193 0.000000 0.000000 0.000000
# 3 -0.005383 -0.011193 0.019007 0.000000 0.000000 0.000000
# 4 0.000000 0.000000 0.000000 0.062305 0.000000 0.000000
# 5 0.000000 0.000000 0.000000 0.000000 0.053938 0.000000
# 6 0.000000 0.000000 0.000000 0.000000 0.000000 0.050718
#
#
# Mechanical properties :
#
#
# Convention : Reuss Voigt Hill
#
# Bulk Modulus (GPa) = 50.30448 53.33217 51.81833
# Shear Modulus (GPa) = 17.98316 18.67972 18.33144
#
# Velocity S-wave (km/s) = 3.28908 3.35217 3.32077
# Velocity P-wave (km/s) = 6.68471 6.86043 6.77314
#
# Compressibility (1/GPa) = 0.01987894
#
# Stress axis : x y z
#
# Youngs Moduli (GPa) = 61.77676 37.07788 52.61103
#
# Poissons Ratio (x) = 0.16931 0.28322
# Poissons Ratio (y) = 0.28209 0.58890
# Poissons Ratio (z) = 0.33256 0.41503
#
# Static dielectric constant tensor:
#      x y z
#    x 3.242810 0.000000 0.000000 
#    y 0.000000 3.046470 0.000000 
#    z 0.000000 0.000000 3.183280 
# 
# 
# High freq. dielectric constant tensor:
#      x y z
#    x 1.638870 0.000000 0.000000 
#    y 0.000000 1.629140 0.000000 
#    z 0.000000 0.000000 1.620920 
# 
# From -- ./inp_files/34663.got.cif
#   From: 2010.03.12/outbox.cif.g09.slc.cpg/sg47_18_cif.got.tgz:34663.got - 2010.04.14 03:12:58.
