data_PCOD8196331
_publ_section_title
;
Structure prediction by ZEFSAII (Michael W. Deem and Ramdas Pophale) SiO2 
 PCOD8196331
Probable space group: P M M M
;
_chemical_formula_sum "Si O2"
_cell_formula_units_Z 48
_cell_length_a 18.898368
_cell_length_b 8.813533
_cell_length_c 15.007569
_cell_angle_alpha 90.000000
_cell_angle_beta 90.000000
_cell_angle_gamma 90.000000
_cell_volume 2499.681553
_symmetry_space_group_name_H-M "P M M M"
_symmetry_group_IT_number 47
_symmetry_cell_setting 'orthorhombic'
loop_
_space_group_symop_operation_xyz
x,y,z
-x,-y,z
x,-y,-z
-x,y,-z
-x,-y,-z
x,y,-z
-x,y,z
x,-y,z
loop_
_atom_site_type_symbol
_atom_site_label
_atom_site_fract_x
_atom_site_fract_y
_atom_site_fract_z
Si Si1 0.083215 0.675359 0.000000
Si Si2 0.332928 0.676036 0.397554
Si Si3 0.825595 0.322301 0.338025
Si Si4 0.320706 0.325599 0.101921
Si Si5 0.417715 0.176331 0.244381
Si Si6 0.826306 0.178674 0.150341
Si Si7 0.920475 0.319590 0.500000
O O1 0.114198 0.750434 0.088131
O O2 0.104804 0.500000 0.000000
O O3 0.000000 0.700469 0.000000
O O4 0.345332 0.720216 0.500000
O O5 0.349611 0.500000 0.380790
O O6 0.252976 0.713904 0.371075
O O7 0.385209 0.776569 0.338885
O O8 0.835403 0.500000 0.318725
O O9 0.842981 0.229051 0.250122
O O10 0.879987 0.262050 0.412324
O O11 0.303660 0.500000 0.124782
O O12 0.384120 0.269880 0.163668
O O13 0.250973 0.229967 0.120183
O O14 0.344874 0.305330 0.000000
O O15 0.500000 0.215051 0.246503
O O16 0.402986 0.000000 0.227950
O O17 0.830442 0.000000 0.142318
O O18 0.920003 0.500000 0.500000
O O19 0.000000 0.254221 0.500000
#
# Coordination Sequence:
#
# PCOD8196331 Si02
#       7
#     4   8   8   8   8   8   4
#     4  11  25  45  67  91 122 163 210 257 305 359
#     4  10  20  36  61  89 117 158 209 258 301 357
#     4  10  19  35  60  89 121 159 207 254 296 356
#     4  11  23  40  65  92 120 157 205 255 299 360
#     4  11  25  42  60  88 126 162 199 251 313 371
#     4  12  24  38  62  94 126 162 202 249 307 368
#     4   9  18  34  59  91 124 159 202 252 302 350
#
# _framework density 19.202445000000001
#
# number of rings (size 3 to 8) (size 9 to 14) (size 15 to 20)
#    0.000    1.333    3.333    2.750    0.000    4.667 
#    0.000    5.417    0.000    0.500    0.000    0.000 
#    0.000    0.000    0.000    0.000    0.000    0.000 
#
# Total GULP energy -595460.521419 kJ/mol
# GULP energy per Si atom -12405.427530 kJ/mol
# Density = 1.915874 g / cm^3
# Si number density = 19.202445 Si / 1000 Ang^3
#
#
#
# Elastic Constant Matrix: (Units=GPa)
#
#
# Indices 1 2 3 4 5 6 
#
# 1 117.4343 69.8123 73.7468 0.0000 0.0000 0.0000
# 2 69.8123 101.5374 65.1258 0.0000 0.0000 0.0000
# 3 73.7468 65.1258 160.2922 0.0000 0.0000 0.0000
# 4 0.0000 0.0000 0.0000 -13.2289 0.0000 0.0000
# 5 0.0000 0.0000 0.0000 0.0000 36.6942 0.0000
# 6 0.0000 0.0000 0.0000 0.0000 0.0000 16.2788
#
#
#
# Elastic Compliance Matrix: (Units=1/GPa)
#
#
# Indices 1 2 3 4 5 6 
#
# 1 0.016038 -0.008512 -0.003920 0.000000 0.000000 0.000000
# 2 -0.008512 0.017838 -0.003331 0.000000 0.000000 0.000000
# 3 -0.003920 -0.003331 0.009395 0.000000 0.000000 0.000000
# 4 0.000000 0.000000 0.000000 -0.075592 0.000000 0.000000
# 5 0.000000 0.000000 0.000000 0.000000 0.027252 0.000000
# 6 0.000000 0.000000 0.000000 0.000000 0.000000 0.061430
#
#
# Mechanical properties :
#
#
# Convention : Reuss Voigt Hill
#
# Bulk Modulus (GPa) = 85.14969 88.51487 86.83228
# Shear Modulus (GPa) = 54.46490 19.32073 36.89282
#
# Velocity S-wave (km/s) = 5.33152 3.17544 4.38797
# Velocity P-wave (km/s) = 9.07411 7.72271 8.42555
#
# Compressibility (1/GPa) = 0.01174402
#
# Stress axis : x y z
#
# Youngs Moduli (GPa) = 62.35386 56.06069 106.43411
#
# Poissons Ratio (x) = 0.47721 0.41722
# Poissons Ratio (y) = 0.53078 0.35454
# Poissons Ratio (z) = 0.24443 0.18674
#
# Static dielectric constant tensor:
#      x y z
#    x 3.520040 0.000000 0.000000 
#    y 0.000000 3.471330 0.000000 
#    z 0.000000 0.000000 3.602480 
# 
# 
# High freq. dielectric constant tensor:
#      x y z
#    x 1.746050 0.000000 0.000000 
#    y 0.000000 1.741780 0.000000 
#    z 0.000000 0.000000 1.766740 
# 
# From -- ./inp_files/24442.got.cif
#   From: 2010.03.12/outbox.cif.g09.slc.cpg/sg47_13_cif.got.tgz:24442.got - 2010.04.14 03:12:58.
