data_PCOD8196333
_publ_section_title
;
Structure prediction by ZEFSAII (Michael W. Deem and Ramdas Pophale) SiO2 
 PCOD8196333
Probable space group: P M M M
;
_chemical_formula_sum "Si O2"
_cell_formula_units_Z 56
_cell_length_a 15.353178
_cell_length_b 8.957522
_cell_length_c 20.367053
_cell_angle_alpha 90.000000
_cell_angle_beta 90.000000
_cell_angle_gamma 90.000000
_cell_volume 2801.008083
_symmetry_space_group_name_H-M "P M M M"
_symmetry_group_IT_number 47
_symmetry_cell_setting 'orthorhombic'
loop_
_space_group_symop_operation_xyz
x,y,z
-x,-y,z
x,-y,-z
-x,y,-z
-x,-y,-z
x,y,-z
-x,y,z
x,-y,z
loop_
_atom_site_type_symbol
_atom_site_label
_atom_site_fract_x
_atom_site_fract_y
_atom_site_fract_z
Si Si1 0.720761 0.674914 0.573515
Si Si2 0.864560 0.330642 0.242026
Si Si3 0.268307 0.827898 0.927507
Si Si4 0.094402 0.677923 0.382311
Si Si5 0.095493 0.675655 0.102095
Si Si6 0.329934 0.670491 0.199868
Si Si7 0.598834 0.171136 0.680042
O O1 0.686786 0.708598 0.500000
O O2 0.716397 0.500000 0.589917
O O3 0.821550 0.732467 0.576770
O O4 0.660551 0.756107 0.625780
O O5 0.895528 0.500000 0.245667
O O6 0.897152 0.252741 0.308721
O O7 0.907432 0.261471 0.176802
O O8 0.761014 0.316951 0.237525
O O9 0.170506 0.763398 0.935578
O O10 0.325312 0.743041 0.872765
O O11 0.262619 0.000000 0.906685
O O12 0.311751 0.810194 0.000000
O O13 0.096849 0.500000 0.380232
O O14 0.000000 0.730424 0.411674
O O15 0.120208 0.500000 0.101102
O O16 0.000000 0.702262 0.070003
O O17 0.359488 0.500000 0.190300
O O18 0.396830 0.753597 0.247894
O O19 0.500000 0.187352 0.654884
O O20 0.626677 0.000000 0.687920
#
# Coordination Sequence:
#
# PCOD8196333 Si02
#       7
#     8   8   8   8   8   8   8
#     4  10  21  37  57  85 121 157 197 245 292 338
#     4   8  13  24  45  73 103 136 178 232 289 335
#     4  10  21  35  51  75 111 154 194 233 285 348
#     4   9  15  25  47  79 114 150 190 237 286 335
#     4   9  17  28  44  69 101 140 193 253 302 344
#     4  10  19  35  61  87 112 143 185 237 287 339
#     4  11  24  41  63  90 118 149 187 233 291 360
#
# _framework density 19.992802000000001
#
# number of rings (size 3 to 8) (size 9 to 14) (size 15 to 20)
#    0.000    2.429    1.429    2.571    0.000    5.429 
#    0.000    4.286    0.000    0.857    0.000    4.000 
#    0.000    0.000    0.000    0.000    0.000    0.000 
#
# Total GULP energy -693868.013528 kJ/mol
# GULP energy per Si atom -12390.500242 kJ/mol
# Density = 1.994730 g / cm^3
# Si number density = 19.992802 Si / 1000 Ang^3
#
#
#
# Elastic Constant Matrix: (Units=GPa)
#
#
# Indices 1 2 3 4 5 6 
#
# 1 81.6982 35.1775 42.2193 0.0000 0.0000 0.0000
# 2 35.1775 95.5922 54.3360 0.0000 0.0000 0.0000
# 3 42.2193 54.3360 118.2055 0.0000 0.0000 0.0000
# 4 0.0000 0.0000 0.0000 25.2008 0.0000 0.0000
# 5 0.0000 0.0000 0.0000 0.0000 0.5308 0.0000
# 6 0.0000 0.0000 0.0000 0.0000 0.0000 19.4014
#
#
#
# Elastic Compliance Matrix: (Units=1/GPa)
#
#
# Indices 1 2 3 4 5 6 
#
# 1 0.015849 -0.003539 -0.004034 0.000000 0.000000 0.000000
# 2 -0.003539 0.014952 -0.005609 0.000000 0.000000 0.000000
# 3 -0.004034 -0.005609 0.012479 0.000000 0.000000 0.000000
# 4 0.000000 0.000000 0.000000 0.039681 0.000000 0.000000
# 5 0.000000 0.000000 0.000000 0.000000 1.883938 0.000000
# 6 0.000000 0.000000 0.000000 0.000000 0.000000 0.051543
#
#
# Mechanical properties :
#
#
# Convention : Reuss Voigt Hill
#
# Bulk Modulus (GPa) = 59.11765 62.10683 60.61224
# Shear Modulus (GPa) = 2.43850 19.94415 11.19132
#
# Velocity S-wave (km/s) = 1.10559 3.16185 2.36851
# Velocity P-wave (km/s) = 5.59137 6.66797 6.15326
#
# Compressibility (1/GPa) = 0.01691542
#
# Stress axis : x y z
#
# Youngs Moduli (GPa) = 63.09686 66.88208 80.13640
#
# Poissons Ratio (x) = 0.23673 0.32324
# Poissons Ratio (y) = 0.22333 0.44946
# Poissons Ratio (z) = 0.25451 0.37512
#
# Static dielectric constant tensor:
#      x y z
#    x 3.544840 0.000000 0.000000 
#    y 0.000000 3.320090 0.000000 
#    z 0.000000 0.000000 3.742100 
# 
# 
# High freq. dielectric constant tensor:
#      x y z
#    x 1.763620 0.000000 0.000000 
#    y 0.000000 1.739530 0.000000 
#    z 0.000000 0.000000 1.788050 
# 
# From -- ./inp_files/11193.got.cif
#   From: 2010.03.12/outbox.cif.g09.slc.cpg/sg47_6_cif.got.tgz:11193.got - 2010.04.14 03:12:58.
