data_PCOD8196407
_publ_section_title
;
Structure prediction by ZEFSAII (Michael W. Deem and Ramdas Pophale) SiO2 
 PCOD8196407
Probable space group: P M M M
;
_chemical_formula_sum "Si O2"
_cell_formula_units_Z 40
_cell_length_a 8.932767
_cell_length_b 20.970125
_cell_length_c 14.330038
_cell_angle_alpha 90.000000
_cell_angle_beta 90.000000
_cell_angle_gamma 90.000000
_cell_volume 2684.320496
_symmetry_space_group_name_H-M "P M M M"
_symmetry_group_IT_number 47
_symmetry_cell_setting 'orthorhombic'
loop_
_space_group_symop_operation_xyz
x,y,z
-x,-y,z
x,-y,-z
-x,y,-z
-x,-y,-z
x,y,-z
-x,y,z
x,-y,z
loop_
_atom_site_type_symbol
_atom_site_label
_atom_site_fract_x
_atom_site_fract_y
_atom_site_fract_z
Si Si1 0.167697 0.636285 0.611253
Si Si2 0.671191 0.000000 0.610399
Si Si3 0.822524 0.071629 0.898609
Si Si4 0.326799 0.237576 0.390758
Si Si5 0.177943 0.500000 0.397706
Si Si6 0.177426 0.119966 0.295476
O O1 0.166668 0.630217 0.500000
O O2 0.279117 0.692031 0.643903
O O3 0.223390 0.567122 0.652858
O O4 0.000000 0.652474 0.646771
O O5 0.751614 0.936945 0.646184
O O6 0.500000 0.000000 0.644719
O O7 0.680833 0.000000 0.500000
O O8 0.768722 0.115600 0.812795
O O9 0.000000 0.069350 0.899863
O O10 0.761022 0.000000 0.882147
O O11 0.764730 0.097356 0.000000
O O12 0.292277 0.228949 0.500000
O O13 0.500000 0.227042 0.368466
O O14 0.230265 0.187221 0.334162
O O15 0.253063 0.500000 0.500000
O O16 0.000000 0.500000 0.407932
O O17 0.000000 0.114487 0.304761
#
# Coordination Sequence:
#
# PCOD8196407 Si02
#       6
#     8   4   8   8   4   8
#     4   8  13  23  39  57  76 102 138 175 206 239
#     4  11  23  35  44  57  82 112 137 167 208 243
#     4   8  14  27  47  68  85  97 117 159 212 257
#     4  10  20  31  40  54  82 117 145 171 207 243
#     4   7  10  18  35  57  77  97 128 173 214 237
#     4  11  20  31  48  66  79 101 138 173 203 242
#
# _framework density 14.901350000000001
#
# number of rings (size 3 to 8) (size 9 to 14) (size 15 to 20)
#    0.000    2.800    1.000    3.900    0.000    4.400 
#    0.000    0.500    0.000    6.000    0.000    0.000 
#    0.000    0.000    0.000    0.900    0.000   20.700 
#
# Total GULP energy -495561.197926 kJ/mol
# GULP energy per Si atom -12389.029948 kJ/mol
# Density = 1.486743 g / cm^3
# Si number density = 14.901350 Si / 1000 Ang^3
#
#
#
# Elastic Constant Matrix: (Units=GPa)
#
#
# Indices 1 2 3 4 5 6 
#
# 1 56.6544 36.1094 31.2920 0.0000 0.0000 0.0000
# 2 36.1094 119.8235 43.0876 0.0000 0.0000 0.0000
# 3 31.2920 43.0876 64.1517 0.0000 0.0000 0.0000
# 4 0.0000 0.0000 0.0000 0.9006 0.0000 0.0000
# 5 0.0000 0.0000 0.0000 0.0000 5.5582 0.0000
# 6 0.0000 0.0000 0.0000 0.0000 0.0000 8.3394
#
#
#
# Elastic Compliance Matrix: (Units=1/GPa)
#
#
# Indices 1 2 3 4 5 6 
#
# 1 0.025717 -0.004271 -0.009676 0.000000 0.000000 0.000000
# 2 -0.004271 0.011712 -0.005783 0.000000 0.000000 0.000000
# 3 -0.009676 -0.005783 0.024192 0.000000 0.000000 0.000000
# 4 0.000000 0.000000 0.000000 1.110374 0.000000 0.000000
# 5 0.000000 0.000000 0.000000 0.000000 0.179913 0.000000
# 6 0.000000 0.000000 0.000000 0.000000 0.000000 0.119913
#
#
# Mechanical properties :
#
#
# Convention : Reuss Voigt Hill
#
# Bulk Modulus (GPa) = 45.12300 51.28973 48.20637
# Shear Modulus (GPa) = 3.29236 11.63567 7.46401
#
# Velocity S-wave (km/s) = 1.48803 2.79740 2.24050
# Velocity P-wave (km/s) = 5.77055 6.70285 6.25409
#
# Compressibility (1/GPa) = 0.02216164
#
# Stress axis : x y z
#
# Youngs Moduli (GPa) = 38.88456 85.38064 41.33551
#
# Poissons Ratio (x) = 0.36463 0.39996
# Poissons Ratio (y) = 0.16606 0.23906
# Poissons Ratio (z) = 0.37625 0.49379
#
# Static dielectric constant tensor:
#      x y z
#    x 2.772580 0.000000 0.000000 
#    y 0.000000 3.216120 0.000000 
#    z 0.000000 0.000000 2.840780 
# 
# 
# High freq. dielectric constant tensor:
#      x y z
#    x 1.557390 0.000000 0.000000 
#    y 0.000000 1.573550 0.000000 
#    z 0.000000 0.000000 1.525080 
# 
# From -- ./inp_files/6629.got.cif
#   From: 2010.03.12/outbox.cif.g09.slc.cpg/sg47_4_cif.got.tgz:6629.got - 2010.04.14 03:12:58.
