data_PCOD8196379
_publ_section_title
;
Structure prediction by ZEFSAII (Michael W. Deem and Ramdas Pophale) SiO2 
 PCOD8196379
Probable space group: P M M M
;
_chemical_formula_sum "Si O2"
_cell_formula_units_Z 40
_cell_length_a 18.378805
_cell_length_b 8.196945
_cell_length_c 18.126670
_cell_angle_alpha 90.000000
_cell_angle_beta 90.000000
_cell_angle_gamma 90.000000
_cell_volume 2730.783810
_symmetry_space_group_name_H-M "P M M M"
_symmetry_group_IT_number 47
_symmetry_cell_setting 'orthorhombic'
loop_
_space_group_symop_operation_xyz
x,y,z
-x,-y,z
x,-y,-z
-x,y,-z
-x,-y,-z
x,y,-z
-x,y,z
x,-y,z
loop_
_atom_site_type_symbol
_atom_site_label
_atom_site_fract_x
_atom_site_fract_y
_atom_site_fract_z
Si Si1 0.918616 0.500000 0.587378
Si Si2 0.174139 0.186997 0.586852
Si Si3 0.583439 0.686951 0.232774
Si Si4 0.578178 0.684747 0.500000
Si Si5 0.413793 0.815887 0.920173
Si Si6 0.333252 0.815702 0.367493
O O1 0.920974 0.500000 0.500000
O O2 0.880985 0.670253 0.613493
O O3 0.000000 0.500000 0.620461
O O4 0.190012 0.202471 0.500000
O O5 0.247870 0.226164 0.631136
O O6 0.146213 0.000000 0.604080
O O7 0.500000 0.750040 0.239952
O O8 0.588459 0.500000 0.255763
O O9 0.612835 0.707832 0.148867
O O10 0.635673 0.788533 0.285876
O O11 0.556862 0.500000 0.500000
O O12 0.500000 0.780985 0.500000
O O13 0.623602 0.711951 0.573478
O O14 0.500000 0.811491 0.923045
O O15 0.386137 0.000000 0.907850
O O16 0.384237 0.750352 0.000000
O O17 0.344817 0.000000 0.392043
#
# Coordination Sequence:
#
# PCOD8196379 Si02
#       6
#     4   8   8   4   8   8
#     4   9  18  30  48  70  86 108 133 164 215 257
#     4   9  18  31  46  65  85 109 142 175 211 259
#     4  10  20  30  40  58  82 107 140 184 225 257
#     4  11  23  33  43  59  77 104 143 188 230 260
#     4   8  14  26  43  59  75  99 132 171 217 264
#     4  11  21  32  45  59  78 110 146 179 218 257
#
# _framework density 14.647809000000001
#
# number of rings (size 3 to 8) (size 9 to 14) (size 15 to 20)
#    0.000    2.400    1.000    2.700    2.800    5.200 
#    0.000    4.000    0.000    0.000    0.000    0.000 
#    0.000    0.000    0.000    0.000    0.000    2.000 
#
# Total GULP energy -495648.467423 kJ/mol
# GULP energy per Si atom -12391.211686 kJ/mol
# Density = 1.461447 g / cm^3
# Si number density = 14.647809 Si / 1000 Ang^3
#
#
#
# Elastic Constant Matrix: (Units=GPa)
#
#
# Indices 1 2 3 4 5 6 
#
# 1 78.9637 46.5919 31.5810 0.0000 0.0000 0.0000
# 2 46.5919 73.0704 17.4384 0.0000 0.0000 0.0000
# 3 31.5810 17.4384 73.7601 0.0000 0.0000 0.0000
# 4 0.0000 0.0000 0.0000 12.5296 0.0000 0.0000
# 5 0.0000 0.0000 0.0000 0.0000 -1.6697 0.0000
# 6 0.0000 0.0000 0.0000 0.0000 0.0000 18.4351
#
#
#
# Elastic Compliance Matrix: (Units=1/GPa)
#
#
# Indices 1 2 3 4 5 6 
#
# 1 0.023127 -0.013124 -0.006799 0.000000 0.000000 0.000000
# 2 -0.013124 0.021951 0.000429 0.000000 0.000000 0.000000
# 3 -0.006799 0.000429 0.016367 0.000000 0.000000 0.000000
# 4 0.000000 0.000000 0.000000 0.079811 0.000000 0.000000
# 5 0.000000 0.000000 0.000000 0.000000 -0.598913 0.000000
# 6 0.000000 0.000000 0.000000 0.000000 0.000000 0.054244
#
#
# Mechanical properties :
#
#
# Convention : Reuss Voigt Hill
#
# Bulk Modulus (GPa) = 44.52799 46.33520 45.43160
# Shear Modulus (GPa) = -14.00798 14.53787 0.26495
#
# Velocity S-wave (km/s) = -3.09580 3.15381 0.42576
# Velocity P-wave (km/s) = 4.20553 6.70548 5.59687
#
# Compressibility (1/GPa) = 0.02245778
#
# Stress axis : x y z
#
# Youngs Moduli (GPa) = 43.23957 45.55584 61.09819
#
# Poissons Ratio (x) = 0.59787 0.41542
# Poissons Ratio (y) = 0.56747 -0.02623
# Poissons Ratio (z) = 0.29400 -0.01956
#
# Static dielectric constant tensor:
#      x y z
#    x 2.652210 0.000000 0.000000 
#    y 0.000000 2.995280 0.000000 
#    z 0.000000 0.000000 2.999060 
# 
# 
# High freq. dielectric constant tensor:
#      x y z
#    x 1.515300 0.000000 0.000000 
#    y 0.000000 1.573560 0.000000 
#    z 0.000000 0.000000 1.539120 
# 
# From -- ./inp_files/9372.got.cif
#   From: 2010.03.12/outbox.cif.g09.slc.cpg/sg47_5_cif.got.tgz:9372.got - 2010.04.14 03:12:58.
