data_PCOD8196514
_publ_section_title
;
Structure prediction by ZEFSAII (Michael W. Deem and Ramdas Pophale) SiO2 
 PCOD8196514
Probable space group: P M M M
;
_chemical_formula_sum "Si O2"
_cell_formula_units_Z 52
_cell_length_a 8.070824
_cell_length_b 33.971193
_cell_length_c 12.627156
_cell_angle_alpha 90.000000
_cell_angle_beta 90.000000
_cell_angle_gamma 90.000000
_cell_volume 3462.057060
_symmetry_space_group_name_H-M "P M M M"
_symmetry_group_IT_number 47
_symmetry_cell_setting 'orthorhombic'
loop_
_space_group_symop_operation_xyz
x,y,z
-x,-y,z
x,-y,-z
-x,y,-z
-x,-y,-z
x,y,-z
-x,y,z
x,-y,z
loop_
_atom_site_type_symbol
_atom_site_label
_atom_site_fract_x
_atom_site_fract_y
_atom_site_fract_z
Si Si1 0.691570 0.044804 0.223507
Si Si2 0.184062 0.455474 0.374177
Si Si3 0.688660 0.810673 0.377405
Si Si4 0.190438 0.891888 0.382080
Si Si5 0.500000 0.407684 0.626393
Si Si6 0.500000 0.681550 0.373738
Si Si7 0.816361 0.270381 0.373848
Si Si8 0.813435 0.953323 0.000000
O O1 0.500000 0.047069 0.250428
O O2 0.787228 0.070063 0.309865
O O3 0.722892 0.062119 0.105770
O O4 0.757809 0.000000 0.231454
O O5 0.189984 0.454453 0.500000
O O6 0.213388 0.500000 0.334137
O O7 0.332890 0.428484 0.328633
O O8 0.000000 0.440802 0.336833
O O9 0.733828 0.815869 0.500000
O O10 0.500000 0.798577 0.359382
O O11 0.725919 0.853452 0.326413
O O12 0.794507 0.774333 0.330101
O O13 0.264184 0.900467 0.500000
O O14 0.000000 0.881689 0.391775
O O15 0.500000 0.409453 0.500000
O O16 0.500000 0.363075 0.667865
O O17 0.500000 0.683078 0.500000
O O18 0.331750 0.702076 0.329291
O O19 0.801930 0.269703 0.500000
O O20 0.000000 0.285662 0.339096
O O21 0.000000 0.937314 0.000000
O O22 0.805722 0.000000 0.000000
#
# Coordination Sequence:
#
# PCOD8196514 Si02
#       8
#     8   8   8   8   4   4   8   4
#     4  10  20  33  48  65  85 108 134 162 192 228
#     4   8  13  20  28  36  45  60  84 112 145 189
#     4   9  15  25  40  54  70  91 117 147 176 210
#     4  10  20  31  43  62  85 108 134 161 193 230
#     4   9  15  20  27  36  50  66  84 113 151 189
#     4   9  16  23  28  41  58  74  97 125 157 196
#     4   9  15  23  34  45  59  80 105 132 162 198
#     4   9  17  31  51  69  83 103 131 161 191 223
#
# _framework density 15.019973
#
# number of rings (size 3 to 8) (size 9 to 14) (size 15 to 20)
#    0.000    2.846    0.769    2.308    0.000    6.462 
#    0.000    4.615    0.000    0.000    0.000    0.000 
#    0.000    0.000    0.000    0.000    0.000    0.000 
#
# Total GULP energy -644337.972816 kJ/mol
# GULP energy per Si atom -12391.114862 kJ/mol
# Density = 1.498579 g / cm^3
# Si number density = 15.019973 Si / 1000 Ang^3
#
#
#
# Elastic Constant Matrix: (Units=GPa)
#
#
# Indices 1 2 3 4 5 6 
#
# 1 100.2009 53.1165 12.5515 0.0000 0.0000 0.0000
# 2 53.1165 96.6301 20.7656 0.0000 0.0000 0.0000
# 3 12.5515 20.7656 28.6751 0.0000 0.0000 0.0000
# 4 0.0000 0.0000 0.0000 0.0902 0.0000 0.0000
# 5 0.0000 0.0000 0.0000 0.0000 10.5143 0.0000
# 6 0.0000 0.0000 0.0000 0.0000 0.0000 21.8614
#
#
#
# Elastic Compliance Matrix: (Units=1/GPa)
#
#
# Indices 1 2 3 4 5 6 
#
# 1 0.014094 -0.007605 -0.000662 0.000000 0.000000 0.000000
# 2 -0.007605 0.016360 -0.008518 0.000000 0.000000 0.000000
# 3 -0.000662 -0.008518 0.041332 0.000000 0.000000 0.000000
# 4 0.000000 0.000000 0.000000 11.087983 0.000000 0.000000
# 5 0.000000 0.000000 0.000000 0.000000 0.095109 0.000000
# 6 0.000000 0.000000 0.000000 0.000000 0.000000 0.045743
#
#
# Mechanical properties :
#
#
# Convention : Reuss Voigt Hill
#
# Bulk Modulus (GPa) = 26.16761 44.26370 35.21565
# Shear Modulus (GPa) = 0.44065 15.76468 8.10266
#
# Velocity S-wave (km/s) = 0.54223 3.24324 2.32515
# Velocity P-wave (km/s) = 4.22513 6.59990 5.54123
#
# Compressibility (1/GPa) = 0.03821518
#
# Stress axis : x y z
#
# Youngs Moduli (GPa) = 70.94989 61.12507 24.19446
#
# Poissons Ratio (x) = 0.46488 0.01601
# Poissons Ratio (y) = 0.53960 0.20610
# Poissons Ratio (z) = 0.04695 0.52068
#
# Static dielectric constant tensor:
#      x y z
#    x 3.148630 0.000000 0.000000 
#    y 0.000000 2.956700 0.000000 
#    z 0.000000 0.000000 2.293040 
# 
# 
# High freq. dielectric constant tensor:
#      x y z
#    x 1.597760 0.000000 0.000000 
#    y 0.000000 1.570570 0.000000 
#    z 0.000000 0.000000 1.480000 
# 
# From -- ./inp_files/15700.got.cif
#   From: 2010.03.12/outbox.cif.g09.slc.cpg/sg47_8_cif.got.tgz:15700.got - 2010.04.14 03:12:58.
