data_PCOD8196902
_publ_section_title
;
Structure prediction by ZEFSAII (Michael W. Deem and Ramdas Pophale) SiO2 
 PCOD8196902
Probable space group: P M M M
;
_chemical_formula_sum "Si O2"
_cell_formula_units_Z 48
_cell_length_a 30.943489
_cell_length_b 9.488216
_cell_length_c 9.170877
_cell_angle_alpha 90.000000
_cell_angle_beta 90.000000
_cell_angle_gamma 90.000000
_cell_volume 2692.555799
_symmetry_space_group_name_H-M "P M M M"
_symmetry_group_IT_number 47
_symmetry_cell_setting 'orthorhombic'
loop_
_space_group_symop_operation_xyz
x,y,z
-x,-y,z
x,-y,-z
-x,y,-z
-x,-y,-z
x,y,-z
-x,y,z
x,-y,z
loop_
_atom_site_type_symbol
_atom_site_label
_atom_site_fract_x
_atom_site_fract_y
_atom_site_fract_z
Si Si1 0.298906 0.659463 0.326186
Si Si2 0.952601 0.657920 0.326575
Si Si3 0.875529 0.157567 0.326554
Si Si4 0.380477 0.161515 0.327274
Si Si5 0.780053 0.841295 0.326616
Si Si6 0.550155 0.340256 0.831099
O O1 0.298059 0.657842 0.500000
O O2 0.301535 0.500000 0.265070
O O3 0.339705 0.748850 0.269284
O O4 0.255621 0.733823 0.263692
O O5 0.949141 0.658739 0.500000
O O6 0.947308 0.500000 0.267022
O O7 0.913738 0.748708 0.256913
O O8 0.000000 0.717355 0.280229
O O9 0.878314 0.160996 0.500000
O O10 0.827874 0.210862 0.277324
O O11 0.882650 0.000000 0.268717
O O12 0.383634 0.169436 0.500000
O O13 0.423775 0.227880 0.262833
O O14 0.375552 0.000000 0.274954
O O15 0.777337 0.844111 0.500000
O O16 0.771195 0.000000 0.268421
O O17 0.500000 0.311591 0.801060
O O18 0.562134 0.500000 0.783997
O O19 0.561193 0.318000 0.000000
#
# Coordination Sequence:
#
# PCOD8196902 Si02
#       6
#     8   8   8   8   8   8
#     4   9  16  25  38  56  77 102 132 164 200 244
#     4   8  13  19  24  30  42  61  87 124 171 219
#     4   8  13  19  26  36  49  68  96 130 171 222
#     4  10  20  32  47  69  96 123 150 182 220 261
#     4   8  13  21  31  43  62  86 111 143 186 235
#     4   9  19  36  55  73  94 121 152 185 221 260
#
# _framework density 17.826929
#
# number of rings (size 3 to 8) (size 9 to 14) (size 15 to 20)
#    0.000    3.333    0.000    3.000    0.000    5.000 
#    0.000    7.500    0.000    0.000    0.000    0.000 
#    0.000    0.000    0.000    0.000    0.000    0.000 
#
# Total GULP energy -594849.835675 kJ/mol
# GULP energy per Si atom -12392.704910 kJ/mol
# Density = 1.778635 g / cm^3
# Si number density = 17.826929 Si / 1000 Ang^3
#
#
#
# Elastic Constant Matrix: (Units=GPa)
#
#
# Indices 1 2 3 4 5 6 
#
# 1 150.1522 95.8659 16.0893 0.0000 0.0000 0.0000
# 2 95.8659 140.0701 15.8320 0.0000 0.0000 0.0000
# 3 16.0893 15.8320 5.6111 0.0000 0.0000 0.0000
# 4 0.0000 0.0000 0.0000 11.1029 0.0000 0.0000
# 5 0.0000 0.0000 0.0000 0.0000 -0.5964 0.0000
# 6 0.0000 0.0000 0.0000 0.0000 0.0000 43.3446
#
#
#
# Elastic Compliance Matrix: (Units=1/GPa)
#
#
# Indices 1 2 3 4 5 6 
#
# 1 0.012934 -0.006842 -0.017780 0.000000 0.000000 0.000000
# 2 -0.006842 0.014102 -0.020170 0.000000 0.000000 0.000000
# 3 -0.017780 -0.020170 0.286111 0.000000 0.000000 0.000000
# 4 0.000000 0.000000 0.000000 0.090067 0.000000 0.000000
# 5 0.000000 0.000000 0.000000 0.000000 -1.676649 0.000000
# 6 0.000000 0.000000 0.000000 0.000000 0.000000 0.023071
#
#
# Mechanical properties :
#
#
# Convention : Reuss Voigt Hill
#
# Bulk Modulus (GPa) = 4.47302 61.26752 32.87027
# Shear Modulus (GPa) = -4.60295 21.97328 8.68516
#
# Velocity S-wave (km/s) = -1.60861 3.51463 2.20964
# Velocity P-wave (km/s) = 0.96726 7.13532 4.99886
#
# Compressibility (1/GPa) = 0.22356236
#
# Stress axis : x y z
#
# Youngs Moduli (GPa) = 77.31783 70.91188 3.49514
#
# Poissons Ratio (x) = 0.48520 0.06214
# Poissons Ratio (y) = 0.52903 0.07050
# Poissons Ratio (z) = 1.37473 1.43028
#
# Static dielectric constant tensor:
#      x y z
#    x 3.650860 0.000000 0.000000 
#    y 0.000000 3.525740 0.000000 
#    z 0.000000 0.000000 2.501540 
# 
# 
# High freq. dielectric constant tensor:
#      x y z
#    x 1.708570 0.000000 0.000000 
#    y 0.000000 1.693540 0.000000 
#    z 0.000000 0.000000 1.603050 
# 
# From -- ./inp_files/15609.got.cif
#   From: 2010.03.12/outbox.cif.g09.slc.cpg/sg47_8_cif.got.tgz:15609.got - 2010.04.14 03:12:58.
