data_PCOD8196857
_publ_section_title
;
Structure prediction by ZEFSAII (Michael W. Deem and Ramdas Pophale) SiO2 
 PCOD8196857
Probable space group: P M M M
;
_chemical_formula_sum "Si O2"
_cell_formula_units_Z 52
_cell_length_a 9.155842
_cell_length_b 33.608124
_cell_length_c 9.672590
_cell_angle_alpha 90.000000
_cell_angle_beta 90.000000
_cell_angle_gamma 90.000000
_cell_volume 2976.359181
_symmetry_space_group_name_H-M "P M M M"
_symmetry_group_IT_number 47
_symmetry_cell_setting 'orthorhombic'
loop_
_space_group_symop_operation_xyz
x,y,z
-x,-y,z
x,-y,-z
-x,y,-z
-x,-y,-z
x,y,-z
-x,y,z
x,-y,z
loop_
_atom_site_type_symbol
_atom_site_label
_atom_site_fract_x
_atom_site_fract_y
_atom_site_fract_z
Si Si1 0.671012 0.344112 0.660484
Si Si2 0.168471 0.279717 0.162172
Si Si3 0.173217 0.809755 0.847372
Si Si4 0.665463 0.500000 0.334977
Si Si5 0.835088 0.576992 0.335678
Si Si6 0.827560 0.120040 0.342161
Si Si7 0.664885 0.956499 0.335739
O O1 0.706406 0.335921 0.500000
O O2 0.500000 0.350420 0.684596
O O3 0.726380 0.307274 0.749236
O O4 0.753042 0.383433 0.714653
O O5 0.215932 0.234679 0.199958
O O6 0.000000 0.287473 0.203129
O O7 0.191458 0.287836 0.000000
O O8 0.236873 0.842374 0.741672
O O9 0.000000 0.812645 0.852985
O O10 0.237252 0.818489 0.000000
O O11 0.500000 0.500000 0.278432
O O12 0.664942 0.500000 0.500000
O O13 0.748913 0.538788 0.277221
O O14 0.837059 0.575183 0.500000
O O15 0.000000 0.576949 0.276874
O O16 0.776982 0.125752 0.500000
O O17 0.764625 0.079131 0.277354
O O18 0.000000 0.117519 0.329545
O O19 0.672749 0.956444 0.500000
O O20 0.500000 0.949189 0.285189
O O21 0.719482 0.000000 0.282051
#
# Coordination Sequence:
#
# PCOD8196857 Si02
#       7
#     8   8   8   4   8   8   8
#     4  10  20  32  46  68  98 127 155 192 239 283
#     4   9  18  33  52  71  90 118 158 196 230 276
#     4   8  15  29  47  65  87 115 144 176 218 268
#     4   9  15  23  37  59  90 125 156 189 232 279
#     4   9  16  26  41  62  89 122 159 195 231 274
#     4   9  16  25  41  67  91 109 138 181 220 253
#     4   8  14  25  40  58  83 115 145 172 209 257
#
# _framework density 17.471008000000001
#
# number of rings (size 3 to 8) (size 9 to 14) (size 15 to 20)
#    0.000    3.154    0.000    2.538    0.000    4.923 
#    0.000    3.846    0.000    3.692    0.000    3.769 
#    0.000    4.308    0.000    0.000    0.000    0.000 
#
# Total GULP energy -644558.166470 kJ/mol
# GULP energy per Si atom -12395.349355 kJ/mol
# Density = 1.743124 g / cm^3
# Si number density = 17.471008 Si / 1000 Ang^3
#
#
#
# Elastic Constant Matrix: (Units=GPa)
#
#
# Indices 1 2 3 4 5 6 
#
# 1 83.0940 64.5658 28.4739 0.0000 0.0000 0.0000
# 2 64.5658 174.1504 53.3633 0.0000 0.0000 0.0000
# 3 28.4739 53.3633 39.3572 0.0000 0.0000 0.0000
# 4 0.0000 0.0000 0.0000 1.8116 0.0000 0.0000
# 5 0.0000 0.0000 0.0000 0.0000 14.6805 0.0000
# 6 0.0000 0.0000 0.0000 0.0000 0.0000 19.8780
#
#
#
# Elastic Compliance Matrix: (Units=1/GPa)
#
#
# Indices 1 2 3 4 5 6 
#
# 1 0.017897 -0.004564 -0.006760 0.000000 0.000000 0.000000
# 2 -0.004564 0.010987 -0.011596 0.000000 0.000000 0.000000
# 3 -0.006760 -0.011596 0.046021 0.000000 0.000000 0.000000
# 4 0.000000 0.000000 0.000000 0.552003 0.000000 0.000000
# 5 0.000000 0.000000 0.000000 0.000000 0.068117 0.000000
# 6 0.000000 0.000000 0.000000 0.000000 0.000000 0.050307
#
#
# Mechanical properties :
#
#
# Convention : Reuss Voigt Hill
#
# Bulk Modulus (GPa) = 34.40378 65.48973 49.94675
# Shear Modulus (GPa) = 6.24328 17.28726 11.76527
#
# Velocity S-wave (km/s) = 1.89242 3.14902 2.59784
# Velocity P-wave (km/s) = 4.95073 7.12656 6.13586
#
# Compressibility (1/GPa) = 0.02906658
#
# Stress axis : x y z
#
# Youngs Moduli (GPa) = 55.87424 91.01385 21.72918
#
# Poissons Ratio (x) = 0.41538 0.14689
# Poissons Ratio (y) = 0.25501 0.25196
# Poissons Ratio (z) = 0.37772 1.05535
#
# Static dielectric constant tensor:
#      x y z
#    x 3.154660 0.000000 0.000000 
#    y 0.000000 3.628880 0.000000 
#    z 0.000000 0.000000 2.936820 
# 
# 
# High freq. dielectric constant tensor:
#      x y z
#    x 1.662270 0.000000 0.000000 
#    y 0.000000 1.692960 0.000000 
#    z 0.000000 0.000000 1.623830 
# 
# From -- ./inp_files/15467.got.cif
#   From: 2010.03.12/outbox.cif.g09.slc.cpg/sg47_8_cif.got.tgz:15467.got - 2010.04.14 03:12:58.
