data_PCOD8196306
_publ_section_title
;
Structure prediction by ZEFSAII (Michael W. Deem and Ramdas Pophale) SiO2 
 PCOD8196306
Probable space group: P M M M
;
_chemical_formula_sum "Si O2"
_cell_formula_units_Z 64
_cell_length_a 9.388390
_cell_length_b 14.483865
_cell_length_c 25.516109
_cell_angle_alpha 90.000000
_cell_angle_beta 90.000000
_cell_angle_gamma 90.000000
_cell_volume 3469.684924
_symmetry_space_group_name_H-M "P M M M"
_symmetry_group_IT_number 47
_symmetry_cell_setting 'orthorhombic'
loop_
_space_group_symop_operation_xyz
x,y,z
-x,-y,z
x,-y,-z
-x,y,-z
-x,-y,-z
x,y,-z
-x,y,z
x,-y,z
loop_
_atom_site_type_symbol
_atom_site_label
_atom_site_fract_x
_atom_site_fract_y
_atom_site_fract_z
Si Si1 0.169652 0.203637 0.939960
Si Si2 0.668629 0.599601 0.713759
Si Si3 0.665422 0.395812 0.595238
Si Si4 0.668880 0.794867 0.748597
Si Si5 0.662863 0.893786 0.853645
Si Si6 0.840744 0.597370 0.062173
Si Si7 0.833025 0.892965 0.344649
Si Si8 0.836501 0.770766 0.558107
O O1 0.241662 0.126712 0.904225
O O2 0.229583 0.305089 0.920644
O O3 0.000000 0.199831 0.933788
O O4 0.213127 0.183724 0.000000
O O5 0.500000 0.594293 0.712587
O O6 0.726982 0.500000 0.735500
O O7 0.722829 0.614227 0.654608
O O8 0.718156 0.687127 0.748242
O O9 0.500000 0.370138 0.591930
O O10 0.691639 0.500000 0.574844
O O11 0.750362 0.324562 0.559677
O O12 0.500000 0.805627 0.739988
O O13 0.717066 0.834429 0.804453
O O14 0.746271 0.850727 0.703247
O O15 0.500000 0.869978 0.867438
O O16 0.681331 0.000000 0.838274
O O17 0.762619 0.500000 0.079615
O O18 0.000000 0.593946 0.085039
O O19 0.849131 0.601024 0.000000
O O20 0.783627 0.843971 0.398549
O O21 0.000000 0.878759 0.333884
O O22 0.793814 0.000000 0.350105
O O23 0.815332 0.814067 0.500000
O O24 0.000000 0.745891 0.568441
#
# Coordination Sequence:
#
# PCOD8196306 Si02
#       8
#     8   8   8   8   8   8   8   8
#     4   9  18  33  54  79 104 134 175 216 251 294
#     4   8  14  27  51  80 104 128 161 201 248 301
#     4   9  17  31  52  77 103 133 171 211 252 302
#     4  10  19  35  59  80 101 131 168 210 252 303
#     4  10  22  37  51  73 105 138 171 209 259 312
#     4   7  10  20  42  71  99 126 158 197 241 288
#     4  10  21  36  54  76 100 129 169 216 264 308
#     4  10  21  35  50  72 104 139 173 210 255 309
#
# _framework density 18.445478999999999
#
# number of rings (size 3 to 8) (size 9 to 14) (size 15 to 20)
#    0.000    2.875    1.250    2.250    0.000    3.000 
#    0.000    4.375    0.000    1.500    0.000    3.500 
#    0.000    0.000    0.000    0.000    0.000    0.000 
#
# Total GULP energy -792998.122852 kJ/mol
# GULP energy per Si atom -12390.595670 kJ/mol
# Density = 1.840350 g / cm^3
# Si number density = 18.445479 Si / 1000 Ang^3
#
#
#
# Elastic Constant Matrix: (Units=GPa)
#
#
# Indices 1 2 3 4 5 6 
#
# 1 35.3247 35.1765 36.0876 0.0000 0.0000 0.0000
# 2 35.1765 124.3959 61.0980 0.0000 0.0000 0.0000
# 3 36.0876 61.0980 106.2135 0.0000 0.0000 0.0000
# 4 0.0000 0.0000 0.0000 25.4220 0.0000 0.0000
# 5 0.0000 0.0000 0.0000 0.0000 24.2941 0.0000
# 6 0.0000 0.0000 0.0000 0.0000 0.0000 23.5792
#
#
#
# Elastic Compliance Matrix: (Units=1/GPa)
#
#
# Indices 1 2 3 4 5 6 
#
# 1 0.048229 -0.007791 -0.011905 0.000000 0.000000 0.000000
# 2 -0.007791 0.012463 -0.004522 0.000000 0.000000 0.000000
# 3 -0.011905 -0.004522 0.016061 0.000000 0.000000 0.000000
# 4 0.000000 0.000000 0.000000 0.039336 0.000000 0.000000
# 5 0.000000 0.000000 0.000000 0.000000 0.041162 0.000000
# 6 0.000000 0.000000 0.000000 0.000000 0.000000 0.042410
#
#
# Mechanical properties :
#
#
# Convention : Reuss Voigt Hill
#
# Bulk Modulus (GPa) = 35.31405 58.96203 47.13804
# Shear Modulus (GPa) = 19.41470 23.56385 21.48927
#
# Velocity S-wave (km/s) = 3.24781 3.57807 3.41694
# Velocity P-wave (km/s) = 5.76637 7.00750 6.41701
#
# Compressibility (1/GPa) = 0.02831734
#
# Stress axis : x y z
#
# Youngs Moduli (GPa) = 20.73439 80.23717 62.26210
#
# Poissons Ratio (x) = 0.62513 0.74122
# Poissons Ratio (y) = 0.16154 0.28156
# Poissons Ratio (z) = 0.24684 0.36284
#
# Static dielectric constant tensor:
#      x y z
#    x 3.043070 0.000000 0.000000 
#    y 0.000000 3.886080 0.000000 
#    z 0.000000 0.000000 3.212140 
# 
# 
# High freq. dielectric constant tensor:
#      x y z
#    x 1.677610 0.000000 0.000000 
#    y 0.000000 1.733610 0.000000 
#    z 0.000000 0.000000 1.697230 
# 
# From -- ./inp_files/32102.got.cif
#   From: 2010.03.12/outbox.cif.g09.slc.cpg/sg47_17_cif.got.tgz:32102.got - 2010.04.14 03:12:58.
