data_PCOD8196580
_publ_section_title
;
Structure prediction by ZEFSAII (Michael W. Deem and Ramdas Pophale) SiO2 
 PCOD8196580
Probable space group: P M M M
;
_chemical_formula_sum "Si O2"
_cell_formula_units_Z 44
_cell_length_a 9.606718
_cell_length_b 14.123724
_cell_length_c 20.715279
_cell_angle_alpha 90.000000
_cell_angle_beta 90.000000
_cell_angle_gamma 90.000000
_cell_volume 2810.703610
_symmetry_space_group_name_H-M "P M M M"
_symmetry_group_IT_number 47
_symmetry_cell_setting 'orthorhombic'
loop_
_space_group_symop_operation_xyz
x,y,z
-x,-y,z
x,-y,-z
-x,y,-z
-x,-y,-z
x,y,-z
-x,y,z
x,-y,z
loop_
_atom_site_type_symbol
_atom_site_label
_atom_site_fract_x
_atom_site_fract_y
_atom_site_fract_z
Si Si1 0.338154 0.110458 0.311331
Si Si2 0.843672 0.112466 0.428828
Si Si3 0.341475 0.606678 0.119099
Si Si4 0.843577 0.612086 0.000000
Si Si5 0.659765 0.794173 0.818487
Si Si6 0.841309 0.889058 0.927265
O O1 0.500000 0.128852 0.323489
O O2 0.258868 0.151777 0.373856
O O3 0.281375 0.168021 0.249468
O O4 0.306090 0.000000 0.299634
O O5 0.797199 0.149212 0.500000
O O6 0.000000 0.147405 0.413704
O O7 0.838200 0.000000 0.428706
O O8 0.500000 0.608555 0.092638
O O9 0.302387 0.500000 0.141902
O O10 0.325451 0.679584 0.178849
O O11 0.239146 0.644878 0.063392
O O12 0.850419 0.500000 0.000000
O O13 0.000000 0.655520 0.000000
O O14 0.500000 0.826413 0.825096
O O15 0.740141 0.838420 0.878049
O O16 0.000000 0.867672 0.907308
O O17 0.811341 0.000000 0.924977
O O18 0.813184 0.850762 0.000000
#
# Coordination Sequence:
#
# PCOD8196580 Si02
#       6
#     8   8   8   4   8   8
#     4   9  17  28  41  60  87 114 140 172 207 244
#     4   8  14  25  41  61  85 113 143 170 196 235
#     4   9  18  32  47  62  83 110 139 174 218 267
#     4   9  17  29  45  63  80  99 128 171 221 266
#     4  10  20  31  45  64  85 111 145 180 215 257
#     4   9  19  34  47  60  81 109 142 180 219 257
#
# _framework density 15.654442
#
# number of rings (size 3 to 8) (size 9 to 14) (size 15 to 20)
#    0.000    3.000    0.000    1.909    1.273    4.364 
#    0.000    4.545    0.000    0.000    0.000    0.000 
#    0.000    0.727    0.000    9.091    0.000    1.818 
#
# Total GULP energy -545383.613090 kJ/mol
# GULP energy per Si atom -12395.082116 kJ/mol
# Density = 1.561881 g / cm^3
# Si number density = 15.654442 Si / 1000 Ang^3
#
#
#
# Elastic Constant Matrix: (Units=GPa)
#
#
# Indices 1 2 3 4 5 6 
#
# 1 67.9946 29.5828 58.5438 0.0000 0.0000 0.0000
# 2 29.5828 41.5562 50.4440 0.0000 0.0000 0.0000
# 3 58.5438 50.4440 128.7956 0.0000 0.0000 0.0000
# 4 0.0000 0.0000 0.0000 10.9925 0.0000 0.0000
# 5 0.0000 0.0000 0.0000 0.0000 24.6840 0.0000
# 6 0.0000 0.0000 0.0000 0.0000 0.0000 12.9369
#
#
#
# Elastic Compliance Matrix: (Units=1/GPa)
#
#
# Indices 1 2 3 4 5 6 
#
# 1 0.025411 -0.007756 -0.008513 0.000000 0.000000 0.000000
# 2 -0.007756 0.048240 -0.015368 0.000000 0.000000 0.000000
# 3 -0.008513 -0.015368 0.017653 0.000000 0.000000 0.000000
# 4 0.000000 0.000000 0.000000 0.090971 0.000000 0.000000
# 5 0.000000 0.000000 0.000000 0.000000 0.040512 0.000000
# 6 0.000000 0.000000 0.000000 0.000000 0.000000 0.077298
#
#
# Mechanical properties :
#
#
# Convention : Reuss Voigt Hill
#
# Bulk Modulus (GPa) = 35.67609 57.27641 46.47625
# Shear Modulus (GPa) = 13.41551 16.37442 14.89497
#
# Velocity S-wave (km/s) = 2.93059 3.23769 3.08796
# Velocity P-wave (km/s) = 5.85580 7.11648 6.51670
#
# Compressibility (1/GPa) = 0.02802997
#
# Stress axis : x y z
#
# Youngs Moduli (GPa) = 39.35285 20.72958 56.64795
#
# Poissons Ratio (x) = 0.16078 0.48224
# Poissons Ratio (y) = 0.30522 0.87058
# Poissons Ratio (z) = 0.33501 0.31858
#
# Static dielectric constant tensor:
#      x y z
#    x 3.101470 0.000000 0.000000 
#    y 0.000000 2.872310 0.000000 
#    z 0.000000 0.000000 3.083640 
# 
# 
# High freq. dielectric constant tensor:
#      x y z
#    x 1.604390 0.000000 0.000000 
#    y 0.000000 1.573770 0.000000 
#    z 0.000000 0.000000 1.584720 
# 
# From -- ./inp_files/6817.got.cif
#   From: 2010.03.12/outbox.cif.g09.slc.cpg/sg47_4_cif.got.tgz:6817.got - 2010.04.14 03:12:58.
