data_PCOD8196045
_publ_section_title
;
Structure prediction by ZEFSAII (Michael W. Deem and Ramdas Pophale) SiO2 
 PCOD8196045
Probable space group: P M M M
;
_chemical_formula_sum "Si O2"
_cell_formula_units_Z 52
_cell_length_a 17.159652
_cell_length_b 8.616946
_cell_length_c 18.033819
_cell_angle_alpha 90.000000
_cell_angle_beta 90.000000
_cell_angle_gamma 90.000000
_cell_volume 2666.548910
_symmetry_space_group_name_H-M "P M M M"
_symmetry_group_IT_number 47
_symmetry_cell_setting 'orthorhombic'
loop_
_space_group_symop_operation_xyz
x,y,z
-x,-y,z
x,-y,-z
-x,y,-z
-x,-y,-z
x,y,-z
-x,y,z
x,-y,z
loop_
_atom_site_type_symbol
_atom_site_label
_atom_site_fract_x
_atom_site_fract_y
_atom_site_fract_z
Si Si1 0.147953 0.183540 0.331643
Si Si2 0.412492 0.815119 0.785495
Si Si3 0.000000 0.316931 0.584136
Si Si4 0.306086 0.815254 0.083316
Si Si5 0.411868 0.814758 0.500000
Si Si6 0.321126 0.184294 0.642519
Si Si7 0.847900 0.815142 0.163620
Si Si8 0.000000 0.185205 0.917263
O O1 0.230977 0.234293 0.366349
O O2 0.149333 0.245389 0.247552
O O3 0.077743 0.259600 0.375883
O O4 0.135870 0.000000 0.334503
O O5 0.500000 0.748816 0.778494
O O6 0.377072 0.759891 0.864255
O O7 0.359772 0.749515 0.718031
O O8 0.413296 0.000000 0.781989
O O9 0.000000 0.500000 0.585419
O O10 0.000000 0.253281 0.500000
O O11 0.226681 0.749834 0.119532
O O12 0.302452 0.000000 0.080017
O O13 0.317023 0.748135 0.000000
O O14 0.500000 0.752148 0.500000
O O15 0.368365 0.749045 0.427494
O O16 0.410628 0.000000 0.500000
O O17 0.326445 0.000000 0.645129
O O18 0.924177 0.749408 0.123546
O O19 0.845154 0.000000 0.163354
O O20 0.000000 0.000000 0.916664
O O21 0.000000 0.250812 0.000000
#
# Coordination Sequence:
#
# PCOD8196045 Si02
#       8
#     8   8   4   8   4   8   8   4
#     4  10  19  33  55  77  97 127 168 207 242 284
#     4   9  15  23  34  50  82 130 173 204 241 293
#     4  11  26  43  55  73 104 133 158 194 246 303
#     4   9  15  22  32  50  84 130 172 206 242 289
#     4   9  16  24  36  59  93 126 154 193 249 305
#     4   9  16  26  41  64  91 121 158 202 250 295
#     4   9  15  25  39  60  88 116 152 200 247 283
#     4   9  15  20  30  50  78 113 146 180 232 291
#
# _framework density 19.500859999999999
#
# number of rings (size 3 to 8) (size 9 to 14) (size 15 to 20)
#    0.000    2.692    1.538    1.615    1.077    5.846 
#    0.000    1.538    0.000    0.000    0.000    0.000 
#    0.000   14.154    0.000    0.000    0.000    1.846 
#
# Total GULP energy -644604.533992 kJ/mol
# GULP energy per Si atom -12396.241038 kJ/mol
# Density = 1.945647 g / cm^3
# Si number density = 19.500860 Si / 1000 Ang^3
#
#
#
# Elastic Constant Matrix: (Units=GPa)
#
#
# Indices 1 2 3 4 5 6 
#
# 1 192.2920 12.1887 100.6025 0.0000 0.0000 0.0000
# 2 12.1887 9.1117 12.2176 0.0000 0.0000 0.0000
# 3 100.6025 12.2176 192.3575 0.0000 0.0000 0.0000
# 4 0.0000 0.0000 0.0000 3.6142 0.0000 0.0000
# 5 0.0000 0.0000 0.0000 0.0000 43.1902 0.0000
# 6 0.0000 0.0000 0.0000 0.0000 0.0000 0.0762
#
#
#
# Elastic Compliance Matrix: (Units=1/GPa)
#
#
# Indices 1 2 3 4 5 6 
#
# 1 0.007372 -0.005129 -0.003530 0.000000 0.000000 0.000000
# 2 -0.005129 0.123534 -0.005164 0.000000 0.000000 0.000000
# 3 -0.003530 -0.005164 0.007373 0.000000 0.000000 0.000000
# 4 0.000000 0.000000 0.000000 0.276688 0.000000 0.000000
# 5 0.000000 0.000000 0.000000 0.000000 0.023153 0.000000
# 6 0.000000 0.000000 0.000000 0.000000 0.000000 13.122122
#
#
# Mechanical properties :
#
#
# Convention : Reuss Voigt Hill
#
# Bulk Modulus (GPa) = 9.03881 71.53097 40.28489
# Shear Modulus (GPa) = 0.36698 27.29293 13.82996
#
# Velocity S-wave (km/s) = 0.43427 3.74515 2.66596
# Velocity P-wave (km/s) = 2.21283 7.44729 5.49357
#
# Compressibility (1/GPa) = 0.11063400
#
# Stress axis : x y z
#
# Youngs Moduli (GPa) = 135.64282 8.09493 135.63382
#
# Poissons Ratio (x) = 0.04152 0.47878
# Poissons Ratio (y) = 0.69568 0.70040
# Poissons Ratio (z) = 0.47881 0.04180
#
# Static dielectric constant tensor:
#      x y z
#    x 3.823030 0.000000 0.000000 
#    y 0.000000 2.644540 0.000000 
#    z 0.000000 0.000000 3.887620 
# 
# 
# High freq. dielectric constant tensor:
#      x y z
#    x 1.778110 0.000000 0.000000 
#    y 0.000000 1.663910 0.000000 
#    z 0.000000 0.000000 1.776530 
# 
# From -- ./inp_files/28564.got.cif
#   From: 2010.03.12/outbox.cif.g09.slc.cpg/sg47_15_cif.got.tgz:28564.got - 2010.04.14 03:12:58.
