data_PCOD8196849
_publ_section_title
;
Structure prediction by ZEFSAII (Michael W. Deem and Ramdas Pophale) SiO2 
 PCOD8196849
Probable space group: P M M M
;
_chemical_formula_sum "Si O2"
_cell_formula_units_Z 64
_cell_length_a 8.962451
_cell_length_b 14.426687
_cell_length_c 28.538539
_cell_angle_alpha 90.000000
_cell_angle_beta 90.000000
_cell_angle_gamma 90.000000
_cell_volume 3689.989581
_symmetry_space_group_name_H-M "P M M M"
_symmetry_group_IT_number 47
_symmetry_cell_setting 'orthorhombic'
loop_
_space_group_symop_operation_xyz
x,y,z
-x,-y,z
x,-y,-z
-x,y,-z
-x,-y,-z
x,y,-z
-x,y,z
x,-y,z
loop_
_atom_site_type_symbol
_atom_site_label
_atom_site_fract_x
_atom_site_fract_y
_atom_site_fract_z
Si Si1 0.172040 0.107387 0.361978
Si Si2 0.832834 0.609839 0.051348
Si Si3 0.176148 0.225069 0.551470
Si Si4 0.672466 0.604867 0.591165
Si Si5 0.175845 0.724433 0.775449
Si Si6 0.670661 0.606720 0.699159
Si Si7 0.675939 0.893725 0.734606
Si Si8 0.326006 0.391790 0.856390
O O1 0.239726 0.159991 0.407231
O O2 0.267953 0.135997 0.316886
O O3 0.000000 0.133893 0.352067
O O4 0.189196 0.000000 0.373480
O O5 0.833690 0.500000 0.049712
O O6 0.719871 0.643222 0.091696
O O7 0.000000 0.645905 0.062587
O O8 0.781263 0.647443 0.000000
O O9 0.230761 0.190816 0.500000
O O10 0.229362 0.329900 0.558632
O O11 0.000000 0.222612 0.553473
O O12 0.500000 0.627126 0.582609
O O13 0.709438 0.500000 0.576686
O O14 0.713469 0.621298 0.645304
O O15 0.217194 0.668789 0.728703
O O16 0.247285 0.827350 0.773031
O O17 0.236301 0.669718 0.819971
O O18 0.000000 0.734356 0.779721
O O19 0.500000 0.637323 0.709024
O O20 0.690655 0.500000 0.713923
O O21 0.500000 0.879991 0.736567
O O22 0.721674 0.000000 0.745545
O O23 0.500000 0.374619 0.849068
O O24 0.285075 0.500000 0.849070
#
# Coordination Sequence:
#
# PCOD8196849 Si02
#       8
#     8   8   8   8   8   8   8   8
#     4   9  18  34  55  76  97 120 147 181 223 275
#     4   8  14  26  44  65  92 129 172 216 258 296
#     4  10  21  34  48  70  97 122 149 182 223 270
#     4   9  19  35  52  68  87 116 154 192 229 270
#     4  12  23  32  47  71 100 131 161 197 241 289
#     4   9  18  33  51  70  94 124 158 195 234 279
#     4  10  21  37  56  75  95 121 154 193 237 286
#     4  10  20  32  46  67  99 138 177 214 249 288
#
# _framework density 17.344221999999998
#
# number of rings (size 3 to 8) (size 9 to 14) (size 15 to 20)
#    0.000    2.375    0.000    4.125    0.000    7.500 
#    0.000    5.000    0.000    0.000    0.000    2.625 
#    0.000    0.500    0.000    5.250    0.000    2.500 
#
# Total GULP energy -793528.199398 kJ/mol
# GULP energy per Si atom -12398.878116 kJ/mol
# Density = 1.730475 g / cm^3
# Si number density = 17.344222 Si / 1000 Ang^3
#
#
#
# Elastic Constant Matrix: (Units=GPa)
#
#
# Indices 1 2 3 4 5 6 
#
# 1 72.5914 36.3831 44.3732 0.0000 0.0000 0.0000
# 2 36.3831 71.9272 46.0326 0.0000 0.0000 0.0000
# 3 44.3732 46.0326 89.0352 0.0000 0.0000 0.0000
# 4 0.0000 0.0000 0.0000 14.7413 0.0000 0.0000
# 5 0.0000 0.0000 0.0000 0.0000 24.5662 0.0000
# 6 0.0000 0.0000 0.0000 0.0000 0.0000 25.1196
#
#
#
# Elastic Compliance Matrix: (Units=1/GPa)
#
#
# Indices 1 2 3 4 5 6 
#
# 1 0.021403 -0.005978 -0.007576 0.000000 0.000000 0.000000
# 2 -0.005978 0.022448 -0.008627 0.000000 0.000000 0.000000
# 3 -0.007576 -0.008627 0.019467 0.000000 0.000000 0.000000
# 4 0.000000 0.000000 0.000000 0.067837 0.000000 0.000000
# 5 0.000000 0.000000 0.000000 0.000000 0.040706 0.000000
# 6 0.000000 0.000000 0.000000 0.000000 0.000000 0.039810
#
#
# Mechanical properties :
#
#
# Convention : Reuss Voigt Hill
#
# Bulk Modulus (GPa) = 52.75099 54.12573 53.43836
# Shear Modulus (GPa) = 19.05847 20.00306 19.53077
#
# Velocity S-wave (km/s) = 3.31847 3.39971 3.35933
# Velocity P-wave (km/s) = 6.72035 6.83266 6.77674
#
# Compressibility (1/GPa) = 0.01895699
#
# Stress axis : x y z
#
# Youngs Moduli (GPa) = 46.72266 44.54828 51.36774
#
# Poissons Ratio (x) = 0.26629 0.38917
# Poissons Ratio (y) = 0.27929 0.44313
# Poissons Ratio (z) = 0.35398 0.38430
#
# Static dielectric constant tensor:
#      x y z
#    x 3.187690 0.000000 0.000000 
#    y 0.000000 3.172510 0.000000 
#    z 0.000000 0.000000 3.441660 
# 
# 
# High freq. dielectric constant tensor:
#      x y z
#    x 1.668350 0.000000 0.000000 
#    y 0.000000 1.649870 0.000000 
#    z 0.000000 0.000000 1.662500 
# 
# From -- ./inp_files/34471.got.cif
#   From: 2010.03.12/outbox.cif.g09.slc.cpg/sg47_18_cif.got.tgz:34471.got - 2010.04.14 03:12:58.
