data_PCOD8196382
_publ_section_title
;
Structure prediction by ZEFSAII (Michael W. Deem and Ramdas Pophale) SiO2 
 PCOD8196382
Probable space group: P M M M
;
_chemical_formula_sum "Si O2"
_cell_formula_units_Z 64
_cell_length_a 9.524820
_cell_length_b 15.158785
_cell_length_c 29.565060
_cell_angle_alpha 90.000000
_cell_angle_beta 90.000000
_cell_angle_gamma 90.000000
_cell_volume 4268.742276
_symmetry_space_group_name_H-M "P M M M"
_symmetry_group_IT_number 47
_symmetry_cell_setting 'orthorhombic'
loop_
_space_group_symop_operation_xyz
x,y,z
-x,-y,z
x,-y,-z
-x,y,-z
-x,-y,-z
x,y,-z
-x,y,z
x,-y,z
loop_
_atom_site_type_symbol
_atom_site_label
_atom_site_fract_x
_atom_site_fract_y
_atom_site_fract_z
Si Si1 0.339603 0.259366 0.553737
Si Si2 0.157564 0.097766 0.446255
Si Si3 0.341876 0.394945 0.210443
Si Si4 0.844306 0.395172 0.708401
Si Si5 0.657845 0.903109 0.946264
Si Si6 0.162912 0.258258 0.948500
Si Si7 0.837744 0.601407 0.125446
Si Si8 0.837002 0.602662 0.393317
O O1 0.330531 0.263744 0.500000
O O2 0.500000 0.258742 0.570494
O O3 0.265044 0.170733 0.572749
O O4 0.261054 0.344669 0.572573
O O5 0.159997 0.098853 0.500000
O O6 0.000000 0.119903 0.429178
O O7 0.202490 0.000000 0.429082
O O8 0.500000 0.357423 0.208413
O O9 0.342671 0.500000 0.212144
O O10 0.266399 0.356751 0.255387
O O11 0.256535 0.362856 0.166576
O O12 0.848852 0.500000 0.711153
O O13 0.800202 0.367047 0.657819
O O14 0.000000 0.358535 0.719758
O O15 0.500000 0.883637 0.929677
O O16 0.758138 0.826468 0.927399
O O17 0.706203 0.000000 0.928514
O O18 0.664712 0.903204 0.000000
O O19 0.200935 0.343983 0.919282
O O20 0.000000 0.235420 0.946113
O O21 0.210104 0.278202 0.000000
O O22 0.803749 0.500000 0.114178
O O23 0.000000 0.613412 0.139381
O O24 0.803228 0.500000 0.400164
O O25 0.000000 0.621766 0.404036
#
# Coordination Sequence:
#
# PCOD8196382 Si02
#       8
#     8   8   8   8   8   8   8   8
#     4  10  20  30  40  58  85 115 143 172 207 244
#     4   8  14  26  44  62  78 100 133 172 211 248
#     4   9  16  25  39  59  79  99 127 164 204 243
#     4   8  14  26  43  60  77  98 127 165 209 250
#     4   8  14  25  40  56  74  98 127 159 200 247
#     4   9  17  27  39  57  79 104 137 173 203 230
#     4   9  17  28  40  54  77 110 141 167 197 233
#     4   9  18  31  45  60  79 108 145 178 205 238
#
# _framework density 14.992705000000001
#
# number of rings (size 3 to 8) (size 9 to 14) (size 15 to 20)
#    0.000    3.250    0.000    2.250    0.000    4.500 
#    0.000    6.250    0.000    0.000    0.000    3.500 
#    0.000    1.000    0.000    5.500    0.000    4.375 
#
# Total GULP energy -793261.273504 kJ/mol
# GULP energy per Si atom -12394.707398 kJ/mol
# Density = 1.495858 g / cm^3
# Si number density = 14.992705 Si / 1000 Ang^3
#
#
#
# Elastic Constant Matrix: (Units=GPa)
#
#
# Indices 1 2 3 4 5 6 
#
# 1 94.8635 52.4385 38.5617 0.0000 0.0000 0.0000
# 2 52.4385 76.8987 30.4349 0.0000 0.0000 0.0000
# 3 38.5617 30.4349 43.1983 0.0000 0.0000 0.0000
# 4 0.0000 0.0000 0.0000 1.3501 0.0000 0.0000
# 5 0.0000 0.0000 0.0000 0.0000 17.7765 0.0000
# 6 0.0000 0.0000 0.0000 0.0000 0.0000 20.9809
#
#
#
# Elastic Compliance Matrix: (Units=1/GPa)
#
#
# Indices 1 2 3 4 5 6 
#
# 1 0.020439 -0.009314 -0.011684 0.000000 0.000000 0.000000
# 2 -0.009314 0.022276 -0.007381 0.000000 0.000000 0.000000
# 3 -0.011684 -0.007381 0.038778 0.000000 0.000000 0.000000
# 4 0.000000 0.000000 0.000000 0.740669 0.000000 0.000000
# 5 0.000000 0.000000 0.000000 0.000000 0.056254 0.000000
# 6 0.000000 0.000000 0.000000 0.000000 0.000000 0.047662
#
#
# Mechanical properties :
#
#
# Convention : Reuss Voigt Hill
#
# Bulk Modulus (GPa) = 40.42290 50.87008 45.64649
# Shear Modulus (GPa) = 5.04500 14.25653 9.65077
#
# Velocity S-wave (km/s) = 1.83637 3.08701 2.53987
# Velocity P-wave (km/s) = 5.61397 6.83445 6.25405
#
# Compressibility (1/GPa) = 0.02473845
#
# Stress axis : x y z
#
# Youngs Moduli (GPa) = 48.92559 44.89069 25.78754
#
# Poissons Ratio (x) = 0.41810 0.30129
# Poissons Ratio (y) = 0.45568 0.19033
# Poissons Ratio (z) = 0.57162 0.33132
#
# Static dielectric constant tensor:
#      x y z
#    x 3.081160 0.000000 0.000000 
#    y 0.000000 2.846250 0.000000 
#    z 0.000000 0.000000 2.727120 
# 
# 
# High freq. dielectric constant tensor:
#      x y z
#    x 1.580320 0.000000 0.000000 
#    y 0.000000 1.547150 0.000000 
#    z 0.000000 0.000000 1.542450 
# 
# From -- ./inp_files/8230.got.cif
#   From: 2010.03.12/outbox.cif.g09.slc.cpg/sg47_5_cif.got.tgz:8230.got - 2010.04.14 03:12:58.
