data_PCOD8196858
_publ_section_title
;
Structure prediction by ZEFSAII (Michael W. Deem and Ramdas Pophale) SiO2 
 PCOD8196858
Probable space group: P M M M
;
_chemical_formula_sum "Si O2"
_cell_formula_units_Z 52
_cell_length_a 22.162196
_cell_length_b 15.442587
_cell_length_c 9.039055
_cell_angle_alpha 90.000000
_cell_angle_beta 90.000000
_cell_angle_gamma 90.000000
_cell_volume 3093.541006
_symmetry_space_group_name_H-M "P M M M"
_symmetry_group_IT_number 47
_symmetry_cell_setting 'orthorhombic'
loop_
_space_group_symop_operation_xyz
x,y,z
-x,-y,z
x,-y,-z
-x,y,-z
-x,-y,-z
x,y,-z
-x,y,z
x,-y,z
loop_
_atom_site_type_symbol
_atom_site_label
_atom_site_fract_x
_atom_site_fract_y
_atom_site_fract_z
Si Si1 0.000000 0.602751 0.166772
Si Si2 0.566682 0.596457 0.325388
Si Si3 0.331679 0.907922 0.167335
Si Si4 0.204943 0.733464 0.828414
Si Si5 0.879394 0.601006 0.326353
Si Si6 0.791009 0.904563 0.672450
Si Si7 0.652485 0.275958 0.833840
O O1 0.059077 0.635843 0.252441
O O2 0.000000 0.500000 0.165196
O O3 0.000000 0.640030 0.000000
O O4 0.567198 0.596017 0.500000
O O5 0.500000 0.625266 0.268891
O O6 0.580944 0.500000 0.265740
O O7 0.618497 0.660457 0.274253
O O8 0.279108 0.909723 0.287032
O O9 0.372608 0.822538 0.193755
O O10 0.367883 0.000000 0.179891
O O11 0.303918 0.898968 0.000000
O O12 0.175879 0.653622 0.741915
O O13 0.179611 0.825407 0.765124
O O14 0.276332 0.724986 0.801049
O O15 0.187736 0.727493 0.000000
O O16 0.883749 0.618060 0.500000
O O17 0.868476 0.500000 0.291306
O O18 0.797732 0.882848 0.500000
O O19 0.820205 0.000000 0.707681
O O20 0.639146 0.307050 0.000000
#
# Coordination Sequence:
#
# PCOD8196858 Si02
#       7
#     4   8   8   8   8   8   8
#     4   9  17  31  51  71  92 123 162 199 235 277
#     4   9  19  35  51  65  83 112 151 191 231 277
#     4   8  14  26  43  63  90 121 148 176 217 271
#     4  10  20  32  46  68  99 130 158 190 232 282
#     4  10  20  33  49  70  97 128 162 199 236 275
#     4   9  16  26  42  65  92 121 155 194 232 272
#     4   9  18  30  46  70  94 117 148 187 229 271
#
# _framework density 16.809217
#
# number of rings (size 3 to 8) (size 9 to 14) (size 15 to 20)
#    0.000    2.846    0.000    3.000    0.000    7.077 
#    0.000    3.846    0.000    0.462    0.000    3.769 
#    0.000    4.308    0.000    0.000    0.000    0.000 
#
# Total GULP energy -644265.843357 kJ/mol
# GULP energy per Si atom -12389.727757 kJ/mol
# Density = 1.677096 g / cm^3
# Si number density = 16.809217 Si / 1000 Ang^3
#
#
#
# Elastic Constant Matrix: (Units=GPa)
#
#
# Indices 1 2 3 4 5 6 
#
# 1 49.1241 46.0604 29.4526 0.0000 0.0000 0.0000
# 2 46.0604 118.7806 51.6278 0.0000 0.0000 0.0000
# 3 29.4526 51.6278 82.5141 0.0000 0.0000 0.0000
# 4 0.0000 0.0000 0.0000 29.2168 0.0000 0.0000
# 5 0.0000 0.0000 0.0000 0.0000 24.0134 0.0000
# 6 0.0000 0.0000 0.0000 0.0000 0.0000 0.6364
#
#
#
# Elastic Compliance Matrix: (Units=1/GPa)
#
#
# Indices 1 2 3 4 5 6 
#
# 1 0.033577 -0.010729 -0.005272 0.000000 0.000000 0.000000
# 2 -0.010729 0.014992 -0.005551 0.000000 0.000000 0.000000
# 3 -0.005272 -0.005551 0.017474 0.000000 0.000000 0.000000
# 4 0.000000 0.000000 0.000000 0.034227 0.000000 0.000000
# 5 0.000000 0.000000 0.000000 0.000000 0.041643 0.000000
# 6 0.000000 0.000000 0.000000 0.000000 0.000000 1.571224
#
#
# Mechanical properties :
#
#
# Convention : Reuss Voigt Hill
#
# Bulk Modulus (GPa) = 43.59247 56.07781 49.83514
# Shear Modulus (GPa) = 2.83465 18.99186 10.91325
#
# Velocity S-wave (km/s) = 1.30001 3.36497 2.55079
# Velocity P-wave (km/s) = 5.31445 6.96643 6.19574
#
# Compressibility (1/GPa) = 0.02293974
#
# Stress axis : x y z
#
# Youngs Moduli (GPa) = 29.78187 66.70268 57.22822
#
# Poissons Ratio (x) = 0.71566 0.30172
# Poissons Ratio (y) = 0.31953 0.31765
# Poissons Ratio (z) = 0.15701 0.37024
#
# Static dielectric constant tensor:
#      x y z
#    x 2.788390 0.000000 0.000000 
#    y 0.000000 3.503310 0.000000 
#    z 0.000000 0.000000 3.192440 
# 
# 
# High freq. dielectric constant tensor:
#      x y z
#    x 1.595850 0.000000 0.000000 
#    y 0.000000 1.659170 0.000000 
#    z 0.000000 0.000000 1.657140 
# 
# From -- ./inp_files/6984.got.cif
#   From: 2010.03.12/outbox.cif.g09.slc.cpg/sg47_4_cif.got.tgz:6984.got - 2010.04.14 03:12:58.
