data_PCOD8196234
_publ_section_title
;
Structure prediction by ZEFSAII (Michael W. Deem and Ramdas Pophale) SiO2 
 PCOD8196234
Probable space group: P M M M
;
_chemical_formula_sum "Si O2"
_cell_formula_units_Z 56
_cell_length_a 23.166561
_cell_length_b 8.568184
_cell_length_c 14.388675
_cell_angle_alpha 90.000000
_cell_angle_beta 90.000000
_cell_angle_gamma 90.000000
_cell_volume 2856.085185
_symmetry_space_group_name_H-M "P M M M"
_symmetry_group_IT_number 47
_symmetry_cell_setting 'orthorhombic'
loop_
_space_group_symop_operation_xyz
x,y,z
-x,-y,z
x,-y,-z
-x,y,-z
-x,-y,-z
x,y,-z
-x,y,z
x,-y,z
loop_
_atom_site_type_symbol
_atom_site_label
_atom_site_fract_x
_atom_site_fract_y
_atom_site_fract_z
Si Si1 0.729932 0.821010 0.103956
Si Si2 0.000000 0.185476 0.603914
Si Si3 0.853089 0.679154 0.102275
Si Si4 0.678950 0.320588 0.279522
Si Si5 0.563826 0.313653 0.199923
Si Si6 0.568142 0.330341 0.000000
Si Si7 0.889076 0.814482 0.284139
Si Si8 0.222102 0.816662 0.603635
O O1 0.797800 0.789848 0.106967
O O2 0.699705 0.703512 0.174219
O O3 0.719963 0.000000 0.134734
O O4 0.705385 0.790274 0.000000
O O5 0.942909 0.245901 0.655737
O O6 0.000000 0.254784 0.500000
O O7 0.000000 0.000000 0.600217
O O8 0.835005 0.500000 0.119453
O O9 0.896285 0.737253 0.182573
O O10 0.882324 0.696931 0.000000
O O11 0.685864 0.500000 0.307700
O O12 0.611197 0.267763 0.278556
O O13 0.715719 0.221309 0.352348
O O14 0.500000 0.252451 0.229881
O O15 0.562390 0.500000 0.188546
O O16 0.582946 0.242365 0.098082
O O17 0.598788 0.500000 0.000000
O O18 0.500000 0.354407 0.000000
O O19 0.830112 0.752061 0.332785
O O20 0.889180 0.000000 0.274611
O O21 0.218296 0.743762 0.500000
O O22 0.215479 0.000000 0.596362
#
# Coordination Sequence:
#
# PCOD8196234 Si02
#       8
#     8   4   8   8   8   4   8   8
#     4  10  20  33  49  72 106 146 182 216 258 313
#     4   9  18  34  58  87 112 138 183 233 268 311
#     4  10  20  34  53  78 110 146 182 220 263 312
#     4  11  21  31  51  81 108 135 173 222 271 317
#     4   8  15  27  43  67 101 138 174 213 257 306
#     4   7  10  20  38  60  91 131 169 202 241 294
#     4  10  19  34  58  84 110 142 178 220 269 315
#     4  10  21  37  56  77 104 139 175 214 268 328
#
# _framework density 19.607258000000002
#
# number of rings (size 3 to 8) (size 9 to 14) (size 15 to 20)
#    0.000    2.429    1.429    2.571    1.000    3.714 
#    0.000    0.714    0.000    6.000    0.000    4.000 
#    0.000    0.000    0.000    0.000    0.000    0.000 
#
# Total GULP energy -693974.328116 kJ/mol
# GULP energy per Si atom -12392.398716 kJ/mol
# Density = 1.956263 g / cm^3
# Si number density = 19.607258 Si / 1000 Ang^3
#
#
#
# Elastic Constant Matrix: (Units=GPa)
#
#
# Indices 1 2 3 4 5 6 
#
# 1 108.8493 8.8332 60.8466 0.0000 0.0000 0.0000
# 2 8.8332 23.0304 17.7673 0.0000 0.0000 0.0000
# 3 60.8466 17.7673 130.4721 0.0000 0.0000 0.0000
# 4 0.0000 0.0000 0.0000 21.2929 0.0000 0.0000
# 5 0.0000 0.0000 0.0000 0.0000 27.5487 0.0000
# 6 0.0000 0.0000 0.0000 0.0000 0.0000 17.2228
#
#
#
# Elastic Compliance Matrix: (Units=1/GPa)
#
#
# Indices 1 2 3 4 5 6 
#
# 1 0.012429 -0.000330 -0.005751 0.000000 0.000000 0.000000
# 2 -0.000330 0.048527 -0.006454 0.000000 0.000000 0.000000
# 3 -0.005751 -0.006454 0.011226 0.000000 0.000000 0.000000
# 4 0.000000 0.000000 0.000000 0.046964 0.000000 0.000000
# 5 0.000000 0.000000 0.000000 0.000000 0.036299 0.000000
# 6 0.000000 0.000000 0.000000 0.000000 0.000000 0.058063
#
#
# Mechanical properties :
#
#
# Convention : Reuss Voigt Hill
#
# Bulk Modulus (GPa) = 21.22700 48.58290 34.90495
# Shear Modulus (GPa) = 19.66323 24.87318 22.26821
#
# Velocity S-wave (km/s) = 3.17022 3.56556 3.37369
# Velocity P-wave (km/s) = 4.92443 6.46396 5.74599
#
# Compressibility (1/GPa) = 0.04710981
#
# Stress axis : x y z
#
# Youngs Moduli (GPa) = 80.45849 20.60719 89.08232
#
# Poissons Ratio (x) = 0.00680 0.51234
# Poissons Ratio (y) = 0.02655 0.57497
# Poissons Ratio (z) = 0.46274 0.13301
#
# Static dielectric constant tensor:
#      x y z
#    x 3.610810 0.000000 0.000000 
#    y 0.000000 3.138350 0.000000 
#    z 0.000000 0.000000 3.738200 
# 
# 
# High freq. dielectric constant tensor:
#      x y z
#    x 1.753310 0.000000 0.000000 
#    y 0.000000 1.728540 0.000000 
#    z 0.000000 0.000000 1.756280 
# 
# From -- ./inp_files/25228.got.cif
#   From: 2010.03.12/outbox.cif.g09.slc.cpg/sg47_13_cif.got.tgz:25228.got - 2010.04.14 03:12:58.
