data_PCOD8196556
_publ_section_title
;
Structure prediction by ZEFSAII (Michael W. Deem and Ramdas Pophale) SiO2 
 PCOD8196556
Probable space group: P M M M
;
_chemical_formula_sum "Si O2"
_cell_formula_units_Z 64
_cell_length_a 13.944555
_cell_length_b 9.568958
_cell_length_c 28.571532
_cell_angle_alpha 90.000000
_cell_angle_beta 90.000000
_cell_angle_gamma 90.000000
_cell_volume 3812.438405
_symmetry_space_group_name_H-M "P M M M"
_symmetry_group_IT_number 47
_symmetry_cell_setting 'orthorhombic'
loop_
_space_group_symop_operation_xyz
x,y,z
-x,-y,z
x,-y,-z
-x,y,-z
-x,-y,-z
x,y,-z
-x,y,z
x,-y,z
loop_
_atom_site_type_symbol
_atom_site_label
_atom_site_fract_x
_atom_site_fract_y
_atom_site_fract_z
Si Si1 0.612569 0.153939 0.876810
Si Si2 0.390170 0.838963 0.402493
Si Si3 0.278743 0.662209 0.945173
Si Si4 0.894796 0.155324 0.055530
Si Si5 0.392869 0.834389 0.773728
Si Si6 0.110735 0.336215 0.359764
Si Si7 0.732559 0.162330 0.311467
Si Si8 0.765120 0.339751 0.447533
O O1 0.500000 0.139716 0.874167
O O2 0.636324 0.265662 0.916779
O O3 0.647280 0.205263 0.825443
O O4 0.655889 0.000000 0.888942
O O5 0.500000 0.787661 0.402149
O O6 0.346534 0.814537 0.351333
O O7 0.330502 0.750573 0.440023
O O8 0.383245 0.000000 0.417381
O O9 0.275339 0.500000 0.933382
O O10 0.180469 0.730921 0.926261
O O11 0.295794 0.689762 0.000000
O O12 0.000000 0.195382 0.075090
O O13 0.865946 0.000000 0.072944
O O14 0.897224 0.157397 0.000000
O O15 0.500000 0.771051 0.765253
O O16 0.316460 0.778438 0.735861
O O17 0.400666 0.000000 0.768906
O O18 0.121828 0.500000 0.349068
O O19 0.171279 0.250726 0.321282
O O20 0.150459 0.298317 0.411493
O O21 0.000000 0.289487 0.357277
O O22 0.761963 0.000000 0.307230
O O23 0.804064 0.313058 0.500000
O O24 0.735286 0.500000 0.440130
#
# Coordination Sequence:
#
# PCOD8196556 Si02
#       8
#     8   8   8   8   8   8   8   8
#     4   9  18  32  49  68  90 119 156 194 228 264
#     4   9  17  28  43  65  92 120 147 176 217 271
#     4  10  20  31  44  65  94 127 158 189 228 272
#     4   8  14  26  45  67  88 111 143 184 226 265
#     4   8  14  27  49  74  95 115 143 181 224 268
#     4   9  18  32  48  66  90 119 150 187 230 271
#     4   9  16  28  49  73  93 113 141 180 223 269
#     4   9  18  31  45  62  85 116 156 196 229 262
#
# _framework density 16.787154999999998
#
# number of rings (size 3 to 8) (size 9 to 14) (size 15 to 20)
#    0.000    3.125    0.000    1.875    0.000    4.250 
#    0.000    5.625    0.000    2.625    0.000    5.250 
#    0.000    0.000    0.000    0.000    0.000    0.000 
#
# Total GULP energy -793295.149559 kJ/mol
# GULP energy per Si atom -12395.236712 kJ/mol
# Density = 1.674895 g / cm^3
# Si number density = 16.787155 Si / 1000 Ang^3
#
#
#
# Elastic Constant Matrix: (Units=GPa)
#
#
# Indices 1 2 3 4 5 6 
#
# 1 100.8009 43.7511 45.1585 0.0000 0.0000 0.0000
# 2 43.7511 67.7949 45.9462 0.0000 0.0000 0.0000
# 3 45.1585 45.9462 83.5459 0.0000 0.0000 0.0000
# 4 0.0000 0.0000 0.0000 18.1280 0.0000 0.0000
# 5 0.0000 0.0000 0.0000 0.0000 19.8844 0.0000
# 6 0.0000 0.0000 0.0000 0.0000 0.0000 22.6581
#
#
#
# Elastic Compliance Matrix: (Units=1/GPa)
#
#
# Indices 1 2 3 4 5 6 
#
# 1 0.014711 -0.006543 -0.004353 0.000000 0.000000 0.000000
# 2 -0.006543 0.026425 -0.010996 0.000000 0.000000 0.000000
# 3 -0.004353 -0.010996 0.020369 0.000000 0.000000 0.000000
# 4 0.000000 0.000000 0.000000 0.055163 0.000000 0.000000
# 5 0.000000 0.000000 0.000000 0.000000 0.050291 0.000000
# 6 0.000000 0.000000 0.000000 0.000000 0.000000 0.044134
#
#
# Mechanical properties :
#
#
# Convention : Reuss Voigt Hill
#
# Bulk Modulus (GPa) = 56.42943 57.98370 57.20656
# Shear Modulus (GPa) = 19.17291 19.95317 19.56304
#
# Velocity S-wave (km/s) = 3.38319 3.45134 3.41744
# Velocity P-wave (km/s) = 6.99635 7.10619 7.05148
#
# Compressibility (1/GPa) = 0.01772125
#
# Stress axis : x y z
#
# Youngs Moduli (GPa) = 67.97769 37.84270 49.09320
#
# Poissons Ratio (x) = 0.24762 0.21370
# Poissons Ratio (y) = 0.44481 0.53981
# Poissons Ratio (z) = 0.29590 0.41611
#
# Static dielectric constant tensor:
#      x y z
#    x 3.198310 0.000000 0.000000 
#    y 0.000000 3.054180 0.000000 
#    z 0.000000 0.000000 3.163430 
# 
# 
# High freq. dielectric constant tensor:
#      x y z
#    x 1.640540 0.000000 0.000000 
#    y 0.000000 1.632040 0.000000 
#    z 0.000000 0.000000 1.630700 
# 
# From -- ./inp_files/34710.got.cif
#   From: 2010.03.12/outbox.cif.g09.slc.cpg/sg47_18_cif.got.tgz:34710.got - 2010.04.14 03:12:58.
