data_PCOD8196361
_publ_section_title
;
Structure prediction by ZEFSAII (Michael W. Deem and Ramdas Pophale) SiO2 
 PCOD8196361
Probable space group: P M M M
;
_chemical_formula_sum "Si O2"
_cell_formula_units_Z 48
_cell_length_a 18.046848
_cell_length_b 22.547874
_cell_length_c 9.346479
_cell_angle_alpha 90.000000
_cell_angle_beta 90.000000
_cell_angle_gamma 90.000000
_cell_volume 3803.251054
_symmetry_space_group_name_H-M "P M M M"
_symmetry_group_IT_number 47
_symmetry_cell_setting 'orthorhombic'
loop_
_space_group_symop_operation_xyz
x,y,z
-x,-y,z
x,-y,-z
-x,y,-z
-x,-y,-z
x,y,-z
-x,y,z
x,-y,z
loop_
_atom_site_type_symbol
_atom_site_label
_atom_site_fract_x
_atom_site_fract_y
_atom_site_fract_z
Si Si1 0.911718 0.500000 0.337828
Si Si2 0.088085 0.722240 0.658810
Si Si3 0.085737 0.854907 0.666950
Si Si4 0.088395 0.612678 0.161256
Si Si5 0.500000 0.935063 0.330145
Si Si6 0.201220 0.929960 0.835475
Si Si7 0.658736 0.070893 0.660703
O O1 0.880906 0.500000 0.500000
O O2 0.881751 0.442214 0.254867
O O3 0.000000 0.500000 0.339953
O O4 0.118863 0.707767 0.500000
O O5 0.112436 0.788209 0.706149
O O6 0.119140 0.673648 0.769751
O O7 0.000000 0.719760 0.653363
O O8 0.099058 0.867549 0.500000
O O9 0.130916 0.901265 0.760017
O O10 0.000000 0.863518 0.706607
O O11 0.000000 0.612538 0.160076
O O12 0.119225 0.607353 0.000000
O O13 0.500000 0.942180 0.500000
O O14 0.577991 0.903058 0.287169
O O15 0.500000 0.000000 0.257869
O O16 0.277116 0.905754 0.765052
O O17 0.194184 0.000000 0.815032
O O18 0.202126 0.911165 0.000000
O O19 0.677296 0.092786 0.500000
O O20 0.653673 0.000000 0.663242
#
# Coordination Sequence:
#
# PCOD8196361 Si02
#       7
#     4   8   8   8   4   8   8
#     4   9  15  21  29  41  59  83 105 123 147 180
#     4   8  14  25  38  49  60  74  96 128 164 200
#     4   9  18  31  44  54  62  78 109 145 177 211
#     4   9  15  21  30  45  63  80  98 121 151 189
#     4   7  10  18  35  57  73  85 105 129 149 176
#     4  10  20  30  38  51  71  90 107 132 170 212
#     4   8  13  23  39  55  70  88 108 128 152 187
#
# _framework density 12.620782
#
# number of rings (size 3 to 8) (size 9 to 14) (size 15 to 20)
#    0.000    3.333    0.000    3.250    0.000    5.333 
#    0.000    3.750    0.000    2.500    0.000    0.000 
#    0.000    0.000    0.000    0.000    0.000    0.000 
#
# Total GULP energy -594757.829446 kJ/mol
# GULP energy per Si atom -12390.788113 kJ/mol
# Density = 1.259206 g / cm^3
# Si number density = 12.620782 Si / 1000 Ang^3
#
#
#
# Elastic Constant Matrix: (Units=GPa)
#
#
# Indices 1 2 3 4 5 6 
#
# 1 58.3993 25.9937 40.0343 0.0000 0.0000 0.0000
# 2 25.9937 40.6805 36.5650 0.0000 0.0000 0.0000
# 3 40.0343 36.5650 89.7912 0.0000 0.0000 0.0000
# 4 0.0000 0.0000 0.0000 18.6338 0.0000 0.0000
# 5 0.0000 0.0000 0.0000 0.0000 7.9580 0.0000
# 6 0.0000 0.0000 0.0000 0.0000 0.0000 0.1543
#
#
#
# Elastic Compliance Matrix: (Units=1/GPa)
#
#
# Indices 1 2 3 4 5 6 
#
# 1 0.027094 -0.010181 -0.007934 0.000000 0.000000 0.000000
# 2 -0.010181 0.042600 -0.012808 0.000000 0.000000 0.000000
# 3 -0.007934 -0.012808 0.019890 0.000000 0.000000 0.000000
# 4 0.000000 0.000000 0.000000 0.053666 0.000000 0.000000
# 5 0.000000 0.000000 0.000000 0.000000 0.125660 0.000000
# 6 0.000000 0.000000 0.000000 0.000000 0.000000 6.479150
#
#
# Mechanical properties :
#
#
# Convention : Reuss Voigt Hill
#
# Bulk Modulus (GPa) = 36.05254 43.78409 39.91832
# Shear Modulus (GPa) = 0.73323 11.10110 5.91716
#
# Velocity S-wave (km/s) = 0.76304 2.96900 2.16763
# Velocity P-wave (km/s) = 5.42258 6.82061 6.16137
#
# Compressibility (1/GPa) = 0.02773729
#
# Stress axis : x y z
#
# Youngs Moduli (GPa) = 36.90826 23.47441 50.27552
#
# Poissons Ratio (x) = 0.23899 0.39891
# Poissons Ratio (y) = 0.37575 0.64394
# Poissons Ratio (z) = 0.29284 0.30067
#
# Static dielectric constant tensor:
#      x y z
#    x 2.394260 0.000000 0.000000 
#    y 0.000000 2.479350 0.000000 
#    z 0.000000 0.000000 2.674850 
# 
# 
# High freq. dielectric constant tensor:
#      x y z
#    x 1.431140 0.000000 0.000000 
#    y 0.000000 1.453420 0.000000 
#    z 0.000000 0.000000 1.484710 
# 
# From -- ./inp_files/9739.got.cif
#   From: 2010.03.12/outbox.cif.g09.slc.cpg/sg47_5_cif.got.tgz:9739.got - 2010.04.14 03:12:58.
