data_PCOD8196164
_publ_section_title
;
Structure prediction by ZEFSAII (Michael W. Deem and Ramdas Pophale) SiO2 
 PCOD8196164
Probable space group: P M M M
;
_chemical_formula_sum "Si O2"
_cell_formula_units_Z 48
_cell_length_a 15.528923
_cell_length_b 17.845351
_cell_length_c 8.676261
_cell_angle_alpha 90.000000
_cell_angle_beta 90.000000
_cell_angle_gamma 90.000000
_cell_volume 2404.357480
_symmetry_space_group_name_H-M "P M M M"
_symmetry_group_IT_number 47
_symmetry_cell_setting 'orthorhombic'
loop_
_space_group_symop_operation_xyz
x,y,z
-x,-y,z
x,-y,-z
-x,y,-z
-x,-y,-z
x,y,-z
-x,y,z
x,-y,z
loop_
_atom_site_type_symbol
_atom_site_label
_atom_site_fract_x
_atom_site_fract_y
_atom_site_fract_z
Si Si1 0.900507 0.000000 0.682319
Si Si2 0.640024 0.680516 0.176438
Si Si3 0.500000 0.412203 0.672730
Si Si4 0.216007 0.870682 0.182301
Si Si5 0.406954 0.151873 0.177285
Si Si6 0.899131 0.582030 0.170863
Si Si7 0.810756 0.285641 0.676484
O O1 0.849128 0.072074 0.740126
O O2 0.900939 0.000000 0.500000
O O3 0.000000 0.000000 0.743239
O O4 0.581784 0.612438 0.229267
O O5 0.590764 0.758895 0.195969
O O6 0.719773 0.676460 0.291093
O O7 0.669603 0.669644 0.000000
O O8 0.500000 0.500000 0.660594
O O9 0.500000 0.377038 0.500000
O O10 0.315808 0.879912 0.246767
O O11 0.179439 0.788305 0.218506
O O12 0.215638 0.883006 0.000000
O O13 0.500000 0.122822 0.249539
O O14 0.407001 0.128333 0.000000
O O15 0.864236 0.500000 0.228693
O O16 0.879568 0.650382 0.285158
O O17 0.000000 0.576567 0.159187
O O18 0.860786 0.598572 0.000000
O O19 0.820442 0.260962 0.500000
#
# Coordination Sequence:
#
# PCOD8196164 Si02
#       7
#     4   8   4   8   8   8   8
#     4  11  25  45  66  87 120 162 199 247 310 363
#     4  10  19  34  55  76 103 145 195 238 281 339
#     4  11  23  35  47  71 109 148 191 246 303 355
#     4  10  21  38  63  92 120 154 200 246 290 355
#     4   8  14  29  56  87 113 141 182 232 281 332
#     4   9  19  37  59  81 107 143 190 243 296 352
#     4  11  22  36  57  86 120 153 189 239 296 353
#
# _framework density 19.963754000000002
#
# number of rings (size 3 to 8) (size 9 to 14) (size 15 to 20)
#    0.000    2.167    0.833    4.500    0.000    3.333 
#    0.000    1.250    0.000    2.500    0.000    0.000 
#    0.000    0.000    0.000    0.000    0.000    0.000 
#
# Total GULP energy -594689.255927 kJ/mol
# GULP energy per Si atom -12389.359498 kJ/mol
# Density = 1.991832 g / cm^3
# Si number density = 19.963754 Si / 1000 Ang^3
#
#
#
# Elastic Constant Matrix: (Units=GPa)
#
#
# Indices 1 2 3 4 5 6 
#
# 1 120.4165 60.6106 28.9581 0.0000 0.0000 0.0000
# 2 60.6106 92.6542 20.1799 0.0000 0.0000 0.0000
# 3 28.9581 20.1799 66.3283 0.0000 0.0000 0.0000
# 4 0.0000 0.0000 0.0000 28.0594 0.0000 0.0000
# 5 0.0000 0.0000 0.0000 0.0000 25.3747 0.0000
# 6 0.0000 0.0000 0.0000 0.0000 0.0000 26.6506
#
#
#
# Elastic Compliance Matrix: (Units=1/GPa)
#
#
# Indices 1 2 3 4 5 6 
#
# 1 0.013028 -0.007800 -0.003315 0.000000 0.000000 0.000000
# 2 -0.007800 0.016229 -0.001532 0.000000 0.000000 0.000000
# 3 -0.003315 -0.001532 0.016990 0.000000 0.000000 0.000000
# 4 0.000000 0.000000 0.000000 0.035639 0.000000 0.000000
# 5 0.000000 0.000000 0.000000 0.000000 0.039409 0.000000
# 6 0.000000 0.000000 0.000000 0.000000 0.000000 0.037523
#
#
# Mechanical properties :
#
#
# Convention : Reuss Voigt Hill
#
# Bulk Modulus (GPa) = 47.72648 55.43291 51.57970
# Shear Modulus (GPa) = 26.16489 27.32696 26.74593
#
# Velocity S-wave (km/s) = 3.62418 3.70378 3.66420
# Velocity P-wave (km/s) = 6.43982 6.79100 6.61774
#
# Compressibility (1/GPa) = 0.02095273
#
# Stress axis : x y z
#
# Youngs Moduli (GPa) = 76.75844 61.61736 58.85905
#
# Poissons Ratio (x) = 0.48064 0.19509
# Poissons Ratio (y) = 0.59875 0.09018
# Poissons Ratio (z) = 0.25442 0.09440
#
# Static dielectric constant tensor:
#      x y z
#    x 3.160760 0.000000 0.000000 
#    y 0.000000 3.568490 0.000000 
#    z 0.000000 0.000000 3.561220 
# 
# 
# High freq. dielectric constant tensor:
#      x y z
#    x 1.784980 0.000000 0.000000 
#    y 0.000000 1.766770 0.000000 
#    z 0.000000 0.000000 1.759700 
# 
# From -- ./inp_files/6507.got.cif
#   From: 2010.03.12/outbox.cif.g09.slc.cpg/sg47_4_cif.got.tgz:6507.got - 2010.04.14 03:12:58.
