data_PCOD8196787
_publ_section_title
;
Structure prediction by ZEFSAII (Michael W. Deem and Ramdas Pophale) SiO2 
 PCOD8196787
Probable space group: P M M M
;
_chemical_formula_sum "Si O2"
_cell_formula_units_Z 36
_cell_length_a 12.385543
_cell_length_b 9.424300
_cell_length_c 20.128443
_cell_angle_alpha 90.000000
_cell_angle_beta 90.000000
_cell_angle_gamma 90.000000
_cell_volume 2349.493976
_symmetry_space_group_name_H-M "P M M M"
_symmetry_group_IT_number 47
_symmetry_cell_setting 'orthorhombic'
loop_
_space_group_symop_operation_xyz
x,y,z
-x,-y,z
x,-y,-z
-x,y,-z
-x,-y,-z
x,y,-z
-x,y,z
x,-y,z
loop_
_atom_site_type_symbol
_atom_site_label
_atom_site_fract_x
_atom_site_fract_y
_atom_site_fract_z
Si Si1 0.873622 0.835304 0.340006
Si Si2 0.500000 0.161552 0.578966
Si Si3 0.871750 0.843312 0.808439
Si Si4 0.293309 0.336260 0.421339
Si Si5 0.871693 0.658719 0.927275
O O1 0.840552 0.788854 0.265078
O O2 0.813423 0.732311 0.390549
O O3 0.000000 0.812673 0.351901
O O4 0.842973 0.000000 0.352461
O O5 0.500000 0.158786 0.500000
O O6 0.604409 0.246584 0.604976
O O7 0.500000 0.000000 0.606892
O O8 0.820220 0.747623 0.866749
O O9 0.000000 0.847176 0.814340
O O10 0.824405 0.000000 0.819040
O O11 0.282678 0.325226 0.500000
O O12 0.305601 0.500000 0.399143
O O13 0.826539 0.500000 0.920666
O O14 0.000000 0.658016 0.921134
O O15 0.838775 0.721080 0.000000
#
# Coordination Sequence:
#
# PCOD8196787 Si02
#       5
#     8   4   8   8   8
#     4   9  18  31  44  59  82 113 147 178 208 247
#     4   9  17  31  51  69  83 103 132 165 206 255
#     4   8  14  24  36  50  70  98 133 170 203 236
#     4  10  20  32  46  65  87 108 134 172 214 253
#     4   8  13  20  30  46  68  94 126 163 200 238
#
# _framework density 15.322448
#
# number of rings (size 3 to 8) (size 9 to 14) (size 15 to 20)
#    0.000    3.222    0.000    3.000    0.000    4.889 
#    0.000    6.667    0.000    0.000    0.000    0.000 
#    0.000    0.000    0.000    1.000    0.000   19.111 
#
# Total GULP energy -446126.146044 kJ/mol
# GULP energy per Si atom -12392.392946 kJ/mol
# Density = 1.528757 g / cm^3
# Si number density = 15.322448 Si / 1000 Ang^3
#
#
#
# Elastic Constant Matrix: (Units=GPa)
#
#
# Indices 1 2 3 4 5 6 
#
# 1 45.3795 42.0425 28.8155 0.0000 0.0000 0.0000
# 2 42.0425 107.3991 48.9127 0.0000 0.0000 0.0000
# 3 28.8155 48.9127 57.2588 0.0000 0.0000 0.0000
# 4 0.0000 0.0000 0.0000 30.2752 0.0000 0.0000
# 5 0.0000 0.0000 0.0000 0.0000 0.6670 0.0000
# 6 0.0000 0.0000 0.0000 0.0000 0.0000 20.0192
#
#
#
# Elastic Compliance Matrix: (Units=1/GPa)
#
#
# Indices 1 2 3 4 5 6 
#
# 1 0.038096 -0.010118 -0.010529 0.000000 0.000000 0.000000
# 2 -0.010118 0.017927 -0.010222 0.000000 0.000000 0.000000
# 3 -0.010529 -0.010222 0.031495 0.000000 0.000000 0.000000
# 4 0.000000 0.000000 0.000000 0.033030 0.000000 0.000000
# 5 0.000000 0.000000 0.000000 0.000000 1.499296 0.000000
# 6 0.000000 0.000000 0.000000 0.000000 0.000000 0.049952
#
#
# Mechanical properties :
#
#
# Convention : Reuss Voigt Hill
#
# Bulk Modulus (GPa) = 38.78854 49.95319 44.37086
# Shear Modulus (GPa) = 2.87335 16.21005 9.54170
#
# Velocity S-wave (km/s) = 1.37089 3.25611 2.49816
# Velocity P-wave (km/s) = 5.27973 6.84167 6.11081
#
# Compressibility (1/GPa) = 0.02578081
#
# Stress axis : x y z
#
# Youngs Moduli (GPa) = 26.24951 55.78031 31.75059
#
# Poissons Ratio (x) = 0.56439 0.33429
# Poissons Ratio (y) = 0.26559 0.32457
# Poissons Ratio (z) = 0.27637 0.57021
#
# Static dielectric constant tensor:
#      x y z
#    x 2.489070 0.000000 0.000000 
#    y 0.000000 3.188800 0.000000 
#    z 0.000000 0.000000 3.049110 
# 
# 
# High freq. dielectric constant tensor:
#      x y z
#    x 1.527570 0.000000 0.000000 
#    y 0.000000 1.595420 0.000000 
#    z 0.000000 0.000000 1.582660 
# 
# From -- ./inp_files/3924.got.cif
#   From: 2010.03.12/outbox.cif.g09.slc.cpg/sg47_2_cif.got.tgz:3924.got - 2010.04.14 03:12:58.
