data_PCOD8196913
_publ_section_title
;
Structure prediction by ZEFSAII (Michael W. Deem and Ramdas Pophale) SiO2 
 PCOD8196913
Probable space group: P M M M
;
_chemical_formula_sum "Si O2"
_cell_formula_units_Z 64
_cell_length_a 20.368938
_cell_length_b 19.774022
_cell_length_c 9.136943
_cell_angle_alpha 90.000000
_cell_angle_beta 90.000000
_cell_angle_gamma 90.000000
_cell_volume 3680.139783
_symmetry_space_group_name_H-M "P M M M"
_symmetry_group_IT_number 47
_symmetry_cell_setting 'orthorhombic'
loop_
_space_group_symop_operation_xyz
x,y,z
-x,-y,z
x,-y,-z
-x,y,-z
-x,-y,-z
x,y,-z
-x,y,z
x,-y,z
loop_
_atom_site_type_symbol
_atom_site_label
_atom_site_fract_x
_atom_site_fract_y
_atom_site_fract_z
Si Si1 0.820407 0.831215 0.171643
Si Si2 0.072821 0.424541 0.826099
Si Si3 0.182581 0.675865 0.828095
Si Si4 0.572615 0.075828 0.326065
Si Si5 0.312512 0.829595 0.328164
Si Si6 0.075874 0.922045 0.331330
Si Si7 0.572970 0.575811 0.326125
Si Si8 0.314786 0.325746 0.328347
O O1 0.834554 0.753146 0.210638
O O2 0.753245 0.854500 0.248400
O O3 0.880766 0.875091 0.228421
O O4 0.812709 0.842684 0.000000
O O5 0.093109 0.500000 0.774792
O O6 0.124051 0.370127 0.763449
O O7 0.000000 0.406881 0.766565
O O8 0.072179 0.421086 0.000000
O O9 0.248673 0.650940 0.750777
O O10 0.192098 0.665574 0.000000
O O11 0.572912 0.078814 0.500000
O O12 0.500000 0.097027 0.269119
O O13 0.627253 0.126691 0.263794
O O14 0.589304 0.000000 0.272709
O O15 0.302037 0.841309 0.500000
O O16 0.329793 0.752184 0.291965
O O17 0.091140 0.905298 0.500000
O O18 0.000000 0.907251 0.295574
O O19 0.092567 0.000000 0.297928
O O20 0.572489 0.579234 0.500000
O O21 0.500000 0.594440 0.267605
O O22 0.592079 0.500000 0.274632
O O23 0.625540 0.629383 0.264102
O O24 0.305382 0.337577 0.500000
#
# Coordination Sequence:
#
# PCOD8196913 Si02
#       8
#     8   8   8   8   8   8   8   8
#     4  10  20  32  47  69  97 126 155 189 227 270
#     4   8  14  26  45  67  88 112 147 188 223 259
#     4   9  18  31  46  66  93 122 150 184 227 270
#     4   8  14  25  42  65  89 110 138 180 225 264
#     4   9  17  29  45  65  90 119 150 186 227 270
#     4   9  19  36  55  73  94 121 153 189 229 273
#     4   8  14  25  41  62  88 116 147 186 232 279
#     4   9  17  28  43  64  88 114 147 185 221 262
#
# _framework density 17.390644000000002
#
# number of rings (size 3 to 8) (size 9 to 14) (size 15 to 20)
#    0.000    3.250    0.000    1.875    0.000    3.000 
#    0.000    5.625    0.000    1.125    0.000    6.125 
#    0.000    0.000    0.000    0.000    0.000    0.000 
#
# Total GULP energy -793382.263124 kJ/mol
# GULP energy per Si atom -12396.597861 kJ/mol
# Density = 1.735106 g / cm^3
# Si number density = 17.390644 Si / 1000 Ang^3
#
#
#
# Elastic Constant Matrix: (Units=GPa)
#
#
# Indices 1 2 3 4 5 6 
#
# 1 158.5595 96.9464 36.6989 0.0000 0.0000 0.0000
# 2 96.9464 100.7650 27.7799 0.0000 0.0000 0.0000
# 3 36.6989 27.7799 28.8708 0.0000 0.0000 0.0000
# 4 0.0000 0.0000 0.0000 15.0433 0.0000 0.0000
# 5 0.0000 0.0000 0.0000 0.0000 14.3034 0.0000
# 6 0.0000 0.0000 0.0000 0.0000 0.0000 42.6092
#
#
#
# Elastic Compliance Matrix: (Units=1/GPa)
#
#
# Indices 1 2 3 4 5 6 
#
# 1 0.016502 -0.013738 -0.007758 0.000000 0.000000 0.000000
# 2 -0.013738 0.024944 -0.006539 0.000000 0.000000 0.000000
# 3 -0.007758 -0.006539 0.050790 0.000000 0.000000 0.000000
# 4 0.000000 0.000000 0.000000 0.066475 0.000000 0.000000
# 5 0.000000 0.000000 0.000000 0.000000 0.069913 0.000000
# 6 0.000000 0.000000 0.000000 0.000000 0.000000 0.023469
#
#
# Mechanical properties :
#
#
# Convention : Reuss Voigt Hill
#
# Bulk Modulus (GPa) = 27.64917 67.89396 47.77157
# Shear Modulus (GPa) = 15.61443 22.84251 19.22847
#
# Velocity S-wave (km/s) = 2.99969 3.62815 3.32878
# Velocity P-wave (km/s) = 5.28497 7.52838 6.50413
#
# Compressibility (1/GPa) = 0.03616745
#
# Stress axis : x y z
#
# Youngs Moduli (GPa) = 60.59922 40.08985 19.68904
#
# Poissons Ratio (x) = 0.55075 0.15274
# Poissons Ratio (y) = 0.83250 0.12874
# Poissons Ratio (z) = 0.47010 0.26213
#
# Static dielectric constant tensor:
#      x y z
#    x 3.526540 0.000000 0.000000 
#    y 0.000000 3.369050 0.000000 
#    z 0.000000 0.000000 2.822160 
# 
# 
# High freq. dielectric constant tensor:
#      x y z
#    x 1.680920 0.000000 0.000000 
#    y 0.000000 1.673250 0.000000 
#    z 0.000000 0.000000 1.628180 
# 
# From -- ./inp_files/9947.got.cif
#   From: 2010.03.12/outbox.cif.g09.slc.cpg/sg47_5_cif.got.tgz:9947.got - 2010.04.14 03:12:58.
