data_PCOD8196098
_publ_section_title
;
Structure prediction by ZEFSAII (Michael W. Deem and Ramdas Pophale) SiO2 
 PCOD8196098
Probable space group: P M M M
;
_chemical_formula_sum "Si O2"
_cell_formula_units_Z 48
_cell_length_a 8.458087
_cell_length_b 18.986785
_cell_length_c 15.189281
_cell_angle_alpha 90.000000
_cell_angle_beta 90.000000
_cell_angle_gamma 90.000000
_cell_volume 2439.275182
_symmetry_space_group_name_H-M "P M M M"
_symmetry_group_IT_number 47
_symmetry_cell_setting 'orthorhombic'
loop_
_space_group_symop_operation_xyz
x,y,z
-x,-y,z
x,-y,-z
-x,y,-z
-x,-y,-z
x,y,-z
-x,y,z
x,-y,z
loop_
_atom_site_type_symbol
_atom_site_label
_atom_site_fract_x
_atom_site_fract_y
_atom_site_fract_z
Si Si1 0.313591 0.320672 0.097640
Si Si2 0.184040 0.172785 0.154299
Si Si3 0.317270 0.917072 0.000000
Si Si4 0.311181 0.420812 0.249207
Si Si5 0.313561 0.167842 0.340726
Si Si6 0.311985 0.320782 0.402054
Si Si7 0.181664 0.083163 0.500000
O O1 0.500000 0.328306 0.092287
O O2 0.276459 0.244485 0.135849
O O3 0.245806 0.380770 0.162598
O O4 0.239302 0.330325 0.000000
O O5 0.234956 0.112852 0.086642
O O6 0.226097 0.145443 0.251384
O O7 0.000000 0.187814 0.144528
O O8 0.500000 0.894755 0.000000
O O9 0.293849 0.000000 0.000000
O O10 0.500000 0.420986 0.249229
O O11 0.243606 0.500000 0.249422
O O12 0.247652 0.380686 0.336050
O O13 0.500000 0.167805 0.324480
O O14 0.251959 0.244674 0.370272
O O15 0.269722 0.111393 0.414109
O O16 0.245849 0.336307 0.500000
O O17 0.500000 0.320660 0.403339
O O18 0.000000 0.107920 0.500000
O O19 0.196898 0.000000 0.500000
#
# Coordination Sequence:
#
# PCOD8196098 Si02
#       7
#     8   8   4   8   8   8   4
#     4  10  19  33  56  82 113 155 201 247 292 351
#     4  12  24  38  61  92 123 157 198 247 301 358
#     4  11  25  45  67  91 120 155 196 243 297 360
#     4   9  17  29  48  80 120 155 192 246 304 349
#     4  11  21  38  64  89 117 158 207 251 293 354
#     4   9  16  28  50  81 111 146 193 244 291 340
#     4  11  25  43  61  89 128 159 192 248 308 358
#
# _framework density 19.677978
#
# number of rings (size 3 to 8) (size 9 to 14) (size 15 to 20)
#    0.000    1.667    3.333    2.500    0.000    2.667 
#    0.000    3.333    0.000    0.500    0.000    1.167 
#    0.000    2.000    0.000    0.000    0.000    0.000 
#
# Total GULP energy -595301.619842 kJ/mol
# GULP energy per Si atom -12402.117080 kJ/mol
# Density = 1.963319 g / cm^3
# Si number density = 19.677978 Si / 1000 Ang^3
#
#
#
# Elastic Constant Matrix: (Units=GPa)
#
#
# Indices 1 2 3 4 5 6 
#
# 1 24.2525 10.6216 16.5073 0.0000 0.0000 0.0000
# 2 10.6216 109.0611 58.4712 0.0000 0.0000 0.0000
# 3 16.5073 58.4712 183.6629 0.0000 0.0000 0.0000
# 4 0.0000 0.0000 0.0000 51.1874 0.0000 0.0000
# 5 0.0000 0.0000 0.0000 0.0000 15.5577 0.0000
# 6 0.0000 0.0000 0.0000 0.0000 0.0000 3.8417
#
#
#
# Elastic Compliance Matrix: (Units=1/GPa)
#
#
# Indices 1 2 3 4 5 6 
#
# 1 0.044543 -0.002643 -0.003162 0.000000 0.000000 0.000000
# 2 -0.002643 0.011213 -0.003332 0.000000 0.000000 0.000000
# 3 -0.003162 -0.003332 0.006790 0.000000 0.000000 0.000000
# 4 0.000000 0.000000 0.000000 0.019536 0.000000 0.000000
# 5 0.000000 0.000000 0.000000 0.000000 0.064277 0.000000
# 6 0.000000 0.000000 0.000000 0.000000 0.000000 0.260304
#
#
# Mechanical properties :
#
#
# Convention : Reuss Voigt Hill
#
# Bulk Modulus (GPa) = 22.58800 54.24185 38.41493
# Shear Modulus (GPa) = 11.37154 29.54245 20.45699
#
# Velocity S-wave (km/s) = 2.40653 3.87886 3.22776
# Velocity P-wave (km/s) = 4.38470 6.90545 5.78407
#
# Compressibility (1/GPa) = 0.04427129
#
# Stress axis : x y z
#
# Youngs Moduli (GPa) = 22.45043 89.18135 147.27905
#
# Poissons Ratio (x) = 0.23568 0.46571
# Poissons Ratio (y) = 0.05933 0.49078
# Poissons Ratio (z) = 0.07099 0.29718
#
# Static dielectric constant tensor:
#      x y z
#    x 3.266860 0.000000 0.000000 
#    y 0.000000 3.595730 0.000000 
#    z 0.000000 0.000000 4.022600 
# 
# 
# High freq. dielectric constant tensor:
#      x y z
#    x 1.733060 0.000000 0.000000 
#    y 0.000000 1.762840 0.000000 
#    z 0.000000 0.000000 1.789080 
# 
# From -- ./inp_files/6537.got.cif
#   From: 2010.03.12/outbox.cif.g09.slc.cpg/sg47_4_cif.got.tgz:6537.got - 2010.04.14 03:12:58.
