data_PCOD8196953
_publ_section_title
;
Structure prediction by ZEFSAII (Michael W. Deem and Ramdas Pophale) SiO2 
 PCOD8196953
Probable space group: P M M M
;
_chemical_formula_sum "Si O2"
_cell_formula_units_Z 36
_cell_length_a 9.557306
_cell_length_b 9.102305
_cell_length_c 23.083257
_cell_angle_alpha 90.000000
_cell_angle_beta 90.000000
_cell_angle_gamma 90.000000
_cell_volume 2008.093645
_symmetry_space_group_name_H-M "P M M M"
_symmetry_group_IT_number 47
_symmetry_cell_setting 'orthorhombic'
loop_
_space_group_symop_operation_xyz
x,y,z
-x,-y,z
x,-y,-z
-x,y,-z
-x,-y,-z
x,y,-z
-x,y,z
x,-y,z
loop_
_atom_site_type_symbol
_atom_site_label
_atom_site_fract_x
_atom_site_fract_y
_atom_site_fract_z
Si Si1 0.837750 0.671039 0.160007
Si Si2 0.833096 0.666111 0.386902
Si Si3 0.833402 0.165880 0.274338
Si Si4 0.166794 0.833906 0.500000
Si Si5 0.338412 0.832259 0.933030
O O1 0.812636 0.500000 0.170657
O O2 0.779159 0.755874 0.216178
O O3 0.755044 0.721978 0.103656
O O4 0.000000 0.707069 0.149684
O O5 0.775826 0.500000 0.387709
O O6 0.774258 0.747494 0.329955
O O7 0.775938 0.750661 0.443314
O O8 0.000000 0.666422 0.386633
O O9 0.000000 0.167745 0.275874
O O10 0.775642 0.000000 0.275751
O O11 0.000000 0.834239 0.500000
O O12 0.224422 0.000000 0.500000
O O13 0.500000 0.803744 0.918410
O O14 0.298006 0.000000 0.918270
O O15 0.308286 0.798846 0.000000
#
# Coordination Sequence:
#
# PCOD8196953 Si02
#       5
#     8   8   8   4   8
#     4  10  20  32  47  70  98 125 155 192 233 278
#     4   9  15  22  32  47  70 101 138 181 227 271
#     4   9  16  26  40  57  79 110 147 185 226 272
#     4   9  15  21  29  43  65  97 140 183 220 265
#     4   9  19  36  55  73  94 122 156 192 231 277
#
# _framework density 17.927451999999999
#
# number of rings (size 3 to 8) (size 9 to 14) (size 15 to 20)
#    0.000    2.778    0.000    3.000    0.000    9.333 
#    0.000    3.333    0.000    0.000    0.000    0.000 
#    0.000    0.000    0.000    1.000    0.000   19.556 
#
# Total GULP energy -446406.961330 kJ/mol
# GULP energy per Si atom -12400.193370 kJ/mol
# Density = 1.788665 g / cm^3
# Si number density = 17.927452 Si / 1000 Ang^3
#
#
#
# Elastic Constant Matrix: (Units=GPa)
#
#
# Indices 1 2 3 4 5 6 
#
# 1 22.3747 28.9705 33.6672 0.0000 0.0000 0.0000
# 2 28.9705 154.2326 84.5066 0.0000 0.0000 0.0000
# 3 33.6672 84.5066 143.0393 0.0000 0.0000 0.0000
# 4 0.0000 0.0000 0.0000 41.4784 0.0000 0.0000
# 5 0.0000 0.0000 0.0000 0.0000 -0.9616 0.0000
# 6 0.0000 0.0000 0.0000 0.0000 0.0000 16.0190
#
#
#
# Elastic Compliance Matrix: (Units=1/GPa)
#
#
# Indices 1 2 3 4 5 6 
#
# 1 0.073207 -0.006373 -0.013466 0.000000 0.000000 0.000000
# 2 -0.006373 0.010142 -0.004492 0.000000 0.000000 0.000000
# 3 -0.013466 -0.004492 0.012814 0.000000 0.000000 0.000000
# 4 0.000000 0.000000 0.000000 0.024109 0.000000 0.000000
# 5 0.000000 0.000000 0.000000 0.000000 -1.039957 0.000000
# 6 0.000000 0.000000 0.000000 0.000000 0.000000 0.062426
#
#
# Mechanical properties :
#
#
# Convention : Reuss Voigt Hill
#
# Bulk Modulus (GPa) = 21.05163 68.21501 44.63332
# Shear Modulus (GPa) = -6.30703 22.80734 8.25015
#
# Velocity S-wave (km/s) = -1.87769 3.57066 2.14755
# Velocity P-wave (km/s) = 2.65842 7.42514 5.57673
#
# Compressibility (1/GPa) = 0.04750225
#
# Stress axis : x y z
#
# Youngs Moduli (GPa) = 13.65997 98.60104 78.03841
#
# Poissons Ratio (x) = 0.62837 1.05084
# Poissons Ratio (y) = 0.08705 0.35053
# Poissons Ratio (z) = 0.18394 0.44289
#
# Static dielectric constant tensor:
#      x y z
#    x 2.623350 0.000000 0.000000 
#    y 0.000000 3.470210 0.000000 
#    z 0.000000 0.000000 3.463410 
# 
# 
# High freq. dielectric constant tensor:
#      x y z
#    x 1.616080 0.000000 0.000000 
#    y 0.000000 1.710030 0.000000 
#    z 0.000000 0.000000 1.710800 
# 
# From -- ./inp_files/1373.got.cif
#   From: 2010.03.12/outbox.cif.g09.slc.cpg/sg47_1_cif.got.tgz:1373.got - 2010.04.14 03:12:58.
