data_PCOD8196126
_publ_section_title
;
Structure prediction by ZEFSAII (Michael W. Deem and Ramdas Pophale) SiO2 
 PCOD8196126
Probable space group: P M M M
;
_chemical_formula_sum "Si O2"
_cell_formula_units_Z 44
_cell_length_a 29.735018
_cell_length_b 8.118879
_cell_length_c 9.033071
_cell_angle_alpha 90.000000
_cell_angle_beta 90.000000
_cell_angle_gamma 90.000000
_cell_volume 2180.718955
_symmetry_space_group_name_H-M "P M M M"
_symmetry_group_IT_number 47
_symmetry_cell_setting 'orthorhombic'
loop_
_space_group_symop_operation_xyz
x,y,z
-x,-y,z
x,-y,-z
-x,y,-z
-x,-y,-z
x,y,-z
-x,y,z
x,-y,z
loop_
_atom_site_type_symbol
_atom_site_label
_atom_site_fract_x
_atom_site_fract_y
_atom_site_fract_z
Si Si1 0.725004 0.314024 0.827244
Si Si2 0.450248 0.687956 0.673875
Si Si3 0.181907 0.188071 0.171128
Si Si4 0.098141 0.687922 0.674200
Si Si5 0.946857 0.000000 0.829961
Si Si6 0.366564 0.187850 0.836817
O O1 0.738029 0.500000 0.791857
O O2 0.766948 0.206108 0.768390
O O3 0.676457 0.271995 0.754547
O O4 0.718480 0.277708 0.000000
O O5 0.447793 0.711209 0.500000
O O6 0.500000 0.742150 0.729730
O O7 0.441156 0.500000 0.719049
O O8 0.412124 0.799062 0.744958
O O9 0.149328 0.300895 0.268830
O O10 0.166003 0.000000 0.187949
O O11 0.179584 0.246030 0.000000
O O12 0.096450 0.722528 0.500000
O O13 0.080785 0.500000 0.707897
O O14 0.069201 0.829765 0.754255
O O15 0.000000 0.000000 0.820789
O O16 0.929736 0.000000 0.000000
O O17 0.353139 0.000000 0.851267
O O18 0.374995 0.265190 0.000000
#
# Coordination Sequence:
#
# PCOD8196126 Si02
#       6
#     8   8   8   8   4   8
#     4   9  17  30  50  77 109 146 187 231 279 332
#     4   9  19  36  55  73  95 127 169 217 270 330
#     4  10  19  33  57  87 118 155 199 245 293 347
#     4  11  24  41  63  93 130 170 209 253 309 370
#     4  11  25  45  69  97 127 163 211 265 314 361
#     4  10  20  33  50  75 107 139 174 220 272 328
#
# _framework density 20.176831
#
# number of rings (size 3 to 8) (size 9 to 14) (size 15 to 20)
#    0.000    2.091    0.909    3.000    0.000    7.636 
#    0.000    5.455    0.000    5.455    0.000    0.000 
#    0.000    0.000    0.000    0.000    0.000    0.000 
#
# Total GULP energy -545379.437225 kJ/mol
# GULP energy per Si atom -12394.987210 kJ/mol
# Density = 2.013091 g / cm^3
# Si number density = 20.176831 Si / 1000 Ang^3
#
#
#
# Elastic Constant Matrix: (Units=GPa)
#
#
# Indices 1 2 3 4 5 6 
#
# 1 118.8964 43.6310 42.4751 0.0000 0.0000 0.0000
# 2 43.6310 101.1995 44.0665 0.0000 0.0000 0.0000
# 3 42.4751 44.0665 68.9891 0.0000 0.0000 0.0000
# 4 0.0000 0.0000 0.0000 26.1695 0.0000 0.0000
# 5 0.0000 0.0000 0.0000 0.0000 -3.0474 0.0000
# 6 0.0000 0.0000 0.0000 0.0000 0.0000 33.4989
#
#
#
# Elastic Compliance Matrix: (Units=1/GPa)
#
#
# Indices 1 2 3 4 5 6 
#
# 1 0.011234 -0.002537 -0.005296 0.000000 0.000000 0.000000
# 2 -0.002537 0.014262 -0.007548 0.000000 0.000000 0.000000
# 3 -0.005296 -0.007548 0.022576 0.000000 0.000000 0.000000
# 4 0.000000 0.000000 0.000000 0.038212 0.000000 0.000000
# 5 0.000000 0.000000 0.000000 0.000000 -0.328144 0.000000
# 6 0.000000 0.000000 0.000000 0.000000 0.000000 0.029852
#
#
# Mechanical properties :
#
#
# Convention : Reuss Voigt Hill
#
# Bulk Modulus (GPa) = 57.76680 61.04779 59.40729
# Shear Modulus (GPa) = -28.49376 21.91836 -3.28770
#
# Velocity S-wave (km/s) = -3.76200 3.29950 -1.27788
# Velocity P-wave (km/s) = 3.13404 6.69609 5.22780
#
# Compressibility (1/GPa) = 0.01731098
#
# Stress axis : x y z
#
# Youngs Moduli (GPa) = 89.01855 70.11674 44.29405
#
# Poissons Ratio (x) = 0.17791 0.23456
# Poissons Ratio (y) = 0.22587 0.33431
# Poissons Ratio (z) = 0.47141 0.52921
#
# Static dielectric constant tensor:
#      x y z
#    x 3.836810 0.000000 0.000000 
#    y 0.000000 3.655440 0.000000 
#    z 0.000000 0.000000 3.381380 
# 
# 
# High freq. dielectric constant tensor:
#      x y z
#    x 1.802840 0.000000 0.000000 
#    y 0.000000 1.792080 0.000000 
#    z 0.000000 0.000000 1.751000 
# 
# From -- ./inp_files/13615.got.cif
#   From: 2010.03.12/outbox.cif.g09.slc.cpg/sg47_7_cif.got.tgz:13615.got - 2010.04.14 03:12:58.
