data_PCOD8196208
_publ_section_title
;
Structure prediction by ZEFSAII (Michael W. Deem and Ramdas Pophale) SiO2 
 PCOD8196208
Probable space group: P M M M
;
_chemical_formula_sum "Si O2"
_cell_formula_units_Z 48
_cell_length_a 9.337920
_cell_length_b 16.846795
_cell_length_c 15.766362
_cell_angle_alpha 90.000000
_cell_angle_beta 90.000000
_cell_angle_gamma 90.000000
_cell_volume 2480.269850
_symmetry_space_group_name_H-M "P M M M"
_symmetry_group_IT_number 47
_symmetry_cell_setting 'orthorhombic'
loop_
_space_group_symop_operation_xyz
x,y,z
-x,-y,z
x,-y,-z
-x,y,-z
-x,-y,-z
x,y,-z
-x,y,z
x,-y,z
loop_
_atom_site_type_symbol
_atom_site_label
_atom_site_fract_x
_atom_site_fract_y
_atom_site_fract_z
Si Si1 0.838067 0.348347 0.652615
Si Si2 0.836215 0.667034 0.154989
Si Si3 0.829999 0.500000 0.095031
Si Si4 0.834240 0.820454 0.594967
Si Si5 0.669313 0.909222 0.257351
Si Si6 0.332427 0.500000 0.401571
Si Si7 0.666081 0.187901 0.905385
O O1 0.821846 0.312847 0.746507
O O2 0.799004 0.273788 0.593337
O O3 0.732176 0.421101 0.639174
O O4 0.000000 0.378884 0.636299
O O5 0.772224 0.578760 0.141242
O O6 0.747549 0.729008 0.100124
O O7 0.000000 0.671666 0.123563
O O8 0.000000 0.500000 0.099152
O O9 0.771517 0.500000 0.000000
O O10 0.802166 0.852657 0.500000
O O11 0.738492 0.866526 0.662190
O O12 0.000000 0.833455 0.619506
O O13 0.500000 0.901541 0.267286
O O14 0.721197 0.872042 0.167612
O O15 0.719821 0.000000 0.256954
O O16 0.500000 0.500000 0.383388
O O17 0.294823 0.500000 0.500000
O O18 0.500000 0.205918 0.891166
O O19 0.692788 0.151832 0.000000
#
# Coordination Sequence:
#
# PCOD8196208 Si02
#       7
#     8   8   4   8   8   4   8
#     4  10  20  36  58  81 109 150 197 240 285 338
#     4  10  19  34  57  81 108 147 193 236 279 332
#     4   9  17  28  45  75 110 141 178 223 267 316
#     4  10  21  38  61  88 116 149 190 238 292 345
#     4  10  22  40  61  85 115 151 190 234 285 345
#     4  11  24  37  51  79 116 153 196 242 287 335
#     4  10  21  37  58  85 117 151 188 233 286 341
#
# _framework density 19.352734000000002
#
# number of rings (size 3 to 8) (size 9 to 14) (size 15 to 20)
#    0.000    2.000    1.667    1.750    0.000    6.333 
#    0.000    3.750    0.000    1.500    0.000    2.333 
#    0.000    0.000    0.000    0.000    0.000    0.000 
#
# Total GULP energy -595194.339544 kJ/mol
# GULP energy per Si atom -12399.882074 kJ/mol
# Density = 1.930869 g / cm^3
# Si number density = 19.352734 Si / 1000 Ang^3
#
#
#
# Elastic Constant Matrix: (Units=GPa)
#
#
# Indices 1 2 3 4 5 6 
#
# 1 46.7867 39.1548 34.9245 0.0000 0.0000 0.0000
# 2 39.1548 112.9977 52.4060 0.0000 0.0000 0.0000
# 3 34.9245 52.4060 118.1234 0.0000 0.0000 0.0000
# 4 0.0000 0.0000 0.0000 20.7050 0.0000 0.0000
# 5 0.0000 0.0000 0.0000 0.0000 26.7562 0.0000
# 6 0.0000 0.0000 0.0000 0.0000 0.0000 24.1398
#
#
#
# Elastic Compliance Matrix: (Units=1/GPa)
#
#
# Indices 1 2 3 4 5 6 
#
# 1 0.033087 -0.008723 -0.005913 0.000000 0.000000 0.000000
# 2 -0.008723 0.013442 -0.003385 0.000000 0.000000 0.000000
# 3 -0.005913 -0.003385 0.011715 0.000000 0.000000 0.000000
# 4 0.000000 0.000000 0.000000 0.048297 0.000000 0.000000
# 5 0.000000 0.000000 0.000000 0.000000 0.037375 0.000000
# 6 0.000000 0.000000 0.000000 0.000000 0.000000 0.041425
#
#
# Mechanical properties :
#
#
# Convention : Reuss Voigt Hill
#
# Bulk Modulus (GPa) = 45.03613 58.98650 52.01132
# Shear Modulus (GPa) = 21.85472 24.41505 23.13488
#
# Velocity S-wave (km/s) = 3.36413 3.55573 3.46125
# Velocity P-wave (km/s) = 6.19770 6.88502 6.55038
#
# Compressibility (1/GPa) = 0.02220439
#
# Stress axis : x y z
#
# Youngs Moduli (GPa) = 30.22322 74.39373 85.35737
#
# Poissons Ratio (x) = 0.64893 0.50469
# Poissons Ratio (y) = 0.26363 0.28890
# Poissons Ratio (z) = 0.17870 0.25179
#
# Static dielectric constant tensor:
#      x y z
#    x 3.323900 0.000000 0.000000 
#    y 0.000000 3.508040 0.000000 
#    z 0.000000 0.000000 3.701770 
# 
# 
# High freq. dielectric constant tensor:
#      x y z
#    x 1.730850 0.000000 0.000000 
#    y 0.000000 1.751000 0.000000 
#    z 0.000000 0.000000 1.768460 
# 
# From -- ./inp_files/21075.got.cif
#   From: 2010.03.12/outbox.cif.g09.slc.cpg/sg47_11_cif.got.tgz:21075.got - 2010.04.14 03:12:58.
