data_PCOD8196324
_publ_section_title
;
Structure prediction by ZEFSAII (Michael W. Deem and Ramdas Pophale) SiO2 
 PCOD8196324
Probable space group: P M M M
;
_chemical_formula_sum "Si O2"
_cell_formula_units_Z 64
_cell_length_a 25.360155
_cell_length_b 14.377590
_cell_length_c 9.276570
_cell_angle_alpha 90.000000
_cell_angle_beta 90.000000
_cell_angle_gamma 90.000000
_cell_volume 3382.403574
_symmetry_space_group_name_H-M "P M M M"
_symmetry_group_IT_number 47
_symmetry_cell_setting 'orthorhombic'
loop_
_space_group_symop_operation_xyz
x,y,z
-x,-y,z
x,-y,-z
-x,y,-z
-x,-y,-z
x,y,-z
-x,y,z
x,-y,z
loop_
_atom_site_type_symbol
_atom_site_label
_atom_site_fract_x
_atom_site_fract_y
_atom_site_fract_z
Si Si1 0.562145 0.700364 0.832038
Si Si2 0.741035 0.292740 0.166813
Si Si3 0.559198 0.901896 0.829023
Si Si4 0.104341 0.894158 0.667371
Si Si5 0.059001 0.268431 0.166702
Si Si6 0.210252 0.103480 0.836180
Si Si7 0.846788 0.603972 0.170913
Si Si8 0.350193 0.393352 0.332754
O O1 0.500000 0.690712 0.801815
O O2 0.584040 0.803078 0.780571
O O3 0.592924 0.624304 0.739067
O O4 0.574296 0.683599 0.000000
O O5 0.745159 0.181306 0.190727
O O6 0.794771 0.341269 0.221528
O O7 0.692993 0.327999 0.260770
O O8 0.730145 0.317089 0.000000
O O9 0.500000 0.904864 0.768303
O O10 0.587654 0.000000 0.778975
O O11 0.557184 0.899128 0.000000
O O12 0.106034 0.869156 0.500000
O O13 0.062947 0.827655 0.746144
O O14 0.162268 0.877042 0.730146
O O15 0.085991 0.000000 0.693476
O O16 0.101058 0.343017 0.227882
O O17 0.000000 0.308806 0.187234
O O18 0.070819 0.246653 0.000000
O O19 0.234229 0.000000 0.810226
O O20 0.188967 0.113213 0.000000
O O21 0.846005 0.500000 0.236951
O O22 0.848668 0.598707 0.000000
O O23 0.353947 0.368845 0.500000
O O24 0.334227 0.500000 0.307199
#
# Coordination Sequence:
#
# PCOD8196324 Si02
#       8
#     8   8   8   8   8   8   8   8
#     4   9  18  34  58  86 112 142 183 226 268 317
#     4  10  19  35  60  84 107 137 175 221 268 315
#     4   7  10  20  43  76 109 136 165 206 253 299
#     4  10  20  33  51  76 107 143 179 217 265 321
#     4  10  20  34  52  76 107 142 181 225 273 324
#     4   9  17  32  57  86 113 139 171 214 264 321
#     4   9  17  31  53  81 107 132 170 221 275 324
#     4  11  25  41  55  76 108 145 184 226 274 324
#
# _framework density 18.921457
#
# number of rings (size 3 to 8) (size 9 to 14) (size 15 to 20)
#    0.000    2.625    1.250    2.250    0.000    4.000 
#    0.000    4.375    0.000    4.500    0.000    2.625 
#    0.000    0.000    0.000    0.000    0.000    0.000 
#
# Total GULP energy -793157.888157 kJ/mol
# GULP energy per Si atom -12393.092002 kJ/mol
# Density = 1.887839 g / cm^3
# Si number density = 18.921457 Si / 1000 Ang^3
#
#
#
# Elastic Constant Matrix: (Units=GPa)
#
#
# Indices 1 2 3 4 5 6 
#
# 1 92.9851 51.8528 41.3378 0.0000 0.0000 0.0000
# 2 51.8528 116.3653 44.1551 0.0000 0.0000 0.0000
# 3 41.3378 44.1551 65.7893 0.0000 0.0000 0.0000
# 4 0.0000 0.0000 0.0000 19.5743 0.0000 0.0000
# 5 0.0000 0.0000 0.0000 0.0000 10.6911 0.0000
# 6 0.0000 0.0000 0.0000 0.0000 0.0000 25.4464
#
#
#
# Elastic Compliance Matrix: (Units=1/GPa)
#
#
# Indices 1 2 3 4 5 6 
#
# 1 0.016581 -0.004609 -0.007325 0.000000 0.000000 0.000000
# 2 -0.004609 0.012811 -0.005702 0.000000 0.000000 0.000000
# 3 -0.007325 -0.005702 0.023630 0.000000 0.000000 0.000000
# 4 0.000000 0.000000 0.000000 0.051087 0.000000 0.000000
# 5 0.000000 0.000000 0.000000 0.000000 0.093535 0.000000
# 6 0.000000 0.000000 0.000000 0.000000 0.000000 0.039298
#
#
# Mechanical properties :
#
#
# Convention : Reuss Voigt Hill
#
# Bulk Modulus (GPa) = 56.34063 61.09235 58.71649
# Shear Modulus (GPa) = 17.97704 20.32864 19.15284
#
# Velocity S-wave (km/s) = 3.08569 3.28131 3.18501
# Velocity P-wave (km/s) = 6.52197 6.83472 6.68018
#
# Compressibility (1/GPa) = 0.01774918
#
# Stress axis : x y z
#
# Youngs Moduli (GPa) = 60.30964 78.05662 42.31942
#
# Poissons Ratio (x) = 0.35977 0.30999
# Poissons Ratio (y) = 0.27797 0.24132
# Poissons Ratio (z) = 0.44177 0.44510
#
# Static dielectric constant tensor:
#      x y z
#    x 3.219050 0.000000 0.000000 
#    y 0.000000 3.945230 0.000000 
#    z 0.000000 0.000000 3.174220 
# 
# 
# High freq. dielectric constant tensor:
#      x y z
#    x 1.713610 0.000000 0.000000 
#    y 0.000000 1.752140 0.000000 
#    z 0.000000 0.000000 1.698250 
# 
# From -- ./inp_files/7910.got.cif
#   From: 2010.03.12/outbox.cif.g09.slc.cpg/sg47_4_cif.got.tgz:7910.got - 2010.04.14 03:12:58.
