data_PCOD8196507
_publ_section_title
;
Structure prediction by ZEFSAII (Michael W. Deem and Ramdas Pophale) SiO2 
 PCOD8196507
Probable space group: P M M M
;
_chemical_formula_sum "Si O2"
_cell_formula_units_Z 40
_cell_length_a 9.001084
_cell_length_b 19.158218
_cell_length_c 13.854860
_cell_angle_alpha 90.000000
_cell_angle_beta 90.000000
_cell_angle_gamma 90.000000
_cell_volume 2389.197585
_symmetry_space_group_name_H-M "P M M M"
_symmetry_group_IT_number 47
_symmetry_cell_setting 'orthorhombic'
loop_
_space_group_symop_operation_xyz
x,y,z
-x,-y,z
x,-y,-z
-x,y,-z
-x,-y,-z
x,y,-z
-x,y,z
x,-y,z
loop_
_atom_site_type_symbol
_atom_site_label
_atom_site_fract_x
_atom_site_fract_y
_atom_site_fract_z
Si Si1 0.324584 0.207382 0.393982
Si Si2 0.323329 0.286510 0.790429
Si Si3 0.673388 0.078728 0.269340
Si Si4 0.828238 0.160466 0.111057
Si Si5 0.323497 0.576763 0.891497
O O1 0.252097 0.219562 0.500000
O O2 0.500000 0.210548 0.403962
O O3 0.271083 0.267110 0.318593
O O4 0.276489 0.131196 0.354577
O O5 0.500000 0.281221 0.799325
O O6 0.255843 0.232223 0.865889
O O7 0.264593 0.363919 0.817934
O O8 0.500000 0.088717 0.246463
O O9 0.762444 0.096410 0.172266
O O10 0.709992 0.000000 0.302279
O O11 0.000000 0.170485 0.136920
O O12 0.803966 0.141268 0.000000
O O13 0.500000 0.577150 0.892009
O O14 0.266389 0.500000 0.857928
O O15 0.265758 0.592491 0.000000
#
# Coordination Sequence:
#
# PCOD8196507 Si02
#       5
#     8   8   8   8   8
#     4   8  14  25  42  64  86 107 135 173 215 253
#     4   9  16  27  45  65  84 110 145 180 208 242
#     4   9  18  31  46  64  83 106 140 177 210 248
#     4  10  20  31  43  61  86 115 142 169 208 255
#     4   8  13  21  36  61  89 113 139 173 210 244
#
# _framework density 16.742021999999999
#
# number of rings (size 3 to 8) (size 9 to 14) (size 15 to 20)
#    0.000    3.200    0.000    3.000    0.000    3.600 
#    0.000    4.000    0.000   10.800    0.000   12.600 
#    0.000    0.000    0.000    7.200    0.000    8.800 
#
# Total GULP energy -495705.957601 kJ/mol
# GULP energy per Si atom -12392.648940 kJ/mol
# Density = 1.670392 g / cm^3
# Si number density = 16.742022 Si / 1000 Ang^3
#
#
#
# Elastic Constant Matrix: (Units=GPa)
#
#
# Indices 1 2 3 4 5 6 
#
# 1 24.7469 13.2827 20.7419 0.0000 0.0000 0.0000
# 2 13.2827 145.2028 73.7582 0.0000 0.0000 0.0000
# 3 20.7419 73.7582 126.8723 0.0000 0.0000 0.0000
# 4 0.0000 0.0000 0.0000 19.7915 0.0000 0.0000
# 5 0.0000 0.0000 0.0000 0.0000 8.7254 0.0000
# 6 0.0000 0.0000 0.0000 0.0000 0.0000 5.2750
#
#
#
# Elastic Compliance Matrix: (Units=1/GPa)
#
#
# Indices 1 2 3 4 5 6 
#
# 1 0.046858 -0.000561 -0.007335 0.000000 0.000000 0.000000
# 2 -0.000561 0.009780 -0.005594 0.000000 0.000000 0.000000
# 3 -0.007335 -0.005594 0.012333 0.000000 0.000000 0.000000
# 4 0.000000 0.000000 0.000000 0.050527 0.000000 0.000000
# 5 0.000000 0.000000 0.000000 0.000000 0.114608 0.000000
# 6 0.000000 0.000000 0.000000 0.000000 0.000000 0.189572
#
#
# Mechanical properties :
#
#
# Convention : Reuss Voigt Hill
#
# Bulk Modulus (GPa) = 23.81398 56.93196 40.37297
# Shear Modulus (GPa) = 10.76071 19.36099 15.06085
#
# Velocity S-wave (km/s) = 2.53798 3.40432 3.00256
# Velocity P-wave (km/s) = 4.77948 7.03788 6.01561
#
# Compressibility (1/GPa) = 0.04199214
#
# Stress axis : x y z
#
# Youngs Moduli (GPa) = 21.34125 102.25277 81.08274
#
# Poissons Ratio (x) = 0.05732 0.59471
# Poissons Ratio (y) = 0.01196 0.45356
# Poissons Ratio (z) = 0.15653 0.57199
#
# Static dielectric constant tensor:
#      x y z
#    x 2.780750 0.000000 0.000000 
#    y 0.000000 3.419870 0.000000 
#    z 0.000000 0.000000 3.360860 
# 
# 
# High freq. dielectric constant tensor:
#      x y z
#    x 1.604190 0.000000 0.000000 
#    y 0.000000 1.643960 0.000000 
#    z 0.000000 0.000000 1.636550 
# 
# From -- ./inp_files/5950.got.cif
#   From: 2010.03.12/outbox.cif.g09.slc.cpg/sg47_3_cif.got.tgz:5950.got - 2010.04.14 03:12:58.
