data_PCOD8196921
_publ_section_title
;
Structure prediction by ZEFSAII (Michael W. Deem and Ramdas Pophale) SiO2 
 PCOD8196921
Probable space group: P M M M
;
_chemical_formula_sum "Si O2"
_cell_formula_units_Z 44
_cell_length_a 27.949035
_cell_length_b 9.343700
_cell_length_c 9.317992
_cell_angle_alpha 90.000000
_cell_angle_beta 90.000000
_cell_angle_gamma 90.000000
_cell_volume 2433.369368
_symmetry_space_group_name_H-M "P M M M"
_symmetry_group_IT_number 47
_symmetry_cell_setting 'orthorhombic'
loop_
_space_group_symop_operation_xyz
x,y,z
-x,-y,z
x,-y,-z
-x,y,-z
-x,-y,-z
x,y,-z
-x,y,z
x,-y,z
loop_
_atom_site_type_symbol
_atom_site_label
_atom_site_fract_x
_atom_site_fract_y
_atom_site_fract_z
Si Si1 0.688857 0.165864 0.836776
Si Si2 0.858295 0.329391 0.838526
Si Si3 0.233679 0.331608 0.334522
Si Si4 0.052890 0.329773 0.338833
Si Si5 0.421719 0.164386 0.165191
Si Si6 0.500000 0.667014 0.332263
O O1 0.719130 0.258623 0.726706
O O2 0.633584 0.196932 0.803734
O O3 0.700705 0.000000 0.813094
O O4 0.701111 0.210634 0.000000
O O5 0.859589 0.500000 0.837434
O O6 0.812669 0.273673 0.750035
O O7 0.906652 0.266879 0.766589
O O8 0.854956 0.269706 0.000000
O O9 0.227322 0.289779 0.500000
O O10 0.239624 0.500000 0.313880
O O11 0.062742 0.273793 0.500000
O O12 0.055304 0.500000 0.338564
O O13 0.000000 0.279645 0.287244
O O14 0.452437 0.265910 0.265697
O O15 0.433810 0.000000 0.200968
O O16 0.434216 0.196620 0.000000
O O17 0.500000 0.500000 0.297918
O O18 0.500000 0.699386 0.500000
#
# Coordination Sequence:
#
# PCOD8196921 Si02
#       6
#     8   8   8   8   8   4
#     4   9  19  36  56  77 100 126 160 204 249 291
#     4   9  16  25  38  57  83 117 157 199 241 287
#     4  10  20  32  47  69  98 131 164 199 242 293
#     4   8  13  21  33  50  76 112 151 191 238 291
#     4   9  19  37  59  79  99 128 167 206 244 290
#     4  11  24  37  50  76 112 141 166 201 242 284
#
# _framework density 18.081923
#
# number of rings (size 3 to 8) (size 9 to 14) (size 15 to 20)
#    0.000    2.818    0.000    3.273    0.000    7.636 
#    0.000    7.273    0.000    0.000    0.000    0.000 
#    0.000    0.727    0.000    7.636    0.000   10.545 
#
# Total GULP energy -545552.173630 kJ/mol
# GULP energy per Si atom -12398.913037 kJ/mol
# Density = 1.804077 g / cm^3
# Si number density = 18.081923 Si / 1000 Ang^3
#
#
#
# Elastic Constant Matrix: (Units=GPa)
#
#
# Indices 1 2 3 4 5 6 
#
# 1 140.1370 47.9591 95.3810 0.0000 0.0000 0.0000
# 2 47.9591 43.2002 52.8397 0.0000 0.0000 0.0000
# 3 95.3810 52.8397 147.9894 0.0000 0.0000 0.0000
# 4 0.0000 0.0000 0.0000 22.6744 0.0000 0.0000
# 5 0.0000 0.0000 0.0000 0.0000 39.5840 0.0000
# 6 0.0000 0.0000 0.0000 0.0000 0.0000 -3.5385
#
#
#
# Elastic Compliance Matrix: (Units=1/GPa)
#
#
# Indices 1 2 3 4 5 6 
#
# 1 0.014140 -0.008079 -0.006229 0.000000 0.000000 0.000000
# 2 -0.008079 0.045711 -0.011114 0.000000 0.000000 0.000000
# 3 -0.006229 -0.011114 0.014740 0.000000 0.000000 0.000000
# 4 0.000000 0.000000 0.000000 0.044103 0.000000 0.000000
# 5 0.000000 0.000000 0.000000 0.000000 0.025263 0.000000
# 6 0.000000 0.000000 0.000000 0.000000 0.000000 -0.282606
#
#
# Mechanical properties :
#
#
# Convention : Reuss Voigt Hill
#
# Bulk Modulus (GPa) = 42.10998 80.40957 61.25978
# Shear Modulus (GPa) = -62.58746 20.75376 -20.91685
#
# Velocity S-wave (km/s) = -5.88969 3.39154 -3.40484
# Velocity P-wave (km/s) = 4.78667 7.73969 4.30062
#
# Compressibility (1/GPa) = 0.02374734
#
# Stress axis : x y z
#
# Youngs Moduli (GPa) = 70.71895 21.87639 67.84172
#
# Poissons Ratio (x) = 0.17675 0.42259
# Poissons Ratio (y) = 0.57136 0.75400
# Poissons Ratio (z) = 0.44051 0.24314
#
# Static dielectric constant tensor:
#      x y z
#    x 3.500250 0.000000 0.000000 
#    y 0.000000 2.864350 0.000000 
#    z 0.000000 0.000000 3.434340 
# 
# 
# High freq. dielectric constant tensor:
#      x y z
#    x 1.716520 0.000000 0.000000 
#    y 0.000000 1.650080 0.000000 
#    z 0.000000 0.000000 1.705130 
# 
# From -- ./inp_files/2157.got.cif
#   From: 2010.03.12/outbox.cif.g09.slc.cpg/sg47_2_cif.got.tgz:2157.got - 2010.04.14 03:12:58.
