data_PCOD8196106
_publ_section_title
;
Structure prediction by ZEFSAII (Michael W. Deem and Ramdas Pophale) SiO2 
 PCOD8196106
Probable space group: P M M M
;
_chemical_formula_sum "Si O2"
_cell_formula_units_Z 56
_cell_length_a 8.803852
_cell_length_b 20.410806
_cell_length_c 15.070241
_cell_angle_alpha 90.000000
_cell_angle_beta 90.000000
_cell_angle_gamma 90.000000
_cell_volume 2708.027595
_symmetry_space_group_name_H-M "P M M M"
_symmetry_group_IT_number 47
_symmetry_cell_setting 'orthorhombic'
loop_
_space_group_symop_operation_xyz
x,y,z
-x,-y,z
x,-y,-z
-x,y,-z
-x,-y,-z
x,y,-z
-x,y,z
x,-y,z
loop_
_atom_site_type_symbol
_atom_site_label
_atom_site_fract_x
_atom_site_fract_y
_atom_site_fract_z
Si Si1 0.322760 0.096396 0.901840
Si Si2 0.819474 0.807027 0.398901
Si Si3 0.829567 0.422979 0.000000
Si Si4 0.823874 0.071637 0.280619
Si Si5 0.820289 0.661951 0.337880
Si Si6 0.169651 0.769015 0.901370
Si Si7 0.321456 0.645613 0.162636
Si Si8 0.178824 0.426894 0.500000
O O1 0.500000 0.084020 0.891801
O O2 0.242352 0.063339 0.818536
O O3 0.287124 0.172582 0.897372
O O4 0.269114 0.069857 0.000000
O O5 0.756617 0.813390 0.500000
O O6 0.754540 0.868305 0.339365
O O7 0.768655 0.737377 0.356912
O O8 0.000000 0.810443 0.402170
O O9 0.740353 0.402653 0.911960
O O10 0.838588 0.500000 0.000000
O O11 0.000000 0.392859 0.000000
O O12 0.000000 0.086177 0.269085
O O13 0.796485 0.000000 0.326809
O O14 0.726063 0.624467 0.260751
O O15 0.768829 0.615921 0.417391
O O16 0.000000 0.659313 0.318939
O O17 0.235585 0.714889 0.837667
O O18 0.000000 0.790631 0.870357
O O19 0.163600 0.738728 0.000000
O O20 0.500000 0.653276 0.149371
O O21 0.252572 0.500000 0.500000
O O22 0.000000 0.434648 0.500000
#
# Coordination Sequence:
#
# PCOD8196106 Si02
#       8
#     8   8   4   8   8   8   8   4
#     4  10  21  36  55  80 113 153 197 244 298 358
#     4   9  17  33  59  87 113 146 192 248 305 359
#     4  11  25  45  65  85 115 161 214 259 300 353
#     4  10  21  35  53  81 115 151 196 250 305 363
#     4  10  19  35  61  89 117 155 203 252 303 361
#     4  10  19  33  56  83 113 148 192 242 292 344
#     4  12  24  37  58  88 124 161 199 246 300 362
#     4   9  18  34  59  91 120 148 194 255 307 354
#
# _framework density 20.679257
#
# number of rings (size 3 to 8) (size 9 to 14) (size 15 to 20)
#    0.000    1.857    1.429    3.214    0.000    4.571 
#    0.000    4.643    0.000    1.714    0.000    1.000 
#    0.000    0.000    0.000    0.000    0.000    0.000 
#
# Total GULP energy -693901.967667 kJ/mol
# GULP energy per Si atom -12391.106565 kJ/mol
# Density = 2.063219 g / cm^3
# Si number density = 20.679257 Si / 1000 Ang^3
#
#
#
# Elastic Constant Matrix: (Units=GPa)
#
#
# Indices 1 2 3 4 5 6 
#
# 1 48.7028 21.8807 28.9606 0.0000 0.0000 0.0000
# 2 21.8807 124.7789 56.6476 0.0000 0.0000 0.0000
# 3 28.9606 56.6476 145.5449 0.0000 0.0000 0.0000
# 4 0.0000 0.0000 0.0000 -1.7812 0.0000 0.0000
# 5 0.0000 0.0000 0.0000 0.0000 10.3526 0.0000
# 6 0.0000 0.0000 0.0000 0.0000 0.0000 9.7615
#
#
#
# Elastic Compliance Matrix: (Units=1/GPa)
#
#
# Indices 1 2 3 4 5 6 
#
# 1 0.023898 -0.002468 -0.003795 0.000000 0.000000 0.000000
# 2 -0.002468 0.009989 -0.003397 0.000000 0.000000 0.000000
# 3 -0.003795 -0.003397 0.008948 0.000000 0.000000 0.000000
# 4 0.000000 0.000000 0.000000 -0.561421 0.000000 0.000000
# 5 0.000000 0.000000 0.000000 0.000000 0.096594 0.000000
# 6 0.000000 0.000000 0.000000 0.000000 0.000000 0.102443
#
#
# Mechanical properties :
#
#
# Convention : Reuss Voigt Hill
#
# Bulk Modulus (GPa) = 42.52413 59.33382 50.92898
# Shear Modulus (GPa) = -17.10037 17.76910 0.33436
#
# Velocity S-wave (km/s) = -2.87876 2.93451 0.40254
# Velocity P-wave (km/s) = 3.09170 6.34323 4.98975
#
# Compressibility (1/GPa) = 0.02351606
#
# Stress axis : x y z
#
# Youngs Moduli (GPa) = 41.84468 100.10999 111.75870
#
# Poissons Ratio (x) = 0.24706 0.42409
# Poissons Ratio (y) = 0.10327 0.37962
# Poissons Ratio (z) = 0.15879 0.34005
#
# Static dielectric constant tensor:
#      x y z
#    x 3.434930 0.000000 0.000000 
#    y 0.000000 3.858360 0.000000 
#    z 0.000000 0.000000 4.094490 
# 
# 
# High freq. dielectric constant tensor:
#      x y z
#    x 1.773570 0.000000 0.000000 
#    y 0.000000 1.812730 0.000000 
#    z 0.000000 0.000000 1.820020 
# 
# From -- ./inp_files/21689.got.cif
#   From: 2010.03.12/outbox.cif.g09.slc.cpg/sg47_11_cif.got.tgz:21689.got - 2010.04.14 03:12:58.
