data_PCOD8196351
_publ_section_title
;
Structure prediction by ZEFSAII (Michael W. Deem and Ramdas Pophale) SiO2 
 PCOD8196351
Probable space group: P M M M
;
_chemical_formula_sum "Si O2"
_cell_formula_units_Z 52
_cell_length_a 11.759426
_cell_length_b 25.029607
_cell_length_c 8.901805
_cell_angle_alpha 90.000000
_cell_angle_beta 90.000000
_cell_angle_gamma 90.000000
_cell_volume 2620.102193
_symmetry_space_group_name_H-M "P M M M"
_symmetry_group_IT_number 47
_symmetry_cell_setting 'orthorhombic'
loop_
_space_group_symop_operation_xyz
x,y,z
-x,-y,z
x,-y,-z
-x,y,-z
-x,-y,-z
x,y,-z
-x,y,z
x,-y,z
loop_
_atom_site_type_symbol
_atom_site_label
_atom_site_fract_x
_atom_site_fract_y
_atom_site_fract_z
Si Si1 0.369208 0.352730 0.826333
Si Si2 0.240613 0.938646 0.826293
Si Si3 0.367571 0.846327 0.675172
Si Si4 0.772726 0.439003 0.676347
Si Si5 0.000000 0.889045 0.172501
Si Si6 0.768743 0.248700 0.177442
Si Si7 0.000000 0.223695 0.322533
Si Si8 0.000000 0.563528 0.168748
O O1 0.500000 0.340687 0.793170
O O2 0.333236 0.404165 0.730635
O O3 0.300720 0.300849 0.773471
O O4 0.346822 0.365718 0.000000
O O5 0.325694 0.904822 0.723248
O O6 0.109845 0.924514 0.792030
O O7 0.260496 0.000000 0.783776
O O8 0.269376 0.927575 0.000000
O O9 0.343091 0.837466 0.500000
O O10 0.500000 0.840411 0.713071
O O11 0.297838 0.803458 0.769747
O O12 0.786939 0.435033 0.500000
O O13 0.751013 0.500000 0.727423
O O14 0.887465 0.415059 0.749323
O O15 0.000000 0.838370 0.280499
O O16 0.000000 0.868960 0.000000
O O17 0.890447 0.253125 0.255659
O O18 0.784985 0.244664 0.000000
O O19 0.000000 0.229797 0.500000
O O20 0.000000 0.500000 0.174160
O O21 0.000000 0.585915 0.000000
#
# Coordination Sequence:
#
# PCOD8196351 Si02
#       8
#     8   8   8   8   4   8   4   4
#     4  10  23  42  63  88 118 156 204 253 298 349
#     4  10  21  37  60  89 120 157 202 248 295 353
#     4  11  24  40  59  85 119 159 199 245 303 359
#     4  10  21  37  59  89 125 163 201 244 299 360
#     4  10  19  36  61  89 120 155 193 240 297 355
#     4  11  23  42  66  90 117 153 198 247 299 355
#     4  12  24  38  62  95 126 154 190 238 297 362
#     4   9  17  32  57  86 116 154 199 245 292 344
#
# _framework density 19.846551999999999
#
# number of rings (size 3 to 8) (size 9 to 14) (size 15 to 20)
#    0.000    1.615    1.538    3.000    0.000    7.692 
#    0.000    3.846    0.000    1.385    0.000    0.000 
#    0.000    0.000    0.000    0.000    0.000    0.000 
#
# Total GULP energy -645107.370540 kJ/mol
# GULP energy per Si atom -12405.910972 kJ/mol
# Density = 1.980138 g / cm^3
# Si number density = 19.846552 Si / 1000 Ang^3
#
#
#
# Elastic Constant Matrix: (Units=GPa)
#
#
# Indices 1 2 3 4 5 6 
#
# 1 135.2874 58.7472 58.5588 0.0000 0.0000 0.0000
# 2 58.7472 108.9056 47.3372 0.0000 0.0000 0.0000
# 3 58.5588 47.3372 94.6397 0.0000 0.0000 0.0000
# 4 0.0000 0.0000 0.0000 21.0170 0.0000 0.0000
# 5 0.0000 0.0000 0.0000 0.0000 33.9339 0.0000
# 6 0.0000 0.0000 0.0000 0.0000 0.0000 30.8413
#
#
#
# Elastic Compliance Matrix: (Units=1/GPa)
#
#
# Indices 1 2 3 4 5 6 
#
# 1 0.011252 -0.003889 -0.005017 0.000000 0.000000 0.000000
# 2 -0.003889 0.013077 -0.004135 0.000000 0.000000 0.000000
# 3 -0.005017 -0.004135 0.015739 0.000000 0.000000 0.000000
# 4 0.000000 0.000000 0.000000 0.047580 0.000000 0.000000
# 5 0.000000 0.000000 0.000000 0.000000 0.029469 0.000000
# 6 0.000000 0.000000 0.000000 0.000000 0.000000 0.032424
#
#
# Mechanical properties :
#
#
# Convention : Reuss Voigt Hill
#
# Bulk Modulus (GPa) = 71.49666 74.23546 72.86606
# Shear Modulus (GPa) = 27.73379 28.77108 28.25244
#
# Velocity S-wave (km/s) = 3.74225 3.81159 3.77708
# Velocity P-wave (km/s) = 7.40105 7.54035 7.47102
#
# Compressibility (1/GPa) = 0.01398667
#
# Stress axis : x y z
#
# Youngs Moduli (GPa) = 88.87274 76.46820 63.53708
#
# Poissons Ratio (x) = 0.29738 0.31877
# Poissons Ratio (y) = 0.34563 0.26271
# Poissons Ratio (z) = 0.44588 0.31618
#
# Static dielectric constant tensor:
#      x y z
#    x 3.757750 0.000000 0.000000 
#    y 0.000000 3.576530 0.000000 
#    z 0.000000 0.000000 3.589120 
# 
# 
# High freq. dielectric constant tensor:
#      x y z
#    x 1.784560 0.000000 0.000000 
#    y 0.000000 1.772630 0.000000 
#    z 0.000000 0.000000 1.775160 
# 
# From -- ./inp_files/4684.got.cif
#   From: 2010.03.12/outbox.cif.g09.slc.cpg/sg47_3_cif.got.tgz:4684.got - 2010.04.14 03:12:58.
