data_PCOD8196977
_publ_section_title
;
Structure prediction by ZEFSAII (Michael W. Deem and Ramdas Pophale) SiO2 
 PCOD8196977
Probable space group: P M M M
;
_chemical_formula_sum "Si O2"
_cell_formula_units_Z 40
_cell_length_a 9.175027
_cell_length_b 25.983643
_cell_length_c 8.991070
_cell_angle_alpha 90.000000
_cell_angle_beta 90.000000
_cell_angle_gamma 90.000000
_cell_volume 2143.476717
_symmetry_space_group_name_H-M "P M M M"
_symmetry_group_IT_number 47
_symmetry_cell_setting 'orthorhombic'
loop_
_space_group_symop_operation_xyz
x,y,z
-x,-y,z
x,-y,-z
-x,y,-z
-x,-y,-z
x,y,-z
-x,y,z
x,-y,z
loop_
_atom_site_type_symbol
_atom_site_label
_atom_site_fract_x
_atom_site_fract_y
_atom_site_fract_z
Si Si1 0.172896 0.289460 0.668408
Si Si2 0.668921 0.093097 0.325840
Si Si3 0.331737 0.198440 0.827465
Si Si4 0.828156 0.000000 0.828288
Si Si5 0.825779 0.610145 0.833048
Si Si6 0.840194 0.500000 0.176768
O O1 0.227098 0.281460 0.500000
O O2 0.237195 0.245995 0.773438
O O3 0.230004 0.345011 0.724280
O O4 0.000000 0.286510 0.680140
O O5 0.700809 0.092175 0.500000
O O6 0.500000 0.081996 0.290568
O O7 0.717243 0.148156 0.262720
O O8 0.765111 0.050379 0.247997
O O9 0.500000 0.211198 0.796994
O O10 0.300631 0.188224 0.000000
O O11 0.000000 0.000000 0.806805
O O12 0.782345 0.000000 0.000000
O O13 0.761757 0.554180 0.777986
O O14 0.000000 0.606523 0.832264
O O15 0.770975 0.622770 0.000000
O O16 0.000000 0.500000 0.251156
O O17 0.856328 0.500000 0.000000
#
# Coordination Sequence:
#
# PCOD8196977 Si02
#       6
#     8   8   8   4   8   4
#     4  10  20  32  47  71 103 136 168 204 251 305
#     4  10  21  38  60  83 106 135 171 210 254 302
#     4  10  21  37  57  79 101 130 171 214 254 299
#     4  11  24  39  56  82 114 145 176 209 246 290
#     4   8  13  23  40  62  90 125 164 205 248 295
#     4   7  10  18  35  59  86 119 160 203 246 292
#
# _framework density 18.661270999999999
#
# number of rings (size 3 to 8) (size 9 to 14) (size 15 to 20)
#    0.000    2.600    0.000    3.600    0.000    6.400 
#    0.000    0.500    0.000    3.000    0.000    0.700 
#    0.000    5.600    0.000    0.000    0.000    0.000 
#
# Total GULP energy -495834.055647 kJ/mol
# GULP energy per Si atom -12395.851391 kJ/mol
# Density = 1.861880 g / cm^3
# Si number density = 18.661271 Si / 1000 Ang^3
#
#
#
# Elastic Constant Matrix: (Units=GPa)
#
#
# Indices 1 2 3 4 5 6 
#
# 1 30.4663 42.2172 33.6370 0.0000 0.0000 0.0000
# 2 42.2172 161.2928 62.1120 0.0000 0.0000 0.0000
# 3 33.6370 62.1120 97.0068 0.0000 0.0000 0.0000
# 4 0.0000 0.0000 0.0000 -94.4388 0.0000 0.0000
# 5 0.0000 0.0000 0.0000 0.0000 22.7286 0.0000
# 6 0.0000 0.0000 0.0000 0.0000 0.0000 25.7127
#
#
#
# Elastic Compliance Matrix: (Units=1/GPa)
#
#
# Indices 1 2 3 4 5 6 
#
# 1 0.065430 -0.011134 -0.015559 0.000000 0.000000 0.000000
# 2 -0.011134 0.010124 -0.002621 0.000000 0.000000 0.000000
# 3 -0.015559 -0.002621 0.017382 0.000000 0.000000 0.000000
# 4 0.000000 0.000000 0.000000 -0.010589 0.000000 0.000000
# 5 0.000000 0.000000 0.000000 0.000000 0.043997 0.000000
# 6 0.000000 0.000000 0.000000 0.000000 0.000000 0.038891
#
#
# Mechanical properties :
#
#
# Convention : Reuss Voigt Hill
#
# Bulk Modulus (GPa) = 29.14861 62.74426 45.94644
# Shear Modulus (GPa) = 21.24958 0.85380 11.05169
#
# Velocity S-wave (km/s) = 3.37812 0.67714 2.43621
# Velocity P-wave (km/s) = 5.55602 5.85722 5.70861
#
# Compressibility (1/GPa) = 0.03430695
#
# Stress axis : x y z
#
# Youngs Moduli (GPa) = 15.28359 98.77899 57.53146
#
# Poissons Ratio (x) = 1.09983 0.89511
# Poissons Ratio (y) = 0.17017 0.15080
# Poissons Ratio (z) = 0.23779 0.25892
#
# Static dielectric constant tensor:
#      x y z
#    x 3.024340 0.000000 0.000000 
#    y 0.000000 3.632390 0.000000 
#    z 0.000000 0.000000 3.491500 
# 
# 
# High freq. dielectric constant tensor:
#      x y z
#    x 1.677310 0.000000 0.000000 
#    y 0.000000 1.748840 0.000000 
#    z 0.000000 0.000000 1.723700 
# 
# From -- ./inp_files/1783.got.cif
#   From: 2010.03.12/outbox.cif.g09.slc.cpg/sg47_1_cif.got.tgz:1783.got - 2010.04.14 03:12:58.
