data_PCOD8196075
_publ_section_title
;
Structure prediction by ZEFSAII (Michael W. Deem and Ramdas Pophale) SiO2 
 PCOD8196075
Probable space group: P M M M
;
_chemical_formula_sum "Si O2"
_cell_formula_units_Z 48
_cell_length_a 9.156583
_cell_length_b 15.562375
_cell_length_c 17.651357
_cell_angle_alpha 90.000000
_cell_angle_beta 90.000000
_cell_angle_gamma 90.000000
_cell_volume 2515.286218
_symmetry_space_group_name_H-M "P M M M"
_symmetry_group_IT_number 47
_symmetry_cell_setting 'orthorhombic'
loop_
_space_group_symop_operation_xyz
x,y,z
-x,-y,z
x,-y,-z
-x,y,-z
-x,-y,-z
x,y,-z
-x,y,z
x,-y,z
loop_
_atom_site_type_symbol
_atom_site_label
_atom_site_fract_x
_atom_site_fract_y
_atom_site_fract_z
Si Si1 0.330565 0.184226 0.346339
Si Si2 0.669254 0.756133 0.086568
Si Si3 0.169460 0.596516 0.849573
Si Si4 0.665665 0.500000 0.589495
Si Si5 0.171355 0.641060 0.320814
Si Si6 0.669660 0.905711 0.192349
Si Si7 0.673083 0.904525 0.500000
O O1 0.500000 0.213180 0.351205
O O2 0.228323 0.262915 0.325949
O O3 0.307972 0.113890 0.280907
O O4 0.274036 0.145230 0.425311
O O5 0.500000 0.744071 0.106629
O O6 0.743153 0.664587 0.100759
O O7 0.739792 0.831148 0.139348
O O8 0.693571 0.783795 0.000000
O O9 0.210124 0.500000 0.876369
O O10 0.209545 0.604271 0.761469
O O11 0.000000 0.615439 0.862563
O O12 0.500000 0.500000 0.620187
O O13 0.668288 0.500000 0.500000
O O14 0.747204 0.584944 0.616897
O O15 0.000000 0.637937 0.337482
O O16 0.500000 0.909854 0.171885
O O17 0.739756 0.000000 0.175788
O O18 0.500000 0.911598 0.500000
O O19 0.741497 0.000000 0.500000
#
# Coordination Sequence:
#
# PCOD8196075 Si02
#       7
#     8   8   8   4   8   8   4
#     4  10  19  33  55  82 112 146 188 234 281 334
#     4  10  21  36  55  84 118 147 182 233 289 340
#     4  10  21  39  60  81 108 146 190 229 275 339
#     4  11  25  41  59  85 116 149 190 235 281 334
#     4  11  22  38  58  82 113 149 188 231 281 335
#     4   9  17  31  54  82 111 148 192 234 281 337
#     4   9  18  32  53  82 113 142 179 233 284 329
#
# _framework density 19.083316
#
# number of rings (size 3 to 8) (size 9 to 14) (size 15 to 20)
#    0.000    2.000    2.500    1.250    1.167    4.667 
#    0.000    3.333    0.000    4.000    0.000    1.167 
#    0.000    0.000    0.000    0.000    0.000    0.000 
#
# Total GULP energy -595239.202221 kJ/mol
# GULP energy per Si atom -12400.816713 kJ/mol
# Density = 1.903988 g / cm^3
# Si number density = 19.083316 Si / 1000 Ang^3
#
#
#
# Elastic Constant Matrix: (Units=GPa)
#
#
# Indices 1 2 3 4 5 6 
#
# 1 50.0418 32.4919 29.6519 0.0000 0.0000 0.0000
# 2 32.4919 137.7856 47.5876 0.0000 0.0000 0.0000
# 3 29.6519 47.5876 97.6266 0.0000 0.0000 0.0000
# 4 0.0000 0.0000 0.0000 27.8193 0.0000 0.0000
# 5 0.0000 0.0000 0.0000 0.0000 20.8839 0.0000
# 6 0.0000 0.0000 0.0000 0.0000 0.0000 -32.7319
#
#
#
# Elastic Compliance Matrix: (Units=1/GPa)
#
#
# Indices 1 2 3 4 5 6 
#
# 1 0.026181 -0.004121 -0.005943 0.000000 0.000000 0.000000
# 2 -0.004121 0.009376 -0.003318 0.000000 0.000000 0.000000
# 3 -0.005943 -0.003318 0.013666 0.000000 0.000000 0.000000
# 4 0.000000 0.000000 0.000000 0.035946 0.000000 0.000000
# 5 0.000000 0.000000 0.000000 0.000000 0.047884 0.000000
# 6 0.000000 0.000000 0.000000 0.000000 0.000000 -0.030551
#
#
# Mechanical properties :
#
#
# Convention : Reuss Voigt Hill
#
# Bulk Modulus (GPa) = 44.52981 56.10186 50.31584
# Shear Modulus (GPa) = 36.56272 14.90910 25.73591
#
# Velocity S-wave (km/s) = 4.38191 2.79814 3.67632
# Velocity P-wave (km/s) = 6.99904 6.31678 6.66664
#
# Compressibility (1/GPa) = 0.02245687
#
# Stress axis : x y z
#
# Youngs Moduli (GPa) = 38.19613 106.66009 73.17619
#
# Poissons Ratio (x) = 0.43957 0.43488
# Poissons Ratio (y) = 0.15742 0.24282
# Poissons Ratio (z) = 0.22700 0.35393
#
# Static dielectric constant tensor:
#      x y z
#    x 3.217910 0.000000 0.000000 
#    y 0.000000 3.291250 0.000000 
#    z 0.000000 0.000000 3.549870 
# 
# 
# High freq. dielectric constant tensor:
#      x y z
#    x 1.707090 0.000000 0.000000 
#    y 0.000000 1.756090 0.000000 
#    z 0.000000 0.000000 1.747080 
# 
# From -- ./inp_files/9198.got.cif
#   From: 2010.03.12/outbox.cif.g09.slc.cpg/sg47_5_cif.got.tgz:9198.got - 2010.04.14 03:12:58.
