data_PCOD8196744
_publ_section_title
;
Structure prediction by ZEFSAII (Michael W. Deem and Ramdas Pophale) SiO2 
 PCOD8196744
Probable space group: P M M M
;
_chemical_formula_sum "Si O2"
_cell_formula_units_Z 44
_cell_length_a 12.307956
_cell_length_b 25.478416
_cell_length_c 9.102117
_cell_angle_alpha 90.000000
_cell_angle_beta 90.000000
_cell_angle_gamma 90.000000
_cell_volume 2854.307594
_symmetry_space_group_name_H-M "P M M M"
_symmetry_group_IT_number 47
_symmetry_cell_setting 'orthorhombic'
loop_
_space_group_symop_operation_xyz
x,y,z
-x,-y,z
x,-y,-z
-x,y,-z
-x,-y,-z
x,y,-z
-x,y,z
x,-y,z
loop_
_atom_site_type_symbol
_atom_site_label
_atom_site_fract_x
_atom_site_fract_y
_atom_site_fract_z
Si Si1 0.129171 0.557750 0.665149
Si Si2 0.129725 0.657799 0.834980
Si Si3 0.715002 0.061868 0.670277
Si Si4 0.871864 0.136791 0.169913
Si Si5 0.500000 0.062383 0.833762
Si Si6 0.870744 0.240616 0.665599
O O1 0.171993 0.567134 0.500000
O O2 0.166883 0.500000 0.721553
O O3 0.176578 0.603428 0.768783
O O4 0.000000 0.560397 0.665488
O O5 0.174807 0.706520 0.740462
O O6 0.000000 0.657568 0.832818
O O7 0.173782 0.663447 0.000000
O O8 0.709845 0.077589 0.500000
O O9 0.818227 0.088164 0.746723
O O10 0.605975 0.082975 0.748409
O O11 0.728443 0.000000 0.690934
O O12 0.829620 0.190848 0.241626
O O13 0.000000 0.130470 0.189541
O O14 0.837813 0.136633 0.000000
O O15 0.500000 0.000000 0.834276
O O16 0.500000 0.084434 0.000000
O O17 0.825154 0.236904 0.500000
O O18 0.000000 0.242060 0.664582
#
# Coordination Sequence:
#
# PCOD8196744 Si02
#       6
#     8   8   8   8   4   8
#     4   8  13  20  28  38  54  77 106 142 185 230
#     4   9  15  21  30  44  61  82 111 148 189 231
#     4  10  20  33  49  68  89 112 138 168 203 245
#     4  10  20  32  45  62  85 111 139 172 209 248
#     4   9  17  31  51  71  89 109 135 167 202 239
#     4   9  16  26  39  52  68  93 125 159 195 236
#
# _framework density 15.415298
#
# number of rings (size 3 to 8) (size 9 to 14) (size 15 to 20)
#    0.000    2.818    0.000    3.000    0.000    8.364 
#    0.000    3.636    0.000    0.000    0.000    0.000 
#    0.000    0.000    0.000    0.000    0.000    0.000 
#
# Total GULP energy -545479.140649 kJ/mol
# GULP energy per Si atom -12397.253197 kJ/mol
# Density = 1.538021 g / cm^3
# Si number density = 15.415298 Si / 1000 Ang^3
#
#
#
# Elastic Constant Matrix: (Units=GPa)
#
#
# Indices 1 2 3 4 5 6 
#
# 1 24.7669 27.0378 30.0541 0.0000 0.0000 0.0000
# 2 27.0378 88.7371 67.1067 0.0000 0.0000 0.0000
# 3 30.0541 67.1067 147.3608 0.0000 0.0000 0.0000
# 4 0.0000 0.0000 0.0000 31.1563 0.0000 0.0000
# 5 0.0000 0.0000 0.0000 0.0000 16.9115 0.0000
# 6 0.0000 0.0000 0.0000 0.0000 0.0000 0.9101
#
#
#
# Elastic Compliance Matrix: (Units=1/GPa)
#
#
# Indices 1 2 3 4 5 6 
#
# 1 0.064213 -0.014736 -0.006385 0.000000 0.000000 0.000000
# 2 -0.014736 0.020571 -0.006362 0.000000 0.000000 0.000000
# 3 -0.006385 -0.006362 0.010986 0.000000 0.000000 0.000000
# 4 0.000000 0.000000 0.000000 0.032096 0.000000 0.000000
# 5 0.000000 0.000000 0.000000 0.000000 0.059131 0.000000
# 6 0.000000 0.000000 0.000000 0.000000 0.000000 1.098815
#
#
# Mechanical properties :
#
#
# Convention : Reuss Voigt Hill
#
# Bulk Modulus (GPa) = 24.50918 56.58466 40.54692
# Shear Modulus (GPa) = 3.69173 18.90666 11.29920
#
# Velocity S-wave (km/s) = 1.54921 3.50592 2.71031
# Velocity P-wave (km/s) = 4.37422 7.29213 6.01286
#
# Compressibility (1/GPa) = 0.04080105
#
# Stress axis : x y z
#
# Youngs Moduli (GPa) = 15.57328 48.61266 91.02802
#
# Poissons Ratio (x) = 0.71638 0.58123
# Poissons Ratio (y) = 0.22950 0.57914
# Poissons Ratio (z) = 0.09944 0.30929
#
# Static dielectric constant tensor:
#      x y z
#    x 2.378390 0.000000 0.000000 
#    y 0.000000 3.093700 0.000000 
#    z 0.000000 0.000000 3.210200 
# 
# 
# High freq. dielectric constant tensor:
#      x y z
#    x 1.509480 0.000000 0.000000 
#    y 0.000000 1.594720 0.000000 
#    z 0.000000 0.000000 1.611560 
# 
# From -- ./inp_files/4311.got.cif
#   From: 2010.03.12/outbox.cif.g09.slc.cpg/sg47_3_cif.got.tgz:4311.got - 2010.04.14 03:12:58.
