data_PCOD8196431
_publ_section_title
;
Structure prediction by ZEFSAII (Michael W. Deem and Ramdas Pophale) SiO2 
 PCOD8196431
Probable space group: P M M M
;
_chemical_formula_sum "Si O2"
_cell_formula_units_Z 36
_cell_length_a 9.295302
_cell_length_b 17.708220
_cell_length_c 14.943169
_cell_angle_alpha 90.000000
_cell_angle_beta 90.000000
_cell_angle_gamma 90.000000
_cell_volume 2459.694224
_symmetry_space_group_name_H-M "P M M M"
_symmetry_group_IT_number 47
_symmetry_cell_setting 'orthorhombic'
loop_
_space_group_symop_operation_xyz
x,y,z
-x,-y,z
x,-y,-z
-x,y,-z
-x,-y,-z
x,y,-z
-x,y,z
x,-y,z
loop_
_atom_site_type_symbol
_atom_site_label
_atom_site_fract_x
_atom_site_fract_y
_atom_site_fract_z
Si Si1 0.834773 0.089393 0.267745
Si Si2 0.838412 0.338251 0.606914
Si Si3 0.338488 0.089699 0.098693
Si Si4 0.829279 0.500000 0.402055
Si Si5 0.665917 0.805736 0.394419
O O1 0.769832 0.120501 0.174153
O O2 0.749078 0.124865 0.350172
O O3 0.000000 0.114353 0.272269
O O4 0.816957 0.000000 0.275735
O O5 0.836845 0.343768 0.500000
O O6 0.786302 0.420529 0.646376
O O7 0.731358 0.273328 0.641059
O O8 0.000000 0.318908 0.640034
O O9 0.500000 0.118295 0.120069
O O10 0.336144 0.000000 0.098950
O O11 0.290254 0.118798 0.000000
O O12 0.756359 0.500000 0.500000
O O13 0.000000 0.500000 0.412930
O O14 0.687232 0.813954 0.500000
O O15 0.500000 0.808547 0.366508
#
# Coordination Sequence:
#
# PCOD8196431 Si02
#       5
#     8   8   8   4   8
#     4  10  20  31  43  59  77 100 133 171 206 238
#     4   8  13  23  39  56  74  97 126 159 194 233
#     4   8  14  26  44  63  81 100 121 149 191 242
#     4   7  10  18  35  57  75  93 120 153 190 233
#     4  10  20  31  41  54  75 105 139 172 205 238
#
# _framework density 14.635966
#
# number of rings (size 3 to 8) (size 9 to 14) (size 15 to 20)
#    0.000    3.222    0.000    3.333    0.000    3.556 
#    0.000    5.000    0.000    3.333    0.000    0.000 
#    0.000    0.000    0.000    1.000    0.000   19.444 
#
# Total GULP energy -446027.429565 kJ/mol
# GULP energy per Si atom -12389.650821 kJ/mol
# Density = 1.460265 g / cm^3
# Si number density = 14.635966 Si / 1000 Ang^3
#
#
#
# Elastic Constant Matrix: (Units=GPa)
#
#
# Indices 1 2 3 4 5 6 
#
# 1 106.5909 44.6653 41.4910 0.0000 0.0000 0.0000
# 2 44.6653 56.7318 28.6968 0.0000 0.0000 0.0000
# 3 41.4910 28.6968 44.8388 0.0000 0.0000 0.0000
# 4 0.0000 0.0000 0.0000 1.1398 0.0000 0.0000
# 5 0.0000 0.0000 0.0000 0.0000 20.5799 0.0000
# 6 0.0000 0.0000 0.0000 0.0000 0.0000 16.4774
#
#
#
# Elastic Compliance Matrix: (Units=1/GPa)
#
#
# Indices 1 2 3 4 5 6 
#
# 1 0.016765 -0.007914 -0.010448 0.000000 0.000000 0.000000
# 2 -0.007914 0.029801 -0.011749 0.000000 0.000000 0.000000
# 3 -0.010448 -0.011749 0.039490 0.000000 0.000000 0.000000
# 4 0.000000 0.000000 0.000000 0.877374 0.000000 0.000000
# 5 0.000000 0.000000 0.000000 0.000000 0.048591 0.000000
# 6 0.000000 0.000000 0.000000 0.000000 0.000000 0.060689
#
#
# Mechanical properties :
#
#
# Convention : Reuss Voigt Hill
#
# Bulk Modulus (GPa) = 38.71120 48.65198 43.68159
# Shear Modulus (GPa) = 4.38003 13.85997 9.12000
#
# Velocity S-wave (km/s) = 1.73180 3.08064 2.49895
# Velocity P-wave (km/s) = 5.52319 6.77992 6.18357
#
# Compressibility (1/GPa) = 0.02583232
#
# Stress axis : x y z
#
# Youngs Moduli (GPa) = 59.64817 33.55613 25.32297
#
# Poissons Ratio (x) = 0.26557 0.26458
# Poissons Ratio (y) = 0.47206 0.29753
# Poissons Ratio (z) = 0.62322 0.39426
#
# Static dielectric constant tensor:
#      x y z
#    x 2.918360 0.000000 0.000000 
#    y 0.000000 2.939520 0.000000 
#    z 0.000000 0.000000 2.675630 
# 
# 
# High freq. dielectric constant tensor:
#      x y z
#    x 1.560050 0.000000 0.000000 
#    y 0.000000 1.542710 0.000000 
#    z 0.000000 0.000000 1.516420 
# 
# From -- ./inp_files/5961.got.cif
#   From: 2010.03.12/outbox.cif.g09.slc.cpg/sg47_3_cif.got.tgz:5961.got - 2010.04.14 03:12:58.
