data_PCOD8196365
_publ_section_title
;
Structure prediction by ZEFSAII (Michael W. Deem and Ramdas Pophale) SiO2 
 PCOD8196365
Probable space group: P M M M
;
_chemical_formula_sum "Si O2"
_cell_formula_units_Z 48
_cell_length_a 17.176636
_cell_length_b 9.527562
_cell_length_c 22.908305
_cell_angle_alpha 90.000000
_cell_angle_beta 90.000000
_cell_angle_gamma 90.000000
_cell_volume 3748.977661
_symmetry_space_group_name_H-M "P M M M"
_symmetry_group_IT_number 47
_symmetry_cell_setting 'orthorhombic'
loop_
_space_group_symop_operation_xyz
x,y,z
-x,-y,z
x,-y,-z
-x,y,-z
-x,-y,-z
x,y,-z
-x,y,z
x,-y,z
loop_
_atom_site_type_symbol
_atom_site_label
_atom_site_fract_x
_atom_site_fract_y
_atom_site_fract_z
Si Si1 0.000000 0.342365 0.430253
Si Si2 0.314856 0.162778 0.568006
Si Si3 0.407532 0.339587 0.341918
Si Si4 0.407437 0.842460 0.105782
Si Si5 0.592503 0.842683 0.235144
Si Si6 0.593045 0.658097 0.000000
Si Si7 0.140148 0.844413 0.569361
O O1 0.923050 0.264783 0.405740
O O2 0.000000 0.500000 0.405668
O O3 0.000000 0.341626 0.500000
O O4 0.325803 0.195508 0.500000
O O5 0.374259 0.261361 0.601885
O O6 0.227010 0.199936 0.588552
O O7 0.333355 0.000000 0.581025
O O8 0.500000 0.329683 0.345333
O O9 0.379022 0.500000 0.341330
O O10 0.374955 0.265218 0.283239
O O11 0.500000 0.839776 0.103864
O O12 0.378501 0.796888 0.170484
O O13 0.373761 0.735983 0.057520
O O14 0.378270 0.000000 0.091560
O O15 0.500000 0.841614 0.236052
O O16 0.622448 0.000000 0.249619
O O17 0.625229 0.500000 0.000000
O O18 0.500000 0.659798 0.000000
O O19 0.136572 0.848393 0.500000
O O20 0.120380 0.000000 0.593373
#
# Coordination Sequence:
#
# PCOD8196365 Si02
#       7
#     4   8   8   8   8   4   8
#     4   9  15  21  33  55  77  93 107 121 143 182
#     4   9  18  31  44  55  66  84 111 140 170 205
#     4  10  20  30  39  52  68  85 106 137 179 220
#     4   8  13  21  32  44  58  77 100 125 153 186
#     4   8  14  25  39  50  59  76 104 135 164 196
#     4   9  15  19  25  41  63  83  99 117 147 188
#     4   8  14  25  39  53  69  88 108 129 154 186
#
# _framework density 12.803490999999999
#
# number of rings (size 3 to 8) (size 9 to 14) (size 15 to 20)
#    0.000    3.333    0.000    3.000    0.000    5.000 
#    0.000    6.667    0.000    0.000    0.000    0.000 
#    0.000    0.000    0.000    0.000    0.000    0.000 
#
# Total GULP energy -594865.930317 kJ/mol
# GULP energy per Si atom -12393.040215 kJ/mol
# Density = 1.277435 g / cm^3
# Si number density = 12.803491 Si / 1000 Ang^3
#
#
#
# Elastic Constant Matrix: (Units=GPa)
#
#
# Indices 1 2 3 4 5 6 
#
# 1 21.3792 25.4531 18.4329 0.0000 0.0000 0.0000
# 2 25.4531 104.0573 57.0059 0.0000 0.0000 0.0000
# 3 18.4329 57.0059 74.6587 0.0000 0.0000 0.0000
# 4 0.0000 0.0000 0.0000 16.3350 0.0000 0.0000
# 5 0.0000 0.0000 0.0000 0.0000 0.2519 0.0000
# 6 0.0000 0.0000 0.0000 0.0000 0.0000 13.1125
#
#
#
# Elastic Compliance Matrix: (Units=1/GPa)
#
#
# Indices 1 2 3 4 5 6 
#
# 1 0.068077 -0.012797 -0.007037 0.000000 0.000000 0.000000
# 2 -0.012797 0.018926 -0.011292 0.000000 0.000000 0.000000
# 3 -0.007037 -0.011292 0.023753 0.000000 0.000000 0.000000
# 4 0.000000 0.000000 0.000000 0.061218 0.000000 0.000000
# 5 0.000000 0.000000 0.000000 0.000000 3.969375 0.000000
# 6 0.000000 0.000000 0.000000 0.000000 0.000000 0.076263
#
#
# Mechanical properties :
#
#
# Convention : Reuss Voigt Hill
#
# Bulk Modulus (GPa) = 20.61604 44.65322 32.63463
# Shear Modulus (GPa) = 1.16386 12.55343 6.85864
#
# Velocity S-wave (km/s) = 0.95446 3.13464 2.31700
# Velocity P-wave (km/s) = 4.16551 6.93201 5.71858
#
# Compressibility (1/GPa) = 0.04850593
#
# Stress axis : x y z
#
# Youngs Moduli (GPa) = 14.68918 52.83651 42.09931
#
# Poissons Ratio (x) = 0.67616 0.29624
# Poissons Ratio (y) = 0.18798 0.47537
# Poissons Ratio (z) = 0.10336 0.59661
#
# Static dielectric constant tensor:
#      x y z
#    x 2.279370 0.000000 0.000000 
#    y 0.000000 2.796920 0.000000 
#    z 0.000000 0.000000 2.579080 
# 
# 
# High freq. dielectric constant tensor:
#      x y z
#    x 1.430420 0.000000 0.000000 
#    y 0.000000 1.497250 0.000000 
#    z 0.000000 0.000000 1.464670 
# 
# From -- ./inp_files/31405.got.cif
#   From: 2010.03.12/outbox.cif.g09.slc.cpg/sg47_16_cif.got.tgz:31405.got - 2010.04.14 03:12:58.
