data_PCOD8196817
_publ_section_title
;
Structure prediction by ZEFSAII (Michael W. Deem and Ramdas Pophale) SiO2 
 PCOD8196817
Probable space group: P M M M
;
_chemical_formula_sum "Si O2"
_cell_formula_units_Z 36
_cell_length_a 9.317527
_cell_length_b 8.823624
_cell_length_c 23.596760
_cell_angle_alpha 90.000000
_cell_angle_beta 90.000000
_cell_angle_gamma 90.000000
_cell_volume 1939.992400
_symmetry_space_group_name_H-M "P M M M"
_symmetry_group_IT_number 47
_symmetry_cell_setting 'orthorhombic'
loop_
_space_group_symop_operation_xyz
x,y,z
-x,-y,z
x,-y,-z
-x,y,-z
-x,-y,-z
x,y,-z
-x,y,z
x,-y,z
loop_
_atom_site_type_symbol
_atom_site_label
_atom_site_fract_x
_atom_site_fract_y
_atom_site_fract_z
Si Si1 0.339032 0.180146 0.937379
Si Si2 0.335085 0.320809 0.728950
Si Si3 0.829712 0.665838 0.500000
Si Si4 0.162662 0.819828 0.831491
Si Si5 0.161116 0.318877 0.621398
O O1 0.500000 0.238845 0.924082
O O2 0.230837 0.243773 0.889953
O O3 0.338143 0.000000 0.936360
O O4 0.290688 0.236911 0.000000
O O5 0.500000 0.270424 0.730773
O O6 0.317029 0.500000 0.734465
O O7 0.252556 0.242980 0.779728
O O8 0.268183 0.260932 0.669952
O O9 0.756833 0.500000 0.500000
O O10 0.787158 0.747959 0.559638
O O11 0.000000 0.647371 0.500000
O O12 0.000000 0.760049 0.827690
O O13 0.168489 0.000000 0.829915
O O14 0.162002 0.500000 0.617310
O O15 0.000000 0.262277 0.636031
#
# Coordination Sequence:
#
# PCOD8196817 Si02
#       5
#     8   8   4   8   8
#     4   8  14  26  45  68  93 120 148 180 222 270
#     4  10  20  32  46  66  93 125 158 189 226 273
#     4   7  10  18  35  59  84 111 144 181 222 266
#     4  10  20  32  48  71  95 120 153 191 229 269
#     4   8  13  23  40  61  86 116 149 185 224 266
#
# _framework density 18.556771999999999
#
# number of rings (size 3 to 8) (size 9 to 14) (size 15 to 20)
#    0.000    3.222    0.000    3.333    0.000    3.111 
#    0.000    2.778    0.000    4.000    0.000    5.444 
#    0.000    6.222    0.000    0.000    0.000    0.000 
#
# Total GULP energy -446037.705050 kJ/mol
# GULP energy per Si atom -12389.936251 kJ/mol
# Density = 1.851454 g / cm^3
# Si number density = 18.556772 Si / 1000 Ang^3
#
#
#
# Elastic Constant Matrix: (Units=GPa)
#
#
# Indices 1 2 3 4 5 6 
#
# 1 139.2295 14.7640 103.2946 0.0000 0.0000 0.0000
# 2 14.7640 6.4394 15.5561 0.0000 0.0000 0.0000
# 3 103.2946 15.5561 203.4512 0.0000 0.0000 0.0000
# 4 0.0000 0.0000 0.0000 22.9080 0.0000 0.0000
# 5 0.0000 0.0000 0.0000 0.0000 24.8355 0.0000
# 6 0.0000 0.0000 0.0000 0.0000 0.0000 16.5379
#
#
#
# Elastic Compliance Matrix: (Units=1/GPa)
#
#
# Indices 1 2 3 4 5 6 
#
# 1 0.012852 -0.016808 -0.005240 0.000000 0.000000 0.000000
# 2 -0.016808 0.212458 -0.007711 0.000000 0.000000 0.000000
# 3 -0.005240 -0.007711 0.008165 0.000000 0.000000 0.000000
# 4 0.000000 0.000000 0.000000 0.043653 0.000000 0.000000
# 5 0.000000 0.000000 0.000000 0.000000 0.040265 0.000000
# 6 0.000000 0.000000 0.000000 0.000000 0.000000 0.060467
#
#
# Mechanical properties :
#
#
# Convention : Reuss Voigt Hill
#
# Bulk Modulus (GPa) = 5.74856 68.48329 37.11592
# Shear Modulus (GPa) = 10.09356 27.22332 18.65844
#
# Velocity S-wave (km/s) = 2.33476 3.83434 3.17437
# Velocity P-wave (km/s) = 3.22066 7.52248 5.78621
#
# Compressibility (1/GPa) = 0.17395674
#
# Stress axis : x y z
#
# Youngs Moduli (GPa) = 77.80635 4.70681 122.47011
#
# Poissons Ratio (x) = 0.07911 0.64176
# Poissons Ratio (y) = 1.30780 0.94437
# Poissons Ratio (z) = 0.40772 0.03629
#
# Static dielectric constant tensor:
#      x y z
#    x 3.508490 0.000000 0.000000 
#    y 0.000000 2.770590 0.000000 
#    z 0.000000 0.000000 4.024950 
# 
# 
# High freq. dielectric constant tensor:
#      x y z
#    x 1.710020 0.000000 0.000000 
#    y 0.000000 1.647210 0.000000 
#    z 0.000000 0.000000 1.747810 
# 
# From -- ./inp_files/4194.got.cif
#   From: 2010.03.12/outbox.cif.g09.slc.cpg/sg47_3_cif.got.tgz:4194.got - 2010.04.14 03:12:58.
