data_PCOD8196023
_publ_section_title
;
Structure prediction by ZEFSAII (Michael W. Deem and Ramdas Pophale) SiO2 
 PCOD8196023
Probable space group: P M M M
;
_chemical_formula_sum "Si O2"
_cell_formula_units_Z 52
_cell_length_a 22.598797
_cell_length_b 9.678386
_cell_length_c 13.512095
_cell_angle_alpha 90.000000
_cell_angle_beta 90.000000
_cell_angle_gamma 90.000000
_cell_volume 2955.363804
_symmetry_space_group_name_H-M "P M M M"
_symmetry_group_IT_number 47
_symmetry_cell_setting 'orthorhombic'
loop_
_space_group_symop_operation_xyz
x,y,z
-x,-y,z
x,-y,-z
-x,y,-z
-x,-y,-z
x,y,-z
-x,y,z
x,-y,z
loop_
_atom_site_type_symbol
_atom_site_label
_atom_site_fract_x
_atom_site_fract_y
_atom_site_fract_z
Si Si1 0.618126 0.836028 0.000000
Si Si2 0.753378 0.163309 0.000000
Si Si3 0.932385 0.341349 0.885581
Si Si4 0.169203 0.160926 0.188819
Si Si5 0.761076 0.159432 0.386059
Si Si6 0.349160 0.345082 0.661260
Si Si7 0.566353 0.347668 0.839567
Si Si8 0.563906 0.664341 0.500000
O O1 0.685983 0.779844 0.000000
O O2 0.580317 0.779379 0.090504
O O3 0.616690 0.000000 0.000000
O O4 0.785863 0.213810 0.898297
O O5 0.750978 0.000000 0.000000
O O6 0.914349 0.500000 0.867576
O O7 0.891787 0.243635 0.819222
O O8 0.000000 0.316587 0.853391
O O9 0.923777 0.301992 0.000000
O O10 0.189727 0.188481 0.302057
O O11 0.156477 0.000000 0.171740
O O12 0.780760 0.198314 0.500000
O O13 0.706503 0.247699 0.348739
O O14 0.742235 0.000000 0.382822
O O15 0.329989 0.500000 0.628983
O O16 0.378030 0.345352 0.767484
O O17 0.400675 0.282880 0.594035
O O18 0.500000 0.325819 0.793137
O O19 0.567055 0.500000 0.891004
O O20 0.557220 0.500000 0.500000
O O21 0.500000 0.735897 0.500000
#
# Coordination Sequence:
#
# PCOD8196023 Si02
#       8
#     4   4   8   8   8   8   8   4
#     4  11  22  36  53  71  97 136 176 211 254 313
#     4   9  18  32  49  74 104 131 166 215 264 303
#     4   9  18  33  53  81 117 147 169 205 261 312
#     4  10  19  33  54  78 106 142 182 217 252 303
#     4  10  21  36  53  75 108 146 178 216 268 316
#     4  10  19  33  54  77  98 126 169 216 263 318
#     4  10  21  36  52  72  99 129 164 212 268 320
#     4   9  16  28  49  75  99 123 158 209 264 317
#
# _framework density 17.595127000000002
#
# number of rings (size 3 to 8) (size 9 to 14) (size 15 to 20)
#    0.000    2.231    1.538    2.308    0.000    5.846 
#    0.000    2.308    0.000    2.308    0.000    3.231 
#    0.000    0.000    0.000    0.000    0.000    0.000 
#
# Total GULP energy -644240.062667 kJ/mol
# GULP energy per Si atom -12389.231974 kJ/mol
# Density = 1.755508 g / cm^3
# Si number density = 17.595127 Si / 1000 Ang^3
#
#
#
# Elastic Constant Matrix: (Units=GPa)
#
#
# Indices 1 2 3 4 5 6 
#
# 1 111.5262 58.3061 47.6489 0.0000 0.0000 0.0000
# 2 58.3061 69.0856 41.9724 0.0000 0.0000 0.0000
# 3 47.6489 41.9724 100.6668 0.0000 0.0000 0.0000
# 4 0.0000 0.0000 0.0000 18.7299 0.0000 0.0000
# 5 0.0000 0.0000 0.0000 0.0000 26.5401 0.0000
# 6 0.0000 0.0000 0.0000 0.0000 0.0000 26.6754
#
#
#
# Elastic Compliance Matrix: (Units=1/GPa)
#
#
# Indices 1 2 3 4 5 6 
#
# 1 0.016576 -0.012351 -0.002696 0.000000 0.000000 0.000000
# 2 -0.012351 0.028589 -0.006074 0.000000 0.000000 0.000000
# 3 -0.002696 -0.006074 0.013742 0.000000 0.000000 0.000000
# 4 0.000000 0.000000 0.000000 0.053391 0.000000 0.000000
# 5 0.000000 0.000000 0.000000 0.000000 0.037679 0.000000
# 6 0.000000 0.000000 0.000000 0.000000 0.000000 0.037488
#
#
# Mechanical properties :
#
#
# Convention : Reuss Voigt Hill
#
# Bulk Modulus (GPa) = 60.00674 64.12592 62.06633
# Shear Modulus (GPa) = 21.25296 23.27916 22.26606
#
# Velocity S-wave (km/s) = 3.47924 3.64132 3.56120
# Velocity P-wave (km/s) = 7.09354 7.36229 7.22917
#
# Compressibility (1/GPa) = 0.01666479
#
# Stress axis : x y z
#
# Youngs Moduli (GPa) = 60.32925 34.97837 72.76838
#
# Poissons Ratio (x) = 0.43203 0.19618
# Poissons Ratio (y) = 0.74516 0.44197
# Poissons Ratio (z) = 0.16264 0.21245
#
# Static dielectric constant tensor:
#      x y z
#    x 3.269620 0.000000 0.000000 
#    y 0.000000 3.147800 0.000000 
#    z 0.000000 0.000000 3.560150 
# 
# 
# High freq. dielectric constant tensor:
#      x y z
#    x 1.674100 0.000000 0.000000 
#    y 0.000000 1.666220 0.000000 
#    z 0.000000 0.000000 1.676450 
# 
# From -- ./inp_files/25071.got.cif
#   From: 2010.03.12/outbox.cif.g09.slc.cpg/sg47_13_cif.got.tgz:25071.got - 2010.04.14 03:12:58.
