data_PCOD8196645
_publ_section_title
;
Structure prediction by ZEFSAII (Michael W. Deem and Ramdas Pophale) SiO2 
 PCOD8196645
Probable space group: P M M M
;
_chemical_formula_sum "Si O2"
_cell_formula_units_Z 52
_cell_length_a 9.350791
_cell_length_b 23.884576
_cell_length_c 13.658900
_cell_angle_alpha 90.000000
_cell_angle_beta 90.000000
_cell_angle_gamma 90.000000
_cell_volume 3050.574332
_symmetry_space_group_name_H-M "P M M M"
_symmetry_group_IT_number 47
_symmetry_cell_setting 'orthorhombic'
loop_
_space_group_symop_operation_xyz
x,y,z
-x,-y,z
x,-y,-z
-x,y,-z
-x,-y,-z
x,y,-z
-x,y,z
x,-y,z
loop_
_atom_site_type_symbol
_atom_site_label
_atom_site_fract_x
_atom_site_fract_y
_atom_site_fract_z
Si Si1 0.834766 0.256805 0.610442
Si Si2 0.169839 0.561489 0.110291
Si Si3 0.833522 0.934118 0.213153
Si Si4 0.666025 0.838639 0.707213
Si Si5 0.831256 0.939039 0.000000
Si Si6 0.831738 0.328056 0.207855
Si Si7 0.337869 0.235206 0.891079
O O1 0.809155 0.278023 0.500000
O O2 0.740147 0.201576 0.627887
O O3 0.788203 0.307481 0.682897
O O4 0.000000 0.240645 0.628528
O O5 0.227333 0.500000 0.143055
O O6 0.225101 0.608879 0.186526
O O7 0.000000 0.560490 0.110495
O O8 0.223741 0.575035 0.000000
O O9 0.740432 0.899729 0.292371
O O10 0.000000 0.922363 0.233360
O O11 0.799934 0.000000 0.224120
O O12 0.788514 0.911007 0.103895
O O13 0.500000 0.844959 0.679996
O O14 0.693022 0.813804 0.814754
O O15 0.000000 0.946892 0.000000
O O16 0.758557 0.000000 0.000000
O O17 0.764106 0.287655 0.127248
O O18 0.000000 0.325179 0.192682
O O19 0.500000 0.256618 0.879876
O O20 0.308115 0.211562 0.000000
#
# Coordination Sequence:
#
# PCOD8196645 Si02
#       7
#     8   8   8   8   4   8   8
#     4   9  18  33  51  68  87 112 145 190 241 284
#     4   8  13  21  36  62  95 126 153 184 221 258
#     4   9  17  30  47  66  91 123 156 187 219 259
#     4  10  20  31  46  68  92 118 149 185 226 275
#     4   7  12  24  41  61  85 117 155 185 206 237
#     4   9  16  27  45  67  87 112 154 195 223 262
#     4   9  18  30  41  58  90 125 149 177 223 270
#
# _framework density 17.045970000000001
#
# number of rings (size 3 to 8) (size 9 to 14) (size 15 to 20)
#    0.000    3.154    0.000    2.308    1.077    2.154 
#    0.000    0.000    0.000    2.769    0.000    8.615 
#    0.000    0.000    0.000    7.692    0.000    8.308 
#
# Total GULP energy -644281.252335 kJ/mol
# GULP energy per Si atom -12390.024083 kJ/mol
# Density = 1.700717 g / cm^3
# Si number density = 17.045970 Si / 1000 Ang^3
#
#
#
# Elastic Constant Matrix: (Units=GPa)
#
#
# Indices 1 2 3 4 5 6 
#
# 1 41.8978 35.2502 21.5101 0.0000 0.0000 0.0000
# 2 35.2502 99.3867 36.7274 0.0000 0.0000 0.0000
# 3 21.5101 36.7274 74.7818 0.0000 0.0000 0.0000
# 4 0.0000 0.0000 0.0000 17.7914 0.0000 0.0000
# 5 0.0000 0.0000 0.0000 0.0000 16.4842 0.0000
# 6 0.0000 0.0000 0.0000 0.0000 0.0000 9.9008
#
#
#
# Elastic Compliance Matrix: (Units=1/GPa)
#
#
# Indices 1 2 3 4 5 6 
#
# 1 0.035437 -0.010754 -0.004912 0.000000 0.000000 0.000000
# 2 -0.010754 0.015556 -0.004547 0.000000 0.000000 0.000000
# 3 -0.004912 -0.004547 0.017018 0.000000 0.000000 0.000000
# 4 0.000000 0.000000 0.000000 0.056207 0.000000 0.000000
# 5 0.000000 0.000000 0.000000 0.000000 0.060664 0.000000
# 6 0.000000 0.000000 0.000000 0.000000 0.000000 0.101001
#
#
# Mechanical properties :
#
#
# Convention : Reuss Voigt Hill
#
# Bulk Modulus (GPa) = 36.24929 44.78242 40.51585
# Shear Modulus (GPa) = 14.90302 17.00720 15.95511
#
# Velocity S-wave (km/s) = 2.96004 3.16211 3.06274
# Velocity P-wave (km/s) = 5.74406 6.29766 6.02722
#
# Compressibility (1/GPa) = 0.02758675
#
# Stress axis : x y z
#
# Youngs Moduli (GPa) = 28.21943 64.28396 58.76108
#
# Poissons Ratio (x) = 0.69128 0.28861
# Poissons Ratio (y) = 0.30346 0.26718
# Poissons Ratio (z) = 0.13860 0.29229
#
# Static dielectric constant tensor:
#      x y z
#    x 2.967370 0.000000 0.000000 
#    y 0.000000 3.274980 0.000000 
#    z 0.000000 0.000000 3.112050 
# 
# 
# High freq. dielectric constant tensor:
#      x y z
#    x 1.634680 0.000000 0.000000 
#    y 0.000000 1.648170 0.000000 
#    z 0.000000 0.000000 1.636030 
# 
# From -- ./inp_files/21740.got.cif
#   From: 2010.03.12/outbox.cif.g09.slc.cpg/sg47_11_cif.got.tgz:21740.got - 2010.04.14 03:12:58.
