data_PCOD8196885
_publ_section_title
;
Structure prediction by ZEFSAII (Michael W. Deem and Ramdas Pophale) SiO2 
 PCOD8196885
Probable space group: P M M M
;
_chemical_formula_sum "Si O2"
_cell_formula_units_Z 44
_cell_length_a 8.032537
_cell_length_b 30.128707
_cell_length_c 9.501385
_cell_angle_alpha 90.000000
_cell_angle_beta 90.000000
_cell_angle_gamma 90.000000
_cell_volume 2299.429744
_symmetry_space_group_name_H-M "P M M M"
_symmetry_group_IT_number 47
_symmetry_cell_setting 'orthorhombic'
loop_
_space_group_symop_operation_xyz
x,y,z
-x,-y,z
x,-y,-z
-x,y,-z
-x,-y,-z
x,y,-z
-x,y,z
x,-y,z
loop_
_atom_site_type_symbol
_atom_site_label
_atom_site_fract_x
_atom_site_fract_y
_atom_site_fract_z
Si Si1 0.692494 0.293324 0.659971
Si Si2 0.000000 0.050223 0.667824
Si Si3 0.813160 0.198732 0.667067
Si Si4 0.801892 0.450788 0.657572
Si Si5 0.315215 0.894328 0.667579
Si Si6 0.192902 0.372271 0.155333
O O1 0.760458 0.298030 0.500000
O O2 0.500000 0.305007 0.666407
O O3 0.721980 0.243518 0.717168
O O4 0.789009 0.326787 0.759967
O O5 0.168040 0.073907 0.725947
O O6 0.000000 0.051839 0.500000
O O7 0.000000 0.000000 0.724057
O O8 0.816067 0.196709 0.500000
O O9 0.715579 0.155644 0.724350
O O10 0.000000 0.198186 0.727629
O O11 0.734177 0.441820 0.500000
O O12 0.746339 0.500000 0.708182
O O13 0.724046 0.413571 0.760726
O O14 0.000000 0.447621 0.655787
O O15 0.309169 0.894946 0.500000
O O16 0.500000 0.909873 0.718875
O O17 0.000000 0.382385 0.137529
O O18 0.275528 0.368374 0.000000
#
# Coordination Sequence:
#
# PCOD8196885 Si02
#       6
#     8   4   8   8   8   8
#     4  10  20  32  47  68  91 118 156 199 242 289
#     4   9  16  24  32  46  72 108 151 195 240 291
#     4   9  15  25  42  62  83 107 140 188 243 290
#     4   8  14  26  46  71  96 122 155 197 242 285
#     4   9  15  23  35  51  74 105 144 192 242 291
#     4  10  20  32  47  69  97 128 159 191 235 292
#
# _framework density 19.135178
#
# number of rings (size 3 to 8) (size 9 to 14) (size 15 to 20)
#    0.000    2.818    0.909    2.182    0.000    5.091 
#    0.000    3.636    0.000    0.545    0.000    3.818 
#    0.000    0.000    0.000    0.000    0.000    1.818 
#
# Total GULP energy -545318.307886 kJ/mol
# GULP energy per Si atom -12393.597907 kJ/mol
# Density = 1.909163 g / cm^3
# Si number density = 19.135178 Si / 1000 Ang^3
#
#
#
# Elastic Constant Matrix: (Units=GPa)
#
#
# Indices 1 2 3 4 5 6 
#
# 1 81.3326 39.2543 18.2642 0.0000 0.0000 0.0000
# 2 39.2543 166.5728 52.7886 0.0000 0.0000 0.0000
# 3 18.2642 52.7886 61.8804 0.0000 0.0000 0.0000
# 4 0.0000 0.0000 0.0000 1.9828 0.0000 0.0000
# 5 0.0000 0.0000 0.0000 0.0000 6.1503 0.0000
# 6 0.0000 0.0000 0.0000 0.0000 0.0000 4.1714
#
#
#
# Elastic Compliance Matrix: (Units=1/GPa)
#
#
# Indices 1 2 3 4 5 6 
#
# 1 0.014019 -0.002731 -0.001808 0.000000 0.000000 0.000000
# 2 -0.002731 0.008760 -0.006667 0.000000 0.000000 0.000000
# 3 -0.001808 -0.006667 0.022381 0.000000 0.000000 0.000000
# 4 0.000000 0.000000 0.000000 0.504338 0.000000 0.000000
# 5 0.000000 0.000000 0.000000 0.000000 0.162594 0.000000
# 6 0.000000 0.000000 0.000000 0.000000 0.000000 0.239730
#
#
# Mechanical properties :
#
#
# Convention : Reuss Voigt Hill
#
# Bulk Modulus (GPa) = 43.95878 58.93334 51.44606
# Shear Modulus (GPa) = 5.09260 15.75947 10.42604
#
# Velocity S-wave (km/s) = 1.63314 2.87293 2.33676
# Velocity P-wave (km/s) = 5.15547 6.47072 5.85018
#
# Compressibility (1/GPa) = 0.02274858
#
# Stress axis : x y z
#
# Youngs Moduli (GPa) = 71.33075 114.16036 44.68056
#
# Poissons Ratio (x) = 0.31173 0.08080
# Poissons Ratio (y) = 0.19478 0.29787
# Poissons Ratio (z) = 0.12899 0.76107
#
# Static dielectric constant tensor:
#      x y z
#    x 3.416800 0.000000 0.000000 
#    y 0.000000 3.717940 0.000000 
#    z 0.000000 0.000000 3.121440 
# 
# 
# High freq. dielectric constant tensor:
#      x y z
#    x 1.733290 0.000000 0.000000 
#    y 0.000000 1.754360 0.000000 
#    z 0.000000 0.000000 1.674810 
# 
# From -- ./inp_files/1957.got.cif
#   From: 2010.03.12/outbox.cif.g09.slc.cpg/sg47_1_cif.got.tgz:1957.got - 2010.04.14 03:12:58.
