data_PCOD8196789
_publ_section_title
;
Structure prediction by ZEFSAII (Michael W. Deem and Ramdas Pophale) SiO2 
 PCOD8196789
Probable space group: P M M M
;
_chemical_formula_sum "Si O2"
_cell_formula_units_Z 44
_cell_length_a 9.377077
_cell_length_b 12.405322
_cell_length_c 25.254561
_cell_angle_alpha 90.000000
_cell_angle_beta 90.000000
_cell_angle_gamma 90.000000
_cell_volume 2937.753466
_symmetry_space_group_name_H-M "P M M M"
_symmetry_group_IT_number 47
_symmetry_cell_setting 'orthorhombic'
loop_
_space_group_symop_operation_xyz
x,y,z
-x,-y,z
x,-y,-z
-x,y,-z
-x,-y,-z
x,y,-z
-x,y,z
x,-y,z
loop_
_atom_site_type_symbol
_atom_site_label
_atom_site_fract_x
_atom_site_fract_y
_atom_site_fract_z
Si Si1 0.334817 0.626081 0.128211
Si Si2 0.337981 0.000000 0.062938
Si Si3 0.657938 0.628056 0.246880
Si Si4 0.660075 0.628140 0.558442
Si Si5 0.159781 0.628841 0.656066
Si Si6 0.835333 0.792800 0.937403
O O1 0.500000 0.653400 0.116083
O O2 0.306587 0.500000 0.120517
O O3 0.294764 0.662986 0.187959
O O4 0.230978 0.686377 0.088149
O O5 0.253549 0.895389 0.083695
O O6 0.500000 0.000000 0.085232
O O7 0.339949 0.000000 0.000000
O O8 0.500000 0.672954 0.259350
O O9 0.654059 0.500000 0.249507
O O10 0.765085 0.674533 0.290989
O O11 0.712989 0.665476 0.500000
O O12 0.500000 0.670563 0.568671
O O13 0.660709 0.500000 0.561201
O O14 0.762281 0.675564 0.603868
O O15 0.162626 0.500000 0.655886
O O16 0.000000 0.673681 0.655592
O O17 0.000000 0.806157 0.920570
O O18 0.821147 0.780706 0.000000
#
# Coordination Sequence:
#
# PCOD8196789 Si02
#       6
#     8   4   8   8   8   8
#     4   9  18  31  45  61  81 107 139 171 201 236
#     4   9  17  31  51  69  83 103 133 165 194 229
#     4   8  14  25  38  49  64  89 121 155 188 223
#     4   8  13  20  28  37  51  74 104 138 178 222
#     4   9  15  20  28  43  60  79 106 142 184 226
#     4  10  20  32  46  65  88 110 131 160 201 245
#
# _framework density 14.977430999999999
#
# number of rings (size 3 to 8) (size 9 to 14) (size 15 to 20)
#    0.000    3.182    0.000    3.000    0.000    6.182 
#    0.000    5.455    0.000    0.000    0.000    0.000 
#    0.000    0.000    0.000    0.000    0.000    0.000 
#
# Total GULP energy -545350.240357 kJ/mol
# GULP energy per Si atom -12394.323644 kJ/mol
# Density = 1.494334 g / cm^3
# Si number density = 14.977431 Si / 1000 Ang^3
#
#
#
# Elastic Constant Matrix: (Units=GPa)
#
#
# Indices 1 2 3 4 5 6 
#
# 1 125.2549 36.4699 59.6896 0.0000 0.0000 0.0000
# 2 36.4699 35.5154 26.9528 0.0000 0.0000 0.0000
# 3 59.6896 26.9528 69.4455 0.0000 0.0000 0.0000
# 4 0.0000 0.0000 0.0000 0.4071 0.0000 0.0000
# 5 0.0000 0.0000 0.0000 0.0000 22.0442 0.0000
# 6 0.0000 0.0000 0.0000 0.0000 0.0000 16.1566
#
#
#
# Elastic Compliance Matrix: (Units=1/GPa)
#
#
# Indices 1 2 3 4 5 6 
#
# 1 0.014951 -0.007939 -0.009769 0.000000 0.000000 0.000000
# 2 -0.007939 0.044128 -0.010303 0.000000 0.000000 0.000000
# 3 -0.009769 -0.010303 0.026796 0.000000 0.000000 0.000000
# 4 0.000000 0.000000 0.000000 2.456537 0.000000 0.000000
# 5 0.000000 0.000000 0.000000 0.000000 0.045363 0.000000
# 6 0.000000 0.000000 0.000000 0.000000 0.000000 0.061894
#
#
# Mechanical properties :
#
#
# Convention : Reuss Voigt Hill
#
# Bulk Modulus (GPa) = 33.49884 52.93784 43.21834
# Shear Modulus (GPa) = 1.84119 14.86182 8.35150
#
# Velocity S-wave (km/s) = 1.10994 3.15347 2.36393
# Velocity P-wave (km/s) = 4.90483 6.97717 6.03069
#
# Compressibility (1/GPa) = 0.02985178
#
# Stress axis : x y z
#
# Youngs Moduli (GPa) = 66.88672 22.66132 37.31965
#
# Poissons Ratio (x) = 0.17990 0.36459
# Poissons Ratio (y) = 0.53098 0.38452
# Poissons Ratio (z) = 0.65343 0.23349
#
# Static dielectric constant tensor:
#      x y z
#    x 3.101370 0.000000 0.000000 
#    y 0.000000 2.325370 0.000000 
#    z 0.000000 0.000000 3.043460 
# 
# 
# High freq. dielectric constant tensor:
#      x y z
#    x 1.584540 0.000000 0.000000 
#    y 0.000000 1.496360 0.000000 
#    z 0.000000 0.000000 1.574440 
# 
# From -- ./inp_files/4310.got.cif
#   From: 2010.03.12/outbox.cif.g09.slc.cpg/sg47_3_cif.got.tgz:4310.got - 2010.04.14 03:12:58.
