data_PCOD8196891
_publ_section_title
;
Structure prediction by ZEFSAII (Michael W. Deem and Ramdas Pophale) SiO2 
 PCOD8196891
Probable space group: P M M M
;
_chemical_formula_sum "Si O2"
_cell_formula_units_Z 64
_cell_length_a 9.316032
_cell_length_b 28.828933
_cell_length_c 14.238248
_cell_angle_alpha 90.000000
_cell_angle_beta 90.000000
_cell_angle_gamma 90.000000
_cell_volume 3823.984239
_symmetry_space_group_name_H-M "P M M M"
_symmetry_group_IT_number 47
_symmetry_cell_setting 'orthorhombic'
loop_
_space_group_symop_operation_xyz
x,y,z
-x,-y,z
x,-y,-z
-x,y,-z
-x,-y,-z
x,y,-z
-x,y,z
x,-y,z
loop_
_atom_site_type_symbol
_atom_site_label
_atom_site_fract_x
_atom_site_fract_y
_atom_site_fract_z
Si Si1 0.170360 0.228665 0.776426
Si Si2 0.163112 0.395671 0.894524
Si Si3 0.331419 0.734030 0.391951
Si Si4 0.167912 0.861393 0.892812
Si Si5 0.660064 0.628981 0.389130
Si Si6 0.338592 0.050787 0.111519
Si Si7 0.834217 0.551161 0.285507
Si Si8 0.664188 0.305498 0.889848
O O1 0.239099 0.231074 0.672405
O O2 0.212920 0.180216 0.824458
O O3 0.237714 0.268198 0.840041
O O4 0.000000 0.235284 0.770384
O O5 0.187310 0.438685 0.825010
O O6 0.273683 0.355780 0.864410
O O7 0.000000 0.376476 0.886458
O O8 0.194850 0.413168 0.000000
O O9 0.288114 0.742792 0.500000
O O10 0.500000 0.743221 0.377657
O O11 0.292929 0.681221 0.361078
O O12 0.239090 0.907917 0.850428
O O13 0.000000 0.869822 0.891498
O O14 0.219260 0.850758 0.000000
O O15 0.664352 0.624469 0.500000
O O16 0.500000 0.619506 0.351555
O O17 0.763435 0.590768 0.347095
O O18 0.500000 0.059747 0.147234
O O19 0.285373 0.000000 0.147736
O O20 0.333856 0.050831 0.000000
O O21 0.768748 0.500000 0.306059
O O22 0.000000 0.551431 0.313034
O O23 0.500000 0.302527 0.853913
O O24 0.674081 0.296138 0.000000
#
# Coordination Sequence:
#
# PCOD8196891 Si02
#       8
#     8   8   8   8   8   8   8   8
#     4  11  21  31  46  69  98 128 157 192 233 277
#     4   9  18  33  51  68  88 117 151 185 221 262
#     4   9  19  36  55  73  93 118 151 191 232 276
#     4   9  18  30  42  61  93 131 166 197 230 270
#     4   9  19  36  55  72  90 114 144 178 219 269
#     4   8  14  25  41  61  86 119 161 206 244 274
#     4  10  21  34  48  70  96 118 143 177 218 264
#     4  10  20  32  47  68  93 122 156 191 227 270
#
# _framework density 16.736470000000001
#
# number of rings (size 3 to 8) (size 9 to 14) (size 15 to 20)
#    0.000    2.625    0.000    3.000    0.000    6.750 
#    0.000    6.250    0.000    0.000    0.000    2.625 
#    0.000    0.500    0.000    5.500    0.000    4.250 
#
# Total GULP energy -793400.857589 kJ/mol
# GULP energy per Si atom -12396.888400 kJ/mol
# Density = 1.669838 g / cm^3
# Si number density = 16.736470 Si / 1000 Ang^3
#
#
#
# Elastic Constant Matrix: (Units=GPa)
#
#
# Indices 1 2 3 4 5 6 
#
# 1 62.2070 51.3193 37.2503 0.0000 0.0000 0.0000
# 2 51.3193 110.3737 57.1327 0.0000 0.0000 0.0000
# 3 37.2503 57.1327 44.5729 0.0000 0.0000 0.0000
# 4 0.0000 0.0000 0.0000 17.0714 0.0000 0.0000
# 5 0.0000 0.0000 0.0000 0.0000 25.6410 0.0000
# 6 0.0000 0.0000 0.0000 0.0000 0.0000 23.8243
#
#
#
# Elastic Compliance Matrix: (Units=1/GPa)
#
#
# Indices 1 2 3 4 5 6 
#
# 1 0.032539 -0.003130 -0.023181 0.000000 0.000000 0.000000
# 2 -0.003130 0.027225 -0.032280 0.000000 0.000000 0.000000
# 3 -0.023181 -0.032280 0.083184 0.000000 0.000000 0.000000
# 4 0.000000 0.000000 0.000000 0.058577 0.000000 0.000000
# 5 0.000000 0.000000 0.000000 0.000000 0.039000 0.000000
# 6 0.000000 0.000000 0.000000 0.000000 0.000000 0.041974
#
#
# Mechanical properties :
#
#
# Convention : Reuss Voigt Hill
#
# Bulk Modulus (GPa) = 38.81273 56.50648 47.65960
# Shear Modulus (GPa) = 12.24679 18.07077 15.15878
#
# Velocity S-wave (km/s) = 2.70801 3.28948 3.01281
# Velocity P-wave (km/s) = 5.74618 6.94718 6.37503
#
# Compressibility (1/GPa) = 0.02576474
#
# Stress axis : x y z
#
# Youngs Moduli (GPa) = 30.73273 36.73147 12.02148
#
# Poissons Ratio (x) = 0.11496 0.27867
# Poissons Ratio (y) = 0.09619 0.38806
# Poissons Ratio (z) = 0.71242 1.18570
#
# Static dielectric constant tensor:
#      x y z
#    x 3.254610 0.000000 0.000000 
#    y 0.000000 3.269690 0.000000 
#    z 0.000000 0.000000 3.086480 
# 
# 
# High freq. dielectric constant tensor:
#      x y z
#    x 1.646370 0.000000 0.000000 
#    y 0.000000 1.632420 0.000000 
#    z 0.000000 0.000000 1.628920 
# 
# From -- ./inp_files/22154.got.cif
#   From: 2010.03.12/outbox.cif.g09.slc.cpg/sg47_12_cif.got.tgz:22154.got - 2010.04.14 03:12:58.
