data_PCOD8196831
_publ_section_title
;
Structure prediction by ZEFSAII (Michael W. Deem and Ramdas Pophale) SiO2 
 PCOD8196831
Probable space group: P M M M
;
_chemical_formula_sum "Si O2"
_cell_formula_units_Z 44
_cell_length_a 9.221571
_cell_length_b 28.795596
_cell_length_c 9.208831
_cell_angle_alpha 90.000000
_cell_angle_beta 90.000000
_cell_angle_gamma 90.000000
_cell_volume 2445.318813
_symmetry_space_group_name_H-M "P M M M"
_symmetry_group_IT_number 47
_symmetry_cell_setting 'orthorhombic'
loop_
_space_group_symop_operation_xyz
x,y,z
-x,-y,z
x,-y,-z
-x,y,-z
-x,-y,-z
x,y,-z
-x,y,z
x,-y,z
loop_
_atom_site_type_symbol
_atom_site_label
_atom_site_fract_x
_atom_site_fract_y
_atom_site_fract_z
Si Si1 0.829816 0.810846 0.668425
Si Si2 0.662370 0.900689 0.326824
Si Si3 0.668809 0.270577 0.170043
Si Si4 0.672247 0.000000 0.659066
Si Si5 0.672487 0.551235 0.836873
Si Si6 0.672578 0.638322 0.662791
O O1 0.788699 0.802769 0.500000
O O2 0.770143 0.860324 0.724923
O O3 0.758550 0.771391 0.764544
O O4 0.000000 0.810217 0.693533
O O5 0.661747 0.904965 0.500000
O O6 0.500000 0.888708 0.271413
O O7 0.715636 0.951121 0.262078
O O8 0.500000 0.262211 0.203899
O O9 0.725301 0.317894 0.243565
O O10 0.699032 0.274472 0.000000
O O11 0.500000 0.000000 0.642363
O O12 0.745468 0.000000 0.500000
O O13 0.500000 0.553931 0.837158
O O14 0.722160 0.500000 0.782316
O O15 0.736965 0.591035 0.732461
O O16 0.729989 0.559884 0.000000
O O17 0.734140 0.643113 0.500000
O O18 0.500000 0.636108 0.661770
#
# Coordination Sequence:
#
# PCOD8196831 Si02
#       6
#     8   8   8   4   8   8
#     4  10  20  32  46  67  95 124 154 190 234 282
#     4   8  13  23  41  64  91 123 156 189 225 267
#     4  10  20  33  49  67  87 116 156 198 238 282
#     4   7  10  18  35  61  90 119 152 187 222 262
#     4   8  13  21  33  51  80 118 153 183 220 269
#     4   9  16  25  39  60  85 113 147 189 234 278
#
# _framework density 17.993563000000002
#
# number of rings (size 3 to 8) (size 9 to 14) (size 15 to 20)
#    0.000    3.182    0.000    3.273    0.000    4.727 
#    0.000    2.273    0.000    2.727    0.000    0.636 
#    0.000    5.818    0.000    7.636    0.000   10.545 
#
# Total GULP energy -545217.181205 kJ/mol
# GULP energy per Si atom -12391.299573 kJ/mol
# Density = 1.795261 g / cm^3
# Si number density = 17.993563 Si / 1000 Ang^3
#
#
#
# Elastic Constant Matrix: (Units=GPa)
#
#
# Indices 1 2 3 4 5 6 
#
# 1 39.3314 46.7686 31.4420 0.0000 0.0000 0.0000
# 2 46.7686 198.9960 76.3309 0.0000 0.0000 0.0000
# 3 31.4420 76.3309 84.6249 0.0000 0.0000 0.0000
# 4 0.0000 0.0000 0.0000 7.7371 0.0000 0.0000
# 5 0.0000 0.0000 0.0000 0.0000 12.5678 0.0000
# 6 0.0000 0.0000 0.0000 0.0000 0.0000 -1.1570
#
#
#
# Elastic Compliance Matrix: (Units=1/GPa)
#
#
# Indices 1 2 3 4 5 6 
#
# 1 0.039927 -0.005647 -0.009741 0.000000 0.000000 0.000000
# 2 -0.005647 0.008482 -0.005553 0.000000 0.000000 0.000000
# 3 -0.009741 -0.005553 0.020445 0.000000 0.000000 0.000000
# 4 0.000000 0.000000 0.000000 0.129248 0.000000 0.000000
# 5 0.000000 0.000000 0.000000 0.000000 0.079568 0.000000
# 6 0.000000 0.000000 0.000000 0.000000 0.000000 -0.864269
#
#
# Mechanical properties :
#
#
# Convention : Reuss Voigt Hill
#
# Bulk Modulus (GPa) = 37.07537 70.22615 53.65076
# Shear Modulus (GPa) = -9.33313 15.05696 2.86192
#
# Velocity S-wave (km/s) = -2.27995 2.89588 1.26253
# Velocity P-wave (km/s) = 3.70386 7.09188 5.65744
#
# Compressibility (1/GPa) = 0.02697208
#
# Stress axis : x y z
#
# Youngs Moduli (GPa) = 25.04560 117.89046 48.91268
#
# Poissons Ratio (x) = 0.66578 0.47645
# Poissons Ratio (y) = 0.14144 0.27160
# Poissons Ratio (z) = 0.24396 0.65462
#
# Static dielectric constant tensor:
#      x y z
#    x 2.818850 0.000000 0.000000 
#    y 0.000000 3.859670 0.000000 
#    z 0.000000 0.000000 3.137790 
# 
# 
# High freq. dielectric constant tensor:
#      x y z
#    x 1.636820 0.000000 0.000000 
#    y 0.000000 1.724040 0.000000 
#    z 0.000000 0.000000 1.664280 
# 
# From -- ./inp_files/2254.got.cif
#   From: 2010.03.12/outbox.cif.g09.slc.cpg/sg47_2_cif.got.tgz:2254.got - 2010.04.14 03:12:58.
