data_PCOD8196089
_publ_section_title
;
Structure prediction by ZEFSAII (Michael W. Deem and Ramdas Pophale) SiO2 
 PCOD8196089
Probable space group: P M M M
;
_chemical_formula_sum "Si O2"
_cell_formula_units_Z 52
_cell_length_a 14.498069
_cell_length_b 9.214749
_cell_length_c 20.718837
_cell_angle_alpha 90.000000
_cell_angle_beta 90.000000
_cell_angle_gamma 90.000000
_cell_volume 2767.955132
_symmetry_space_group_name_H-M "P M M M"
_symmetry_group_IT_number 47
_symmetry_cell_setting 'orthorhombic'
loop_
_space_group_symop_operation_xyz
x,y,z
-x,-y,z
x,-y,-z
-x,y,-z
-x,-y,-z
x,y,-z
-x,y,z
x,-y,z
loop_
_atom_site_type_symbol
_atom_site_label
_atom_site_fract_x
_atom_site_fract_y
_atom_site_fract_z
Si Si1 0.237816 0.668545 0.428145
Si Si2 0.102722 0.327614 0.318647
Si Si3 0.607546 0.172412 0.000000
Si Si4 0.393991 0.169442 0.630902
Si Si5 0.102590 0.672309 0.174457
Si Si6 0.605307 0.335589 0.757378
Si Si7 0.712939 0.331120 0.886934
O O1 0.196502 0.692099 0.500000
O O2 0.256835 0.500000 0.415082
O O3 0.169386 0.735583 0.374120
O O4 0.334383 0.753387 0.424167
O O5 0.106525 0.500000 0.321114
O O6 0.130010 0.272620 0.246586
O O7 0.000000 0.272703 0.334705
O O8 0.660505 0.233257 0.938182
O O9 0.500000 0.221948 0.000000
O O10 0.614516 0.000000 0.000000
O O11 0.500000 0.207670 0.617033
O O12 0.363165 0.229848 0.700520
O O13 0.375116 0.000000 0.629753
O O14 0.100147 0.500000 0.177258
O O15 0.179805 0.719299 0.121738
O O16 0.000000 0.730371 0.154782
O O17 0.500000 0.307824 0.777613
O O18 0.620703 0.500000 0.733238
O O19 0.666628 0.301831 0.818723
O O20 0.705832 0.500000 0.907596
#
# Coordination Sequence:
#
# PCOD8196089 Si02
#       7
#     8   8   4   8   8   8   8
#     4  10  20  32  48  72 100 131 169 212 257 304
#     4   8  14  27  49  77 107 133 158 198 253 307
#     4  11  25  41  54  73 106 144 177 211 252 297
#     4  10  21  35  50  69  95 130 171 213 258 309
#     4   8  14  26  48  79 108 131 161 205 254 298
#     4   9  17  30  51  78 102 124 159 211 263 306
#     4  10  19  33  56  81 105 137 174 209 246 293
#
# _framework density 18.786431
#
# number of rings (size 3 to 8) (size 9 to 14) (size 15 to 20)
#    0.000    2.692    0.000    3.000    0.000    6.154 
#    0.000    5.000    0.000    3.231    0.000    3.231 
#    0.000    0.000    0.000    0.000    0.000    0.000 
#
# Total GULP energy -644541.859898 kJ/mol
# GULP energy per Si atom -12395.035767 kJ/mol
# Density = 1.874367 g / cm^3
# Si number density = 18.786431 Si / 1000 Ang^3
#
#
#
# Elastic Constant Matrix: (Units=GPa)
#
#
# Indices 1 2 3 4 5 6 
#
# 1 126.4870 38.0669 71.2499 0.0000 0.0000 0.0000
# 2 38.0669 42.9040 33.0693 0.0000 0.0000 0.0000
# 3 71.2499 33.0693 79.5115 0.0000 0.0000 0.0000
# 4 0.0000 0.0000 0.0000 5.3876 0.0000 0.0000
# 5 0.0000 0.0000 0.0000 0.0000 -0.2242 0.0000
# 6 0.0000 0.0000 0.0000 0.0000 0.0000 12.3886
#
#
#
# Elastic Compliance Matrix: (Units=1/GPa)
#
#
# Indices 1 2 3 4 5 6 
#
# 1 0.016611 -0.004806 -0.012886 0.000000 0.000000 0.000000
# 2 -0.004806 0.035695 -0.010539 0.000000 0.000000 0.000000
# 3 -0.012886 -0.010539 0.028508 0.000000 0.000000 0.000000
# 4 0.000000 0.000000 0.000000 0.185610 0.000000 0.000000
# 5 0.000000 0.000000 0.000000 0.000000 -4.460027 0.000000
# 6 0.000000 0.000000 0.000000 0.000000 0.000000 0.080719
#
#
# Mechanical properties :
#
#
# Convention : Reuss Voigt Hill
#
# Bulk Modulus (GPa) = 41.06636 59.29719 50.18178
# Shear Modulus (GPa) = -1.23509 10.61152 4.68822
#
# Velocity S-wave (km/s) = -0.81170 2.37924 1.58144
# Velocity P-wave (km/s) = 4.58569 6.25940 5.48674
#
# Compressibility (1/GPa) = 0.02435083
#
# Stress axis : x y z
#
# Youngs Moduli (GPa) = 60.20048 28.01484 35.07834
#
# Poissons Ratio (x) = 0.13464 0.45203
# Poissons Ratio (y) = 0.28931 0.36971
# Poissons Ratio (z) = 0.77577 0.29526
#
# Static dielectric constant tensor:
#      x y z
#    x 3.896720 0.000000 0.000000 
#    y 0.000000 3.066300 0.000000 
#    z 0.000000 0.000000 3.675350 
# 
# 
# High freq. dielectric constant tensor:
#      x y z
#    x 1.743090 0.000000 0.000000 
#    y 0.000000 1.683360 0.000000 
#    z 0.000000 0.000000 1.722120 
# 
# From -- ./inp_files/7103.got.cif
#   From: 2010.03.12/outbox.cif.g09.slc.cpg/sg47_4_cif.got.tgz:7103.got - 2010.04.14 03:12:58.
