data_PCOD8196779
_publ_section_title
;
Structure prediction by ZEFSAII (Michael W. Deem and Ramdas Pophale) SiO2 
 PCOD8196779
Probable space group: P M M M
;
_chemical_formula_sum "Si O2"
_cell_formula_units_Z 60
_cell_length_a 9.258258
_cell_length_b 18.329649
_cell_length_c 23.794259
_cell_angle_alpha 90.000000
_cell_angle_beta 90.000000
_cell_angle_gamma 90.000000
_cell_volume 4037.900493
_symmetry_space_group_name_H-M "P M M M"
_symmetry_group_IT_number 47
_symmetry_cell_setting 'orthorhombic'
loop_
_space_group_symop_operation_xyz
x,y,z
-x,-y,z
x,-y,-z
-x,y,-z
-x,-y,-z
x,y,-z
-x,y,z
x,-y,z
loop_
_atom_site_type_symbol
_atom_site_label
_atom_site_fract_x
_atom_site_fract_y
_atom_site_fract_z
Si Si1 0.331342 0.915944 0.667789
Si Si2 0.668601 0.832786 0.219628
Si Si3 0.840564 0.712632 0.728365
Si Si4 0.162378 0.203023 0.388320
Si Si5 0.330969 0.915343 0.108979
Si Si6 0.169266 0.416553 0.343818
Si Si7 0.666133 0.669412 0.564081
Si Si8 0.836807 0.086730 0.000000
O O1 0.500000 0.904041 0.655924
O O2 0.289439 0.886044 0.729302
O O3 0.241791 0.874603 0.619326
O O4 0.287035 0.000000 0.665494
O O5 0.500000 0.819673 0.216800
O O6 0.738513 0.752540 0.226648
O O7 0.724483 0.870078 0.162631
O O8 0.841579 0.757615 0.671151
O O9 0.786579 0.631270 0.711246
O O10 0.000000 0.709325 0.755070
O O11 0.253033 0.252950 0.431003
O O12 0.000000 0.190769 0.411512
O O13 0.500000 0.903914 0.097774
O O14 0.296478 0.000000 0.120387
O O15 0.245093 0.884555 0.055290
O O16 0.204485 0.500000 0.329614
O O17 0.259568 0.392574 0.398174
O O18 0.000000 0.403881 0.357381
O O19 0.676000 0.642636 0.500000
O O20 0.500000 0.679318 0.583147
O O21 0.000000 0.116765 0.000000
O O22 0.833170 0.000000 0.000000
#
# Coordination Sequence:
#
# PCOD8196779 Si02
#       8
#     8   8   8   8   8   8   8   4
#     4   9  16  26  41  61  84 107 131 164 207 249
#     4   9  16  25  39  59  81 106 137 170 202 239
#     4   8  15  27  41  58  80 105 132 161 195 234
#     4   9  17  29  44  60  79 105 135 164 197 241
#     4   9  16  26  39  54  75 106 143 178 209 241
#     4   9  18  32  48  65  86 112 138 161 189 231
#     4  10  20  32  46  64  84 105 131 164 200 237
#     4   9  17  27  37  51  73 103 140 179 216 249
#
# _framework density 14.859206
#
# number of rings (size 3 to 8) (size 9 to 14) (size 15 to 20)
#    0.000    3.000    0.000    2.200    0.000    8.000 
#    0.000    1.333    0.000    2.800    0.000    2.800 
#    0.000    0.000    0.000    0.600    0.000   12.133 
#
# Total GULP energy -743808.437468 kJ/mol
# GULP energy per Si atom -12396.807291 kJ/mol
# Density = 1.482539 g / cm^3
# Si number density = 14.859206 Si / 1000 Ang^3
#
#
#
# Elastic Constant Matrix: (Units=GPa)
#
#
# Indices 1 2 3 4 5 6 
#
# 1 67.5999 43.7653 32.6439 0.0000 0.0000 0.0000
# 2 43.7653 106.7973 40.3748 0.0000 0.0000 0.0000
# 3 32.6439 40.3748 57.2249 0.0000 0.0000 0.0000
# 4 0.0000 0.0000 0.0000 15.4275 0.0000 0.0000
# 5 0.0000 0.0000 0.0000 0.0000 18.2828 0.0000
# 6 0.0000 0.0000 0.0000 0.0000 0.0000 22.6722
#
#
#
# Elastic Compliance Matrix: (Units=1/GPa)
#
#
# Indices 1 2 3 4 5 6 
#
# 1 0.022994 -0.006088 -0.008822 0.000000 0.000000 0.000000
# 2 -0.006088 0.014381 -0.006674 0.000000 0.000000 0.000000
# 3 -0.008822 -0.006674 0.027216 0.000000 0.000000 0.000000
# 4 0.000000 0.000000 0.000000 0.064819 0.000000 0.000000
# 5 0.000000 0.000000 0.000000 0.000000 0.054696 0.000000
# 6 0.000000 0.000000 0.000000 0.000000 0.000000 0.044107
#
#
# Mechanical properties :
#
#
# Convention : Reuss Voigt Hill
#
# Bulk Modulus (GPa) = 46.67542 51.68781 49.18162
# Shear Modulus (GPa) = 17.95181 18.93236 18.44209
#
# Velocity S-wave (km/s) = 3.47958 3.57335 3.52678
# Velocity P-wave (km/s) = 6.90096 7.20317 7.05369
#
# Compressibility (1/GPa) = 0.02142455
#
# Stress axis : x y z
#
# Youngs Moduli (GPa) = 43.48877 69.53412 36.74305
#
# Poissons Ratio (x) = 0.42332 0.32414
# Poissons Ratio (y) = 0.26476 0.24522
# Poissons Ratio (z) = 0.38365 0.46406
#
# Static dielectric constant tensor:
#      x y z
#    x 3.000750 0.000000 0.000000 
#    y 0.000000 2.904870 0.000000 
#    z 0.000000 0.000000 2.727530 
# 
# 
# High freq. dielectric constant tensor:
#      x y z
#    x 1.575740 0.000000 0.000000 
#    y 0.000000 1.548780 0.000000 
#    z 0.000000 0.000000 1.536600 
# 
# From -- ./inp_files/32229.got.cif
#   From: 2010.03.12/outbox.cif.g09.slc.cpg/sg47_17_cif.got.tgz:32229.got - 2010.04.14 03:12:58.
