data_PCOD8196205
_publ_section_title
;
Structure prediction by ZEFSAII (Michael W. Deem and Ramdas Pophale) SiO2 
 PCOD8196205
Probable space group: P M M M
;
_chemical_formula_sum "Si O2"
_cell_formula_units_Z 40
_cell_length_a 9.292451
_cell_length_b 23.780028
_cell_length_c 9.783297
_cell_angle_alpha 90.000000
_cell_angle_beta 90.000000
_cell_angle_gamma 90.000000
_cell_volume 2161.861560
_symmetry_space_group_name_H-M "P M M M"
_symmetry_group_IT_number 47
_symmetry_cell_setting 'orthorhombic'
loop_
_space_group_symop_operation_xyz
x,y,z
-x,-y,z
x,-y,-z
-x,y,-z
-x,-y,-z
x,y,-z
-x,y,z
x,-y,z
loop_
_atom_site_type_symbol
_atom_site_label
_atom_site_fract_x
_atom_site_fract_y
_atom_site_fract_z
Si Si1 0.830549 0.563070 0.000000
Si Si2 0.334282 0.934067 0.654628
Si Si3 0.170103 0.375431 0.269975
Si Si4 0.829043 0.149811 0.158201
Si Si5 0.659631 0.434081 0.500000
Si Si6 0.170653 0.251438 0.345663
O O1 0.780342 0.601157 0.125058
O O2 0.761165 0.500000 0.000000
O O3 0.000000 0.555369 0.000000
O O4 0.287570 0.916762 0.500000
O O5 0.500000 0.917518 0.678219
O O6 0.237339 0.904375 0.768494
O O7 0.311638 0.000000 0.674802
O O8 0.251121 0.415960 0.370549
O O9 0.223346 0.311487 0.289148
O O10 0.000000 0.379964 0.295220
O O11 0.771568 0.204267 0.241101
O O12 0.000000 0.144959 0.166216
O O13 0.778545 0.153494 0.000000
O O14 0.646004 0.500000 0.500000
O O15 0.500000 0.406908 0.500000
O O16 0.230654 0.241589 0.500000
O O17 0.000000 0.249658 0.349194
#
# Coordination Sequence:
#
# PCOD8196205 Si02
#       6
#     4   8   8   8   4   8
#     4   9  18  30  49  81 111 133 168 219 268 316
#     4   9  19  37  59  81 107 143 187 229 268 312
#     4  10  19  34  57  81 105 138 179 222 267 319
#     4  10  21  34  52  81 115 147 178 217 268 325
#     4  11  23  37  53  77 109 141 176 221 272 323
#     4   9  17  31  52  78 104 136 178 220 265 315
#
# _framework density 18.502571
#
# number of rings (size 3 to 8) (size 9 to 14) (size 15 to 20)
#    0.000    2.400    1.000    2.100    1.400    4.000 
#    0.000    4.500    0.000    1.800    0.000    0.000 
#    0.000    0.000    0.000    0.000    0.000    0.000 
#
# Total GULP energy -495867.239358 kJ/mol
# GULP energy per Si atom -12396.680984 kJ/mol
# Density = 1.846046 g / cm^3
# Si number density = 18.502571 Si / 1000 Ang^3
#
#
#
# Elastic Constant Matrix: (Units=GPa)
#
#
# Indices 1 2 3 4 5 6 
#
# 1 33.7871 26.6613 38.8798 0.0000 0.0000 0.0000
# 2 26.6613 105.8344 78.5357 0.0000 0.0000 0.0000
# 3 38.8798 78.5357 187.8707 0.0000 0.0000 0.0000
# 4 0.0000 0.0000 0.0000 44.3084 0.0000 0.0000
# 5 0.0000 0.0000 0.0000 0.0000 13.6513 0.0000
# 6 0.0000 0.0000 0.0000 0.0000 0.0000 10.3726
#
#
#
# Elastic Compliance Matrix: (Units=1/GPa)
#
#
# Indices 1 2 3 4 5 6 
#
# 1 0.041225 -0.005878 -0.006075 0.000000 0.000000 0.000000
# 2 -0.005878 0.014536 -0.004860 0.000000 0.000000 0.000000
# 3 -0.006075 -0.004860 0.008612 0.000000 0.000000 0.000000
# 4 0.000000 0.000000 0.000000 0.022569 0.000000 0.000000
# 5 0.000000 0.000000 0.000000 0.000000 0.073253 0.000000
# 6 0.000000 0.000000 0.000000 0.000000 0.000000 0.096408
#
#
# Mechanical properties :
#
#
# Convention : Reuss Voigt Hill
#
# Bulk Modulus (GPa) = 32.52214 68.40509 50.46361
# Shear Modulus (GPa) = 16.64023 25.89415 21.26719
#
# Velocity S-wave (km/s) = 3.00216 3.74503 3.39398
# Velocity P-wave (km/s) = 5.44358 7.46667 6.53390
#
# Compressibility (1/GPa) = 0.03074829
#
# Stress axis : x y z
#
# Youngs Moduli (GPa) = 24.25702 68.79547 116.12256
#
# Poissons Ratio (x) = 0.40435 0.70539
# Poissons Ratio (y) = 0.14257 0.56436
# Poissons Ratio (z) = 0.14735 0.33435
#
# Static dielectric constant tensor:
#      x y z
#    x 3.061940 0.000000 0.000000 
#    y 0.000000 3.512180 0.000000 
#    z 0.000000 0.000000 3.400980 
# 
# 
# High freq. dielectric constant tensor:
#      x y z
#    x 1.677580 0.000000 0.000000 
#    y 0.000000 1.728460 0.000000 
#    z 0.000000 0.000000 1.730980 
# 
# From -- ./inp_files/1687.got.cif
#   From: 2010.03.12/outbox.cif.g09.slc.cpg/sg47_1_cif.got.tgz:1687.got - 2010.04.14 03:12:58.
