data_PCOD8196769
_publ_section_title
;
Structure prediction by ZEFSAII (Michael W. Deem and Ramdas Pophale) SiO2 
 PCOD8196769
Probable space group: P M M M
;
_chemical_formula_sum "Si O2"
_cell_formula_units_Z 52
_cell_length_a 9.366083
_cell_length_b 17.781879
_cell_length_c 17.364470
_cell_angle_alpha 90.000000
_cell_angle_beta 90.000000
_cell_angle_gamma 90.000000
_cell_volume 2891.992651
_symmetry_space_group_name_H-M "P M M M"
_symmetry_group_IT_number 47
_symmetry_cell_setting 'orthorhombic'
loop_
_space_group_symop_operation_xyz
x,y,z
-x,-y,z
x,-y,-z
-x,y,-z
-x,-y,-z
x,y,-z
-x,y,z
x,-y,z
loop_
_atom_site_type_symbol
_atom_site_label
_atom_site_fract_x
_atom_site_fract_y
_atom_site_fract_z
Si Si1 0.165301 0.163749 0.908575
Si Si2 0.336598 0.281694 0.188697
Si Si3 0.835769 0.347034 0.584708
Si Si4 0.163785 0.000000 0.909538
Si Si5 0.338766 0.214602 0.643946
Si Si6 0.161076 0.914855 0.410990
Si Si7 0.166442 0.414491 0.744813
O O1 0.259270 0.230770 0.874469
O O2 0.225464 0.080912 0.879617
O O3 0.000000 0.173670 0.883318
O O4 0.178020 0.168986 0.000000
O O5 0.500000 0.296348 0.163376
O O6 0.328275 0.238608 0.268403
O O7 0.257318 0.361759 0.198306
O O8 0.808786 0.384461 0.500000
O O9 0.744976 0.271152 0.588506
O O10 0.792482 0.402654 0.654423
O O11 0.000000 0.323569 0.593346
O O12 0.000000 0.000000 0.886144
O O13 0.182804 0.000000 0.000000
O O14 0.500000 0.211313 0.614335
O O15 0.269327 0.132805 0.639918
O O16 0.203258 0.907952 0.500000
O O17 0.000000 0.886092 0.397817
O O18 0.175709 0.000000 0.382455
O O19 0.203833 0.500000 0.766104
O O20 0.000000 0.396965 0.757996
#
# Coordination Sequence:
#
# PCOD8196769 Si02
#       7
#     8   8   8   4   8   8   8
#     4   9  17  32  56  82 106 133 167 206 245 290
#     4  10  21  35  50  72 103 137 168 200 243 297
#     4   9  17  29  47  71  97 125 158 201 252 301
#     4   7  12  26  49  77 105 129 156 193 236 281
#     4  10  20  32  45  64  93 128 165 202 241 290
#     4   9  18  32  48  65  86 116 159 210 258 299
#     4   9  18  33  53  75  99 130 168 209 252 300
#
# _framework density 17.980682000000002
#
# number of rings (size 3 to 8) (size 9 to 14) (size 15 to 20)
#    0.000    2.846    0.000    2.769    0.000    5.538 
#    1.385    2.692    0.000    1.846    0.000    7.538 
#    0.000    0.000    0.000    0.000    0.000    0.000 
#
# Total GULP energy -644445.285361 kJ/mol
# GULP energy per Si atom -12393.178565 kJ/mol
# Density = 1.793976 g / cm^3
# Si number density = 17.980682 Si / 1000 Ang^3
#
#
#
# Elastic Constant Matrix: (Units=GPa)
#
#
# Indices 1 2 3 4 5 6 
#
# 1 92.7808 65.3147 30.1507 0.0000 0.0000 0.0000
# 2 65.3147 132.5428 39.0820 0.0000 0.0000 0.0000
# 3 30.1507 39.0820 40.4788 0.0000 0.0000 0.0000
# 4 0.0000 0.0000 0.0000 21.0467 0.0000 0.0000
# 5 0.0000 0.0000 0.0000 0.0000 22.6581 0.0000
# 6 0.0000 0.0000 0.0000 0.0000 0.0000 13.5702
#
#
#
# Elastic Compliance Matrix: (Units=1/GPa)
#
#
# Indices 1 2 3 4 5 6 
#
# 1 0.017700 -0.006759 -0.006658 0.000000 0.000000 0.000000
# 2 -0.006759 0.013128 -0.007641 0.000000 0.000000 0.000000
# 3 -0.006658 -0.007641 0.037041 0.000000 0.000000 0.000000
# 4 0.000000 0.000000 0.000000 0.047513 0.000000 0.000000
# 5 0.000000 0.000000 0.000000 0.000000 0.044134 0.000000
# 6 0.000000 0.000000 0.000000 0.000000 0.000000 0.073691
#
#
# Mechanical properties :
#
#
# Convention : Reuss Voigt Hill
#
# Bulk Modulus (GPa) = 38.83014 59.43301 49.13157
# Shear Modulus (GPa) = 17.61130 20.20532 18.90831
#
# Velocity S-wave (km/s) = 3.13302 3.35584 3.24634
# Velocity P-wave (km/s) = 5.89323 6.93838 6.43705
#
# Compressibility (1/GPa) = 0.02575319
#
# Stress axis : x y z
#
# Youngs Moduli (GPa) = 56.49778 76.17030 26.99712
#
# Poissons Ratio (x) = 0.51483 0.17975
# Poissons Ratio (y) = 0.38186 0.20629
# Poissons Ratio (z) = 0.37617 0.58202
#
# Static dielectric constant tensor:
#      x y z
#    x 3.322530 0.000000 0.000000 
#    y 0.000000 3.421060 0.000000 
#    z 0.000000 0.000000 3.046120 
# 
# 
# High freq. dielectric constant tensor:
#      x y z
#    x 1.684770 0.000000 0.000000 
#    y 0.000000 1.696480 0.000000 
#    z 0.000000 0.000000 1.669990 
# 
# From -- ./inp_files/9509.got.cif
#   From: 2010.03.12/outbox.cif.g09.slc.cpg/sg47_5_cif.got.tgz:9509.got - 2010.04.14 03:12:58.
