data_PCOD8196538
_publ_section_title
;
Structure prediction by ZEFSAII (Michael W. Deem and Ramdas Pophale) SiO2 
 PCOD8196538
Probable space group: P M M M
;
_chemical_formula_sum "Si O2"
_cell_formula_units_Z 56
_cell_length_a 20.109465
_cell_length_b 17.532581
_cell_length_c 9.292806
_cell_angle_alpha 90.000000
_cell_angle_beta 90.000000
_cell_angle_gamma 90.000000
_cell_volume 3276.372268
_symmetry_space_group_name_H-M "P M M M"
_symmetry_group_IT_number 47
_symmetry_cell_setting 'orthorhombic'
loop_
_space_group_symop_operation_xyz
x,y,z
-x,-y,z
x,-y,-z
-x,y,-z
-x,-y,-z
x,y,-z
-x,y,z
x,-y,z
loop_
_atom_site_type_symbol
_atom_site_label
_atom_site_fract_x
_atom_site_fract_y
_atom_site_fract_z
Si Si1 0.237238 0.918394 0.839699
Si Si2 0.812712 0.302230 0.662672
Si Si3 0.696012 0.759716 0.837055
Si Si4 0.925854 0.586775 0.329057
Si Si5 0.875989 0.137136 0.337586
Si Si6 0.000000 0.911803 0.169745
Si Si7 0.578919 0.000000 0.663592
Si Si8 0.576131 0.848921 0.169007
O O1 0.284965 0.847993 0.814599
O O2 0.179012 0.920108 0.722376
O O3 0.275238 0.000000 0.822082
O O4 0.205626 0.912548 0.000000
O O5 0.795822 0.326374 0.500000
O O6 0.741186 0.297901 0.743553
O O7 0.865049 0.362258 0.733951
O O8 0.848754 0.222161 0.670380
O O9 0.618134 0.770458 0.793323
O O10 0.704935 0.731239 0.000000
O O11 0.925449 0.594847 0.500000
O O12 0.912619 0.500000 0.281186
O O13 0.000000 0.612309 0.274067
O O14 0.894961 0.114076 0.500000
O O15 0.938336 0.132735 0.234521
O O16 0.000000 0.000000 0.217541
O O17 0.000000 0.902884 0.000000
O O18 0.602684 0.077202 0.743802
O O19 0.500000 0.000000 0.663678
O O20 0.607057 0.000000 0.500000
O O21 0.500000 0.830101 0.208175
O O22 0.584952 0.867996 0.000000
#
# Coordination Sequence:
#
# PCOD8196538 Si02
#       8
#     8   8   8   8   8   4   4   8
#     4   9  17  29  43  56  75 106 143 181 220 265
#     4   9  18  31  48  69  95 119 144 180 218 263
#     4   9  18  30  45  63  87 118 152 187 228 274
#     4   8  14  26  48  76 100 123 150 178 211 257
#     4  10  20  31  44  62  82 105 136 178 225 263
#     4  11  23  35  45  57  76 105 144 186 225 265
#     4   9  17  27  39  59  87 117 148 191 248 295
#     4   9  17  29  45  63  84 115 157 199 235 277
#
# _framework density 17.092075000000001
#
# number of rings (size 3 to 8) (size 9 to 14) (size 15 to 20)
#    0.000    2.857    0.000    1.714    2.000    4.571 
#    0.000    0.000    0.000    0.429    0.000    1.000 
#    0.000    0.571    0.000    7.143    0.000    0.000 
#
# Total GULP energy -693750.781474 kJ/mol
# GULP energy per Si atom -12388.406812 kJ/mol
# Density = 1.705317 g / cm^3
# Si number density = 17.092075 Si / 1000 Ang^3
#
#
#
# Elastic Constant Matrix: (Units=GPa)
#
#
# Indices 1 2 3 4 5 6 
#
# 1 91.4342 34.4730 32.0267 0.0000 0.0000 0.0000
# 2 34.4730 50.2893 17.1714 0.0000 0.0000 0.0000
# 3 32.0267 17.1714 60.2644 0.0000 0.0000 0.0000
# 4 0.0000 0.0000 0.0000 11.8213 0.0000 0.0000
# 5 0.0000 0.0000 0.0000 0.0000 22.8048 0.0000
# 6 0.0000 0.0000 0.0000 0.0000 0.0000 26.4203
#
#
#
# Elastic Compliance Matrix: (Units=1/GPa)
#
#
# Indices 1 2 3 4 5 6 
#
# 1 0.016594 -0.009266 -0.006179 0.000000 0.000000 0.000000
# 2 -0.009266 0.027202 -0.002827 0.000000 0.000000 0.000000
# 3 -0.006179 -0.002827 0.020683 0.000000 0.000000 0.000000
# 4 0.000000 0.000000 0.000000 0.084593 0.000000 0.000000
# 5 0.000000 0.000000 0.000000 0.000000 0.043851 0.000000
# 6 0.000000 0.000000 0.000000 0.000000 0.000000 0.037850
#
#
# Mechanical properties :
#
#
# Convention : Reuss Voigt Hill
#
# Bulk Modulus (GPa) = 35.79533 41.03668 38.41600
# Shear Modulus (GPa) = 18.07493 20.09706 19.08600
#
# Velocity S-wave (km/s) = 3.25546 3.43273 3.34527
# Velocity P-wave (km/s) = 5.92611 6.30657 6.11930
#
# Compressibility (1/GPa) = 0.02793660
#
# Stress axis : x y z
#
# Youngs Moduli (GPa) = 60.26115 36.76255 48.34994
#
# Poissons Ratio (x) = 0.34063 0.29874
# Poissons Ratio (y) = 0.55836 0.13667
# Poissons Ratio (z) = 0.37234 0.10391
#
# Static dielectric constant tensor:
#      x y z
#    x 4.920860 0.000000 0.000000 
#    y 0.000000 2.958060 0.000000 
#    z 0.000000 0.000000 3.225760 
# 
# 
# High freq. dielectric constant tensor:
#      x y z
#    x 1.662850 0.000000 0.000000 
#    y 0.000000 1.615810 0.000000 
#    z 0.000000 0.000000 1.645520 
# 
# From -- ./inp_files/11759.got.cif
#   From: 2010.03.12/outbox.cif.g09.slc.cpg/sg47_6_cif.got.tgz:11759.got - 2010.04.14 03:12:58.
