data_PCOD8196412
_publ_section_title
;
Structure prediction by ZEFSAII (Michael W. Deem and Ramdas Pophale) SiO2 
 PCOD8196412
Probable space group: P M M M
;
_chemical_formula_sum "Si O2"
_cell_formula_units_Z 64
_cell_length_a 30.434195
_cell_length_b 9.351254
_cell_length_c 20.301338
_cell_angle_alpha 90.000000
_cell_angle_beta 90.000000
_cell_angle_gamma 90.000000
_cell_volume 5777.717913
_symmetry_space_group_name_H-M "P M M M"
_symmetry_group_IT_number 47
_symmetry_cell_setting 'orthorhombic'
loop_
_space_group_symop_operation_xyz
x,y,z
-x,-y,z
x,-y,-z
-x,y,-z
-x,-y,-z
x,y,-z
-x,y,z
x,-y,z
loop_
_atom_site_type_symbol
_atom_site_label
_atom_site_fract_x
_atom_site_fract_y
_atom_site_fract_z
Si Si1 0.294085 0.658574 0.078273
Si Si2 0.048612 0.839432 0.078321
Si Si3 0.447744 0.839423 0.427073
Si Si4 0.447658 0.338959 0.694717
Si Si5 0.448218 0.165262 0.178525
Si Si6 0.786845 0.839135 0.078586
Si Si7 0.869961 0.338891 0.078601
Si Si8 0.607415 0.334195 0.076856
O O1 0.283267 0.500000 0.105506
O O2 0.258030 0.768781 0.106244
O O3 0.343033 0.704900 0.099830
O O4 0.292022 0.654052 0.000000
O O5 0.085525 0.733037 0.106808
O O6 0.000000 0.789361 0.101749
O O7 0.058207 0.000000 0.103817
O O8 0.050563 0.838845 0.000000
O O9 0.432293 0.789276 0.500000
O O10 0.500000 0.839217 0.423789
O O11 0.428536 0.732569 0.371973
O O12 0.430654 0.000000 0.412811
O O13 0.500000 0.339539 0.692724
O O14 0.429207 0.500000 0.700026
O O15 0.430980 0.247951 0.756911
O O16 0.500000 0.183737 0.169923
O O17 0.426028 0.232657 0.114585
O O18 0.434919 0.000000 0.185377
O O19 0.828259 0.749425 0.105234
O O20 0.790061 0.000000 0.106078
O O21 0.786718 0.839367 0.000000
O O22 0.867145 0.500000 0.105853
O O23 0.870261 0.338574 0.000000
O O24 0.597254 0.500000 0.092316
O O25 0.601160 0.302654 0.000000
#
# Coordination Sequence:
#
# PCOD8196412 Si02
#       8
#     8   8   8   8   8   8   8   8
#     4   8  14  25  38  49  60  71  82  99 127 162
#     4   8  13  20  27  33  43  60  80 101 123 144
#     4   8  13  21  33  49  69  90 107 122 141 163
#     4   9  16  25  37  51  66  84 105 126 144 163
#     4  10  20  31  41  52  66  83 101 121 144 170
#     4   9  15  21  30  43  56  68  81  97 119 149
#     4   9  15  20  26  36  49  64  81 100 120 143
#     4   9  18  31  44  55  65  77  93 115 144 177
#
# _framework density 11.077038
#
# number of rings (size 3 to 8) (size 9 to 14) (size 15 to 20)
#    0.000    3.250    0.000    3.000    0.000    6.750 
#    0.000    5.000    0.000    0.000    0.000    0.000 
#    0.000    0.000    0.000    0.000    0.000    0.000 
#
# Total GULP energy -793202.588708 kJ/mol
# GULP energy per Si atom -12393.790449 kJ/mol
# Density = 1.105183 g / cm^3
# Si number density = 11.077038 Si / 1000 Ang^3
#
#
#
# Elastic Constant Matrix: (Units=GPa)
#
#
# Indices 1 2 3 4 5 6 
#
# 1 44.9855 40.7552 20.0788 0.0000 0.0000 0.0000
# 2 40.7552 98.9522 33.2875 0.0000 0.0000 0.0000
# 3 20.0788 33.2875 36.9041 0.0000 0.0000 0.0000
# 4 0.0000 0.0000 0.0000 13.3038 0.0000 0.0000
# 5 0.0000 0.0000 0.0000 0.0000 0.0850 0.0000
# 6 0.0000 0.0000 0.0000 0.0000 0.0000 19.3324
#
#
#
# Elastic Compliance Matrix: (Units=1/GPa)
#
#
# Indices 1 2 3 4 5 6 
#
# 1 0.037563 -0.012340 -0.009306 0.000000 0.000000 0.000000
# 2 -0.012340 0.018562 -0.010029 0.000000 0.000000 0.000000
# 3 -0.009306 -0.010029 0.041207 0.000000 0.000000 0.000000
# 4 0.000000 0.000000 0.000000 0.075167 0.000000 0.000000
# 5 0.000000 0.000000 0.000000 0.000000 11.759024 0.000000
# 6 0.000000 0.000000 0.000000 0.000000 0.000000 0.051727
#
#
# Mechanical properties :
#
#
# Convention : Reuss Voigt Hill
#
# Bulk Modulus (GPa) = 29.42839 41.00940 35.21890
# Shear Modulus (GPa) = 0.41466 12.32560 6.37013
#
# Velocity S-wave (km/s) = 0.61250 3.33936 2.40067
# Velocity P-wave (km/s) = 5.20816 7.20908 6.28871
#
# Compressibility (1/GPa) = 0.03398079
#
# Stress axis : x y z
#
# Youngs Moduli (GPa) = 26.62186 53.87276 24.26786
#
# Poissons Ratio (x) = 0.66481 0.22584
# Poissons Ratio (y) = 0.32852 0.24338
# Poissons Ratio (z) = 0.24775 0.54029
#
# Static dielectric constant tensor:
#      x y z
#    x 2.330740 0.000000 0.000000 
#    y 0.000000 2.572210 0.000000 
#    z 0.000000 0.000000 2.027260 
# 
# 
# High freq. dielectric constant tensor:
#      x y z
#    x 1.397210 0.000000 0.000000 
#    y 0.000000 1.433870 0.000000 
#    z 0.000000 0.000000 1.357440 
# 
# From -- ./inp_files/31590.got.cif
#   From: 2010.03.12/outbox.cif.g09.slc.cpg/sg47_16_cif.got.tgz:31590.got - 2010.04.14 03:12:58.
