data_PCOD8196586
_publ_section_title
;
Structure prediction by ZEFSAII (Michael W. Deem and Ramdas Pophale) SiO2 
 PCOD8196586
Probable space group: P M M M
;
_chemical_formula_sum "Si O2"
_cell_formula_units_Z 64
_cell_length_a 28.931725
_cell_length_b 9.137359
_cell_length_c 14.570472
_cell_angle_alpha 90.000000
_cell_angle_beta 90.000000
_cell_angle_gamma 90.000000
_cell_volume 3851.843535
_symmetry_space_group_name_H-M "P M M M"
_symmetry_group_IT_number 47
_symmetry_cell_setting 'orthorhombic'
loop_
_space_group_symop_operation_xyz
x,y,z
-x,-y,z
x,-y,-z
-x,y,-z
-x,-y,-z
x,y,-z
-x,y,z
x,-y,z
loop_
_atom_site_type_symbol
_atom_site_label
_atom_site_fract_x
_atom_site_fract_y
_atom_site_fract_z
Si Si1 0.869162 0.673900 0.601486
Si Si2 0.051183 0.670413 0.731719
Si Si3 0.548762 0.673375 0.102624
Si Si4 0.273682 0.825796 0.227240
Si Si5 0.191588 0.826252 0.899000
Si Si6 0.088373 0.829711 0.104879
Si Si7 0.234934 0.671458 0.606270
Si Si8 0.649416 0.671696 0.891336
O O1 0.878942 0.736350 0.500000
O O2 0.872190 0.500000 0.599026
O O3 0.908928 0.740060 0.667171
O O4 0.817503 0.720486 0.632099
O O5 0.060387 0.500000 0.744364
O O6 0.052954 0.743522 0.831401
O O7 0.000000 0.698915 0.689835
O O8 0.500000 0.724009 0.152631
O O9 0.549819 0.500000 0.098335
O O10 0.598051 0.721601 0.145103
O O11 0.547029 0.736445 0.000000
O O12 0.228027 0.768076 0.174760
O O13 0.270863 0.760199 0.329941
O O14 0.317030 0.766933 0.170939
O O15 0.276847 0.000000 0.232640
O O16 0.140244 0.771647 0.873753
O O17 0.191508 0.000000 0.902193
O O18 0.205563 0.766434 0.000000
O O19 0.084265 0.000000 0.127106
O O20 0.075016 0.797746 0.000000
O O21 0.245376 0.709132 0.500000
O O22 0.241823 0.500000 0.624097
O O23 0.658247 0.500000 0.873899
O O24 0.655470 0.706693 0.000000
#
# Coordination Sequence:
#
# PCOD8196586 Si02
#       8
#     8   8   8   8   8   8   8   8
#     4   8  15  30  51  71  89 110 137 169 207 255
#     4  10  20  31  45  68  93 112 132 165 210 255
#     4   7  10  19  37  59  82 113 156 200 232 254
#     4  11  20  28  43  66  93 122 147 178 223 271
#     4   8  15  28  44  62  84 111 144 178 210 247
#     4   9  18  33  50  63  78 108 149 183 208 242
#     4   9  18  33  51  67  84 110 145 184 222 260
#     4   9  17  28  42  63  93 127 161 194 225 260
#
# _framework density 16.61542
#
# number of rings (size 3 to 8) (size 9 to 14) (size 15 to 20)
#    0.000    3.125    0.000    4.125    0.000    2.000 
#    0.000    3.125    0.000    3.000    0.000    2.625 
#    0.000    0.500    0.000    5.750    0.000    1.875 
#
# Total GULP energy -792863.733056 kJ/mol
# GULP energy per Si atom -12388.495829 kJ/mol
# Density = 1.657760 g / cm^3
# Si number density = 16.615420 Si / 1000 Ang^3
#
#
#
# Elastic Constant Matrix: (Units=GPa)
#
#
# Indices 1 2 3 4 5 6 
#
# 1 98.1905 33.9684 54.8661 0.0000 0.0000 0.0000
# 2 33.9684 35.9425 33.4150 0.0000 0.0000 0.0000
# 3 54.8661 33.4150 83.5578 0.0000 0.0000 0.0000
# 4 0.0000 0.0000 0.0000 17.1745 0.0000 0.0000
# 5 0.0000 0.0000 0.0000 0.0000 15.9642 0.0000
# 6 0.0000 0.0000 0.0000 0.0000 0.0000 15.8279
#
#
#
# Elastic Compliance Matrix: (Units=1/GPa)
#
#
# Indices 1 2 3 4 5 6 
#
# 1 0.017935 -0.009553 -0.007956 0.000000 0.000000 0.000000
# 2 -0.009553 0.049376 -0.013473 0.000000 0.000000 0.000000
# 3 -0.007956 -0.013473 0.022580 0.000000 0.000000 0.000000
# 4 0.000000 0.000000 0.000000 0.058226 0.000000 0.000000
# 5 0.000000 0.000000 0.000000 0.000000 0.062640 0.000000
# 6 0.000000 0.000000 0.000000 0.000000 0.000000 0.063180
#
#
# Mechanical properties :
#
#
# Convention : Reuss Voigt Hill
#
# Bulk Modulus (GPa) = 35.80826 51.35443 43.58134
# Shear Modulus (GPa) = 14.48397 16.15606 15.32001
#
# Velocity S-wave (km/s) = 2.95569 3.12164 3.03980
# Velocity P-wave (km/s) = 5.76595 6.63081 6.21345
#
# Compressibility (1/GPa) = 0.02792652
#
# Stress axis : x y z
#
# Youngs Moduli (GPa) = 55.75761 20.25275 44.28743
#
# Poissons Ratio (x) = 0.19348 0.35236
# Poissons Ratio (y) = 0.53266 0.59668
# Poissons Ratio (z) = 0.44361 0.27286
#
# Static dielectric constant tensor:
#      x y z
#    x 3.438100 0.000000 0.000000 
#    y 0.000000 2.715330 0.000000 
#    z 0.000000 0.000000 3.047930 
# 
# 
# High freq. dielectric constant tensor:
#      x y z
#    x 1.639740 0.000000 0.000000 
#    y 0.000000 1.605080 0.000000 
#    z 0.000000 0.000000 1.618370 
# 
# From -- ./inp_files/25904.got.cif
#   From: 2010.03.12/outbox.cif.g09.slc.cpg/sg47_13_cif.got.tgz:25904.got - 2010.04.14 03:12:58.
