data_PCOD8196481
_publ_section_title
;
Structure prediction by ZEFSAII (Michael W. Deem and Ramdas Pophale) SiO2 
 PCOD8196481
Probable space group: P M M M
;
_chemical_formula_sum "Si O2"
_cell_formula_units_Z 64
_cell_length_a 14.679216
_cell_length_b 9.186217
_cell_length_c 28.569017
_cell_angle_alpha 90.000000
_cell_angle_beta 90.000000
_cell_angle_gamma 90.000000
_cell_volume 3852.430910
_symmetry_space_group_name_H-M "P M M M"
_symmetry_group_IT_number 47
_symmetry_cell_setting 'orthorhombic'
loop_
_space_group_symop_operation_xyz
x,y,z
-x,-y,z
x,-y,-z
-x,y,-z
-x,-y,-z
x,y,-z
-x,y,z
x,-y,z
loop_
_atom_site_type_symbol
_atom_site_label
_atom_site_fract_x
_atom_site_fract_y
_atom_site_fract_z
Si Si1 0.264185 0.329730 0.947782
Si Si2 0.893479 0.834700 0.199585
Si Si3 0.892075 0.662796 0.448598
Si Si4 0.786969 0.327910 0.723437
Si Si5 0.105990 0.171146 0.358060
Si Si6 0.102653 0.168597 0.907722
Si Si7 0.399103 0.327448 0.765356
Si Si8 0.601508 0.327137 0.869739
O O1 0.253071 0.500000 0.939524
O O2 0.165517 0.258964 0.942369
O O3 0.331850 0.260165 0.909079
O O4 0.301467 0.296946 0.000000
O O5 0.839317 0.717741 0.229818
O O6 0.869280 0.802752 0.145944
O O7 0.000000 0.813457 0.209197
O O8 0.865816 0.000000 0.213392
O O9 0.854986 0.711335 0.500000
O O10 0.856582 0.500000 0.436731
O O11 0.859405 0.774699 0.408856
O O12 0.000000 0.661671 0.450271
O O13 0.797150 0.500000 0.716313
O O14 0.829889 0.246668 0.679569
O O15 0.680393 0.280638 0.729149
O O16 0.000000 0.212994 0.349189
O O17 0.120117 0.000000 0.355129
O O18 0.000000 0.221834 0.916211
O O19 0.112259 0.000000 0.919976
O O20 0.500000 0.269379 0.749709
O O21 0.403113 0.500000 0.768217
O O22 0.374451 0.268866 0.817546
O O23 0.500000 0.276334 0.882926
O O24 0.608280 0.500000 0.870873
#
# Coordination Sequence:
#
# PCOD8196481 Si02
#       8
#     8   8   8   8   8   8   8   8
#     4  10  20  31  45  69  95 113 135 173 217 256
#     4   9  18  32  47  63  86 115 145 178 217 260
#     4   8  14  26  44  64  87 118 158 203 242 270
#     4  11  20  28  44  68  92 119 149 183 224 267
#     4  10  20  31  42  60  92 132 166 194 225 263
#     4   9  19  35  51  64  81 112 151 182 210 253
#     4   8  15  28  45  65  87 111 142 180 221 265
#     4   8  14  27  47  68  90 114 138 168 211 265
#
# _framework density 16.612887000000001
#
# number of rings (size 3 to 8) (size 9 to 14) (size 15 to 20)
#    0.000    2.875    0.000    3.750    0.000    5.250 
#    0.000    5.000    0.000    1.875    0.000    6.125 
#    0.000    0.500    0.000    5.750    0.000    1.875 
#
# Total GULP energy -793210.789511 kJ/mol
# GULP energy per Si atom -12393.918586 kJ/mol
# Density = 1.657508 g / cm^3
# Si number density = 16.612887 Si / 1000 Ang^3
#
#
#
# Elastic Constant Matrix: (Units=GPa)
#
#
# Indices 1 2 3 4 5 6 
#
# 1 87.6507 34.4063 61.2300 0.0000 0.0000 0.0000
# 2 34.4063 48.3335 42.1113 0.0000 0.0000 0.0000
# 3 61.2300 42.1113 96.5124 0.0000 0.0000 0.0000
# 4 0.0000 0.0000 0.0000 24.7182 0.0000 0.0000
# 5 0.0000 0.0000 0.0000 0.0000 15.9968 0.0000
# 6 0.0000 0.0000 0.0000 0.0000 0.0000 6.0051
#
#
#
# Elastic Compliance Matrix: (Units=1/GPa)
#
#
# Indices 1 2 3 4 5 6 
#
# 1 0.021353 -0.005481 -0.011156 0.000000 0.000000 0.000000
# 2 -0.005481 0.034786 -0.011701 0.000000 0.000000 0.000000
# 3 -0.011156 -0.011701 0.022544 0.000000 0.000000 0.000000
# 4 0.000000 0.000000 0.000000 0.040456 0.000000 0.000000
# 5 0.000000 0.000000 0.000000 0.000000 0.062512 0.000000
# 6 0.000000 0.000000 0.000000 0.000000 0.000000 0.166525
#
#
# Mechanical properties :
#
#
# Convention : Reuss Voigt Hill
#
# Bulk Modulus (GPa) = 45.43693 56.44353 50.94023
# Shear Modulus (GPa) = 12.13041 15.66063 13.89552
#
# Velocity S-wave (km/s) = 2.70512 3.07364 2.89525
# Velocity P-wave (km/s) = 6.09645 6.82978 6.47350
#
# Compressibility (1/GPa) = 0.02200853
#
# Stress axis : x y z
#
# Youngs Moduli (GPa) = 46.83108 28.74739 44.35725
#
# Poissons Ratio (x) = 0.15756 0.49483
# Poissons Ratio (y) = 0.25668 0.51902
# Poissons Ratio (z) = 0.52243 0.33637
#
# Static dielectric constant tensor:
#      x y z
#    x 3.185900 0.000000 0.000000 
#    y 0.000000 2.906790 0.000000 
#    z 0.000000 0.000000 3.310440 
# 
# 
# High freq. dielectric constant tensor:
#      x y z
#    x 1.619920 0.000000 0.000000 
#    y 0.000000 1.618150 0.000000 
#    z 0.000000 0.000000 1.634310 
# 
# From -- ./inp_files/8295.got.cif
#   From: 2010.03.12/outbox.cif.g09.slc.cpg/sg47_5_cif.got.tgz:8295.got - 2010.04.14 03:12:58.
