data_PCOD8196591
_publ_section_title
;
Structure prediction by ZEFSAII (Michael W. Deem and Ramdas Pophale) SiO2 
 PCOD8196591
Probable space group: P M M M
;
_chemical_formula_sum "Si O2"
_cell_formula_units_Z 64
_cell_length_a 20.988303
_cell_length_b 9.355362
_cell_length_c 17.820102
_cell_angle_alpha 90.000000
_cell_angle_beta 90.000000
_cell_angle_gamma 90.000000
_cell_volume 3499.033559
_symmetry_space_group_name_H-M "P M M M"
_symmetry_group_IT_number 47
_symmetry_cell_setting 'orthorhombic'
loop_
_space_group_symop_operation_xyz
x,y,z
-x,-y,z
x,-y,-z
-x,y,-z
-x,-y,-z
x,y,-z
-x,y,z
x,-y,z
loop_
_atom_site_type_symbol
_atom_site_label
_atom_site_fract_x
_atom_site_fract_y
_atom_site_fract_z
Si Si1 0.191205 0.335043 0.652594
Si Si2 0.309654 0.162392 0.410813
Si Si3 0.812061 0.663094 0.169775
Si Si4 0.930029 0.159877 0.171464
Si Si5 0.429280 0.660946 0.589188
Si Si6 0.070602 0.839182 0.650226
Si Si7 0.566973 0.169461 0.083806
Si Si8 0.704012 0.164029 0.089363
O O1 0.193746 0.500000 0.627640
O O2 0.250032 0.251780 0.617675
O O3 0.194877 0.318227 0.741597
O O4 0.125305 0.267705 0.620440
O O5 0.309440 0.165055 0.500000
O O6 0.375050 0.232769 0.379127
O O7 0.305707 0.000000 0.380545
O O8 0.814007 0.500000 0.145077
O O9 0.877085 0.733770 0.139125
O O10 0.753279 0.735774 0.129953
O O11 0.929356 0.162503 0.260659
O O12 0.000000 0.208093 0.142662
O O13 0.914786 0.000000 0.142801
O O14 0.427674 0.662599 0.500000
O O15 0.500000 0.710018 0.616587
O O16 0.415139 0.500000 0.617927
O O17 0.000000 0.791139 0.621537
O O18 0.085380 0.000000 0.621479
O O19 0.500000 0.217403 0.125124
O O20 0.634169 0.216666 0.120548
O O21 0.569461 0.000000 0.078760
O O22 0.564545 0.232531 0.000000
O O23 0.717532 0.000000 0.111888
O O24 0.707743 0.182430 0.000000
#
# Coordination Sequence:
#
# PCOD8196591 Si02
#       8
#     8   8   8   8   8   8   8   8
#     4  10  20  32  47  68  94 125 159 191 226 274
#     4  10  20  32  48  71  96 122 154 194 238 278
#     4  10  20  31  45  68  96 125 155 187 226 271
#     4   8  14  26  45  67  89 115 149 188 228 269
#     4   8  14  26  45  68  93 121 152 186 227 276
#     4   8  14  26  45  68  92 117 147 186 231 274
#     4   7  10  19  38  64  89 110 139 183 227 263
#     4   9  17  29  47  70  93 120 154 189 228 275
#
# _framework density 18.290765
#
# number of rings (size 3 to 8) (size 9 to 14) (size 15 to 20)
#    0.000    3.250    0.000    3.375    0.000    3.250 
#    0.000    3.750    0.000    1.875    0.000   10.500 
#    0.000    0.000    0.000    0.000    0.000    0.000 
#
# Total GULP energy -792849.332276 kJ/mol
# GULP energy per Si atom -12388.270817 kJ/mol
# Density = 1.824913 g / cm^3
# Si number density = 18.290765 Si / 1000 Ang^3
#
#
#
# Elastic Constant Matrix: (Units=GPa)
#
#
# Indices 1 2 3 4 5 6 
#
# 1 204.7445 104.6859 20.1208 0.0000 0.0000 0.0000
# 2 104.6859 130.7022 18.6344 0.0000 0.0000 0.0000
# 3 20.1208 18.6344 9.2968 0.0000 0.0000 0.0000
# 4 0.0000 0.0000 0.0000 18.0739 0.0000 0.0000
# 5 0.0000 0.0000 0.0000 0.0000 23.1875 0.0000
# 6 0.0000 0.0000 0.0000 0.0000 0.0000 22.7484
#
#
#
# Elastic Compliance Matrix: (Units=1/GPa)
#
#
# Indices 1 2 3 4 5 6 
#
# 1 0.008559 -0.005901 -0.006697 0.000000 0.000000 0.000000
# 2 -0.005901 0.014780 -0.016854 0.000000 0.000000 0.000000
# 3 -0.006697 -0.016854 0.155842 0.000000 0.000000 0.000000
# 4 0.000000 0.000000 0.000000 0.055328 0.000000 0.000000
# 5 0.000000 0.000000 0.000000 0.000000 0.043127 0.000000
# 6 0.000000 0.000000 0.000000 0.000000 0.000000 0.043959
#
#
# Mechanical properties :
#
#
# Convention : Reuss Voigt Hill
#
# Bulk Modulus (GPa) = 8.31418 70.18062 39.24740
# Shear Modulus (GPa) = 11.88798 26.22211 19.05505
#
# Velocity S-wave (km/s) = 2.55217 3.79043 3.23117
# Velocity P-wave (km/s) = 3.63870 7.59007 5.95187
#
# Compressibility (1/GPa) = 0.12027646
#
# Stress axis : x y z
#
# Youngs Moduli (GPa) = 116.83094 67.65843 6.41676
#
# Poissons Ratio (x) = 0.39924 0.04298
# Poissons Ratio (y) = 0.68939 0.10815
# Poissons Ratio (z) = 0.78247 1.14033
#
# Static dielectric constant tensor:
#      x y z
#    x 4.039600 0.000000 0.000000 
#    y 0.000000 3.410860 0.000000 
#    z 0.000000 0.000000 2.772240 
# 
# 
# High freq. dielectric constant tensor:
#      x y z
#    x 1.737570 0.000000 0.000000 
#    y 0.000000 1.696610 0.000000 
#    z 0.000000 0.000000 1.642020 
# 
# From -- ./inp_files/31501.got.cif
#   From: 2010.03.12/outbox.cif.g09.slc.cpg/sg47_16_cif.got.tgz:31501.got - 2010.04.14 03:12:58.
