data_PCOD8196965
_publ_section_title
;
Structure prediction by ZEFSAII (Michael W. Deem and Ramdas Pophale) SiO2 
 PCOD8196965
Probable space group: P M M M
;
_chemical_formula_sum "Si O2"
_cell_formula_units_Z 52
_cell_length_a 9.379653
_cell_length_b 33.986599
_cell_length_c 9.153901
_cell_angle_alpha 90.000000
_cell_angle_beta 90.000000
_cell_angle_gamma 90.000000
_cell_volume 2918.103494
_symmetry_space_group_name_H-M "P M M M"
_symmetry_group_IT_number 47
_symmetry_cell_setting 'orthorhombic'
loop_
_space_group_symop_operation_xyz
x,y,z
-x,-y,z
x,-y,-z
-x,y,-z
-x,-y,-z
x,y,-z
-x,y,z
x,-y,z
loop_
_atom_site_type_symbol
_atom_site_label
_atom_site_fract_x
_atom_site_fract_y
_atom_site_fract_z
Si Si1 0.668348 0.145906 0.168398
Si Si2 0.169223 0.000000 0.835074
Si Si3 0.840149 0.543974 0.827505
Si Si4 0.330152 0.390967 0.334663
Si Si5 0.670045 0.222196 0.663716
Si Si6 0.833113 0.077668 0.670800
Si Si7 0.343901 0.306419 0.673357
O O1 0.500000 0.140683 0.190425
O O2 0.720230 0.188610 0.224485
O O3 0.747426 0.113920 0.264809
O O4 0.712787 0.141438 0.000000
O O5 0.224117 0.961538 0.750320
O O6 0.000000 0.000000 0.837161
O O7 0.230700 0.000000 0.000000
O O8 0.798039 0.500000 0.774999
O O9 0.729658 0.574929 0.765319
O O10 0.000000 0.553970 0.773666
O O11 0.832509 0.546201 0.000000
O O12 0.281583 0.399404 0.500000
O O13 0.500000 0.390484 0.322508
O O14 0.268716 0.347857 0.281662
O O15 0.724276 0.211684 0.500000
O O16 0.500000 0.225711 0.661857
O O17 0.733949 0.264989 0.716066
O O18 0.800698 0.073469 0.500000
O O19 0.000000 0.084273 0.700681
O O20 0.361146 0.306838 0.500000
O O21 0.500000 0.306163 0.746884
#
# Coordination Sequence:
#
# PCOD8196965 Si02
#       7
#     8   4   8   8   8   8   8
#     4  10  20  32  47  71 102 131 159 195 239 282
#     4   9  17  31  52  75  98 125 156 192 238 289
#     4   9  19  35  50  63  85 121 161 195 228 272
#     4   9  17  29  47  73 100 120 144 186 236 280
#     4   8  13  24  44  66  89 122 160 192 224 268
#     4  10  20  34  53  75  97 124 161 201 237 278
#     4   7  11  22  41  65  92 120 149 183 225 272
#
# _framework density 17.819793000000001
#
# number of rings (size 3 to 8) (size 9 to 14) (size 15 to 20)
#    0.000    3.154    0.000    3.462    0.000    4.000 
#    0.000    3.462    0.000    6.000    0.000    2.154 
#    0.000    0.000    0.000    0.000    0.000    0.000 
#
# Total GULP energy -644243.954722 kJ/mol
# GULP energy per Si atom -12389.306822 kJ/mol
# Density = 1.777923 g / cm^3
# Si number density = 17.819793 Si / 1000 Ang^3
#
#
#
# Elastic Constant Matrix: (Units=GPa)
#
#
# Indices 1 2 3 4 5 6 
#
# 1 23.7351 35.5799 22.7048 0.0000 0.0000 0.0000
# 2 35.5799 169.4165 58.5875 0.0000 0.0000 0.0000
# 3 22.7048 58.5875 78.6651 0.0000 0.0000 0.0000
# 4 0.0000 0.0000 0.0000 5.5815 0.0000 0.0000
# 5 0.0000 0.0000 0.0000 0.0000 20.0552 0.0000
# 6 0.0000 0.0000 0.0000 0.0000 0.0000 -37.9327
#
#
#
# Elastic Compliance Matrix: (Units=1/GPa)
#
#
# Indices 1 2 3 4 5 6 
#
# 1 0.069393 -0.010300 -0.012357 0.000000 0.000000 0.000000
# 2 -0.010300 0.009479 -0.004087 0.000000 0.000000 0.000000
# 3 -0.012357 -0.004087 0.019323 0.000000 0.000000 0.000000
# 4 0.000000 0.000000 0.000000 0.179162 0.000000 0.000000
# 5 0.000000 0.000000 0.000000 0.000000 0.049862 0.000000
# 6 0.000000 0.000000 0.000000 0.000000 0.000000 -0.026362
#
#
# Mechanical properties :
#
#
# Convention : Reuss Voigt Hill
#
# Bulk Modulus (GPa) = 22.36845 56.17347 39.27096
# Shear Modulus (GPa) = 13.54105 7.87042 10.70574
#
# Velocity S-wave (km/s) = 2.75960 2.10387 2.45374
# Velocity P-wave (km/s) = 4.76798 6.12317 5.48757
#
# Compressibility (1/GPa) = 0.04470583
#
# Stress axis : x y z
#
# Youngs Moduli (GPa) = 14.41070 105.49522 51.75288
#
# Poissons Ratio (x) = 1.08661 0.63953
# Poissons Ratio (y) = 0.14843 0.21151
# Poissons Ratio (z) = 0.17808 0.43115
#
# Static dielectric constant tensor:
#      x y z
#    x 2.843850 0.000000 0.000000 
#    y 0.000000 3.806000 0.000000 
#    z 0.000000 0.000000 3.197120 
# 
# 
# High freq. dielectric constant tensor:
#      x y z
#    x 1.634860 0.000000 0.000000 
#    y 0.000000 1.716120 0.000000 
#    z 0.000000 0.000000 1.674960 
# 
# From -- ./inp_files/4560.got.cif
#   From: 2010.03.12/outbox.cif.g09.slc.cpg/sg47_3_cif.got.tgz:4560.got - 2010.04.14 03:12:58.
