data_PCOD8196066
_publ_section_title
;
Structure prediction by ZEFSAII (Michael W. Deem and Ramdas Pophale) SiO2 
 PCOD8196066
Probable space group: P M M M
;
_chemical_formula_sum "Si O2"
_cell_formula_units_Z 48
_cell_length_a 9.047206
_cell_length_b 9.668916
_cell_length_c 29.720908
_cell_angle_alpha 90.000000
_cell_angle_beta 90.000000
_cell_angle_gamma 90.000000
_cell_volume 2599.886205
_symmetry_space_group_name_H-M "P M M M"
_symmetry_group_IT_number 47
_symmetry_cell_setting 'orthorhombic'
loop_
_space_group_symop_operation_xyz
x,y,z
-x,-y,z
x,-y,-z
-x,y,-z
-x,-y,-z
x,y,-z
-x,y,z
x,-y,z
loop_
_atom_site_type_symbol
_atom_site_label
_atom_site_fract_x
_atom_site_fract_y
_atom_site_fract_z
Si Si1 0.324404 0.338959 0.799300
Si Si2 0.175011 0.000000 0.050848
Si Si3 0.825136 0.500000 0.950729
Si Si4 0.666185 0.335827 0.549021
Si Si5 0.175171 0.253770 0.109999
Si Si6 0.174174 0.162434 0.721836
Si Si7 0.173398 0.656902 0.636913
O O1 0.500000 0.329974 0.799605
O O2 0.272705 0.500000 0.795461
O O3 0.260787 0.266675 0.843553
O O4 0.262264 0.247167 0.759067
O O5 0.229480 0.124822 0.081324
O O6 0.000000 0.000000 0.045415
O O7 0.243296 0.000000 0.000000
O O8 0.769650 0.372184 0.922638
O O9 0.000000 0.500000 0.956041
O O10 0.751246 0.500000 0.000000
O O11 0.724911 0.283181 0.500000
O O12 0.500000 0.281807 0.556386
O O13 0.669590 0.500000 0.549135
O O14 0.764852 0.281215 0.590124
O O15 0.000000 0.254321 0.120009
O O16 0.221030 0.234949 0.675211
O O17 0.000000 0.178105 0.730998
O O18 0.219355 0.000000 0.721368
O O19 0.232861 0.500000 0.647241
O O20 0.000000 0.650882 0.632027
#
# Coordination Sequence:
#
# PCOD8196066 Si02
#       7
#     8   4   4   8   8   8   8
#     4  11  24  40  57  79 109 142 178 221 269 322
#     4   9  18  32  53  83 113 139 173 217 260 305
#     4   9  16  28  51  81 107 135 175 219 260 301
#     4   8  14  25  43  70 104 140 177 217 260 307
#     4  10  19  33  55  81 109 140 174 216 262 309
#     4  10  22  39  59  81 106 138 178 224 274 328
#     4   9  17  30  50  77 106 135 170 217 269 318
#
# _framework density 18.462344999999999
#
# number of rings (size 3 to 8) (size 9 to 14) (size 15 to 20)
#    0.000    2.500    0.833    2.000    1.167    5.000 
#    0.000    3.333    0.000    3.500    0.000    3.500 
#    0.000    0.000    0.000    0.000    0.000    0.000 
#
# Total GULP energy -594803.902277 kJ/mol
# GULP energy per Si atom -12391.747964 kJ/mol
# Density = 1.842032 g / cm^3
# Si number density = 18.462345 Si / 1000 Ang^3
#
#
#
# Elastic Constant Matrix: (Units=GPa)
#
#
# Indices 1 2 3 4 5 6 
#
# 1 37.3121 34.9392 53.4637 0.0000 0.0000 0.0000
# 2 34.9392 133.3011 83.9755 0.0000 0.0000 0.0000
# 3 53.4637 83.9755 195.8677 0.0000 0.0000 0.0000
# 4 0.0000 0.0000 0.0000 19.0917 0.0000 0.0000
# 5 0.0000 0.0000 0.0000 0.0000 -16.1344 0.0000
# 6 0.0000 0.0000 0.0000 0.0000 0.0000 17.9551
#
#
#
# Elastic Compliance Matrix: (Units=1/GPa)
#
#
# Indices 1 2 3 4 5 6 
#
# 1 0.047093 -0.005817 -0.010361 0.000000 0.000000 0.000000
# 2 -0.005817 0.010996 -0.003127 0.000000 0.000000 0.000000
# 3 -0.010361 -0.003127 0.009274 0.000000 0.000000 0.000000
# 4 0.000000 0.000000 0.000000 0.052379 0.000000 0.000000
# 5 0.000000 0.000000 0.000000 0.000000 -0.061979 0.000000
# 6 0.000000 0.000000 0.000000 0.000000 0.000000 0.055694
#
#
# Mechanical properties :
#
#
# Convention : Reuss Voigt Hill
#
# Bulk Modulus (GPa) = 34.77614 79.02641 56.90127
# Shear Modulus (GPa) = 30.93095 17.12265 24.02680
#
# Velocity S-wave (km/s) = 4.09755 3.04869 3.61140
# Velocity P-wave (km/s) = 6.42368 7.43570 6.94814
#
# Compressibility (1/GPa) = 0.02875535
#
# Stress axis : x y z
#
# Youngs Moduli (GPa) = 21.23451 90.94106 107.82741
#
# Poissons Ratio (x) = 0.52896 1.11717
# Poissons Ratio (y) = 0.12351 0.33715
# Poissons Ratio (z) = 0.22000 0.28435
#
# Static dielectric constant tensor:
#      x y z
#    x 3.142160 0.000000 0.000000 
#    y 0.000000 3.534460 0.000000 
#    z 0.000000 0.000000 3.960080 
# 
# 
# High freq. dielectric constant tensor:
#      x y z
#    x 1.685740 0.000000 0.000000 
#    y 0.000000 1.704480 0.000000 
#    z 0.000000 0.000000 1.736880 
# 
# From -- ./inp_files/34140.got.cif
#   From: 2010.03.12/outbox.cif.g09.slc.cpg/sg47_18_cif.got.tgz:34140.got - 2010.04.14 03:12:58.
