data_PCOD8196899
_publ_section_title
;
Structure prediction by ZEFSAII (Michael W. Deem and Ramdas Pophale) SiO2 
 PCOD8196899
Probable space group: P M M M
;
_chemical_formula_sum "Si O2"
_cell_formula_units_Z 36
_cell_length_a 9.444979
_cell_length_b 9.300213
_cell_length_c 23.270655
_cell_angle_alpha 90.000000
_cell_angle_beta 90.000000
_cell_angle_gamma 90.000000
_cell_volume 2044.101700
_symmetry_space_group_name_H-M "P M M M"
_symmetry_group_IT_number 47
_symmetry_cell_setting 'orthorhombic'
loop_
_space_group_symop_operation_xyz
x,y,z
-x,-y,z
x,-y,-z
-x,y,-z
-x,-y,-z
x,y,-z
-x,y,z
x,-y,z
loop_
_atom_site_type_symbol
_atom_site_label
_atom_site_fract_x
_atom_site_fract_y
_atom_site_fract_z
Si Si1 0.833855 0.166474 0.841791
Si Si2 0.168614 0.337988 0.269065
Si Si3 0.336536 0.663756 0.933388
Si Si4 0.844900 0.170714 0.500000
Si Si5 0.830333 0.838082 0.376765
O O1 0.776155 0.249898 0.785855
O O2 0.758174 0.226412 0.897989
O O3 0.000000 0.191039 0.849863
O O4 0.796324 0.000000 0.833923
O O5 0.226951 0.500000 0.265155
O O6 0.229155 0.265740 0.327150
O O7 0.000000 0.335097 0.270566
O O8 0.500000 0.690101 0.918284
O O9 0.293859 0.500000 0.918370
O O10 0.307926 0.695141 0.000000
O O11 0.769045 0.214254 0.560495
O O12 0.000000 0.242924 0.500000
O O13 0.861558 0.000000 0.500000
O O14 0.000000 0.834454 0.379304
O O15 0.779414 0.000000 0.362814
#
# Coordination Sequence:
#
# PCOD8196899 Si02
#       5
#     8   8   8   4   8
#     4  10  20  32  47  69  95 122 154 191 228 267
#     4   9  16  25  37  54  78 109 144 182 225 269
#     4   9  19  36  55  73  94 121 151 182 221 271
#     4   7  10  16  27  43  63  93 134 175 214 259
#     4   8  12  19  31  46  67  98 137 178 218 262
#
# _framework density 17.611647000000001
#
# number of rings (size 3 to 8) (size 9 to 14) (size 15 to 20)
#    0.000    3.222    0.000    3.333    0.000    5.333 
#    0.000    3.889    0.000    3.333    0.000    0.000 
#    0.000    0.000    0.000    1.000    0.000   20.444 
#
# Total GULP energy -446117.691082 kJ/mol
# GULP energy per Si atom -12392.158086 kJ/mol
# Density = 1.757156 g / cm^3
# Si number density = 17.611647 Si / 1000 Ang^3
#
#
#
# Elastic Constant Matrix: (Units=GPa)
#
#
# Indices 1 2 3 4 5 6 
#
# 1 17.8543 29.5413 31.8084 0.0000 0.0000 0.0000
# 2 29.5413 129.9842 87.1918 0.0000 0.0000 0.0000
# 3 31.8084 87.1918 147.9491 0.0000 0.0000 0.0000
# 4 0.0000 0.0000 0.0000 29.4894 0.0000 0.0000
# 5 0.0000 0.0000 0.0000 0.0000 -0.7747 0.0000
# 6 0.0000 0.0000 0.0000 0.0000 0.0000 15.7445
#
#
#
# Elastic Compliance Matrix: (Units=1/GPa)
#
#
# Indices 1 2 3 4 5 6 
#
# 1 0.104900 -0.014408 -0.014062 0.000000 0.000000 0.000000
# 2 -0.014408 0.014702 -0.005567 0.000000 0.000000 0.000000
# 3 -0.014062 -0.005567 0.013063 0.000000 0.000000 0.000000
# 4 0.000000 0.000000 0.000000 0.033910 0.000000 0.000000
# 5 0.000000 0.000000 0.000000 0.000000 -1.290835 0.000000
# 6 0.000000 0.000000 0.000000 0.000000 0.000000 0.063514
#
#
# Mechanical properties :
#
#
# Convention : Reuss Voigt Hill
#
# Bulk Modulus (GPa) = 15.48188 65.87450 40.67819
# Shear Modulus (GPa) = -5.14857 18.70825 6.77984
#
# Velocity S-wave (km/s) = -1.71165 3.26278 1.96418
# Velocity P-wave (km/s) = 2.21438 7.18884 5.31897
#
# Compressibility (1/GPa) = 0.06459163
#
# Stress axis : x y z
#
# Youngs Moduli (GPa) = 9.53292 68.01924 76.55235
#
# Poissons Ratio (x) = 0.98001 1.07647
# Poissons Ratio (y) = 0.13735 0.42614
# Poissons Ratio (z) = 0.13405 0.37864
#
# Static dielectric constant tensor:
#      x y z
#    x 2.590970 0.000000 0.000000 
#    y 0.000000 3.259150 0.000000 
#    z 0.000000 0.000000 3.634280 
# 
# 
# High freq. dielectric constant tensor:
#      x y z
#    x 1.604160 0.000000 0.000000 
#    y 0.000000 1.674310 0.000000 
#    z 0.000000 0.000000 1.704180 
# 
# From -- ./inp_files/3929.got.cif
#   From: 2010.03.12/outbox.cif.g09.slc.cpg/sg47_2_cif.got.tgz:3929.got - 2010.04.14 03:12:58.
