data_PCOD8196405
_publ_section_title
;
Structure prediction by ZEFSAII (Michael W. Deem and Ramdas Pophale) SiO2 
 PCOD8196405
Probable space group: P M M M
;
_chemical_formula_sum "Si O2"
_cell_formula_units_Z 64
_cell_length_a 15.470537
_cell_length_b 30.097652
_cell_length_c 9.282771
_cell_angle_alpha 90.000000
_cell_angle_beta 90.000000
_cell_angle_gamma 90.000000
_cell_volume 4322.307317
_symmetry_space_group_name_H-M "P M M M"
_symmetry_group_IT_number 47
_symmetry_cell_setting 'orthorhombic'
loop_
_space_group_symop_operation_xyz
x,y,z
-x,-y,z
x,-y,-z
-x,y,-z
-x,-y,-z
x,y,-z
-x,y,z
x,-y,z
loop_
_atom_site_type_symbol
_atom_site_label
_atom_site_fract_x
_atom_site_fract_y
_atom_site_fract_z
Si Si1 0.242254 0.385773 0.667415
Si Si2 0.592270 0.711221 0.336866
Si Si3 0.899494 0.218383 0.168370
Si Si4 0.897167 0.131706 0.338358
Si Si5 0.095821 0.450333 0.328869
Si Si6 0.594674 0.377746 0.166918
Si Si7 0.221417 0.281583 0.336387
Si Si8 0.102799 0.049097 0.161790
O O1 0.254741 0.395692 0.500000
O O2 0.163392 0.414463 0.732841
O O3 0.329524 0.402659 0.746395
O O4 0.223588 0.334022 0.696870
O O5 0.599545 0.691251 0.500000
O O6 0.500000 0.738220 0.323173
O O7 0.589258 0.672444 0.221644
O O8 0.681150 0.738897 0.311107
O O9 0.866116 0.174035 0.247280
O O10 0.845636 0.259855 0.227122
O O11 0.000000 0.227391 0.201091
O O12 0.882406 0.212376 0.000000
O O13 0.860336 0.135590 0.500000
O O14 0.858793 0.086830 0.266767
O O15 0.000000 0.129508 0.339522
O O16 0.094134 0.447793 0.500000
O O17 0.122609 0.500000 0.279281
O O18 0.000000 0.438784 0.269448
O O19 0.500000 0.400431 0.190816
O O20 0.619608 0.377155 0.000000
O O21 0.190335 0.272579 0.500000
O O22 0.000000 0.051678 0.161572
O O23 0.132443 0.000000 0.214829
O O24 0.136926 0.057787 0.000000
#
# Coordination Sequence:
#
# PCOD8196405 Si02
#       8
#     8   8   8   8   8   8   8   8
#     4   9  17  28  44  65  84 103 127 157 194 232
#     4   8  14  26  43  61  81 103 126 155 193 235
#     4  10  20  31  40  50  70 104 141 171 199 233
#     4   9  16  25  37  51  67  91 126 167 206 240
#     4   8  14  26  45  67  86 102 125 160 199 237
#     4   9  16  25  39  60  84 108 131 154 183 221
#     4   9  17  27  40  60  82 102 127 159 193 230
#     4   8  13  21  33  49  69  92 119 155 199 243
#
# _framework density 14.806906
#
# number of rings (size 3 to 8) (size 9 to 14) (size 15 to 20)
#    0.000    3.250    0.000    2.625    0.000    5.750 
#    0.000    2.500    0.000    1.125    0.000    3.500 
#    0.000    0.000    0.000    0.000    0.000    0.625 
#
# Total GULP energy -792851.580911 kJ/mol
# GULP energy per Si atom -12388.305952 kJ/mol
# Density = 1.477321 g / cm^3
# Si number density = 14.806906 Si / 1000 Ang^3
#
#
#
# Elastic Constant Matrix: (Units=GPa)
#
#
# Indices 1 2 3 4 5 6 
#
# 1 87.2989 46.1488 44.7415 0.0000 0.0000 0.0000
# 2 46.1488 65.8096 38.5891 0.0000 0.0000 0.0000
# 3 44.7415 38.5891 74.2629 0.0000 0.0000 0.0000
# 4 0.0000 0.0000 0.0000 12.4636 0.0000 0.0000
# 5 0.0000 0.0000 0.0000 0.0000 18.2326 0.0000
# 6 0.0000 0.0000 0.0000 0.0000 0.0000 1.3348
#
#
#
# Elastic Compliance Matrix: (Units=1/GPa)
#
#
# Indices 1 2 3 4 5 6 
#
# 1 0.020457 -0.010238 -0.007005 0.000000 0.000000 0.000000
# 2 -0.010238 0.026978 -0.007850 0.000000 0.000000 0.000000
# 3 -0.007005 -0.007850 0.021765 0.000000 0.000000 0.000000
# 4 0.000000 0.000000 0.000000 0.080234 0.000000 0.000000
# 5 0.000000 0.000000 0.000000 0.000000 0.054847 0.000000
# 6 0.000000 0.000000 0.000000 0.000000 0.000000 0.749150
#
#
# Mechanical properties :
#
#
# Convention : Reuss Voigt Hill
#
# Bulk Modulus (GPa) = 52.59363 54.03670 53.31517
# Shear Modulus (GPa) = 4.95071 12.93234 8.94153
#
# Velocity S-wave (km/s) = 1.83051 2.95854 2.46005
# Velocity P-wave (km/s) = 6.32965 6.94580 6.64487
#
# Compressibility (1/GPa) = 0.01901371
#
# Stress axis : x y z
#
# Youngs Moduli (GPa) = 48.88277 37.06724 45.94473
#
# Poissons Ratio (x) = 0.37949 0.32184
# Poissons Ratio (y) = 0.50046 0.36069
# Poissons Ratio (z) = 0.34242 0.29099
#
# Static dielectric constant tensor:
#      x y z
#    x 3.020240 0.000000 0.000000 
#    y 0.000000 2.736720 0.000000 
#    z 0.000000 0.000000 2.852100 
# 
# 
# High freq. dielectric constant tensor:
#      x y z
#    x 1.544180 0.000000 0.000000 
#    y 0.000000 1.533240 0.000000 
#    z 0.000000 0.000000 1.563710 
# 
# From -- ./inp_files/8304.got.cif
#   From: 2010.03.12/outbox.cif.g09.slc.cpg/sg47_5_cif.got.tgz:8304.got - 2010.04.14 03:12:58.
