data_PCOD8196871
_publ_section_title
;
Structure prediction by ZEFSAII (Michael W. Deem and Ramdas Pophale) SiO2 
 PCOD8196871
Probable space group: P M M M
;
_chemical_formula_sum "Si O2"
_cell_formula_units_Z 52
_cell_length_a 18.619695
_cell_length_b 18.775007
_cell_length_c 9.074479
_cell_angle_alpha 90.000000
_cell_angle_beta 90.000000
_cell_angle_gamma 90.000000
_cell_volume 3172.300870
_symmetry_space_group_name_H-M "P M M M"
_symmetry_group_IT_number 47
_symmetry_cell_setting 'orthorhombic'
loop_
_space_group_symop_operation_xyz
x,y,z
-x,-y,z
x,-y,-z
-x,y,-z
-x,-y,-z
x,y,-z
-x,y,z
x,-y,z
loop_
_atom_site_type_symbol
_atom_site_label
_atom_site_fract_x
_atom_site_fract_y
_atom_site_fract_z
Si Si1 0.580394 0.344512 0.172224
Si Si2 0.419786 0.079516 0.825029
Si Si3 0.325622 0.208698 0.173142
Si Si4 0.083613 0.643336 0.172320
Si Si5 0.301541 0.420704 0.330002
Si Si6 0.205618 0.711679 0.673797
Si Si7 0.084755 0.500000 0.664987
O O1 0.500000 0.343284 0.236842
O O2 0.617088 0.269585 0.210973
O O3 0.624092 0.409109 0.244281
O O4 0.579247 0.358172 0.000000
O O5 0.500000 0.097251 0.764593
O O6 0.360651 0.135379 0.766543
O O7 0.397047 0.000000 0.774709
O O8 0.422426 0.084787 0.000000
O O9 0.251669 0.222688 0.261235
O O10 0.307876 0.205625 0.000000
O O11 0.127845 0.708103 0.247290
O O12 0.109308 0.569881 0.247572
O O13 0.000000 0.658563 0.201048
O O14 0.100874 0.638434 0.000000
O O15 0.319889 0.410960 0.500000
O O16 0.271645 0.500000 0.295369
O O17 0.243335 0.362613 0.280856
O O18 0.195891 0.721819 0.500000
O O19 0.119664 0.500000 0.500000
O O20 0.000000 0.500000 0.650072
#
# Coordination Sequence:
#
# PCOD8196871 Si02
#       7
#     8   8   8   8   8   8   4
#     4   9  17  28  42  60  80 105 140 180 222 265
#     4   8  13  22  41  71 100 124 154 191 228 267
#     4   9  16  28  45  64  90 120 149 183 224 267
#     4  10  20  33  48  68  92 115 145 187 232 277
#     4   9  19  33  44  56  76 104 140 182 225 265
#     4  10  20  32  47  64  85 116 152 187 225 273
#     4   9  17  29  45  65  89 117 146 177 220 273
#
# _framework density 16.391888000000002
#
# number of rings (size 3 to 8) (size 9 to 14) (size 15 to 20)
#    0.000    2.846    0.000    2.077    1.077    5.231 
#    0.000    1.538    0.000    1.846    0.000    1.077 
#    0.000    0.615    0.000    7.077    0.000    2.000 
#
# Total GULP energy -644665.051788 kJ/mol
# GULP energy per Si atom -12397.404842 kJ/mol
# Density = 1.635458 g / cm^3
# Si number density = 16.391888 Si / 1000 Ang^3
#
#
#
# Elastic Constant Matrix: (Units=GPa)
#
#
# Indices 1 2 3 4 5 6 
#
# 1 84.9439 40.0720 40.2062 0.0000 0.0000 0.0000
# 2 40.0720 85.0172 27.7495 0.0000 0.0000 0.0000
# 3 40.2062 27.7495 59.8826 0.0000 0.0000 0.0000
# 4 0.0000 0.0000 0.0000 12.6006 0.0000 0.0000
# 5 0.0000 0.0000 0.0000 0.0000 21.7811 0.0000
# 6 0.0000 0.0000 0.0000 0.0000 0.0000 26.5075
#
#
#
# Elastic Compliance Matrix: (Units=1/GPa)
#
#
# Indices 1 2 3 4 5 6 
#
# 1 0.019388 -0.005761 -0.010348 0.000000 0.000000 0.000000
# 2 -0.005761 0.015570 -0.003347 0.000000 0.000000 0.000000
# 3 -0.010348 -0.003347 0.025198 0.000000 0.000000 0.000000
# 4 0.000000 0.000000 0.000000 0.079361 0.000000 0.000000
# 5 0.000000 0.000000 0.000000 0.000000 0.045911 0.000000
# 6 0.000000 0.000000 0.000000 0.000000 0.000000 0.037725
#
#
# Mechanical properties :
#
#
# Convention : Reuss Voigt Hill
#
# Bulk Modulus (GPa) = 47.07117 49.54435 48.30776
# Shear Modulus (GPa) = 18.57715 20.29891 19.43803
#
# Velocity S-wave (km/s) = 3.37012 3.52284 3.44733
# Velocity P-wave (km/s) = 6.62738 6.84381 6.73646
#
# Compressibility (1/GPa) = 0.02124442
#
# Stress axis : x y z
#
# Youngs Moduli (GPa) = 51.57813 64.22538 39.68532
#
# Poissons Ratio (x) = 0.36999 0.41066
# Poissons Ratio (y) = 0.29713 0.13284
# Poissons Ratio (z) = 0.53373 0.21498
#
# Static dielectric constant tensor:
#      x y z
#    x 3.150300 0.000000 0.000000 
#    y 0.000000 3.047400 0.000000 
#    z 0.000000 0.000000 2.972940 
# 
# 
# High freq. dielectric constant tensor:
#      x y z
#    x 1.626780 0.000000 0.000000 
#    y 0.000000 1.597810 0.000000 
#    z 0.000000 0.000000 1.620140 
# 
# From -- ./inp_files/9539.got.cif
#   From: 2010.03.12/outbox.cif.g09.slc.cpg/sg47_5_cif.got.tgz:9539.got - 2010.04.14 03:12:58.
