data_PCOD8196046
_publ_section_title
;
Structure prediction by ZEFSAII (Michael W. Deem and Ramdas Pophale) SiO2 
 PCOD8196046
Probable space group: P M M M
;
_chemical_formula_sum "Si O2"
_cell_formula_units_Z 40
_cell_length_a 9.032116
_cell_length_b 22.218160
_cell_length_c 10.941875
_cell_angle_alpha 90.000000
_cell_angle_beta 90.000000
_cell_angle_gamma 90.000000
_cell_volume 2195.782632
_symmetry_space_group_name_H-M "P M M M"
_symmetry_group_IT_number 47
_symmetry_cell_setting 'orthorhombic'
loop_
_space_group_symop_operation_xyz
x,y,z
-x,-y,z
x,-y,-z
-x,y,-z
-x,-y,-z
x,y,-z
-x,y,z
x,-y,z
loop_
_atom_site_type_symbol
_atom_site_label
_atom_site_fract_x
_atom_site_fract_y
_atom_site_fract_z
Si Si1 0.667098 0.762327 0.640414
Si Si2 0.325147 0.883572 0.772638
Si Si3 0.825724 0.931517 0.000000
Si Si4 0.824984 0.639727 0.640302
Si Si5 0.324620 0.000000 0.368458
Si Si6 0.670738 0.429094 0.137931
O O1 0.673452 0.781210 0.500000
O O2 0.500000 0.743514 0.677309
O O3 0.720762 0.820406 0.713901
O O4 0.775466 0.707435 0.669875
O O5 0.500000 0.886955 0.797981
O O6 0.268420 0.939353 0.693162
O O7 0.231555 0.890049 0.892809
O O8 0.000000 0.936009 0.000000
O O9 0.758783 0.000000 0.000000
O O10 0.773505 0.621918 0.500000
O O11 0.760186 0.598275 0.747910
O O12 0.000000 0.635307 0.648033
O O13 0.500000 0.000000 0.375423
O O14 0.250360 0.000000 0.500000
O O15 0.500000 0.410947 0.154709
O O16 0.692286 0.500000 0.146832
O O17 0.722880 0.408087 0.000000
#
# Coordination Sequence:
#
# PCOD8196046 Si02
#       6
#     8   8   4   8   4   8
#     4   9  18  34  56  81 107 136 173 219 269 317
#     4  10  19  33  55  78 100 130 171 216 262 315
#     4  11  23  37  51  69 101 139 172 211 260 315
#     4  10  21  36  55  82 116 152 187 223 267 323
#     4   9  16  27  49  80 104 121 154 211 268 313
#     4   9  19  37  60  85 113 146 186 232 278 321
#
# _framework density 18.216739
#
# number of rings (size 3 to 8) (size 9 to 14) (size 15 to 20)
#    0.000    2.400    1.000    2.100    0.000    6.000 
#    1.800    3.000    0.000    2.400    0.000    0.000 
#    0.000    0.000    0.000    0.000    0.000    0.000 
#
# Total GULP energy -495663.758957 kJ/mol
# GULP energy per Si atom -12391.593974 kJ/mol
# Density = 1.817528 g / cm^3
# Si number density = 18.216739 Si / 1000 Ang^3
#
#
#
# Elastic Constant Matrix: (Units=GPa)
#
#
# Indices 1 2 3 4 5 6 
#
# 1 56.8267 39.7744 52.9184 0.0000 0.0000 0.0000
# 2 39.7744 90.4624 68.4339 0.0000 0.0000 0.0000
# 3 52.9184 68.4339 149.5892 0.0000 0.0000 0.0000
# 4 0.0000 0.0000 0.0000 23.6949 0.0000 0.0000
# 5 0.0000 0.0000 0.0000 0.0000 -6.4358 0.0000
# 6 0.0000 0.0000 0.0000 0.0000 0.0000 17.4403
#
#
#
# Elastic Compliance Matrix: (Units=1/GPa)
#
#
# Indices 1 2 3 4 5 6 
#
# 1 0.029403 -0.007737 -0.006862 0.000000 0.000000 0.000000
# 2 -0.007737 0.018940 -0.005928 0.000000 0.000000 0.000000
# 3 -0.006862 -0.005928 0.011824 0.000000 0.000000 0.000000
# 4 0.000000 0.000000 0.000000 0.042203 0.000000 0.000000
# 5 0.000000 0.000000 0.000000 0.000000 -0.155380 0.000000
# 6 0.000000 0.000000 0.000000 0.000000 0.000000 0.057339
#
#
# Mechanical properties :
#
#
# Convention : Reuss Voigt Hill
#
# Bulk Modulus (GPa) = 52.31739 68.79242 60.55491
# Shear Modulus (GPa) = 96.61153 15.98996 56.30074
#
# Velocity S-wave (km/s) = 7.29038 2.96592 5.56535
# Velocity P-wave (km/s) = 9.98238 7.04089 8.63777
#
# Compressibility (1/GPa) = 0.01911410
#
# Stress axis : x y z
#
# Youngs Moduli (GPa) = 34.01064 52.79736 84.57102
#
# Poissons Ratio (x) = 0.40847 0.58033
# Poissons Ratio (y) = 0.26313 0.50133
# Poissons Ratio (z) = 0.23338 0.31298
#
# Static dielectric constant tensor:
#      x y z
#    x 3.163570 0.000000 0.000000 
#    y 0.000000 3.241570 0.000000 
#    z 0.000000 0.000000 3.498530 
# 
# 
# High freq. dielectric constant tensor:
#      x y z
#    x 1.686520 0.000000 0.000000 
#    y 0.000000 1.703950 0.000000 
#    z 0.000000 0.000000 1.717720 
# 
# From -- ./inp_files/15115.got.cif
#   From: 2010.03.12/outbox.cif.g09.slc.cpg/sg47_8_cif.got.tgz:15115.got - 2010.04.14 03:12:58.
