data_PCOD8196815
_publ_section_title
;
Structure prediction by ZEFSAII (Michael W. Deem and Ramdas Pophale) SiO2 
 PCOD8196815
Probable space group: P M M M
;
_chemical_formula_sum "Si O2"
_cell_formula_units_Z 52
_cell_length_a 21.943791
_cell_length_b 9.198706
_cell_length_c 15.333486
_cell_angle_alpha 90.000000
_cell_angle_beta 90.000000
_cell_angle_gamma 90.000000
_cell_volume 3095.132873
_symmetry_space_group_name_H-M "P M M M"
_symmetry_group_IT_number 47
_symmetry_cell_setting 'orthorhombic'
loop_
_space_group_symop_operation_xyz
x,y,z
-x,-y,z
x,-y,-z
-x,y,-z
-x,-y,-z
x,y,-z
-x,y,z
x,-y,z
loop_
_atom_site_type_symbol
_atom_site_label
_atom_site_fract_x
_atom_site_fract_y
_atom_site_fract_z
Si Si1 0.930306 0.833114 0.398999
Si Si2 0.851531 0.332333 0.737325
Si Si3 0.500000 0.335881 0.603615
Si Si4 0.842932 0.169006 0.904300
Si Si5 0.380848 0.169372 0.398529
Si Si6 0.279934 0.335467 0.093017
Si Si7 0.707878 0.664322 0.279817
O O1 0.919273 0.798241 0.500000
O O2 0.886066 0.730563 0.345360
O O3 0.000000 0.800237 0.373433
O O4 0.914375 0.000000 0.378737
O O5 0.867680 0.500000 0.745343
O O6 0.875924 0.255783 0.826177
O O7 0.779826 0.304966 0.723441
O O8 0.500000 0.500000 0.640180
O O9 0.500000 0.333854 0.500000
O O10 0.559942 0.253391 0.637680
O O11 0.773344 0.218925 0.909331
O O12 0.844958 0.000000 0.880722
O O13 0.873483 0.197574 0.000000
O O14 0.369506 0.202373 0.500000
O O15 0.322028 0.223623 0.346395
O O16 0.391075 0.000000 0.381655
O O17 0.252295 0.500000 0.100768
O O18 0.319422 0.309772 0.181189
O O19 0.316695 0.321766 0.000000
O O20 0.694287 0.500000 0.311601
#
# Coordination Sequence:
#
# PCOD8196815 Si02
#       7
#     8   8   4   8   8   8   8
#     4   9  19  36  55  72  91 119 156 196 237 282
#     4  10  20  32  48  71  98 127 157 193 236 279
#     4   9  17  31  51  69  86 115 154 193 231 272
#     4   9  16  26  43  67  93 122 155 189 228 277
#     4  10  20  32  46  66  93 124 157 192 228 268
#     4   8  14  26  43  63  90 122 154 190 231 274
#     4   9  18  30  44  67  97 126 155 186 226 275
#
# _framework density 16.800571999999999
#
# number of rings (size 3 to 8) (size 9 to 14) (size 15 to 20)
#    0.000    2.846    0.000    3.000    0.000    7.077 
#    0.000    3.846    0.000    0.462    0.000    3.769 
#    0.000    4.308    0.000    0.000    0.000    0.000 
#
# Total GULP energy -644352.461619 kJ/mol
# GULP energy per Si atom -12391.393493 kJ/mol
# Density = 1.676233 g / cm^3
# Si number density = 16.800572 Si / 1000 Ang^3
#
#
#
# Elastic Constant Matrix: (Units=GPa)
#
#
# Indices 1 2 3 4 5 6 
#
# 1 47.1823 41.1895 43.4130 0.0000 0.0000 0.0000
# 2 41.1895 110.8401 66.2200 0.0000 0.0000 0.0000
# 3 43.4130 66.2200 105.2906 0.0000 0.0000 0.0000
# 4 0.0000 0.0000 0.0000 28.7171 0.0000 0.0000
# 5 0.0000 0.0000 0.0000 0.0000 0.6874 0.0000
# 6 0.0000 0.0000 0.0000 0.0000 0.0000 25.3201
#
#
#
# Elastic Compliance Matrix: (Units=1/GPa)
#
#
# Indices 1 2 3 4 5 6 
#
# 1 0.037742 -0.007574 -0.010798 0.000000 0.000000 0.000000
# 2 -0.007574 0.015972 -0.006922 0.000000 0.000000 0.000000
# 3 -0.010798 -0.006922 0.018303 0.000000 0.000000 0.000000
# 4 0.000000 0.000000 0.000000 0.034822 0.000000 0.000000
# 5 0.000000 0.000000 0.000000 0.000000 1.454861 0.000000
# 6 0.000000 0.000000 0.000000 0.000000 0.000000 0.039494
#
#
# Mechanical properties :
#
#
# Convention : Reuss Voigt Hill
#
# Bulk Modulus (GPa) = 46.66705 62.77312 54.72008
# Shear Modulus (GPa) = 3.01399 18.44429 10.72914
#
# Velocity S-wave (km/s) = 1.34085 3.31696 2.52983
# Velocity P-wave (km/s) = 5.49859 7.21903 6.41673
#
# Compressibility (1/GPa) = 0.02142839
#
# Stress axis : x y z
#
# Youngs Moduli (GPa) = 26.49573 62.60780 54.63463
#
# Poissons Ratio (x) = 0.47421 0.58994
# Poissons Ratio (y) = 0.20069 0.37821
# Poissons Ratio (z) = 0.28610 0.43340
#
# Static dielectric constant tensor:
#      x y z
#    x 2.748900 0.000000 0.000000 
#    y 0.000000 3.213880 0.000000 
#    z 0.000000 0.000000 3.464590 
# 
# 
# High freq. dielectric constant tensor:
#      x y z
#    x 1.594970 0.000000 0.000000 
#    y 0.000000 1.659490 0.000000 
#    z 0.000000 0.000000 1.657200 
# 
# From -- ./inp_files/7609.got.cif
#   From: 2010.03.12/outbox.cif.g09.slc.cpg/sg47_4_cif.got.tgz:7609.got - 2010.04.14 03:12:58.
