data_PCOD8196938
_publ_section_title
;
Structure prediction by ZEFSAII (Michael W. Deem and Ramdas Pophale) SiO2 
 PCOD8196938
Probable space group: P M M M
;
_chemical_formula_sum "Si O2"
_cell_formula_units_Z 52
_cell_length_a 27.869632
_cell_length_b 8.943835
_cell_length_c 11.907859
_cell_angle_alpha 90.000000
_cell_angle_beta 90.000000
_cell_angle_gamma 90.000000
_cell_volume 2968.169488
_symmetry_space_group_name_H-M "P M M M"
_symmetry_group_IT_number 47
_symmetry_cell_setting 'orthorhombic'
loop_
_space_group_symop_operation_xyz
x,y,z
-x,-y,z
x,-y,-z
-x,y,-z
-x,-y,-z
x,y,-z
-x,y,z
x,-y,z
loop_
_atom_site_type_symbol
_atom_site_label
_atom_site_fract_x
_atom_site_fract_y
_atom_site_fract_z
Si Si1 0.055993 0.677695 0.500000
Si Si2 0.557044 0.833119 0.500000
Si Si3 0.170917 0.325733 0.130959
Si Si4 0.554332 0.674759 0.278844
Si Si5 0.910965 0.822110 0.271971
Si Si6 0.371396 0.830130 0.131959
Si Si7 0.265655 0.165573 0.867327
Si Si8 0.000000 0.177138 0.125285
O O1 0.061495 0.500000 0.500000
O O2 0.082814 0.744661 0.607846
O O3 0.000000 0.725829 0.500000
O O4 0.500000 0.829304 0.500000
O O5 0.576189 0.750388 0.389881
O O6 0.577680 0.000000 0.500000
O O7 0.162118 0.500000 0.152256
O O8 0.137457 0.228944 0.211712
O O9 0.225210 0.284965 0.167524
O O10 0.161621 0.283986 0.000000
O O11 0.500000 0.729768 0.253456
O O12 0.555106 0.500000 0.298206
O O13 0.588424 0.718796 0.177038
O O14 0.953636 0.765865 0.191590
O O15 0.911066 0.000000 0.288331
O O16 0.318232 0.785418 0.178105
O O17 0.383302 0.000000 0.167992
O O18 0.372863 0.812530 0.000000
O O19 0.252245 0.000000 0.820873
O O20 0.269377 0.155676 0.000000
O O21 0.000000 0.000000 0.117284
O O22 0.000000 0.247009 0.000000
#
# Coordination Sequence:
#
# PCOD8196938 Si02
#       8
#     4   4   8   8   8   8   8   4
#     4  11  23  39  57  76 105 140 177 217 260 306
#     4   9  17  31  51  70  89 120 165 211 251 293
#     4  10  20  33  51  79 111 138 167 207 260 313
#     4  10  20  32  47  70 101 134 168 209 257 309
#     4  11  21  35  56  78 104 137 178 217 249 295
#     4   9  18  32  50  73 101 134 173 213 252 299
#     4   8  15  30  51  73  98 131 171 212 253 301
#     4   9  18  31  49  76 106 133 164 205 248 287
#
# _framework density 17.519214000000002
#
# number of rings (size 3 to 8) (size 9 to 14) (size 15 to 20)
#    0.000    2.385    0.769    3.231    0.000    4.923 
#    0.000    3.077    0.000    2.769    0.000    1.077 
#    0.000    0.000    0.000    0.000    0.000    0.000 
#
# Total GULP energy -644682.212268 kJ/mol
# GULP energy per Si atom -12397.734851 kJ/mol
# Density = 1.747934 g / cm^3
# Si number density = 17.519214 Si / 1000 Ang^3
#
#
#
# Elastic Constant Matrix: (Units=GPa)
#
#
# Indices 1 2 3 4 5 6 
#
# 1 103.4190 40.4626 46.8602 0.0000 0.0000 0.0000
# 2 40.4626 77.0178 36.1804 0.0000 0.0000 0.0000
# 3 46.8602 36.1804 81.8420 0.0000 0.0000 0.0000
# 4 0.0000 0.0000 0.0000 27.4261 0.0000 0.0000
# 5 0.0000 0.0000 0.0000 0.0000 2.7453 0.0000
# 6 0.0000 0.0000 0.0000 0.0000 0.0000 27.4207
#
#
#
# Elastic Compliance Matrix: (Units=1/GPa)
#
#
# Indices 1 2 3 4 5 6 
#
# 1 0.014245 -0.004610 -0.006119 0.000000 0.000000 0.000000
# 2 -0.004610 0.017879 -0.005264 0.000000 0.000000 0.000000
# 3 -0.006119 -0.005264 0.018049 0.000000 0.000000 0.000000
# 4 0.000000 0.000000 0.000000 0.036462 0.000000 0.000000
# 5 0.000000 0.000000 0.000000 0.000000 0.364257 0.000000
# 6 0.000000 0.000000 0.000000 0.000000 0.000000 0.036469
#
#
# Mechanical properties :
#
#
# Convention : Reuss Voigt Hill
#
# Bulk Modulus (GPa) = 54.98140 56.58724 55.78432
# Shear Modulus (GPa) = 9.51639 20.77015 15.14327
#
# Velocity S-wave (km/s) = 2.33319 3.44694 2.94322
# Velocity P-wave (km/s) = 6.22173 6.94349 6.59250
#
# Compressibility (1/GPa) = 0.01818797
#
# Stress axis : x y z
#
# Youngs Moduli (GPa) = 70.19833 55.93203 55.40394
#
# Poissons Ratio (x) = 0.25783 0.33899
# Poissons Ratio (y) = 0.32359 0.29167
# Poissons Ratio (z) = 0.42952 0.29445
#
# Static dielectric constant tensor:
#      x y z
#    x 3.381030 0.000000 0.000000 
#    y 0.000000 3.215750 0.000000 
#    z 0.000000 0.000000 3.114510 
# 
# 
# High freq. dielectric constant tensor:
#      x y z
#    x 1.673800 0.000000 0.000000 
#    y 0.000000 1.677480 0.000000 
#    z 0.000000 0.000000 1.656420 
# 
# From -- ./inp_files/19859.got.cif
#   From: 2010.03.12/outbox.cif.g09.slc.cpg/sg47_10_cif.got.tgz:19859.got - 2010.04.14 03:12:58.
