data_PCOD8196697
_publ_section_title
;
Structure prediction by ZEFSAII (Michael W. Deem and Ramdas Pophale) SiO2 
 PCOD8196697
Probable space group: P M M M
;
_chemical_formula_sum "Si O2"
_cell_formula_units_Z 48
_cell_length_a 23.314351
_cell_length_b 9.054173
_cell_length_c 17.023399
_cell_angle_alpha 90.000000
_cell_angle_beta 90.000000
_cell_angle_gamma 90.000000
_cell_volume 3593.506190
_symmetry_space_group_name_H-M "P M M M"
_symmetry_group_IT_number 47
_symmetry_cell_setting 'orthorhombic'
loop_
_space_group_symop_operation_xyz
x,y,z
-x,-y,z
x,-y,-z
-x,y,-z
-x,-y,-z
x,y,-z
-x,y,z
x,-y,z
loop_
_atom_site_type_symbol
_atom_site_label
_atom_site_fract_x
_atom_site_fract_y
_atom_site_fract_z
Si Si1 0.827780 0.335269 0.593236
Si Si2 0.063120 0.834012 0.593413
Si Si3 0.500000 0.675457 0.587767
Si Si4 0.286682 0.173375 0.408760
Si Si5 0.389200 0.675288 0.319137
Si Si6 0.431988 0.828682 0.829841
Si Si7 0.562478 0.825867 0.000000
O O1 0.831951 0.339743 0.500000
O O2 0.819026 0.500000 0.627074
O O3 0.886930 0.269475 0.628717
O O4 0.775063 0.232470 0.619069
O O5 0.066888 0.834992 0.500000
O O6 0.000000 0.775757 0.619672
O O7 0.072506 0.000000 0.624959
O O8 0.500000 0.500000 0.585949
O O9 0.500000 0.741178 0.500000
O O10 0.556192 0.733981 0.631983
O O11 0.297951 0.211452 0.500000
O O12 0.333213 0.254501 0.356367
O O13 0.289083 0.000000 0.393201
O O14 0.383630 0.500000 0.321977
O O15 0.396653 0.727629 0.229876
O O16 0.500000 0.796675 0.824488
O O17 0.407492 0.783443 0.917057
O O18 0.419628 0.000000 0.811321
O O19 0.500000 0.750043 0.000000
O O20 0.553496 0.000000 0.000000
#
# Coordination Sequence:
#
# PCOD8196697 Si02
#       7
#     8   8   4   8   8   8   4
#     4   9  16  25  37  52  69  90 117 151 190 228
#     4   8  13  21  33  49  69  92 116 144 181 222
#     4   9  18  30  41  52  69  94 120 149 189 233
#     4  10  20  32  43  54  69  93 127 163 196 229
#     4  11  20  30  43  58  77  97 121 152 192 234
#     4   9  16  28  45  62  80  98 119 145 177 219
#     4   7  12  24  43  63  79  99 119 137 168 215
#
# _framework density 13.357426999999999
#
# number of rings (size 3 to 8) (size 9 to 14) (size 15 to 20)
#    0.000    2.833    0.833    3.500    0.000    4.000 
#    0.000    2.083    0.000    3.500    0.000    0.000 
#    0.000    0.000    0.000    0.000    0.000    0.000 
#
# Total GULP energy -594846.736140 kJ/mol
# GULP energy per Si atom -12392.640336 kJ/mol
# Density = 1.332702 g / cm^3
# Si number density = 13.357427 Si / 1000 Ang^3
#
#
#
# Elastic Constant Matrix: (Units=GPa)
#
#
# Indices 1 2 3 4 5 6 
#
# 1 97.7802 43.2016 37.6476 0.0000 0.0000 0.0000
# 2 43.2016 67.9829 30.5771 0.0000 0.0000 0.0000
# 3 37.6476 30.5771 70.7315 0.0000 0.0000 0.0000
# 4 0.0000 0.0000 0.0000 13.5546 0.0000 0.0000
# 5 0.0000 0.0000 0.0000 0.0000 1.4029 0.0000
# 6 0.0000 0.0000 0.0000 0.0000 0.0000 23.4759
#
#
#
# Elastic Compliance Matrix: (Units=1/GPa)
#
#
# Indices 1 2 3 4 5 6 
#
# 1 0.015503 -0.007623 -0.004957 0.000000 0.000000 0.000000
# 2 -0.007623 0.022008 -0.005457 0.000000 0.000000 0.000000
# 3 -0.004957 -0.005457 0.019135 0.000000 0.000000 0.000000
# 4 0.000000 0.000000 0.000000 0.073776 0.000000 0.000000
# 5 0.000000 0.000000 0.000000 0.000000 0.712786 0.000000
# 6 0.000000 0.000000 0.000000 0.000000 0.000000 0.042597
#
#
# Mechanical properties :
#
#
# Convention : Reuss Voigt Hill
#
# Bulk Modulus (GPa) = 48.60403 51.03858 49.82130
# Shear Modulus (GPa) = 5.38367 16.02457 10.70412
#
# Velocity S-wave (km/s) = 2.00978 3.46739 2.83390
# Velocity P-wave (km/s) = 6.46930 7.37043 6.93452
#
# Compressibility (1/GPa) = 0.02057442
#
# Stress axis : x y z
#
# Youngs Moduli (GPa) = 64.50251 45.43814 52.26006
#
# Poissons Ratio (x) = 0.34636 0.25903
# Poissons Ratio (y) = 0.49168 0.28517
# Poissons Ratio (z) = 0.31971 0.24794
#
# Static dielectric constant tensor:
#      x y z
#    x 2.699340 0.000000 0.000000 
#    y 0.000000 2.684630 0.000000 
#    z 0.000000 0.000000 2.516490 
# 
# 
# High freq. dielectric constant tensor:
#      x y z
#    x 1.495990 0.000000 0.000000 
#    y 0.000000 1.510000 0.000000 
#    z 0.000000 0.000000 1.462060 
# 
# From -- ./inp_files/11426.got.cif
#   From: 2010.03.12/outbox.cif.g09.slc.cpg/sg47_6_cif.got.tgz:11426.got - 2010.04.14 03:12:58.
