data_PCOD8196025
_publ_section_title
;
Structure prediction by ZEFSAII (Michael W. Deem and Ramdas Pophale) SiO2 
 PCOD8196025
Probable space group: P M M M
;
_chemical_formula_sum "Si O2"
_cell_formula_units_Z 44
_cell_length_a 31.631261
_cell_length_b 9.093282
_cell_length_c 7.951621
_cell_angle_alpha 90.000000
_cell_angle_beta 90.000000
_cell_angle_gamma 90.000000
_cell_volume 2287.140463
_symmetry_space_group_name_H-M "P M M M"
_symmetry_group_IT_number 47
_symmetry_cell_setting 'orthorhombic'
loop_
_space_group_symop_operation_xyz
x,y,z
-x,-y,z
x,-y,-z
-x,y,-z
-x,-y,-z
x,y,-z
-x,y,z
x,-y,z
loop_
_atom_site_type_symbol
_atom_site_label
_atom_site_fract_x
_atom_site_fract_y
_atom_site_fract_z
Si Si1 0.952353 0.674805 0.186672
Si Si2 0.500000 0.672248 0.304324
Si Si3 0.898942 0.324346 0.500000
Si Si4 0.582884 0.833854 0.193429
Si Si5 0.662078 0.664048 0.691564
Si Si6 0.249587 0.674794 0.814587
Si Si7 0.196682 0.324348 0.500000
O O1 0.951732 0.500000 0.193038
O O2 0.921885 0.738114 0.332271
O O3 0.000000 0.731121 0.220723
O O4 0.937285 0.727085 0.000000
O O5 0.500000 0.500000 0.268795
O O6 0.500000 0.709449 0.500000
O O7 0.541029 0.740237 0.219898
O O8 0.900159 0.500000 0.500000
O O9 0.851144 0.265259 0.500000
O O10 0.621602 0.767714 0.296737
O O11 0.574574 0.000000 0.255145
O O12 0.595852 0.829151 0.000000
O O13 0.677060 0.655884 0.500000
O O14 0.649992 0.500000 0.756469
O O15 0.702016 0.729739 0.793102
O O16 0.249762 0.500000 0.799460
O O17 0.219384 0.738798 0.668229
O O18 0.233422 0.724857 0.000000
O O19 0.197528 0.500000 0.500000
#
# Coordination Sequence:
#
# PCOD8196025 Si02
#       7
#     8   4   4   8   8   8   4
#     4   8  13  20  28  38  54  81 122 169 216 271
#     4  11  24  41  60  82 106 135 172 207 242 292
#     4   9  15  20  29  42  62  89 120 164 222 281
#     4  11  24  39  55  79 109 137 166 202 245 293
#     4  10  19  33  54  77  99 125 164 206 240 290
#     4   9  16  27  43  61  84 113 144 185 234 281
#     4   9  16  25  34  53  79 102 134 177 228 293
#
# _framework density 19.237998000000001
#
# number of rings (size 3 to 8) (size 9 to 14) (size 15 to 20)
#    0.000    2.455    0.909    3.000    0.000    8.364 
#    0.000    3.636    0.000    0.000    0.000    0.000 
#    0.000    0.000    0.000    0.000    0.000    0.000 
#
# Total GULP energy -545453.415835 kJ/mol
# GULP energy per Si atom -12396.668542 kJ/mol
# Density = 1.919421 g / cm^3
# Si number density = 19.237998 Si / 1000 Ang^3
#
#
#
# Elastic Constant Matrix: (Units=GPa)
#
#
# Indices 1 2 3 4 5 6 
#
# 1 139.8842 14.8653 74.8617 0.0000 0.0000 0.0000
# 2 14.8653 34.2343 16.5320 0.0000 0.0000 0.0000
# 3 74.8617 16.5320 139.7068 0.0000 0.0000 0.0000
# 4 0.0000 0.0000 0.0000 12.0902 0.0000 0.0000
# 5 0.0000 0.0000 0.0000 0.0000 27.3564 0.0000
# 6 0.0000 0.0000 0.0000 0.0000 0.0000 0.9590
#
#
#
# Elastic Compliance Matrix: (Units=1/GPa)
#
#
# Indices 1 2 3 4 5 6 
#
# 1 0.010137 -0.001886 -0.005209 0.000000 0.000000 0.000000
# 2 -0.001886 0.031332 -0.002697 0.000000 0.000000 0.000000
# 3 -0.005209 -0.002697 0.010268 0.000000 0.000000 0.000000
# 4 0.000000 0.000000 0.000000 0.082712 0.000000 0.000000
# 5 0.000000 0.000000 0.000000 0.000000 0.036555 0.000000
# 6 0.000000 0.000000 0.000000 0.000000 0.000000 1.042731
#
#
# Mechanical properties :
#
#
# Convention : Reuss Voigt Hill
#
# Bulk Modulus (GPa) = 31.10115 58.48259 44.79187
# Shear Modulus (GPa) = 4.01918 21.91888 12.96903
#
# Velocity S-wave (km/s) = 1.44697 3.37909 2.59923
# Velocity P-wave (km/s) = 4.35812 6.75943 5.68696
#
# Compressibility (1/GPa) = 0.03215315
#
# Stress axis : x y z
#
# Youngs Moduli (GPa) = 98.65186 31.91641 97.39051
#
# Poissons Ratio (x) = 0.06021 0.50726
# Poissons Ratio (y) = 0.18609 0.26264
# Poissons Ratio (z) = 0.51383 0.08607
#
# Static dielectric constant tensor:
#      x y z
#    x 3.023310 0.000000 0.000000 
#    y 0.000000 2.916970 0.000000 
#    z 0.000000 0.000000 3.829100 
# 
# 
# High freq. dielectric constant tensor:
#      x y z
#    x 1.748730 0.000000 0.000000 
#    y 0.000000 1.675490 0.000000 
#    z 0.000000 0.000000 1.767480 
# 
# From -- ./inp_files/13761.got.cif
#   From: 2010.03.12/outbox.cif.g09.slc.cpg/sg47_7_cif.got.tgz:13761.got - 2010.04.14 03:12:58.
