data_PCOD8196822
_publ_section_title
;
Structure prediction by ZEFSAII (Michael W. Deem and Ramdas Pophale) SiO2 
 PCOD8196822
Probable space group: P M M M
;
_chemical_formula_sum "Si O2"
_cell_formula_units_Z 56
_cell_length_a 18.972826
_cell_length_b 9.171385
_cell_length_c 18.428325
_cell_angle_alpha 90.000000
_cell_angle_beta 90.000000
_cell_angle_gamma 90.000000
_cell_volume 3206.659240
_symmetry_space_group_name_H-M "P M M M"
_symmetry_group_IT_number 47
_symmetry_cell_setting 'orthorhombic'
loop_
_space_group_symop_operation_xyz
x,y,z
-x,-y,z
x,-y,-z
-x,y,-z
-x,-y,-z
x,y,-z
-x,y,z
x,-y,z
loop_
_atom_site_type_symbol
_atom_site_label
_atom_site_fract_x
_atom_site_fract_y
_atom_site_fract_z
Si Si1 0.201796 0.671377 0.208690
Si Si2 0.172222 0.834321 0.418930
Si Si3 0.706807 0.328337 0.653967
Si Si4 0.573829 0.172891 0.081285
Si Si5 0.080204 0.169590 0.285084
Si Si6 0.419112 0.170778 0.583323
Si Si7 0.274230 0.169977 0.914460
O O1 0.193021 0.500000 0.203376
O O2 0.262747 0.714796 0.266614
O O3 0.126681 0.738157 0.229597
O O4 0.218857 0.734785 0.129626
O O5 0.144167 0.808865 0.500000
O O6 0.238242 0.729148 0.405547
O O7 0.106878 0.799140 0.366602
O O8 0.198875 0.000000 0.407308
O O9 0.698710 0.500000 0.645514
O O10 0.630741 0.256348 0.639610
O O11 0.500000 0.222900 0.121371
O O12 0.648179 0.223422 0.115182
O O13 0.576529 0.000000 0.077841
O O14 0.570704 0.234956 0.000000
O O15 0.000000 0.223356 0.279351
O O16 0.087154 0.000000 0.265094
O O17 0.401833 0.214223 0.500000
O O18 0.500000 0.211485 0.601400
O O19 0.406522 0.000000 0.594536
O O20 0.261764 0.000000 0.897910
O O21 0.265992 0.201003 0.000000
#
# Coordination Sequence:
#
# PCOD8196822 Si02
#       7
#     8   8   8   8   8   8   8
#     4  10  21  35  50  70  98 131 162 193 234 286
#     4   9  17  29  47  72 100 128 157 192 236 283
#     4  10  20  32  46  66  94 129 168 204 237 281
#     4   7  10  19  38  65  94 119 144 179 223 268
#     4   9  18  33  53  75  98 126 159 194 233 279
#     4   9  18  32  49  69  93 123 163 212 261 300
#     4   9  17  30  51  77 100 124 159 203 245 285
#
# _framework density 17.463657000000001
#
# number of rings (size 3 to 8) (size 9 to 14) (size 15 to 20)
#    0.000    3.000    0.000    3.000    0.000    5.143 
#    0.000    2.857    0.000    3.429    0.000    9.000 
#    0.000    0.000    0.000    0.000    0.000    0.000 
#
# Total GULP energy -693917.449509 kJ/mol
# GULP energy per Si atom -12391.383027 kJ/mol
# Density = 1.742391 g / cm^3
# Si number density = 17.463657 Si / 1000 Ang^3
#
#
#
# Elastic Constant Matrix: (Units=GPa)
#
#
# Indices 1 2 3 4 5 6 
#
# 1 139.9536 56.6995 59.5540 0.0000 0.0000 0.0000
# 2 56.6995 60.7104 37.3410 0.0000 0.0000 0.0000
# 3 59.5540 37.3410 72.7921 0.0000 0.0000 0.0000
# 4 0.0000 0.0000 0.0000 20.8635 0.0000 0.0000
# 5 0.0000 0.0000 0.0000 0.0000 19.4077 0.0000
# 6 0.0000 0.0000 0.0000 0.0000 0.0000 17.1843
#
#
#
# Elastic Compliance Matrix: (Units=1/GPa)
#
#
# Indices 1 2 3 4 5 6 
#
# 1 0.013373 -0.008415 -0.006624 0.000000 0.000000 0.000000
# 2 -0.008415 0.029360 -0.008176 0.000000 0.000000 0.000000
# 3 -0.006624 -0.008176 0.023352 0.000000 0.000000 0.000000
# 4 0.000000 0.000000 0.000000 0.047931 0.000000 0.000000
# 5 0.000000 0.000000 0.000000 0.000000 0.051526 0.000000
# 6 0.000000 0.000000 0.000000 0.000000 0.000000 0.058193
#
#
# Mechanical properties :
#
#
# Convention : Reuss Voigt Hill
#
# Bulk Modulus (GPa) = 50.88242 64.51612 57.69927
# Shear Modulus (GPa) = 18.06898 19.48186 18.77542
#
# Velocity S-wave (km/s) = 3.22011 3.34363 3.28245
# Velocity P-wave (km/s) = 6.55933 7.20623 6.89038
#
# Compressibility (1/GPa) = 0.01965315
#
# Stress axis : x y z
#
# Youngs Moduli (GPa) = 74.77517 34.05993 42.82360
#
# Poissons Ratio (x) = 0.28663 0.28368
# Poissons Ratio (y) = 0.62927 0.35013
# Poissons Ratio (z) = 0.49534 0.27848
#
# Static dielectric constant tensor:
#      x y z
#    x 3.387880 0.000000 0.000000 
#    y 0.000000 3.031250 0.000000 
#    z 0.000000 0.000000 3.035030 
# 
# 
# High freq. dielectric constant tensor:
#      x y z
#    x 1.675850 0.000000 0.000000 
#    y 0.000000 1.656020 0.000000 
#    z 0.000000 0.000000 1.650170 
# 
# From -- ./inp_files/26957.got.cif
#   From: 2010.03.12/outbox.cif.g09.slc.cpg/sg47_14_cif.got.tgz:26957.got - 2010.04.14 03:12:58.
