data_PCOD8196280
_publ_section_title
;
Structure prediction by ZEFSAII (Michael W. Deem and Ramdas Pophale) SiO2 
 PCOD8196280
Probable space group: P M M M
;
_chemical_formula_sum "Si O2"
_cell_formula_units_Z 52
_cell_length_a 9.660217
_cell_length_b 18.482318
_cell_length_c 15.567004
_cell_angle_alpha 90.000000
_cell_angle_beta 90.000000
_cell_angle_gamma 90.000000
_cell_volume 2779.382748
_symmetry_space_group_name_H-M "P M M M"
_symmetry_group_IT_number 47
_symmetry_cell_setting 'orthorhombic'
loop_
_space_group_symop_operation_xyz
x,y,z
-x,-y,z
x,-y,-z
-x,y,-z
-x,-y,-z
x,y,-z
-x,y,z
x,-y,z
loop_
_atom_site_type_symbol
_atom_site_label
_atom_site_fract_x
_atom_site_fract_y
_atom_site_fract_z
Si Si1 0.350250 0.316541 0.599957
Si Si2 0.163432 0.822824 0.904134
Si Si3 0.663553 0.843971 0.400334
Si Si4 0.654831 0.415044 0.000000
Si Si5 0.842387 0.659600 0.866910
Si Si6 0.159886 0.915630 0.744476
Si Si7 0.156101 0.581717 0.309756
O O1 0.373352 0.310437 0.500000
O O2 0.500000 0.332182 0.643648
O O3 0.294966 0.237635 0.629192
O O4 0.249053 0.383299 0.616852
O O5 0.206634 0.741737 0.878253
O O6 0.220359 0.876121 0.830050
O O7 0.000000 0.830418 0.907817
O O8 0.223464 0.840953 0.000000
O O9 0.703509 0.858891 0.500000
O O10 0.500000 0.857047 0.387078
O O11 0.750695 0.897003 0.339593
O O12 0.738014 0.391273 0.083258
O O13 0.644679 0.500000 0.000000
O O14 0.500000 0.381520 0.000000
O O15 0.829971 0.635930 0.769252
O O16 0.000000 0.649231 0.900514
O O17 0.000000 0.893134 0.727737
O O18 0.173095 0.000000 0.762952
O O19 0.205362 0.500000 0.287473
O O20 0.000000 0.579637 0.344073
#
# Coordination Sequence:
#
# PCOD8196280 Si02
#       7
#     8   8   8   4   8   8   8
#     4   9  19  36  56  77 102 137 183 228 269 318
#     4   9  17  32  56  82 106 137 181 226 266 312
#     4   9  19  37  59  81 107 142 183 224 269 325
#     4  11  23  35  49  75 108 135 164 212 269 315
#     4  10  19  35  57  76  98 136 181 218 256 312
#     4  10  21  35  54  84 117 145 176 219 270 323
#     4  10  21  34  50  77 110 142 178 222 273 325
#
# _framework density 18.70919
#
# number of rings (size 3 to 8) (size 9 to 14) (size 15 to 20)
#    0.000    2.385    0.769    2.538    0.000    5.846 
#    0.000    6.923    0.000    0.000    0.000    1.077 
#    0.000    0.000    0.000    0.000    0.000    0.000 
#
# Total GULP energy -644565.346634 kJ/mol
# GULP energy per Si atom -12395.487435 kJ/mol
# Density = 1.866661 g / cm^3
# Si number density = 18.709190 Si / 1000 Ang^3
#
#
#
# Elastic Constant Matrix: (Units=GPa)
#
#
# Indices 1 2 3 4 5 6 
#
# 1 64.9029 39.6590 30.5805 0.0000 0.0000 0.0000
# 2 39.6590 97.9353 48.5858 0.0000 0.0000 0.0000
# 3 30.5805 48.5858 76.9417 0.0000 0.0000 0.0000
# 4 0.0000 0.0000 0.0000 36.5363 0.0000 0.0000
# 5 0.0000 0.0000 0.0000 0.0000 -78.9830 0.0000
# 6 0.0000 0.0000 0.0000 0.0000 0.0000 23.5920
#
#
#
# Elastic Compliance Matrix: (Units=1/GPa)
#
#
# Indices 1 2 3 4 5 6 
#
# 1 0.021463 -0.006494 -0.004430 0.000000 0.000000 0.000000
# 2 -0.006494 0.016833 -0.008049 0.000000 0.000000 0.000000
# 3 -0.004430 -0.008049 0.019840 0.000000 0.000000 0.000000
# 4 0.000000 0.000000 0.000000 0.027370 0.000000 0.000000
# 5 0.000000 0.000000 0.000000 0.000000 -0.012661 0.000000
# 6 0.000000 0.000000 0.000000 0.000000 0.000000 0.042387
#
#
# Mechanical properties :
#
#
# Convention : Reuss Voigt Hill
#
# Bulk Modulus (GPa) = 49.52556 53.04783 51.28669
# Shear Modulus (GPa) = 31.26796 4.29269 17.78033
#
# Velocity S-wave (km/s) = 4.09254 1.51638 3.08612
# Velocity P-wave (km/s) = 6.99003 5.61082 6.33806
#
# Compressibility (1/GPa) = 0.02019160
#
# Stress axis : x y z
#
# Youngs Moduli (GPa) = 46.59201 59.40544 50.40322
#
# Poissons Ratio (x) = 0.38577 0.22328
# Poissons Ratio (y) = 0.30256 0.40568
# Poissons Ratio (z) = 0.20640 0.47814
#
# Static dielectric constant tensor:
#      x y z
#    x 3.347780 0.000000 0.000000 
#    y 0.000000 3.453890 0.000000 
#    z 0.000000 0.000000 3.467490 
# 
# 
# High freq. dielectric constant tensor:
#      x y z
#    x 1.705920 0.000000 0.000000 
#    y 0.000000 1.728900 0.000000 
#    z 0.000000 0.000000 1.726030 
# 
# From -- ./inp_files/21382.got.cif
#   From: 2010.03.12/outbox.cif.g09.slc.cpg/sg47_11_cif.got.tgz:21382.got - 2010.04.14 03:12:58.
