data_PCOD8196167
_publ_section_title
;
Structure prediction by ZEFSAII (Michael W. Deem and Ramdas Pophale) SiO2 
 PCOD8196167
Probable space group: P M M M
;
_chemical_formula_sum "Si O2"
_cell_formula_units_Z 48
_cell_length_a 13.788108
_cell_length_b 19.708691
_cell_length_c 8.578522
_cell_angle_alpha 90.000000
_cell_angle_beta 90.000000
_cell_angle_gamma 90.000000
_cell_volume 2331.175265
_symmetry_space_group_name_H-M "P M M M"
_symmetry_group_IT_number 47
_symmetry_cell_setting 'orthorhombic'
loop_
_space_group_symop_operation_xyz
x,y,z
-x,-y,z
x,-y,-z
-x,y,-z
-x,-y,-z
x,y,-z
-x,y,z
x,-y,z
loop_
_atom_site_type_symbol
_atom_site_label
_atom_site_fract_x
_atom_site_fract_y
_atom_site_fract_z
Si Si1 0.000000 0.229642 0.675534
Si Si2 0.150546 0.139302 0.173959
Si Si3 0.607989 0.663183 0.185365
Si Si4 0.500000 0.075926 0.814261
Si Si5 0.361663 0.188318 0.173276
Si Si6 0.000000 0.628923 0.819458
Si Si7 0.885470 0.000000 0.318171
Si Si8 0.207706 0.422645 0.184846
O O1 0.090196 0.181036 0.701593
O O2 0.000000 0.258089 0.500000
O O3 0.000000 0.290605 0.797471
O O4 0.248461 0.180133 0.168086
O O5 0.164517 0.063733 0.236475
O O6 0.104156 0.137406 0.000000
O O7 0.500000 0.633621 0.229606
O O8 0.614111 0.739786 0.256046
O O9 0.699268 0.619383 0.252871
O O10 0.619788 0.664633 0.000000
O O11 0.591095 0.120675 0.751088
O O12 0.500000 0.000000 0.739073
O O13 0.500000 0.066523 0.000000
O O14 0.405617 0.193340 0.000000
O O15 0.101588 0.600267 0.746460
O O16 0.000000 0.609928 0.000000
O O17 0.861711 0.000000 0.500000
O O18 0.000000 0.000000 0.286011
O O19 0.224944 0.500000 0.234813
O O20 0.204435 0.413787 0.000000
#
# Coordination Sequence:
#
# PCOD8196167 Si02
#       8
#     4   8   8   4   8   4   4   8
#     4  12  24  38  54  77 108 141 177 217 270 327
#     4  11  22  35  56  81 106 138 184 232 273 322
#     4   9  15  25  41  64 103 147 176 210 270 339
#     4   9  16  26  42  66 105 141 169 216 276 326
#     4   9  17  29  46  73 105 138 176 220 274 326
#     4  10  19  34  55  77 106 139 178 221 266 320
#     4  11  23  39  55  74 108 149 185 226 282 336
#     4   9  17  28  46  74 106 141 179 219 268 325
#
# _framework density 20.590471999999998
#
# number of rings (size 3 to 8) (size 9 to 14) (size 15 to 20)
#    0.000    2.167    1.667    2.750    1.167    4.333 
#    0.000    1.667    0.000    1.000    0.000    2.917 
#    0.000    0.000    0.000    4.333    0.000    5.000 
#
# Total GULP energy -594646.480631 kJ/mol
# GULP energy per Si atom -12388.468346 kJ/mol
# Density = 2.054361 g / cm^3
# Si number density = 20.590472 Si / 1000 Ang^3
#
#
#
# Elastic Constant Matrix: (Units=GPa)
#
#
# Indices 1 2 3 4 5 6 
#
# 1 159.0372 72.2982 12.6144 0.0000 0.0000 0.0000
# 2 72.2982 158.5693 1.2322 0.0000 0.0000 0.0000
# 3 12.6144 1.2322 33.1632 0.0000 0.0000 0.0000
# 4 0.0000 0.0000 0.0000 6.6925 0.0000 0.0000
# 5 0.0000 0.0000 0.0000 0.0000 14.8900 0.0000
# 6 0.0000 0.0000 0.0000 0.0000 0.0000 47.3370
#
#
#
# Elastic Compliance Matrix: (Units=1/GPa)
#
#
# Indices 1 2 3 4 5 6 
#
# 1 0.008217 -0.003723 -0.002987 0.000000 0.000000 0.000000
# 2 -0.003723 0.007995 0.001119 0.000000 0.000000 0.000000
# 3 -0.002987 0.001119 0.031249 0.000000 0.000000 0.000000
# 4 0.000000 0.000000 0.000000 0.149420 0.000000 0.000000
# 5 0.000000 0.000000 0.000000 0.000000 0.067159 0.000000
# 6 0.000000 0.000000 0.000000 0.000000 0.000000 0.021125
#
#
# Mechanical properties :
#
#
# Convention : Reuss Voigt Hill
#
# Bulk Modulus (GPa) = 27.56473 58.11773 42.84123
# Shear Modulus (GPa) = 16.21050 31.42555 23.81803
#
# Velocity S-wave (km/s) = 2.80890 3.91092 3.40479
# Velocity P-wave (km/s) = 4.89245 6.97715 6.02564
#
# Compressibility (1/GPa) = 0.03627825
#
# Stress axis : x y z
#
# Youngs Moduli (GPa) = 121.69192 125.07230 32.00143
#
# Poissons Ratio (x) = 0.46570 0.09560
# Poissons Ratio (y) = 0.45312 -0.03582
# Poissons Ratio (z) = 0.36354 -0.13998
#
# Static dielectric constant tensor:
#      x y z
#    x 3.927340 0.000000 0.000000 
#    y 0.000000 3.890710 0.000000 
#    z 0.000000 0.000000 3.047650 
# 
# 
# High freq. dielectric constant tensor:
#      x y z
#    x 1.822290 0.000000 0.000000 
#    y 0.000000 1.815020 0.000000 
#    z 0.000000 0.000000 1.726140 
# 
# From -- ./inp_files/6560.got.cif
#   From: 2010.03.12/outbox.cif.g09.slc.cpg/sg47_4_cif.got.tgz:6560.got - 2010.04.14 03:12:58.
