data_PCOD8196141
_publ_section_title
;
Structure prediction by ZEFSAII (Michael W. Deem and Ramdas Pophale) SiO2 
 PCOD8196141
Probable space group: P M M M
;
_chemical_formula_sum "Si O2"
_cell_formula_units_Z 52
_cell_length_a 19.562023
_cell_length_b 15.768895
_cell_length_c 9.208634
_cell_angle_alpha 90.000000
_cell_angle_beta 90.000000
_cell_angle_gamma 90.000000
_cell_volume 2840.601020
_symmetry_space_group_name_H-M "P M M M"
_symmetry_group_IT_number 47
_symmetry_cell_setting 'orthorhombic'
loop_
_space_group_symop_operation_xyz
x,y,z
-x,-y,z
x,-y,-z
-x,y,-z
-x,-y,-z
x,y,-z
-x,y,z
x,-y,z
loop_
_atom_site_type_symbol
_atom_site_label
_atom_site_fract_x
_atom_site_fract_y
_atom_site_fract_z
Si Si1 0.419428 0.404146 0.666067
Si Si2 0.309804 0.904729 0.668032
Si Si3 0.920689 0.000000 0.158613
Si Si4 0.075713 0.599552 0.338258
Si Si5 0.154203 0.134732 0.667230
Si Si6 0.822261 0.700901 0.831542
Si Si7 0.666670 0.265486 0.830644
O O1 0.396712 0.388769 0.500000
O O2 0.500000 0.393741 0.682073
O O3 0.398016 0.500000 0.713637
O O4 0.385584 0.333375 0.766454
O O5 0.327727 0.887991 0.500000
O O6 0.228922 0.904045 0.693493
O O7 0.343661 0.828235 0.759988
O O8 0.335695 0.000000 0.714018
O O9 0.901209 0.918036 0.247991
O O10 0.000000 0.000000 0.134704
O O11 0.884384 0.000000 0.000000
O O12 0.094438 0.633865 0.500000
O O13 0.071509 0.500000 0.343674
O O14 0.135463 0.619656 0.221800
O O15 0.000000 0.634576 0.292258
O O16 0.134415 0.135297 0.500000
O O17 0.146449 0.227201 0.731276
O O18 0.741335 0.694809 0.801430
O O19 0.836098 0.719012 0.000000
O O20 0.651705 0.254169 0.000000
#
# Coordination Sequence:
#
# PCOD8196141 Si02
#       7
#     8   8   4   8   8   8   8
#     4   9  19  37  60  84 111 147 188 225 265 316
#     4   9  17  32  54  78 103 135 177 222 266 312
#     4  11  23  35  47  67  97 131 166 209 264 321
#     4   9  19  36  55  73  94 126 172 221 268 320
#     4  10  19  34  53  72  94 126 170 214 257 308
#     4  10  21  35  51  76 107 137 170 212 265 320
#     4  10  21  34  51  82 116 145 179 219 268 323
#
# _framework density 18.305986000000001
#
# number of rings (size 3 to 8) (size 9 to 14) (size 15 to 20)
#    0.000    2.385    0.769    2.538    0.000    5.846 
#    0.000    4.615    0.000    0.462    0.000    3.231 
#    0.000    0.000    0.000    0.000    0.000    0.000 
#
# Total GULP energy -644521.432506 kJ/mol
# GULP energy per Si atom -12394.642933 kJ/mol
# Density = 1.826432 g / cm^3
# Si number density = 18.305986 Si / 1000 Ang^3
#
#
#
# Elastic Constant Matrix: (Units=GPa)
#
#
# Indices 1 2 3 4 5 6 
#
# 1 49.6668 42.2798 41.2202 0.0000 0.0000 0.0000
# 2 42.2798 110.1742 61.2217 0.0000 0.0000 0.0000
# 3 41.2202 61.2217 115.6396 0.0000 0.0000 0.0000
# 4 0.0000 0.0000 0.0000 31.7823 0.0000 0.0000
# 5 0.0000 0.0000 0.0000 0.0000 28.3846 0.0000
# 6 0.0000 0.0000 0.0000 0.0000 0.0000 28.7827
#
#
#
# Elastic Compliance Matrix: (Units=1/GPa)
#
#
# Indices 1 2 3 4 5 6 
#
# 1 0.033793 -0.008890 -0.007339 0.000000 0.000000 0.000000
# 2 -0.008890 0.015198 -0.004877 0.000000 0.000000 0.000000
# 3 -0.007339 -0.004877 0.013846 0.000000 0.000000 0.000000
# 4 0.000000 0.000000 0.000000 0.031464 0.000000 0.000000
# 5 0.000000 0.000000 0.000000 0.000000 0.035230 0.000000
# 6 0.000000 0.000000 0.000000 0.000000 0.000000 0.034743
#
#
# Mechanical properties :
#
#
# Convention : Reuss Voigt Hill
#
# Bulk Modulus (GPa) = 48.48698 62.76934 55.62816
# Shear Modulus (GPa) = 23.43431 26.50719 24.97075
#
# Velocity S-wave (km/s) = 3.58179 3.80940 3.69735
# Velocity P-wave (km/s) = 6.60682 7.32885 6.97718
#
# Compressibility (1/GPa) = 0.02062409
#
# Stress axis : x y z
#
# Youngs Moduli (GPa) = 29.59196 65.79639 72.22395
#
# Poissons Ratio (x) = 0.58493 0.53006
# Poissons Ratio (y) = 0.26307 0.35227
# Poissons Ratio (z) = 0.21718 0.32092
#
# Static dielectric constant tensor:
#      x y z
#    x 3.156700 0.000000 0.000000 
#    y 0.000000 3.422840 0.000000 
#    z 0.000000 0.000000 3.455300 
# 
# 
# High freq. dielectric constant tensor:
#      x y z
#    x 1.683170 0.000000 0.000000 
#    y 0.000000 1.714970 0.000000 
#    z 0.000000 0.000000 1.716330 
# 
# From -- ./inp_files/10995.got.cif
#   From: 2010.03.12/outbox.cif.g09.slc.cpg/sg47_6_cif.got.tgz:10995.got - 2010.04.14 03:12:58.
