data_PCOD8196832
_publ_section_title
;
Structure prediction by ZEFSAII (Michael W. Deem and Ramdas Pophale) SiO2 
 PCOD8196832
Probable space group: P M M M
;
_chemical_formula_sum "Si O2"
_cell_formula_units_Z 40
_cell_length_a 26.212426
_cell_length_b 9.073464
_cell_length_c 9.086288
_cell_angle_alpha 90.000000
_cell_angle_beta 90.000000
_cell_angle_gamma 90.000000
_cell_volume 2161.060055
_symmetry_space_group_name_H-M "P M M M"
_symmetry_group_IT_number 47
_symmetry_cell_setting 'orthorhombic'
loop_
_space_group_symop_operation_xyz
x,y,z
-x,-y,z
x,-y,-z
-x,y,-z
-x,-y,-z
x,y,-z
-x,y,z
x,-y,z
loop_
_atom_site_type_symbol
_atom_site_label
_atom_site_fract_x
_atom_site_fract_y
_atom_site_fract_z
Si Si1 0.299510 0.328182 0.828457
Si Si2 0.890769 0.823823 0.165233
Si Si3 0.400651 0.324582 0.333870
Si Si4 0.207936 0.825156 0.667086
Si Si5 0.500000 0.324092 0.833593
Si Si6 0.000000 0.161463 0.825205
O O1 0.291299 0.500000 0.796246
O O2 0.349999 0.268046 0.747674
O O3 0.251425 0.241316 0.768286
O O4 0.306014 0.295794 0.000000
O O5 0.846683 0.767448 0.274097
O O6 0.946300 0.759036 0.219139
O O7 0.894336 0.000000 0.165832
O O8 0.877999 0.768496 0.000000
O O9 0.400774 0.263152 0.500000
O O10 0.402197 0.500000 0.333241
O O11 0.450081 0.262384 0.249237
O O12 0.214695 0.770399 0.500000
O O13 0.211084 0.000000 0.678553
O O14 0.500000 0.500000 0.832906
O O15 0.500000 0.264014 0.000000
O O16 0.000000 0.000000 0.751156
O O17 0.000000 0.144518 0.000000
#
# Coordination Sequence:
#
# PCOD8196832 Si02
#       6
#     8   8   8   8   4   4
#     4  10  20  33  49  69  92 120 156 195 233 274
#     4   8  13  23  40  61  86 116 149 185 224 266
#     4   9  16  26  41  62  89 119 149 184 229 276
#     4  10  20  32  46  67  95 125 156 189 227 273
#     4   9  15  23  37  59  88 119 150 185 224 267
#     4   7  10  18  35  59  84 111 144 181 222 266
#
# _framework density 18.509433999999999
#
# number of rings (size 3 to 8) (size 9 to 14) (size 15 to 20)
#    0.000    3.000    0.000    3.300    0.000    6.000 
#    0.000    0.500    0.000    3.000    0.000    1.400 
#    0.000   11.200    0.000    0.000    0.000    0.000 
#
# Total GULP energy -495731.124377 kJ/mol
# GULP energy per Si atom -12393.278109 kJ/mol
# Density = 1.846731 g / cm^3
# Si number density = 18.509434 Si / 1000 Ang^3
#
#
#
# Elastic Constant Matrix: (Units=GPa)
#
#
# Indices 1 2 3 4 5 6 
#
# 1 182.9103 17.9663 71.8486 0.0000 0.0000 0.0000
# 2 17.9663 8.4292 15.4429 0.0000 0.0000 0.0000
# 3 71.8486 15.4429 119.8889 0.0000 0.0000 0.0000
# 4 0.0000 0.0000 0.0000 15.0058 0.0000 0.0000
# 5 0.0000 0.0000 0.0000 0.0000 26.5597 0.0000
# 6 0.0000 0.0000 0.0000 0.0000 0.0000 17.9368
#
#
#
# Elastic Compliance Matrix: (Units=1/GPa)
#
#
# Indices 1 2 3 4 5 6 
#
# 1 0.007808 -0.010562 -0.003319 0.000000 0.000000 0.000000
# 2 -0.010562 0.169567 -0.015512 0.000000 0.000000 0.000000
# 3 -0.003319 -0.015512 0.012328 0.000000 0.000000 0.000000
# 4 0.000000 0.000000 0.000000 0.066641 0.000000 0.000000
# 5 0.000000 0.000000 0.000000 0.000000 0.037651 0.000000
# 6 0.000000 0.000000 0.000000 0.000000 0.000000 0.055751
#
#
# Mechanical properties :
#
#
# Convention : Reuss Voigt Hill
#
# Bulk Modulus (GPa) = 7.63844 57.97157 32.80500
# Shear Modulus (GPa) = 11.05773 25.63185 18.34479
#
# Velocity S-wave (km/s) = 2.44685 3.72533 3.15160
# Velocity P-wave (km/s) = 3.48116 7.06343 5.56824
#
# Compressibility (1/GPa) = 0.13091682
#
# Stress axis : x y z
#
# Youngs Moduli (GPa) = 128.06787 5.89737 81.11491
#
# Poissons Ratio (x) = 0.06229 0.26922
# Poissons Ratio (y) = 1.35271 1.25826
# Poissons Ratio (z) = 0.42505 0.09148
#
# Static dielectric constant tensor:
#      x y z
#    x 3.869720 0.000000 0.000000 
#    y 0.000000 2.687180 0.000000 
#    z 0.000000 0.000000 3.494120 
# 
# 
# High freq. dielectric constant tensor:
#      x y z
#    x 1.745330 0.000000 0.000000 
#    y 0.000000 1.636050 0.000000 
#    z 0.000000 0.000000 1.718340 
# 
# From -- ./inp_files/13081.got.cif
#   From: 2010.03.12/outbox.cif.g09.slc.cpg/sg47_7_cif.got.tgz:13081.got - 2010.04.14 03:12:58.
