data_PCOD8196119
_publ_section_title
;
Structure prediction by ZEFSAII (Michael W. Deem and Ramdas Pophale) SiO2 
 PCOD8196119
Probable space group: P M M M
;
_chemical_formula_sum "Si O2"
_cell_formula_units_Z 48
_cell_length_a 8.974586
_cell_length_b 15.445791
_cell_length_c 17.756759
_cell_angle_alpha 90.000000
_cell_angle_beta 90.000000
_cell_angle_gamma 90.000000
_cell_volume 2461.434469
_symmetry_space_group_name_H-M "P M M M"
_symmetry_group_IT_number 47
_symmetry_cell_setting 'orthorhombic'
loop_
_space_group_symop_operation_xyz
x,y,z
-x,-y,z
x,-y,-z
-x,y,-z
-x,-y,-z
x,y,-z
-x,y,z
x,-y,z
loop_
_atom_site_type_symbol
_atom_site_label
_atom_site_fract_x
_atom_site_fract_y
_atom_site_fract_z
Si Si1 0.174764 0.601130 0.000000
Si Si2 0.833313 0.000000 0.911457
Si Si3 0.828732 0.096230 0.333937
Si Si4 0.674085 0.138255 0.818563
Si Si5 0.828082 0.597675 0.294589
Si Si6 0.324782 0.664686 0.151187
Si Si7 0.176409 0.266444 0.416791
O O1 0.246380 0.643412 0.073180
O O2 0.210069 0.500000 0.000000
O O3 0.000000 0.620367 0.000000
O O4 0.750844 0.913419 0.885694
O O5 0.000000 0.000000 0.877804
O O6 0.835791 0.000000 0.000000
O O7 0.728925 0.101524 0.260339
O O8 0.775969 0.169304 0.392876
O O9 0.000000 0.112883 0.310918
O O10 0.809424 0.000000 0.369682
O O11 0.500000 0.122493 0.824787
O O12 0.716770 0.238069 0.826262
O O13 0.812413 0.500000 0.325632
O O14 0.736596 0.603916 0.217362
O O15 0.760992 0.662876 0.357564
O O16 0.000000 0.620493 0.277259
O O17 0.500000 0.649625 0.142117
O O18 0.243783 0.284161 0.500000
O O19 0.000000 0.275266 0.420292
#
# Coordination Sequence:
#
# PCOD8196119 Si02
#       7
#     4   4   8   8   8   8   8
#     4  11  25  43  63  88 117 150 191 241 294 349
#     4  11  25  41  59  87 118 151 192 237 289 344
#     4  10  19  33  57  85 112 149 194 238 286 345
#     4  11  23  38  58  84 114 152 194 237 283 340
#     4  10  20  35  58  86 115 153 200 245 292 350
#     4  11  24  40  60  87 118 154 195 240 294 351
#     4   9  18  33  54  84 121 155 191 244 301 348
#
# _framework density 19.500823
#
# number of rings (size 3 to 8) (size 9 to 14) (size 15 to 20)
#    0.000    1.667    2.500    2.000    1.167    6.333 
#    0.000    3.333    0.000    2.000    0.000    2.333 
#    0.000    0.000    0.000    0.000    0.000    0.000 
#
# Total GULP energy -595310.182076 kJ/mol
# GULP energy per Si atom -12402.295460 kJ/mol
# Density = 1.945644 g / cm^3
# Si number density = 19.500823 Si / 1000 Ang^3
#
#
#
# Elastic Constant Matrix: (Units=GPa)
#
#
# Indices 1 2 3 4 5 6 
#
# 1 63.4541 38.8254 26.8167 0.0000 0.0000 0.0000
# 2 38.8254 124.0850 48.9618 0.0000 0.0000 0.0000
# 3 26.8167 48.9618 127.6376 0.0000 0.0000 0.0000
# 4 0.0000 0.0000 0.0000 25.1920 0.0000 0.0000
# 5 0.0000 0.0000 0.0000 0.0000 -21.8269 0.0000
# 6 0.0000 0.0000 0.0000 0.0000 0.0000 22.9469
#
#
#
# Elastic Compliance Matrix: (Units=1/GPa)
#
#
# Indices 1 2 3 4 5 6 
#
# 1 0.019966 -0.005411 -0.002119 0.000000 0.000000 0.000000
# 2 -0.005411 0.010963 -0.003068 0.000000 0.000000 0.000000
# 3 -0.002119 -0.003068 0.009457 0.000000 0.000000 0.000000
# 4 0.000000 0.000000 0.000000 0.039695 0.000000 0.000000
# 5 0.000000 0.000000 0.000000 0.000000 -0.045815 0.000000
# 6 0.000000 0.000000 0.000000 0.000000 0.000000 0.043579
#
#
# Mechanical properties :
#
#
# Convention : Reuss Voigt Hill
#
# Bulk Modulus (GPa) = 52.11499 60.48717 56.30108
# Shear Modulus (GPa) = 47.42125 18.63392 33.02758
#
# Velocity S-wave (km/s) = 4.93663 3.09454 4.11986
# Velocity P-wave (km/s) = 7.69911 6.62219 7.18087
#
# Compressibility (1/GPa) = 0.01918834
#
# Stress axis : x y z
#
# Youngs Moduli (GPa) = 50.08563 91.21736 105.74180
#
# Poissons Ratio (x) = 0.49357 0.22409
# Poissons Ratio (y) = 0.27101 0.32447
# Poissons Ratio (z) = 0.10614 0.27990
#
# Static dielectric constant tensor:
#      x y z
#    x 3.440690 0.000000 0.000000 
#    y 0.000000 3.954200 0.000000 
#    z 0.000000 0.000000 3.613760 
# 
# 
# High freq. dielectric constant tensor:
#      x y z
#    x 1.741750 0.000000 0.000000 
#    y 0.000000 1.777160 0.000000 
#    z 0.000000 0.000000 1.757010 
# 
# From -- ./inp_files/6502.got.cif
#   From: 2010.03.12/outbox.cif.g09.slc.cpg/sg47_4_cif.got.tgz:6502.got - 2010.04.14 03:12:58.
