data_PCOD8196478
_publ_section_title
;
Structure prediction by ZEFSAII (Michael W. Deem and Ramdas Pophale) SiO2 
 PCOD8196478
Probable space group: P M M M
;
_chemical_formula_sum "Si O2"
_cell_formula_units_Z 60
_cell_length_a 9.275471
_cell_length_b 24.860861
_cell_length_c 15.906426
_cell_angle_alpha 90.000000
_cell_angle_beta 90.000000
_cell_angle_gamma 90.000000
_cell_volume 3667.961315
_symmetry_space_group_name_H-M "P M M M"
_symmetry_group_IT_number 47
_symmetry_cell_setting 'orthorhombic'
loop_
_space_group_symop_operation_xyz
x,y,z
-x,-y,z
x,-y,-z
-x,y,-z
-x,-y,-z
x,y,-z
-x,y,z
x,-y,z
loop_
_atom_site_type_symbol
_atom_site_label
_atom_site_fract_x
_atom_site_fract_y
_atom_site_fract_z
Si Si1 0.168561 0.438425 0.754441
Si Si2 0.831616 0.639671 0.903752
Si Si3 0.158925 0.155522 0.095806
Si Si4 0.331529 0.062393 0.161879
Si Si5 0.839467 0.936056 0.322154
Si Si6 0.170642 0.941412 0.500000
Si Si7 0.661443 0.745989 0.099613
Si Si8 0.663809 0.436156 0.592762
O O1 0.216532 0.500000 0.768496
O O2 0.213836 0.407441 0.839566
O O3 0.243119 0.413203 0.670867
O O4 0.000000 0.433605 0.738206
O O5 0.743924 0.691910 0.875115
O O6 0.000000 0.653446 0.896526
O O7 0.793729 0.622429 0.000000
O O8 0.243529 0.098774 0.097024
O O9 0.252768 0.202961 0.139056
O O10 0.000000 0.150844 0.138447
O O11 0.136376 0.171669 0.000000
O O12 0.500000 0.073845 0.153234
O O13 0.277710 0.081163 0.253668
O O14 0.295564 0.000000 0.143944
O O15 0.788303 0.911081 0.412613
O O16 0.000000 0.915388 0.296970
O O17 0.844454 0.000000 0.331833
O O18 0.000000 0.949164 0.500000
O O19 0.246364 0.000000 0.500000
O O20 0.500000 0.744939 0.137714
O O21 0.652758 0.751741 0.000000
O O22 0.718024 0.415803 0.500000
O O23 0.500000 0.417221 0.606349
O O24 0.674971 0.500000 0.593674
#
# Coordination Sequence:
#
# PCOD8196478 Si02
#       8
#     8   8   8   8   8   4   8   8
#     4   9  17  27  40  62  91 122 156 191 225 262
#     4   9  17  29  44  62  88 121 153 185 221 262
#     4  10  20  33  49  66  83 107 142 182 221 261
#     4  10  20  31  42  60  89 120 145 172 210 255
#     4   8  13  23  39  57  79 108 140 171 202 239
#     4   7  10  18  35  57  77 101 135 171 203 235
#     4   9  17  30  48  67  85 106 137 180 225 262
#     4   8  14  25  40  57  80 113 150 187 229 273
#
# _framework density 16.357859999999999
#
# number of rings (size 3 to 8) (size 9 to 14) (size 15 to 20)
#    0.000    3.133    0.000    2.400    0.000    4.533 
#    0.000    4.333    0.000    2.000    0.000    3.733 
#    2.000    0.000    2.000    0.000    1.733    0.000 
#
# Total GULP energy -743343.162173 kJ/mol
# GULP energy per Si atom -12389.052703 kJ/mol
# Density = 1.632063 g / cm^3
# Si number density = 16.357860 Si / 1000 Ang^3
#
#
#
# Elastic Constant Matrix: (Units=GPa)
#
#
# Indices 1 2 3 4 5 6 
#
# 1 88.9266 46.8761 36.2413 0.0000 0.0000 0.0000
# 2 46.8761 69.8871 35.2414 0.0000 0.0000 0.0000
# 3 36.2413 35.2414 78.7495 0.0000 0.0000 0.0000
# 4 0.0000 0.0000 0.0000 3.6498 0.0000 0.0000
# 5 0.0000 0.0000 0.0000 0.0000 21.4397 0.0000
# 6 0.0000 0.0000 0.0000 0.0000 0.0000 20.7849
#
#
#
# Elastic Compliance Matrix: (Units=1/GPa)
#
#
# Indices 1 2 3 4 5 6 
#
# 1 0.018222 -0.010323 -0.003766 0.000000 0.000000 0.000000
# 2 -0.010323 0.024327 -0.006136 0.000000 0.000000 0.000000
# 3 -0.003766 -0.006136 0.017178 0.000000 0.000000 0.000000
# 4 0.000000 0.000000 0.000000 0.273990 0.000000 0.000000
# 5 0.000000 0.000000 0.000000 0.000000 0.046642 0.000000
# 6 0.000000 0.000000 0.000000 0.000000 0.000000 0.048112
#
#
# Mechanical properties :
#
#
# Convention : Reuss Voigt Hill
#
# Bulk Modulus (GPa) = 51.87726 52.69786 52.28756
# Shear Modulus (GPa) = 10.51867 17.12185 13.82026
#
# Velocity S-wave (km/s) = 2.53856 3.23879 2.90982
# Velocity P-wave (km/s) = 6.35415 6.80235 6.58206
#
# Compressibility (1/GPa) = 0.01927627
#
# Stress axis : x y z
#
# Youngs Moduli (GPa) = 54.87994 41.10688 58.21529
#
# Poissons Ratio (x) = 0.42434 0.21925
# Poissons Ratio (y) = 0.56652 0.35720
# Poissons Ratio (z) = 0.20669 0.25223
#
# Static dielectric constant tensor:
#      x y z
#    x 3.192730 0.000000 0.000000 
#    y 0.000000 2.781990 0.000000 
#    z 0.000000 0.000000 3.339790 
# 
# 
# High freq. dielectric constant tensor:
#      x y z
#    x 1.629880 0.000000 0.000000 
#    y 0.000000 1.583740 0.000000 
#    z 0.000000 0.000000 1.618300 
# 
# From -- ./inp_files/27104.got.cif
#   From: 2010.03.12/outbox.cif.g09.slc.cpg/sg47_14_cif.got.tgz:27104.got - 2010.04.14 03:12:58.
