data_PCOD8196748
_publ_section_title
;
Structure prediction by ZEFSAII (Michael W. Deem and Ramdas Pophale) SiO2 
 PCOD8196748
Probable space group: P M M M
;
_chemical_formula_sum "Si O2"
_cell_formula_units_Z 44
_cell_length_a 9.255791
_cell_length_b 29.068123
_cell_length_c 9.066712
_cell_angle_alpha 90.000000
_cell_angle_beta 90.000000
_cell_angle_gamma 90.000000
_cell_volume 2439.385003
_symmetry_space_group_name_H-M "P M M M"
_symmetry_group_IT_number 47
_symmetry_cell_setting 'orthorhombic'
loop_
_space_group_symop_operation_xyz
x,y,z
-x,-y,z
x,-y,-z
-x,y,-z
-x,-y,-z
x,y,-z
-x,y,z
x,-y,z
loop_
_atom_site_type_symbol
_atom_site_label
_atom_site_fract_x
_atom_site_fract_y
_atom_site_fract_z
Si Si1 0.172119 0.819999 0.166607
Si Si2 0.172312 0.909911 0.666713
Si Si3 0.827747 0.000000 0.166675
Si Si4 0.666539 0.351961 0.824595
Si Si5 0.671402 0.548627 0.165113
Si Si6 0.828890 0.729380 0.331394
O O1 0.232378 0.864898 0.250166
O O2 0.230119 0.774775 0.249466
O O3 0.000000 0.820747 0.167161
O O4 0.231937 0.819894 0.000000
O O5 0.231538 0.909988 0.500000
O O6 0.231567 0.954960 0.750028
O O7 0.000000 0.909794 0.666898
O O8 0.000000 0.000000 0.166676
O O9 0.768339 0.000000 0.000000
O O10 0.500000 0.342897 0.782978
O O11 0.719669 0.402578 0.763678
O O12 0.764979 0.315185 0.745191
O O13 0.688222 0.349145 0.000000
O O14 0.500000 0.550361 0.157652
O O15 0.719933 0.500000 0.245330
O O16 0.733802 0.546877 0.000000
O O17 0.777638 0.731799 0.500000
O O18 0.000000 0.726413 0.318922
#
# Coordination Sequence:
#
# PCOD8196748 Si02
#       6
#     8   8   4   8   8   8
#     4   9  16  26  40  56  74 100 137 179 219 259
#     4   9  15  22  32  47  69  97 130 169 213 260
#     4   9  15  21  29  43  65  95 132 171 210 253
#     4   9  17  29  47  71  94 115 143 181 224 267
#     4   7  10  19  38  64  90 112 136 171 215 260
#     4  10  20  32  45  62  86 118 154 187 220 262
#
# _framework density 18.037334000000001
#
# number of rings (size 3 to 8) (size 9 to 14) (size 15 to 20)
#    0.000    3.182    0.000    3.545    0.000    6.909 
#    0.000    0.000    0.000    1.091    0.000    6.364 
#    0.000    0.000    0.000    0.818    0.000   16.000 
#
# Total GULP energy -545111.092866 kJ/mol
# GULP energy per Si atom -12388.888474 kJ/mol
# Density = 1.799628 g / cm^3
# Si number density = 18.037334 Si / 1000 Ang^3
#
#
#
# Elastic Constant Matrix: (Units=GPa)
#
#
# Indices 1 2 3 4 5 6 
#
# 1 4.1402 12.6569 8.1179 0.0000 0.0000 0.0000
# 2 12.6569 207.8367 78.0855 0.0000 0.0000 0.0000
# 3 8.1179 78.0855 111.7021 0.0000 0.0000 0.0000
# 4 0.0000 0.0000 0.0000 9.4598 0.0000 0.0000
# 5 0.0000 0.0000 0.0000 0.0000 11.3417 0.0000
# 6 0.0000 0.0000 0.0000 0.0000 0.0000 -14.1612
#
#
#
# Elastic Compliance Matrix: (Units=1/GPa)
#
#
# Indices 1 2 3 4 5 6 
#
# 1 0.309392 -0.014096 -0.012631 0.000000 0.000000 0.000000
# 2 -0.014096 0.007167 -0.003986 0.000000 0.000000 0.000000
# 3 -0.012631 -0.003986 0.012657 0.000000 0.000000 0.000000
# 4 0.000000 0.000000 0.000000 0.105711 0.000000 0.000000
# 5 0.000000 0.000000 0.000000 0.000000 0.088170 0.000000
# 6 0.000000 0.000000 0.000000 0.000000 0.000000 -0.070615
#
#
# Mechanical properties :
#
#
# Convention : Reuss Voigt Hill
#
# Bulk Modulus (GPa) = 3.73427 57.93330 30.83378
# Shear Modulus (GPa) = 8.28951 16.31597 12.30274
#
# Velocity S-wave (km/s) = 2.14610 3.01086 2.61448
# Velocity P-wave (km/s) = 2.86632 6.65397 5.12304
#
# Compressibility (1/GPa) = 0.26779030
#
# Stress axis : x y z
#
# Youngs Moduli (GPa) = 3.23214 139.51980 79.00899
#
# Poissons Ratio (x) = 1.96664 0.99799
# Poissons Ratio (y) = 0.04556 0.31493
# Poissons Ratio (z) = 0.04083 0.55613
#
# Static dielectric constant tensor:
#      x y z
#    x 2.576780 0.000000 0.000000 
#    y 0.000000 3.883250 0.000000 
#    z 0.000000 0.000000 3.299990 
# 
# 
# High freq. dielectric constant tensor:
#      x y z
#    x 1.613850 0.000000 0.000000 
#    y 0.000000 1.730690 0.000000 
#    z 0.000000 0.000000 1.685610 
# 
# From -- ./inp_files/1982.got.cif
#   From: 2010.03.12/outbox.cif.g09.slc.cpg/sg47_1_cif.got.tgz:1982.got - 2010.04.14 03:12:58.
