data_PCOD8196868
_publ_section_title
;
Structure prediction by ZEFSAII (Michael W. Deem and Ramdas Pophale) SiO2 
 PCOD8196868
Probable space group: P M M M
;
_chemical_formula_sum "Si O2"
_cell_formula_units_Z 52
_cell_length_a 9.368915
_cell_length_b 28.623869
_cell_length_c 12.291506
_cell_angle_alpha 90.000000
_cell_angle_beta 90.000000
_cell_angle_gamma 90.000000
_cell_volume 3296.269651
_symmetry_space_group_name_H-M "P M M M"
_symmetry_group_IT_number 47
_symmetry_cell_setting 'orthorhombic'
loop_
_space_group_symop_operation_xyz
x,y,z
-x,-y,z
x,-y,-z
-x,y,-z
-x,-y,-z
x,y,-z
-x,y,z
x,-y,z
loop_
_atom_site_type_symbol
_atom_site_label
_atom_site_fract_x
_atom_site_fract_y
_atom_site_fract_z
Si Si1 0.665450 0.805698 0.371052
Si Si2 0.752516 0.385025 0.629477
Si Si3 0.838156 0.715497 0.629298
Si Si4 0.338048 0.945686 0.126165
Si Si5 0.500000 0.446832 0.370024
Si Si6 0.827570 0.895993 0.693930
Si Si7 0.664577 0.055278 0.500000
Si Si8 0.000000 0.551424 0.370453
O O1 0.676098 0.812685 0.500000
O O2 0.500000 0.808660 0.333095
O O3 0.732087 0.756502 0.333106
O O4 0.764981 0.844083 0.314685
O O5 0.748787 0.381340 0.500000
O O6 0.771599 0.332690 0.676517
O O7 0.622681 0.414129 0.676126
O O8 0.872249 0.418638 0.674135
O O9 0.844283 0.713212 0.500000
O O10 0.000000 0.722954 0.673554
O O11 0.500000 0.933210 0.164100
O O12 0.219057 0.916064 0.189514
O O13 0.309137 0.000000 0.148010
O O14 0.319656 0.933568 0.000000
O O15 0.500000 0.500000 0.322756
O O16 0.500000 0.450835 0.500000
O O17 0.751626 0.928072 0.604433
O O18 0.000000 0.896037 0.681175
O O19 0.500000 0.074842 0.500000
O O20 0.659664 0.000000 0.500000
O O21 0.000000 0.500000 0.318198
O O22 0.000000 0.547163 0.500000
#
# Coordination Sequence:
#
# PCOD8196868 Si02
#       8
#     8   8   8   8   4   8   4   4
#     4  10  20  32  47  63  83 115 151 186 227 277
#     4   9  15  22  31  43  61  84 117 157 207 263
#     4   9  16  26  38  52  71  95 128 172 220 268
#     4   9  19  37  59  79 100 129 161 189 222 269
#     4   9  16  22  28  40  60  84 114 158 207 256
#     4  12  23  34  51  74 102 126 154 194 238 279
#     4  11  23  37  53  71  97 131 163 191 224 277
#     4   9  14  20  30  42  58  82 114 152 203 260
#
# _framework density 15.775408000000001
#
# number of rings (size 3 to 8) (size 9 to 14) (size 15 to 20)
#    0.000    2.231    1.538    3.462    1.077    5.538 
#    0.000    0.769    0.000    0.000    0.000    0.000 
#    0.000    0.000    0.000    0.000    0.000    0.000 
#
# Total GULP energy -644213.676473 kJ/mol
# GULP energy per Si atom -12388.724548 kJ/mol
# Density = 1.573950 g / cm^3
# Si number density = 15.775408 Si / 1000 Ang^3
#
#
#
# Elastic Constant Matrix: (Units=GPa)
#
#
# Indices 1 2 3 4 5 6 
#
# 1 159.3990 74.4228 27.3646 0.0000 0.0000 0.0000
# 2 74.4228 133.9304 27.2349 0.0000 0.0000 0.0000
# 3 27.3646 27.2349 31.5874 0.0000 0.0000 0.0000
# 4 0.0000 0.0000 0.0000 6.5391 0.0000 0.0000
# 5 0.0000 0.0000 0.0000 0.0000 13.2593 0.0000
# 6 0.0000 0.0000 0.0000 0.0000 0.0000 45.7210
#
#
#
# Elastic Compliance Matrix: (Units=1/GPa)
#
#
# Indices 1 2 3 4 5 6 
#
# 1 0.008905 -0.004098 -0.004181 0.000000 0.000000 0.000000
# 2 -0.004098 0.010940 -0.005882 0.000000 0.000000 0.000000
# 3 -0.004181 -0.005882 0.040352 0.000000 0.000000 0.000000
# 4 0.000000 0.000000 0.000000 0.152926 0.000000 0.000000
# 5 0.000000 0.000000 0.000000 0.000000 0.075419 0.000000
# 6 0.000000 0.000000 0.000000 0.000000 0.000000 0.021872
#
#
# Mechanical properties :
#
#
# Convention : Reuss Voigt Hill
#
# Bulk Modulus (GPa) = 31.37349 64.77348 48.07349
# Shear Modulus (GPa) = 14.31188 26.16353 20.23771
#
# Velocity S-wave (km/s) = 3.01529 4.07689 3.58559
# Velocity P-wave (km/s) = 5.66157 7.95678 6.90520
#
# Compressibility (1/GPa) = 0.03187404
#
# Stress axis : x y z
#
# Youngs Moduli (GPa) = 112.30106 91.40838 24.78195
#
# Poissons Ratio (x) = 0.37459 0.10361
# Poissons Ratio (y) = 0.46020 0.14578
# Poissons Ratio (z) = 0.46952 0.53770
#
# Static dielectric constant tensor:
#      x y z
#    x 3.224990 0.000000 0.000000 
#    y 0.000000 3.252980 0.000000 
#    z 0.000000 0.000000 2.392090 
# 
# 
# High freq. dielectric constant tensor:
#      x y z
#    x 1.625080 0.000000 0.000000 
#    y 0.000000 1.623490 0.000000 
#    z 0.000000 0.000000 1.518960 
# 
# From -- ./inp_files/15573.got.cif
#   From: 2010.03.12/outbox.cif.g09.slc.cpg/sg47_8_cif.got.tgz:15573.got - 2010.04.14 03:12:58.
