data_PCOD8196533
_publ_section_title
;
Structure prediction by ZEFSAII (Michael W. Deem and Ramdas Pophale) SiO2 
 PCOD8196533
Probable space group: P M M M
;
_chemical_formula_sum "Si O2"
_cell_formula_units_Z 64
_cell_length_a 29.063313
_cell_length_b 14.073307
_cell_length_c 9.120589
_cell_angle_alpha 90.000000
_cell_angle_beta 90.000000
_cell_angle_gamma 90.000000
_cell_volume 3730.475279
_symmetry_space_group_name_H-M "P M M M"
_symmetry_group_IT_number 47
_symmetry_cell_setting 'orthorhombic'
loop_
_space_group_symop_operation_xyz
x,y,z
-x,-y,z
x,-y,-z
-x,y,-z
-x,-y,-z
x,y,-z
-x,y,z
x,-y,z
loop_
_atom_site_type_symbol
_atom_site_label
_atom_site_fract_x
_atom_site_fract_y
_atom_site_fract_z
Si Si1 0.194627 0.887370 0.334520
Si Si2 0.133431 0.392188 0.671925
Si Si3 0.224776 0.607219 0.829912
Si Si4 0.277225 0.208936 0.171789
Si Si5 0.051650 0.741963 0.330024
Si Si6 0.449502 0.887484 0.836123
Si Si7 0.103848 0.889246 0.830856
Si Si8 0.359937 0.889424 0.672193
O O1 0.197387 0.846398 0.500000
O O2 0.237140 0.854402 0.238599
O O3 0.147719 0.851283 0.260058
O O4 0.195663 0.000000 0.337218
O O5 0.140759 0.383248 0.500000
O O6 0.125686 0.500000 0.722408
O O7 0.179825 0.352684 0.746708
O O8 0.088025 0.336707 0.723974
O O9 0.238107 0.500000 0.777589
O O10 0.266973 0.679212 0.797910
O O11 0.212229 0.607358 0.000000
O O12 0.324506 0.179610 0.247567
O O13 0.280646 0.187129 0.000000
O O14 0.058935 0.767496 0.500000
O O15 0.059294 0.836418 0.233706
O O16 0.000000 0.703910 0.302051
O O17 0.500000 0.848536 0.787286
O O18 0.410479 0.854346 0.722445
O O19 0.451394 0.000000 0.838172
O O20 0.437688 0.850285 0.000000
O O21 0.095422 0.000000 0.807821
O O22 0.111673 0.863784 0.000000
O O23 0.355164 0.874698 0.500000
O O24 0.351155 0.000000 0.714725
#
# Coordination Sequence:
#
# PCOD8196533 Si02
#       8
#     8   8   8   8   8   8   8   8
#     4  10  20  33  49  69  94 123 153 186 225 270
#     4   9  18  33  53  75  96 118 145 178 219 270
#     4   9  19  35  52  70  92 118 150 188 230 276
#     4  11  21  31  47  69  94 126 159 193 234 277
#     4  10  21  35  51  72  96 121 148 180 221 267
#     4   8  14  26  44  64  88 123 167 210 246 279
#     4  10  21  36  52  69  90 118 153 190 225 263
#     4  10  20  31  43  64  97 134 168 202 240 280
#
# _framework density 17.155989999999999
#
# number of rings (size 3 to 8) (size 9 to 14) (size 15 to 20)
#    0.000    2.375    0.000    3.000    0.000    8.250 
#    0.000    3.750    0.000    0.000    0.000    2.625 
#    0.000    0.500    0.000    5.750    0.000    1.875 
#
# Total GULP energy -793532.133434 kJ/mol
# GULP energy per Si atom -12398.939585 kJ/mol
# Density = 1.711694 g / cm^3
# Si number density = 17.155990 Si / 1000 Ang^3
#
#
#
# Elastic Constant Matrix: (Units=GPa)
#
#
# Indices 1 2 3 4 5 6 
#
# 1 124.8777 50.9100 56.0689 0.0000 0.0000 0.0000
# 2 50.9100 49.6197 40.0465 0.0000 0.0000 0.0000
# 3 56.0689 40.0465 83.8214 0.0000 0.0000 0.0000
# 4 0.0000 0.0000 0.0000 20.2835 0.0000 0.0000
# 5 0.0000 0.0000 0.0000 0.0000 30.6464 0.0000
# 6 0.0000 0.0000 0.0000 0.0000 0.0000 19.5153
#
#
#
# Elastic Compliance Matrix: (Units=1/GPa)
#
#
# Indices 1 2 3 4 5 6 
#
# 1 0.014644 -0.011587 -0.004260 0.000000 0.000000 0.000000
# 2 -0.011587 0.041969 -0.012300 0.000000 0.000000 0.000000
# 3 -0.004260 -0.012300 0.020656 0.000000 0.000000 0.000000
# 4 0.000000 0.000000 0.000000 0.049301 0.000000 0.000000
# 5 0.000000 0.000000 0.000000 0.000000 0.032630 0.000000
# 6 0.000000 0.000000 0.000000 0.000000 0.000000 0.051242
#
#
# Mechanical properties :
#
#
# Convention : Reuss Voigt Hill
#
# Bulk Modulus (GPa) = 47.67623 61.37438 54.52531
# Shear Modulus (GPa) = 18.26625 21.50858 19.88742
#
# Velocity S-wave (km/s) = 3.26654 3.54461 3.40841
# Velocity P-wave (km/s) = 6.48669 7.25289 6.88046
#
# Compressibility (1/GPa) = 0.02097481
#
# Stress axis : x y z
#
# Youngs Moduli (GPa) = 68.28604 23.82720 48.41167
#
# Poissons Ratio (x) = 0.27609 0.20623
# Poissons Ratio (y) = 0.79124 0.59548
# Poissons Ratio (z) = 0.29089 0.29308
#
# Static dielectric constant tensor:
#      x y z
#    x 3.364480 0.000000 0.000000 
#    y 0.000000 3.163590 0.000000 
#    z 0.000000 0.000000 3.297840 
# 
# 
# High freq. dielectric constant tensor:
#      x y z
#    x 1.653420 0.000000 0.000000 
#    y 0.000000 1.639080 0.000000 
#    z 0.000000 0.000000 1.669240 
# 
# From -- ./inp_files/14291.got.cif
#   From: 2010.03.12/outbox.cif.g09.slc.cpg/sg47_8_cif.got.tgz:14291.got - 2010.04.14 03:12:58.
