data_PCOD8196836
_publ_section_title
;
Structure prediction by ZEFSAII (Michael W. Deem and Ramdas Pophale) SiO2 
 PCOD8196836
Probable space group: P M M M
;
_chemical_formula_sum "Si O2"
_cell_formula_units_Z 52
_cell_length_a 15.037939
_cell_length_b 13.187867
_cell_length_c 15.093627
_cell_angle_alpha 90.000000
_cell_angle_beta 90.000000
_cell_angle_gamma 90.000000
_cell_volume 2993.343043
_symmetry_space_group_name_H-M "P M M M"
_symmetry_group_IT_number 47
_symmetry_cell_setting 'orthorhombic'
loop_
_space_group_symop_operation_xyz
x,y,z
-x,-y,z
x,-y,-z
-x,y,-z
-x,-y,-z
x,y,-z
-x,y,z
x,-y,z
loop_
_atom_site_type_symbol
_atom_site_label
_atom_site_fract_x
_atom_site_fract_y
_atom_site_fract_z
Si Si1 0.605887 0.887253 0.000000
Si Si2 0.901701 0.887908 0.394912
Si Si3 0.398500 0.773083 0.828503
Si Si4 0.398701 0.883672 0.350942
Si Si5 0.900457 0.620302 0.099647
Si Si6 0.752010 0.260618 0.599771
Si Si7 0.255591 0.380717 0.228488
O O1 0.640532 0.826780 0.915059
O O2 0.500000 0.894441 0.000000
O O3 0.647045 0.000000 0.000000
O O4 0.895036 0.892408 0.500000
O O5 0.829560 0.809506 0.359039
O O6 0.000000 0.851822 0.365533
O O7 0.882190 0.000000 0.356126
O O8 0.500000 0.737540 0.840854
O O9 0.389925 0.857109 0.752205
O O10 0.342802 0.672259 0.810299
O O11 0.500000 0.869184 0.383687
O O12 0.337692 0.806170 0.405768
O O13 0.368241 0.000000 0.366290
O O14 0.900993 0.500000 0.101165
O O15 0.830302 0.659340 0.173399
O O16 0.000000 0.660231 0.123368
O O17 0.874012 0.657188 0.000000
O O18 0.772154 0.300319 0.500000
O O19 0.749171 0.355220 0.666641
O O20 0.267857 0.500000 0.217894
#
# Coordination Sequence:
#
# PCOD8196836 Si02
#       7
#     4   8   8   8   8   8   8
#     4   9  16  28  49  75 102 129 153 183 235 301
#     4   8  14  26  45  68  93 120 149 186 239 301
#     4   9  18  31  47  71 101 131 163 197 237 292
#     4   9  17  30  48  69  95 126 160 203 252 295
#     4   8  15  30  52  74  93 115 149 197 246 285
#     4  10  20  32  46  67  95 127 166 210 251 294
#     4  10  21  34  49  69  95 131 170 210 249 286
#
# _framework density 17.371881999999999
#
# number of rings (size 3 to 8) (size 9 to 14) (size 15 to 20)
#    0.000    3.000    0.000    1.846    1.077    4.308 
#    0.000    0.769    0.000    1.385    0.000    8.615 
#    0.000    0.615    0.000    0.000    0.000    0.000 
#
# Total GULP energy -644501.944844 kJ/mol
# GULP energy per Si atom -12394.268170 kJ/mol
# Density = 1.733234 g / cm^3
# Si number density = 17.371882 Si / 1000 Ang^3
#
#
#
# Elastic Constant Matrix: (Units=GPa)
#
#
# Indices 1 2 3 4 5 6 
#
# 1 83.3132 33.8848 32.1694 0.0000 0.0000 0.0000
# 2 33.8848 71.8014 31.8076 0.0000 0.0000 0.0000
# 3 32.1694 31.8076 94.5562 0.0000 0.0000 0.0000
# 4 0.0000 0.0000 0.0000 12.0366 0.0000 0.0000
# 5 0.0000 0.0000 0.0000 0.0000 23.1912 0.0000
# 6 0.0000 0.0000 0.0000 0.0000 0.0000 20.5480
#
#
#
# Elastic Compliance Matrix: (Units=1/GPa)
#
#
# Indices 1 2 3 4 5 6 
#
# 1 0.015708 -0.005929 -0.003350 0.000000 0.000000 0.000000
# 2 -0.005929 0.018604 -0.004241 0.000000 0.000000 0.000000
# 3 -0.003350 -0.004241 0.013142 0.000000 0.000000 0.000000
# 4 0.000000 0.000000 0.000000 0.083080 0.000000 0.000000
# 5 0.000000 0.000000 0.000000 0.000000 0.043120 0.000000
# 6 0.000000 0.000000 0.000000 0.000000 0.000000 0.048667
#
#
# Mechanical properties :
#
#
# Convention : Reuss Voigt Hill
#
# Bulk Modulus (GPa) = 48.98476 49.48823 49.23649
# Shear Modulus (GPa) = 19.51876 21.27576 20.39726
#
# Velocity S-wave (km/s) = 3.35563 3.50340 3.43031
# Velocity P-wave (km/s) = 6.57819 6.70183 6.64030
#
# Compressibility (1/GPa) = 0.02041451
#
# Stress axis : x y z
#
# Youngs Moduli (GPa) = 63.66324 53.75156 76.09236
#
# Poissons Ratio (x) = 0.31869 0.25487
# Poissons Ratio (y) = 0.37746 0.32271
# Poissons Ratio (z) = 0.21324 0.22796
#
# Static dielectric constant tensor:
#      x y z
#    x 3.439000 0.000000 0.000000 
#    y 0.000000 2.989660 0.000000 
#    z 0.000000 0.000000 3.188160 
# 
# 
# High freq. dielectric constant tensor:
#      x y z
#    x 1.670870 0.000000 0.000000 
#    y 0.000000 1.643260 0.000000 
#    z 0.000000 0.000000 1.663660 
# 
# From -- ./inp_files/22787.got.cif
#   From: 2010.03.12/outbox.cif.g09.slc.cpg/sg47_12_cif.got.tgz:22787.got - 2010.04.14 03:12:58.
