data_PCOD8196863
_publ_section_title
;
Structure prediction by ZEFSAII (Michael W. Deem and Ramdas Pophale) SiO2 
 PCOD8196863
Probable space group: P M M M
;
_chemical_formula_sum "Si O2"
_cell_formula_units_Z 52
_cell_length_a 8.970687
_cell_length_b 11.766516
_cell_length_c 27.699872
_cell_angle_alpha 90.000000
_cell_angle_beta 90.000000
_cell_angle_gamma 90.000000
_cell_volume 2923.824869
_symmetry_space_group_name_H-M "P M M M"
_symmetry_group_IT_number 47
_symmetry_cell_setting 'orthorhombic'
loop_
_space_group_symop_operation_xyz
x,y,z
-x,-y,z
x,-y,-z
-x,y,-z
-x,-y,-z
x,y,-z
-x,y,z
x,-y,z
loop_
_atom_site_type_symbol
_atom_site_label
_atom_site_fract_x
_atom_site_fract_y
_atom_site_fract_z
Si Si1 0.672302 0.370375 0.677951
Si Si2 0.667598 0.364952 0.146439
Si Si3 0.836599 0.000000 0.758801
Si Si4 0.165707 0.000000 0.645617
Si Si5 0.672760 0.798320 0.403966
Si Si6 0.176217 0.866787 0.500000
Si Si7 0.822317 0.247011 0.233664
Si Si8 0.832455 0.635084 0.946962
O O1 0.500000 0.362834 0.693536
O O2 0.728592 0.500000 0.677440
O O3 0.694310 0.321222 0.623845
O O4 0.765634 0.299773 0.716588
O O5 0.500000 0.320410 0.154196
O O6 0.673324 0.500000 0.146962
O O7 0.772587 0.322424 0.188924
O O8 0.726046 0.316719 0.095061
O O9 0.854240 0.000000 0.701904
O O10 0.756118 0.118344 0.773834
O O11 0.000000 0.000000 0.782992
O O12 0.259038 0.891358 0.631022
O O13 0.000000 0.000000 0.620915
O O14 0.500000 0.824622 0.413869
O O15 0.759435 0.799689 0.454299
O O16 0.000000 0.856206 0.500000
O O17 0.225404 0.000000 0.500000
O O18 0.000000 0.242973 0.236749
O O19 0.832055 0.500000 0.945514
O O20 0.000000 0.679941 0.937914
O O21 0.776089 0.676149 0.000000
#
# Coordination Sequence:
#
# PCOD8196863 Si02
#       8
#     8   8   4   4   8   4   8   8
#     4  10  22  39  56  77 107 139 170 206 251 302
#     4  10  20  32  46  70 106 142 174 211 256 304
#     4   9  20  35  52  76 104 132 165 212 261 301
#     4  11  19  34  56  79 109 136 163 210 263 304
#     4  11  22  36  57  83 107 135 172 210 250 304
#     4  11  23  37  56  81 109 139 166 207 263 304
#     4  11  21  35  54  76 102 135 174 213 255 304
#     4   8  14  26  45  69  97 131 173 217 257 301
#
# _framework density 17.784922000000002
#
# number of rings (size 3 to 8) (size 9 to 14) (size 15 to 20)
#    0.000    1.923    2.308    2.769    0.000    4.308 
#    0.000    3.462    0.000    2.308    0.000    0.538 
#    0.000    4.308    0.000    0.000    0.000    0.000 
#
# Total GULP energy -644587.936355 kJ/mol
# GULP energy per Si atom -12395.921853 kJ/mol
# Density = 1.774444 g / cm^3
# Si number density = 17.784922 Si / 1000 Ang^3
#
#
#
# Elastic Constant Matrix: (Units=GPa)
#
#
# Indices 1 2 3 4 5 6 
#
# 1 83.4542 34.6405 42.5339 0.0000 0.0000 0.0000
# 2 34.6405 70.5482 24.7910 0.0000 0.0000 0.0000
# 3 42.5339 24.7910 105.3111 0.0000 0.0000 0.0000
# 4 0.0000 0.0000 0.0000 13.7073 0.0000 0.0000
# 5 0.0000 0.0000 0.0000 0.0000 32.3013 0.0000
# 6 0.0000 0.0000 0.0000 0.0000 0.0000 20.1239
#
#
#
# Elastic Compliance Matrix: (Units=1/GPa)
#
#
# Indices 1 2 3 4 5 6 
#
# 1 0.017574 -0.006688 -0.005523 0.000000 0.000000 0.000000
# 2 -0.006688 0.017998 -0.001536 0.000000 0.000000 0.000000
# 3 -0.005523 -0.001536 0.012088 0.000000 0.000000 0.000000
# 4 0.000000 0.000000 0.000000 0.072954 0.000000 0.000000
# 5 0.000000 0.000000 0.000000 0.000000 0.030959 0.000000
# 6 0.000000 0.000000 0.000000 0.000000 0.000000 0.049692
#
#
# Mechanical properties :
#
#
# Convention : Reuss Voigt Hill
#
# Bulk Modulus (GPa) = 49.58905 51.47158 50.53031
# Shear Modulus (GPa) = 21.23309 23.71636 22.47473
#
# Velocity S-wave (km/s) = 3.45901 3.65569 3.55871
# Velocity P-wave (km/s) = 6.62542 6.84271 6.73494
#
# Compressibility (1/GPa) = 0.02016574
#
# Stress axis : x y z
#
# Youngs Moduli (GPa) = 56.90264 55.56063 82.72647
#
# Poissons Ratio (x) = 0.37160 0.45693
# Poissons Ratio (y) = 0.38057 0.12704
# Poissons Ratio (z) = 0.31430 0.08532
#
# Static dielectric constant tensor:
#      x y z
#    x 3.436530 0.000000 0.000000 
#    y 0.000000 3.429360 0.000000 
#    z 0.000000 0.000000 3.419060 
# 
# 
# High freq. dielectric constant tensor:
#      x y z
#    x 1.690880 0.000000 0.000000 
#    y 0.000000 1.659770 0.000000 
#    z 0.000000 0.000000 1.692230 
# 
# From -- ./inp_files/33322.got.cif
#   From: 2010.03.12/outbox.cif.g09.slc.cpg/sg47_17_cif.got.tgz:33322.got - 2010.04.14 03:12:58.
