data_PCOD8196598
_publ_section_title
;
Structure prediction by ZEFSAII (Michael W. Deem and Ramdas Pophale) SiO2 
 PCOD8196598
Probable space group: P M M M
;
_chemical_formula_sum "Si O2"
_cell_formula_units_Z 52
_cell_length_a 23.268169
_cell_length_b 13.623833
_cell_length_c 9.529129
_cell_angle_alpha 90.000000
_cell_angle_beta 90.000000
_cell_angle_gamma 90.000000
_cell_volume 3020.749603
_symmetry_space_group_name_H-M "P M M M"
_symmetry_group_IT_number 47
_symmetry_cell_setting 'orthorhombic'
loop_
_space_group_symop_operation_xyz
x,y,z
-x,-y,z
x,-y,-z
-x,y,-z
-x,-y,-z
x,y,-z
-x,y,z
x,-y,z
loop_
_atom_site_type_symbol
_atom_site_label
_atom_site_fract_x
_atom_site_fract_y
_atom_site_fract_z
Si Si1 0.169106 0.883829 0.338268
Si Si2 0.606014 0.116382 0.841666
Si Si3 0.500000 0.117328 0.340476
Si Si4 0.063593 0.116581 0.157292
Si Si5 0.667211 0.390891 0.160516
Si Si6 0.436848 0.383608 0.341777
Si Si7 0.728198 0.798938 0.161079
O O1 0.167678 0.852270 0.500000
O O2 0.110851 0.843320 0.266060
O O3 0.222754 0.834062 0.264258
O O4 0.174731 0.000000 0.320511
O O5 0.557127 0.158513 0.737059
O O6 0.668808 0.150569 0.792315
O O7 0.604469 0.000000 0.837513
O O8 0.593787 0.154315 0.000000
O O9 0.500000 0.156472 0.500000
O O10 0.500000 0.000000 0.336498
O O11 0.000000 0.154863 0.201159
O O12 0.063554 0.000000 0.159842
O O13 0.078656 0.153337 0.000000
O O14 0.683586 0.500000 0.216679
O O15 0.612668 0.342921 0.240051
O O16 0.721599 0.318915 0.179098
O O17 0.648164 0.395961 0.000000
O O18 0.419762 0.355822 0.500000
O O19 0.500000 0.338449 0.305241
O O20 0.440350 0.500000 0.323360
O O21 0.743626 0.826651 0.000000
#
# Coordination Sequence:
#
# PCOD8196598 Si02
#       7
#     8   8   4   8   8   8   8
#     4  10  20  31  45  69 100 130 158 192 230 264
#     4   9  17  30  47  63  80 107 143 180 218 265
#     4   9  17  29  45  63  82 105 134 174 225 271
#     4   8  14  26  45  68  95 130 167 194 217 253
#     4   9  18  32  48  66  87 111 144 189 236 276
#     4   8  14  26  44  63  82 106 135 168 215 278
#     4  10  20  33  48  66  88 119 155 189 228 277
#
# _framework density 17.214269999999999
#
# number of rings (size 3 to 8) (size 9 to 14) (size 15 to 20)
#    0.000    3.000    0.000    2.077    0.000    4.308 
#    1.385    4.615    0.000    0.000    0.000    0.000 
#    0.000    0.615    0.000    7.077    0.000    2.308 
#
# Total GULP energy -644603.909267 kJ/mol
# GULP energy per Si atom -12396.229024 kJ/mol
# Density = 1.717509 g / cm^3
# Si number density = 17.214270 Si / 1000 Ang^3
#
#
#
# Elastic Constant Matrix: (Units=GPa)
#
#
# Indices 1 2 3 4 5 6 
#
# 1 145.0794 29.4816 94.2645 0.0000 0.0000 0.0000
# 2 29.4816 16.7131 25.6552 0.0000 0.0000 0.0000
# 3 94.2645 25.6552 120.3734 0.0000 0.0000 0.0000
# 4 0.0000 0.0000 0.0000 13.2253 0.0000 0.0000
# 5 0.0000 0.0000 0.0000 0.0000 24.6178 0.0000
# 6 0.0000 0.0000 0.0000 0.0000 0.0000 13.0141
#
#
#
# Elastic Compliance Matrix: (Units=1/GPa)
#
#
# Indices 1 2 3 4 5 6 
#
# 1 0.015768 -0.013168 -0.009542 0.000000 0.000000 0.000000
# 2 -0.013168 0.099924 -0.010985 0.000000 0.000000 0.000000
# 3 -0.009542 -0.010985 0.018121 0.000000 0.000000 0.000000
# 4 0.000000 0.000000 0.000000 0.075613 0.000000 0.000000
# 5 0.000000 0.000000 0.000000 0.000000 0.040621 0.000000
# 6 0.000000 0.000000 0.000000 0.000000 0.000000 0.076839
#
#
# Mechanical properties :
#
#
# Convention : Reuss Voigt Hill
#
# Bulk Modulus (GPa) = 15.05486 64.55204 39.80345
# Shear Modulus (GPa) = 12.00720 19.02242 15.51481
#
# Velocity S-wave (km/s) = 2.64392 3.32782 3.00538
# Velocity P-wave (km/s) = 4.25264 7.23508 5.93428
#
# Compressibility (1/GPa) = 0.06642372
#
# Stress axis : x y z
#
# Youngs Moduli (GPa) = 63.41829 10.00762 55.18552
#
# Poissons Ratio (x) = 0.13178 0.52656
# Poissons Ratio (y) = 0.83511 0.60619
# Poissons Ratio (z) = 0.60511 0.10993
#
# Static dielectric constant tensor:
#      x y z
#    x 3.345390 0.000000 0.000000 
#    y 0.000000 3.073810 0.000000 
#    z 0.000000 0.000000 3.328790 
# 
# 
# High freq. dielectric constant tensor:
#      x y z
#    x 1.648580 0.000000 0.000000 
#    y 0.000000 1.640110 0.000000 
#    z 0.000000 0.000000 1.666430 
# 
# From -- ./inp_files/12541.got.cif
#   From: 2010.03.12/outbox.cif.g09.slc.cpg/sg47_7_cif.got.tgz:12541.got - 2010.04.14 03:12:58.
