data_PCOD8196291
_publ_section_title
;
Structure prediction by ZEFSAII (Michael W. Deem and Ramdas Pophale) SiO2 
 PCOD8196291
Probable space group: P M M M
;
_chemical_formula_sum "Si O2"
_cell_formula_units_Z 48
_cell_length_a 9.049738
_cell_length_b 14.074506
_cell_length_c 20.638742
_cell_angle_alpha 90.000000
_cell_angle_beta 90.000000
_cell_angle_gamma 90.000000
_cell_volume 2628.768782
_symmetry_space_group_name_H-M "P M M M"
_symmetry_group_IT_number 47
_symmetry_cell_setting 'orthorhombic'
loop_
_space_group_symop_operation_xyz
x,y,z
-x,-y,z
x,-y,-z
-x,y,-z
-x,-y,-z
x,y,-z
-x,y,z
x,-y,z
loop_
_atom_site_type_symbol
_atom_site_label
_atom_site_fract_x
_atom_site_fract_y
_atom_site_fract_z
Si Si1 0.826954 0.110793 0.756960
Si Si2 0.175047 0.396744 0.572854
Si Si3 0.324809 0.216640 0.873826
Si Si4 0.174558 0.800231 0.621405
Si Si5 0.827999 0.608068 0.074343
Si Si6 0.324419 0.106316 0.000000
Si Si7 0.334328 0.111917 0.500000
O O1 0.735930 0.165072 0.811049
O O2 0.774921 0.154246 0.688803
O O3 0.000000 0.127491 0.768614
O O4 0.786184 0.000000 0.758523
O O5 0.233958 0.376659 0.500000
O O6 0.235270 0.500000 0.597392
O O7 0.225769 0.310783 0.619567
O O8 0.000000 0.400695 0.571003
O O9 0.500000 0.218868 0.870330
O O10 0.264937 0.324041 0.878458
O O11 0.265714 0.159676 0.936419
O O12 0.250420 0.856031 0.563887
O O13 0.000000 0.810088 0.611668
O O14 0.795220 0.500000 0.095437
O O15 0.000000 0.631506 0.082319
O O16 0.778468 0.623516 0.000000
O O17 0.500000 0.103748 0.000000
O O18 0.258959 0.000000 0.000000
O O19 0.500000 0.154077 0.500000
O O20 0.338493 0.000000 0.500000
#
# Coordination Sequence:
#
# PCOD8196291 Si02
#       7
#     8   8   8   8   8   4   4
#     4  10  22  38  54  76 109 147 187 230 276 330
#     4   8  13  24  48  82 110 130 163 214 265 311
#     4  11  21  35  56  81 110 145 183 228 278 330
#     4  10  19  35  58  80 104 141 186 228 267 317
#     4   9  18  34  57  84 114 146 179 222 276 330
#     4   9  18  32  50  75 104 134 177 227 270 321
#     4  11  23  35  50  77 110 138 173 227 284 335
#
# _framework density 18.259497
#
# number of rings (size 3 to 8) (size 9 to 14) (size 15 to 20)
#    0.000    2.333    1.667    2.750    0.000    3.333 
#    0.000    1.667    0.000    6.000    0.000    0.000 
#    0.000    0.000    0.000    0.000    0.000    0.000 
#
# Total GULP energy -595107.429096 kJ/mol
# GULP energy per Si atom -12398.071439 kJ/mol
# Density = 1.821794 g / cm^3
# Si number density = 18.259497 Si / 1000 Ang^3
#
#
#
# Elastic Constant Matrix: (Units=GPa)
#
#
# Indices 1 2 3 4 5 6 
#
# 1 50.8062 48.0962 53.9632 0.0000 0.0000 0.0000
# 2 48.0962 151.1094 78.3696 0.0000 0.0000 0.0000
# 3 53.9632 78.3696 137.4521 0.0000 0.0000 0.0000
# 4 0.0000 0.0000 0.0000 35.0709 0.0000 0.0000
# 5 0.0000 0.0000 0.0000 0.0000 22.9554 0.0000
# 6 0.0000 0.0000 0.0000 0.0000 0.0000 21.7546
#
#
#
# Elastic Compliance Matrix: (Units=1/GPa)
#
#
# Indices 1 2 3 4 5 6 
#
# 1 0.037315 -0.006076 -0.011186 0.000000 0.000000 0.000000
# 2 -0.006076 0.010385 -0.003536 0.000000 0.000000 0.000000
# 3 -0.011186 -0.003536 0.013683 0.000000 0.000000 0.000000
# 4 0.000000 0.000000 0.000000 0.028514 0.000000 0.000000
# 5 0.000000 0.000000 0.000000 0.000000 0.043563 0.000000
# 6 0.000000 0.000000 0.000000 0.000000 0.000000 0.045967
#
#
# Mechanical properties :
#
#
# Convention : Reuss Voigt Hill
#
# Bulk Modulus (GPa) = 50.53449 77.80286 64.16867
# Shear Modulus (GPa) = 21.96667 26.55211 24.25939
#
# Velocity S-wave (km/s) = 3.47223 3.81747 3.64894
# Velocity P-wave (km/s) = 6.61899 7.88244 7.27818
#
# Compressibility (1/GPa) = 0.01978847
#
# Stress axis : x y z
#
# Youngs Moduli (GPa) = 26.79892 96.28866 73.08440
#
# Poissons Ratio (x) = 0.58502 0.81749
# Poissons Ratio (y) = 0.16282 0.25843
# Poissons Ratio (z) = 0.29976 0.34048
#
# Static dielectric constant tensor:
#      x y z
#    x 3.105240 0.000000 0.000000 
#    y 0.000000 3.771900 0.000000 
#    z 0.000000 0.000000 3.421700 
# 
# 
# High freq. dielectric constant tensor:
#      x y z
#    x 1.680170 0.000000 0.000000 
#    y 0.000000 1.728350 0.000000 
#    z 0.000000 0.000000 1.693230 
# 
# From -- ./inp_files/26503.got.cif
#   From: 2010.03.12/outbox.cif.g09.slc.cpg/sg47_14_cif.got.tgz:26503.got - 2010.04.14 03:12:58.
