data_PCOD8196118
_publ_section_title
;
Structure prediction by ZEFSAII (Michael W. Deem and Ramdas Pophale) SiO2 
 PCOD8196118
Probable space group: P M M M
;
_chemical_formula_sum "Si O2"
_cell_formula_units_Z 56
_cell_length_a 16.915291
_cell_length_b 8.966989
_cell_length_c 20.433555
_cell_angle_alpha 90.000000
_cell_angle_beta 90.000000
_cell_angle_gamma 90.000000
_cell_volume 3099.345854
_symmetry_space_group_name_H-M "P M M M"
_symmetry_group_IT_number 47
_symmetry_cell_setting 'orthorhombic'
loop_
_space_group_symop_operation_xyz
x,y,z
-x,-y,z
x,-y,-z
-x,y,-z
-x,-y,-z
x,y,-z
-x,y,z
x,-y,z
loop_
_atom_site_type_symbol
_atom_site_label
_atom_site_fract_x
_atom_site_fract_y
_atom_site_fract_z
Si Si1 0.588085 0.329670 0.258913
Si Si2 0.156497 0.674567 0.808882
Si Si3 0.746821 0.328998 0.677755
Si Si4 0.264598 0.328355 0.927147
Si Si5 0.000000 0.676630 0.373538
Si Si6 0.411647 0.824908 0.124238
Si Si7 0.000000 0.823118 0.768102
Si Si8 0.152106 0.829037 0.425379
O O1 0.500000 0.300479 0.287610
O O2 0.597089 0.500000 0.234406
O O3 0.653219 0.297225 0.314491
O O4 0.606152 0.224448 0.198059
O O5 0.135505 0.500000 0.813600
O O6 0.208578 0.709248 0.745070
O O7 0.203224 0.731810 0.873101
O O8 0.076719 0.769703 0.807418
O O9 0.763124 0.500000 0.657927
O O10 0.776106 0.221864 0.620390
O O11 0.281840 0.500000 0.912088
O O12 0.348422 0.245502 0.924523
O O13 0.229018 0.304753 0.000000
O O14 0.923520 0.725926 0.413577
O O15 0.000000 0.500000 0.364487
O O16 0.000000 0.750375 0.302959
O O17 0.500000 0.773896 0.103409
O O18 0.403042 0.000000 0.120411
O O19 0.000000 0.000000 0.761304
O O20 0.179905 0.810578 0.500000
O O21 0.129950 0.000000 0.409512
#
# Coordination Sequence:
#
# PCOD8196118 Si02
#       8
#     8   8   8   8   4   8   4   8
#     4   9  17  32  55  82 111 142 181 230 275 316
#     4  10  20  37  58  83 110 138 178 229 275 318
#     4  10  19  33  57  84 110 144 183 225 271 319
#     4  10  21  38  59  80 105 142 186 228 274 327
#     4  12  23  37  58  84 113 147 180 218 269 322
#     4  10  20  32  49  77 113 149 181 219 272 329
#     4  12  24  37  58  85 110 143 182 221 268 322
#     4  11  24  39  55  80 115 150 183 221 264 319
#
# _framework density 18.068328999999999
#
# number of rings (size 3 to 8) (size 9 to 14) (size 15 to 20)
#    0.000    1.714    2.857    2.357    0.000    4.571 
#    0.000    1.786    0.000    2.571    0.000    3.000 
#    0.000    0.000    0.000    0.000    0.000    0.000 
#
# Total GULP energy -694511.004160 kJ/mol
# GULP energy per Si atom -12401.982217 kJ/mol
# Density = 1.802720 g / cm^3
# Si number density = 18.068329 Si / 1000 Ang^3
#
#
#
# Elastic Constant Matrix: (Units=GPa)
#
#
# Indices 1 2 3 4 5 6 
#
# 1 119.4228 46.6605 56.8722 0.0000 0.0000 0.0000
# 2 46.6605 80.0575 44.5656 0.0000 0.0000 0.0000
# 3 56.8722 44.5656 110.0672 0.0000 0.0000 0.0000
# 4 0.0000 0.0000 0.0000 21.3560 0.0000 0.0000
# 5 0.0000 0.0000 0.0000 0.0000 38.8240 0.0000
# 6 0.0000 0.0000 0.0000 0.0000 0.0000 23.5658
#
#
#
# Elastic Compliance Matrix: (Units=1/GPa)
#
#
# Indices 1 2 3 4 5 6 
#
# 1 0.012341 -0.004703 -0.004472 0.000000 0.000000 0.000000
# 2 -0.004703 0.017918 -0.004825 0.000000 0.000000 0.000000
# 3 -0.004472 -0.004825 0.013350 0.000000 0.000000 0.000000
# 4 0.000000 0.000000 0.000000 0.046825 0.000000 0.000000
# 5 0.000000 0.000000 0.000000 0.000000 0.025757 0.000000
# 6 0.000000 0.000000 0.000000 0.000000 0.000000 0.042434
#
#
# Mechanical properties :
#
#
# Convention : Reuss Voigt Hill
#
# Bulk Modulus (GPa) = 64.06884 67.30488 65.68686
# Shear Modulus (GPa) = 26.06487 27.51246 26.78867
#
# Velocity S-wave (km/s) = 3.80224 3.90640 3.85467
# Velocity P-wave (km/s) = 7.40353 7.59458 7.49966
#
# Compressibility (1/GPa) = 0.01560821
#
# Stress axis : x y z
#
# Youngs Moduli (GPa) = 81.03004 55.80983 74.90767
#
# Poissons Ratio (x) = 0.26248 0.33502
# Poissons Ratio (y) = 0.38110 0.36141
# Poissons Ratio (z) = 0.36240 0.26927
#
# Static dielectric constant tensor:
#      x y z
#    x 3.535200 0.000000 0.000000 
#    y 0.000000 3.368570 0.000000 
#    z 0.000000 0.000000 3.204710 
# 
# 
# High freq. dielectric constant tensor:
#      x y z
#    x 1.703180 0.000000 0.000000 
#    y 0.000000 1.700100 0.000000 
#    z 0.000000 0.000000 1.681100 
# 
# From -- ./inp_files/31049.got.cif
#   From: 2010.03.12/outbox.cif.g09.slc.cpg/sg47_16_cif.got.tgz:31049.got - 2010.04.14 03:12:58.
