data_PCOD8196882
_publ_section_title
;
Structure prediction by ZEFSAII (Michael W. Deem and Ramdas Pophale) SiO2 
 PCOD8196882
Probable space group: P M M M
;
_chemical_formula_sum "Si O2"
_cell_formula_units_Z 60
_cell_length_a 9.384916
_cell_length_b 25.753725
_cell_length_c 15.629935
_cell_angle_alpha 90.000000
_cell_angle_beta 90.000000
_cell_angle_gamma 90.000000
_cell_volume 3777.701301
_symmetry_space_group_name_H-M "P M M M"
_symmetry_group_IT_number 47
_symmetry_cell_setting 'orthorhombic'
loop_
_space_group_symop_operation_xyz
x,y,z
-x,-y,z
x,-y,-z
-x,y,-z
-x,-y,-z
x,y,-z
-x,y,z
x,-y,z
loop_
_atom_site_type_symbol
_atom_site_label
_atom_site_fract_x
_atom_site_fract_y
_atom_site_fract_z
Si Si1 0.167428 0.641818 0.691978
Si Si2 0.167523 0.844846 0.598100
Si Si3 0.336646 0.253710 0.096594
Si Si4 0.331209 0.556152 0.000000
Si Si5 0.832157 0.757916 0.267154
Si Si6 0.341343 0.442626 0.399565
Si Si7 0.659629 0.943039 0.398522
Si Si8 0.662643 0.629694 0.854347
O O1 0.210787 0.702867 0.689648
O O2 0.238828 0.605956 0.620265
O O3 0.225530 0.620407 0.780209
O O4 0.000000 0.634960 0.683814
O O5 0.215745 0.832186 0.500000
O O6 0.217292 0.799527 0.662032
O O7 0.236403 0.897877 0.634154
O O8 0.000000 0.852593 0.601456
O O9 0.500000 0.236194 0.110889
O O10 0.243664 0.230654 0.175459
O O11 0.323030 0.315470 0.098777
O O12 0.286677 0.235934 0.000000
O O13 0.280978 0.585925 0.083112
O O14 0.258740 0.500000 0.000000
O O15 0.500000 0.552973 0.000000
O O16 0.000000 0.760310 0.248996
O O17 0.349645 0.445652 0.500000
O O18 0.500000 0.431812 0.362290
O O19 0.288461 0.500000 0.365823
O O20 0.661294 0.943876 0.500000
O O21 0.500000 0.931487 0.365296
O O22 0.709890 0.000000 0.364719
O O23 0.500000 0.621533 0.822826
#
# Coordination Sequence:
#
# PCOD8196882 Si02
#       8
#     8   8   8   4   8   8   8   8
#     4  10  20  32  47  68  91 115 142 174 218 270
#     4   9  17  29  44  62  90 128 163 194 225 259
#     4   9  16  28  47  66  84 111 148 190 231 267
#     4   9  16  26  43  65  83 103 135 169 202 249
#     4   9  19  32  44  65  95 124 155 186 224 274
#     4   9  19  36  54  68  82 104 139 183 226 265
#     4   8  14  25  41  62  89 121 157 195 232 267
#     4   9  16  29  46  63  85 111 139 171 208 255
#
# _framework density 15.882675000000001
#
# number of rings (size 3 to 8) (size 9 to 14) (size 15 to 20)
#    0.000    3.000    0.667    1.200    0.000    3.200 
#    0.000    5.000    0.000    2.000    0.000    0.000 
#    0.000    0.533    0.000    5.867    0.000    4.533 
#
# Total GULP energy -743311.032681 kJ/mol
# GULP energy per Si atom -12388.517211 kJ/mol
# Density = 1.584653 g / cm^3
# Si number density = 15.882675 Si / 1000 Ang^3
#
#
#
# Elastic Constant Matrix: (Units=GPa)
#
#
# Indices 1 2 3 4 5 6 
#
# 1 51.1931 41.5338 33.2439 0.0000 0.0000 0.0000
# 2 41.5338 106.5221 54.1242 0.0000 0.0000 0.0000
# 3 33.2439 54.1242 76.3380 0.0000 0.0000 0.0000
# 4 0.0000 0.0000 0.0000 12.3918 0.0000 0.0000
# 5 0.0000 0.0000 0.0000 0.0000 15.9560 0.0000
# 6 0.0000 0.0000 0.0000 0.0000 0.0000 21.9239
#
#
#
# Elastic Compliance Matrix: (Units=1/GPa)
#
#
# Indices 1 2 3 4 5 6 
#
# 1 0.031269 -0.008242 -0.007773 0.000000 0.000000 0.000000
# 2 -0.008242 0.016847 -0.008355 0.000000 0.000000 0.000000
# 3 -0.007773 -0.008355 0.022408 0.000000 0.000000 0.000000
# 4 0.000000 0.000000 0.000000 0.080699 0.000000 0.000000
# 5 0.000000 0.000000 0.000000 0.000000 0.062672 0.000000
# 6 0.000000 0.000000 0.000000 0.000000 0.000000 0.045612
#
#
# Mechanical properties :
#
#
# Convention : Reuss Voigt Hill
#
# Bulk Modulus (GPa) = 45.90752 54.65078 50.27915
# Shear Modulus (GPa) = 15.84738 17.06441 16.45589
#
# Velocity S-wave (km/s) = 3.16219 3.28137 3.22233
# Velocity P-wave (km/s) = 6.50380 6.98858 6.75054
#
# Compressibility (1/GPa) = 0.02178292
#
# Stress axis : x y z
#
# Youngs Moduli (GPa) = 31.98071 59.35871 44.62601
#
# Poissons Ratio (x) = 0.48926 0.34688
# Poissons Ratio (y) = 0.26360 0.37285
# Poissons Ratio (z) = 0.24859 0.49594
#
# Static dielectric constant tensor:
#      x y z
#    x 2.992120 0.000000 0.000000 
#    y 0.000000 3.214790 0.000000 
#    z 0.000000 0.000000 2.973080 
# 
# 
# High freq. dielectric constant tensor:
#      x y z
#    x 1.600850 0.000000 0.000000 
#    y 0.000000 1.596930 0.000000 
#    z 0.000000 0.000000 1.592320 
# 
# From -- ./inp_files/27096.got.cif
#   From: 2010.03.12/outbox.cif.g09.slc.cpg/sg47_14_cif.got.tgz:27096.got - 2010.04.14 03:12:58.
