data_PCOD8196825
_publ_section_title
;
Structure prediction by ZEFSAII (Michael W. Deem and Ramdas Pophale) SiO2 
 PCOD8196825
Probable space group: P M M M
;
_chemical_formula_sum "Si O2"
_cell_formula_units_Z 56
_cell_length_a 23.279762
_cell_length_b 16.370958
_cell_length_c 8.949251
_cell_angle_alpha 90.000000
_cell_angle_beta 90.000000
_cell_angle_gamma 90.000000
_cell_volume 3410.667000
_symmetry_space_group_name_H-M "P M M M"
_symmetry_group_IT_number 47
_symmetry_cell_setting 'orthorhombic'
loop_
_space_group_symop_operation_xyz
x,y,z
-x,-y,z
x,-y,-z
-x,y,-z
-x,-y,-z
x,y,-z
-x,y,z
x,-y,z
loop_
_atom_site_type_symbol
_atom_site_label
_atom_site_fract_x
_atom_site_fract_y
_atom_site_fract_z
Si Si1 0.329504 0.161798 0.322961
Si Si2 0.732589 0.000000 0.676988
Si Si3 0.935614 0.692053 0.671274
Si Si4 0.862112 0.000000 0.322798
Si Si5 0.434428 0.093381 0.174016
Si Si6 0.764120 0.736826 0.176034
Si Si7 0.174238 0.592922 0.674395
Si Si8 0.876823 0.165193 0.824825
O O1 0.328069 0.170553 0.500000
O O2 0.395084 0.156586 0.266549
O O3 0.295970 0.238095 0.251825
O O4 0.299079 0.079921 0.261892
O O5 0.797054 0.000000 0.737699
O O6 0.731952 0.000000 0.500000
O O7 0.927633 0.720144 0.500000
O O8 0.891156 0.619879 0.710323
O O9 0.924659 0.769889 0.775954
O O10 0.000000 0.659232 0.700802
O O11 0.891760 0.081064 0.258810
O O12 0.866889 0.000000 0.500000
O O13 0.500000 0.118480 0.205731
O O14 0.424011 0.000000 0.227348
O O15 0.419911 0.101415 0.000000
O O16 0.780632 0.647141 0.234086
O O17 0.813972 0.800931 0.222790
O O18 0.755865 0.733313 0.000000
O O19 0.187905 0.602919 0.500000
O O20 0.181393 0.500000 0.727611
O O21 0.880727 0.150350 0.000000
#
# Coordination Sequence:
#
# PCOD8196825 Si02
#       8
#     8   4   8   4   8   8   8   8
#     4  11  19  30  46  68  95 125 166 207 244 282
#     4   9  18  27  40  65  92 120 154 198 242 279
#     4   9  18  33  52  72  94 122 154 187 227 277
#     4  11  19  31  48  65  90 121 156 197 241 286
#     4   9  18  31  44  61  91 132 173 210 247 283
#     4  10  20  32  47  69  96 126 156 190 236 286
#     4   9  18  33  53  76 100 124 149 183 230 282
#     4  10  20  32  46  67  93 121 155 194 236 279
#
# _framework density 16.419074999999999
#
# number of rings (size 3 to 8) (size 9 to 14) (size 15 to 20)
#    0.000    2.286    2.143    1.929    0.000    2.286 
#    0.000    2.500    0.000    2.143    0.000    4.000 
#    0.000    0.571    0.000    6.000    0.000    2.571 
#
# Total GULP energy -694471.690585 kJ/mol
# GULP energy per Si atom -12401.280189 kJ/mol
# Density = 1.638170 g / cm^3
# Si number density = 16.419075 Si / 1000 Ang^3
#
#
#
# Elastic Constant Matrix: (Units=GPa)
#
#
# Indices 1 2 3 4 5 6 
#
# 1 92.6155 42.7078 37.4554 0.0000 0.0000 0.0000
# 2 42.7078 107.4081 44.9605 0.0000 0.0000 0.0000
# 3 37.4554 44.9605 70.5459 0.0000 0.0000 0.0000
# 4 0.0000 0.0000 0.0000 22.7389 0.0000 0.0000
# 5 0.0000 0.0000 0.0000 0.0000 25.1852 0.0000
# 6 0.0000 0.0000 0.0000 0.0000 0.0000 20.0345
#
#
#
# Elastic Compliance Matrix: (Units=1/GPa)
#
#
# Indices 1 2 3 4 5 6 
#
# 1 0.014658 -0.003506 -0.005548 0.000000 0.000000 0.000000
# 2 -0.003506 0.013536 -0.006766 0.000000 0.000000 0.000000
# 3 -0.005548 -0.006766 0.021433 0.000000 0.000000 0.000000
# 4 0.000000 0.000000 0.000000 0.043977 0.000000 0.000000
# 5 0.000000 0.000000 0.000000 0.000000 0.039706 0.000000
# 6 0.000000 0.000000 0.000000 0.000000 0.000000 0.049914
#
#
# Mechanical properties :
#
#
# Convention : Reuss Voigt Hill
#
# Bulk Modulus (GPa) = 55.59316 57.86856 56.73086
# Shear Modulus (GPa) = 22.63890 23.28811 22.96351
#
# Velocity S-wave (km/s) = 3.71727 3.77019 3.74383
# Velocity P-wave (km/s) = 7.23578 7.36707 7.30172
#
# Compressibility (1/GPa) = 0.01798782
#
# Stress axis : x y z
#
# Youngs Moduli (GPa) = 68.22363 73.87513 46.65779
#
# Poissons Ratio (x) = 0.25900 0.25885
# Poissons Ratio (y) = 0.23918 0.31567
# Poissons Ratio (z) = 0.37850 0.49981
#
# Static dielectric constant tensor:
#      x y z
#    x 3.010870 0.000000 0.000000 
#    y 0.000000 2.923460 0.000000 
#    z 0.000000 0.000000 2.987390 
# 
# 
# High freq. dielectric constant tensor:
#      x y z
#    x 1.616190 0.000000 0.000000 
#    y 0.000000 1.605940 0.000000 
#    z 0.000000 0.000000 1.633930 
# 
# From -- ./inp_files/11321.got.cif
#   From: 2010.03.12/outbox.cif.g09.slc.cpg/sg47_6_cif.got.tgz:11321.got - 2010.04.14 03:12:58.
