data_PCOD8196869
_publ_section_title
;
Structure prediction by ZEFSAII (Michael W. Deem and Ramdas Pophale) SiO2 
 PCOD8196869
Probable space group: P M M M
;
_chemical_formula_sum "Si O2"
_cell_formula_units_Z 60
_cell_length_a 15.300651
_cell_length_b 28.314787
_cell_length_c 9.172144
_cell_angle_alpha 90.000000
_cell_angle_beta 90.000000
_cell_angle_gamma 90.000000
_cell_volume 3973.690816
_symmetry_space_group_name_H-M "P M M M"
_symmetry_group_IT_number 47
_symmetry_cell_setting 'orthorhombic'
loop_
_space_group_symop_operation_xyz
x,y,z
-x,-y,z
x,-y,-z
-x,y,-z
-x,-y,-z
x,y,-z
-x,y,z
x,-y,z
loop_
_atom_site_type_symbol
_atom_site_label
_atom_site_fract_x
_atom_site_fract_y
_atom_site_fract_z
Si Si1 0.500000 0.551498 0.326877
Si Si2 0.739872 0.686997 0.827910
Si Si3 0.149592 0.448700 0.334588
Si Si4 0.399944 0.234439 0.828202
Si Si5 0.603548 0.140462 0.337777
Si Si6 0.901599 0.653098 0.328894
Si Si7 0.674500 0.401898 0.333693
Si Si8 0.603919 0.052021 0.836324
O O1 0.500000 0.500000 0.255114
O O2 0.500000 0.547339 0.500000
O O3 0.415671 0.578842 0.271746
O O4 0.671615 0.727251 0.776949
O O5 0.835615 0.689616 0.750928
O O6 0.697919 0.638402 0.779257
O O7 0.754231 0.688591 0.000000
O O8 0.116503 0.451463 0.500000
O O9 0.124910 0.500000 0.260239
O O10 0.106862 0.400999 0.265567
O O11 0.254340 0.443585 0.327667
O O12 0.500000 0.248529 0.781182
O O13 0.369257 0.185936 0.754817
O O14 0.396961 0.226981 0.000000
O O15 0.642483 0.145282 0.500000
O O16 0.500000 0.136096 0.343132
O O17 0.643776 0.093057 0.265502
O O18 0.876762 0.652365 0.500000
O O19 0.000000 0.671215 0.302319
O O20 0.667054 0.382462 0.500000
O O21 0.500000 0.055417 0.837608
O O22 0.632619 0.000000 0.778616
O O23 0.639378 0.059612 0.000000
#
# Coordination Sequence:
#
# PCOD8196869 Si02
#       8
#     4   8   8   8   8   8   8   8
#     4   9  16  26  43  65  83 103 137 175 206 237
#     4  10  20  32  47  64  82 108 139 171 206 248
#     4   8  13  23  41  63  84 103 125 154 187 229
#     4   9  18  31  44  57  77 108 143 176 210 250
#     4   9  16  24  35  54  77 101 133 176 221 254
#     4   9  18  32  49  68  88 107 129 162 204 248
#     4   9  17  28  42  61  83 106 132 166 205 242
#     4   8  13  21  33  48  69 102 141 176 210 249
#
# _framework density 15.099313
#
# number of rings (size 3 to 8) (size 9 to 14) (size 15 to 20)
#    0.000    3.133    0.000    2.400    0.933    5.067 
#    0.000    2.667    0.000   10.400    0.000    3.733 
#    0.000    0.000    0.000    0.000    0.000    0.667 
#
# Total GULP energy -743314.896896 kJ/mol
# GULP energy per Si atom -12388.581615 kJ/mol
# Density = 1.506495 g / cm^3
# Si number density = 15.099313 Si / 1000 Ang^3
#
#
#
# Elastic Constant Matrix: (Units=GPa)
#
#
# Indices 1 2 3 4 5 6 
#
# 1 79.8211 33.9841 22.5406 0.0000 0.0000 0.0000
# 2 33.9841 94.3839 34.3133 0.0000 0.0000 0.0000
# 3 22.5406 34.3133 40.1436 0.0000 0.0000 0.0000
# 4 0.0000 0.0000 0.0000 20.0722 0.0000 0.0000
# 5 0.0000 0.0000 0.0000 0.0000 14.7106 0.0000
# 6 0.0000 0.0000 0.0000 0.0000 0.0000 6.4152
#
#
#
# Elastic Compliance Matrix: (Units=1/GPa)
#
#
# Indices 1 2 3 4 5 6 
#
# 1 0.015665 -0.003544 -0.005767 0.000000 0.000000 0.000000
# 2 -0.003544 0.016174 -0.011835 0.000000 0.000000 0.000000
# 3 -0.005767 -0.011835 0.038264 0.000000 0.000000 0.000000
# 4 0.000000 0.000000 0.000000 0.049820 0.000000 0.000000
# 5 0.000000 0.000000 0.000000 0.000000 0.067978 0.000000
# 6 0.000000 0.000000 0.000000 0.000000 0.000000 0.155880
#
#
# Mechanical properties :
#
#
# Convention : Reuss Voigt Hill
#
# Bulk Modulus (GPa) = 35.95504 44.00273 39.97889
# Shear Modulus (GPa) = 12.64722 16.47364 14.56043
#
# Velocity S-wave (km/s) = 2.89728 3.30664 3.10870
# Velocity P-wave (km/s) = 5.92084 6.61695 6.27855
#
# Compressibility (1/GPa) = 0.02781251
#
# Stress axis : x y z
#
# Youngs Moduli (GPa) = 63.83510 61.82926 26.13390
#
# Poissons Ratio (x) = 0.21912 0.15071
# Poissons Ratio (y) = 0.22623 0.30929
# Poissons Ratio (z) = 0.36813 0.73173
#
# Static dielectric constant tensor:
#      x y z
#    x 2.794090 0.000000 0.000000 
#    y 0.000000 2.977710 0.000000 
#    z 0.000000 0.000000 2.792050 
# 
# 
# High freq. dielectric constant tensor:
#      x y z
#    x 1.541690 0.000000 0.000000 
#    y 0.000000 1.567860 0.000000 
#    z 0.000000 0.000000 1.559510 
# 
# From -- ./inp_files/10263.got.cif
#   From: 2010.03.12/outbox.cif.g09.slc.cpg/sg47_6_cif.got.tgz:10263.got - 2010.04.14 03:12:58.
