data_PCOD8196510
_publ_section_title
;
Structure prediction by ZEFSAII (Michael W. Deem and Ramdas Pophale) SiO2 
 PCOD8196510
Probable space group: P M M M
;
_chemical_formula_sum "Si O2"
_cell_formula_units_Z 64
_cell_length_a 9.192482
_cell_length_b 15.199636
_cell_length_c 29.933684
_cell_angle_alpha 90.000000
_cell_angle_beta 90.000000
_cell_angle_gamma 90.000000
_cell_volume 4182.405581
_symmetry_space_group_name_H-M "P M M M"
_symmetry_group_IT_number 47
_symmetry_cell_setting 'orthorhombic'
loop_
_space_group_symop_operation_xyz
x,y,z
-x,-y,z
x,-y,-z
-x,y,-z
-x,-y,-z
x,y,-z
-x,y,z
x,-y,z
loop_
_atom_site_type_symbol
_atom_site_label
_atom_site_fract_x
_atom_site_fract_y
_atom_site_fract_z
Si Si1 0.329272 0.263889 0.550399
Si Si2 0.163643 0.095948 0.446927
Si Si3 0.335577 0.395400 0.201987
Si Si4 0.835584 0.395233 0.712348
Si Si5 0.836373 0.902860 0.946932
Si Si6 0.333658 0.265564 0.946989
Si Si7 0.829819 0.602876 0.113437
Si Si8 0.669507 0.601131 0.375151
O O1 0.272069 0.282191 0.500000
O O2 0.500000 0.251183 0.550249
O O3 0.263429 0.174546 0.571403
O O4 0.281783 0.345413 0.581076
O O5 0.169240 0.096119 0.500000
O O6 0.000000 0.112219 0.430032
O O7 0.218697 0.000000 0.429625
O O8 0.500000 0.358149 0.200344
O O9 0.338195 0.500000 0.204184
O O10 0.253860 0.357254 0.245544
O O11 0.247631 0.363913 0.158563
O O12 0.834898 0.500000 0.714083
O O13 0.759152 0.362615 0.667030
O O14 0.000000 0.358806 0.714069
O O15 0.728708 0.827494 0.928635
O O16 0.000000 0.883270 0.929850
O O17 0.785886 0.000000 0.930069
O O18 0.834507 0.902017 0.000000
O O19 0.500000 0.273870 0.931120
O O20 0.239684 0.345687 0.927904
O O21 0.320423 0.270963 0.000000
O O22 0.801741 0.500000 0.105144
O O23 0.000000 0.623882 0.117174
O O24 0.500000 0.613831 0.364163
O O25 0.706645 0.500000 0.385246
#
# Coordination Sequence:
#
# PCOD8196510 Si02
#       8
#     8   8   8   8   8   8   8   8
#     4   9  17  27  39  57  80 107 140 175 207 239
#     4   8  14  25  40  56  74  98 128 163 206 252
#     4   9  16  27  44  63  82 104 131 167 213 258
#     4   9  16  26  41  60  80 102 132 170 209 247
#     4   8  14  26  44  63  82 106 137 174 216 258
#     4  10  20  31  43  61  86 116 148 181 215 251
#     4  10  20  32  45  61  83 113 148 182 213 248
#     4   9  17  28  40  55  79 111 143 172 203 240
#
# _framework density 15.302199
#
# number of rings (size 3 to 8) (size 9 to 14) (size 15 to 20)
#    0.000    3.000    0.000    2.250    0.000    6.000 
#    0.000    5.000    0.000    0.000    0.000    3.500 
#    0.000    1.000    0.000    7.250    0.000    6.500 
#
# Total GULP energy -793335.674445 kJ/mol
# GULP energy per Si atom -12395.869913 kJ/mol
# Density = 1.526737 g / cm^3
# Si number density = 15.302199 Si / 1000 Ang^3
#
#
#
# Elastic Constant Matrix: (Units=GPa)
#
#
# Indices 1 2 3 4 5 6 
#
# 1 96.1645 45.0077 42.8432 0.0000 0.0000 0.0000
# 2 45.0077 73.1204 37.1268 0.0000 0.0000 0.0000
# 3 42.8432 37.1268 59.2050 0.0000 0.0000 0.0000
# 4 0.0000 0.0000 0.0000 1.6005 0.0000 0.0000
# 5 0.0000 0.0000 0.0000 0.0000 22.2416 0.0000
# 6 0.0000 0.0000 0.0000 0.0000 0.0000 22.3316
#
#
#
# Elastic Compliance Matrix: (Units=1/GPa)
#
#
# Indices 1 2 3 4 5 6 
#
# 1 0.017077 -0.006216 -0.008460 0.000000 0.000000 0.000000
# 2 -0.006216 0.022327 -0.009503 0.000000 0.000000 0.000000
# 3 -0.008460 -0.009503 0.028972 0.000000 0.000000 0.000000
# 4 0.000000 0.000000 0.000000 0.624806 0.000000 0.000000
# 5 0.000000 0.000000 0.000000 0.000000 0.044961 0.000000
# 6 0.000000 0.000000 0.000000 0.000000 0.000000 0.044780
#
#
# Mechanical properties :
#
#
# Convention : Reuss Voigt Hill
#
# Bulk Modulus (GPa) = 49.95406 53.16060 51.55733
# Shear Modulus (GPa) = 5.96693 16.13556 11.05124
#
# Velocity S-wave (km/s) = 1.97683 3.25077 2.69029
# Velocity P-wave (km/s) = 6.15844 6.99328 6.58909
#
# Compressibility (1/GPa) = 0.02001839
#
# Stress axis : x y z
#
# Youngs Moduli (GPa) = 58.55806 44.78796 34.51666
#
# Poissons Ratio (x) = 0.27840 0.29200
# Poissons Ratio (y) = 0.36400 0.32802
# Poissons Ratio (z) = 0.49538 0.42563
#
# Static dielectric constant tensor:
#      x y z
#    x 3.102520 0.000000 0.000000 
#    y 0.000000 2.949600 0.000000 
#    z 0.000000 0.000000 2.789560 
# 
# 
# High freq. dielectric constant tensor:
#      x y z
#    x 1.597060 0.000000 0.000000 
#    y 0.000000 1.558520 0.000000 
#    z 0.000000 0.000000 1.556540 
# 
# From -- ./inp_files/8227.got.cif
#   From: 2010.03.12/outbox.cif.g09.slc.cpg/sg47_5_cif.got.tgz:8227.got - 2010.04.14 03:12:58.
