data_PCOD8196859
_publ_section_title
;
Structure prediction by ZEFSAII (Michael W. Deem and Ramdas Pophale) SiO2 
 PCOD8196859
Probable space group: P M M M
;
_chemical_formula_sum "Si O2"
_cell_formula_units_Z 32
_cell_length_a 9.108637
_cell_length_b 9.088794
_cell_length_c 20.977866
_cell_angle_alpha 90.000000
_cell_angle_beta 90.000000
_cell_angle_gamma 90.000000
_cell_volume 1736.684635
_symmetry_space_group_name_H-M "P M M M"
_symmetry_group_IT_number 47
_symmetry_cell_setting 'orthorhombic'
loop_
_space_group_symop_operation_xyz
x,y,z
-x,-y,z
x,-y,-z
-x,y,-z
-x,-y,-z
x,y,-z
-x,y,z
x,-y,z
loop_
_atom_site_type_symbol
_atom_site_label
_atom_site_fract_x
_atom_site_fract_y
_atom_site_fract_z
Si Si1 0.160824 0.174736 0.500000
Si Si2 0.328620 0.828461 0.125841
Si Si3 0.825943 0.667455 0.240047
Si Si4 0.674539 0.666094 0.000000
Si Si5 0.175441 0.165138 0.363530
O O1 0.240100 0.219001 0.432901
O O2 0.000000 0.248839 0.500000
O O3 0.143901 0.000000 0.500000
O O4 0.500000 0.795999 0.135425
O O5 0.243100 0.767638 0.186058
O O6 0.296317 0.000000 0.118278
O O7 0.266898 0.748648 0.062724
O O8 0.772981 0.500000 0.231803
O O9 0.769045 0.725661 0.308475
O O10 0.000000 0.681135 0.235310
O O11 0.735697 0.500000 0.000000
O O12 0.500000 0.668789 0.000000
O O13 0.000000 0.165436 0.368172
O O14 0.230687 0.000000 0.347469
#
# Coordination Sequence:
#
# PCOD8196859 Si02
#       5
#     4   8   8   4   8
#     4   7  10  18  35  59  84 113 152 193 230 270
#     4  10  20  34  53  75  96 121 157 197 233 274
#     4  10  20  32  46  68  99 131 160 192 234 282
#     4   9  17  31  52  75  98 123 150 186 234 281
#     4   8  13  23  40  61  87 120 156 193 232 274
#
# _framework density 18.425913000000001
#
# number of rings (size 3 to 8) (size 9 to 14) (size 15 to 20)
#    0.000    3.000    0.000    3.375    0.000    4.500 
#    0.000    1.250    0.000    7.500    0.000    0.875 
#    0.000    7.000    0.000    0.000    0.000    0.000 
#
# Total GULP energy -396546.619898 kJ/mol
# GULP energy per Si atom -12392.081872 kJ/mol
# Density = 1.838397 g / cm^3
# Si number density = 18.425913 Si / 1000 Ang^3
#
#
#
# Elastic Constant Matrix: (Units=GPa)
#
#
# Indices 1 2 3 4 5 6 
#
# 1 12.4645 19.0212 22.9979 0.0000 0.0000 0.0000
# 2 19.0212 96.0709 61.2625 0.0000 0.0000 0.0000
# 3 22.9979 61.2625 177.3345 0.0000 0.0000 0.0000
# 4 0.0000 0.0000 0.0000 19.0543 0.0000 0.0000
# 5 0.0000 0.0000 0.0000 0.0000 244.8332 0.0000
# 6 0.0000 0.0000 0.0000 0.0000 0.0000 18.2295
#
#
#
# Elastic Compliance Matrix: (Units=1/GPa)
#
#
# Indices 1 2 3 4 5 6 
#
# 1 0.127484 -0.018851 -0.010021 0.000000 0.000000 0.000000
# 2 -0.018851 0.016137 -0.003130 0.000000 0.000000 0.000000
# 3 -0.010021 -0.003130 0.008020 0.000000 0.000000 0.000000
# 4 0.000000 0.000000 0.000000 0.052482 0.000000 0.000000
# 5 0.000000 0.000000 0.000000 0.000000 0.004084 0.000000
# 6 0.000000 0.000000 0.000000 0.000000 0.000000 0.054856
#
#
# Mechanical properties :
#
#
# Convention : Reuss Voigt Hill
#
# Bulk Modulus (GPa) = 11.41058 54.71479 33.06269
# Shear Modulus (GPa) = 14.03394 68.59595 41.31494
#
# Velocity S-wave (km/s) = 2.76278 6.10809 4.74035
# Velocity P-wave (km/s) = 4.04764 8.91650 6.92414
#
# Compressibility (1/GPa) = 0.08763795
#
# Stress axis : x y z
#
# Youngs Moduli (GPa) = 7.84413 61.96814 124.68885
#
# Poissons Ratio (x) = 1.16815 1.24947
# Poissons Ratio (y) = 0.14787 0.39030
# Poissons Ratio (z) = 0.07860 0.19397
#
# Static dielectric constant tensor:
#      x y z
#    x 2.787890 0.000000 0.000000 
#    y 0.000000 3.420480 0.000000 
#    z 0.000000 0.000000 3.917820 
# 
# 
# High freq. dielectric constant tensor:
#      x y z
#    x 1.644600 0.000000 0.000000 
#    y 0.000000 1.708910 0.000000 
#    z 0.000000 0.000000 1.742820 
# 
# From -- ./inp_files/3593.got.cif
#   From: 2010.03.12/outbox.cif.g09.slc.cpg/sg47_2_cif.got.tgz:3593.got - 2010.04.14 03:12:58.
