data_PCOD8196927
_publ_section_title
;
Structure prediction by ZEFSAII (Michael W. Deem and Ramdas Pophale) SiO2 
 PCOD8196927
Probable space group: P M M M
;
_chemical_formula_sum "Si O2"
_cell_formula_units_Z 44
_cell_length_a 9.009093
_cell_length_b 20.678875
_cell_length_c 14.031919
_cell_angle_alpha 90.000000
_cell_angle_beta 90.000000
_cell_angle_gamma 90.000000
_cell_volume 2614.117155
_symmetry_space_group_name_H-M "P M M M"
_symmetry_group_IT_number 47
_symmetry_cell_setting 'orthorhombic'
loop_
_space_group_symop_operation_xyz
x,y,z
-x,-y,z
x,-y,-z
-x,y,-z
-x,-y,-z
x,y,-z
-x,y,z
x,-y,z
loop_
_atom_site_type_symbol
_atom_site_label
_atom_site_fract_x
_atom_site_fract_y
_atom_site_fract_z
Si Si1 0.324389 0.691883 0.291163
Si Si2 0.170814 0.324051 0.104518
Si Si3 0.325686 0.574159 0.000000
Si Si4 0.164775 0.194448 0.612412
Si Si5 0.666785 0.071113 0.613333
Si Si6 0.173036 0.574228 0.390011
O O1 0.500000 0.691161 0.285928
O O2 0.257099 0.712804 0.188392
O O3 0.271212 0.745736 0.365116
O O4 0.267799 0.621346 0.323061
O O5 0.249947 0.394333 0.093948
O O6 0.000000 0.333119 0.133644
O O7 0.184516 0.288428 0.000000
O O8 0.286022 0.500000 0.000000
O O9 0.500000 0.588234 0.000000
O O10 0.155892 0.188242 0.500000
O O11 0.229449 0.127571 0.656114
O O12 0.000000 0.205662 0.655101
O O13 0.665946 0.074810 0.500000
O O14 0.500000 0.081858 0.651735
O O15 0.725094 0.000000 0.645746
O O16 0.214509 0.587421 0.500000
O O17 0.210660 0.500000 0.363515
O O18 0.000000 0.588604 0.373353
#
# Coordination Sequence:
#
# PCOD8196927 Si02
#       6
#     8   8   4   8   8   8
#     4  12  23  33  50  72  97 126 158 201 248 293
#     4   9  20  36  53  69  89 119 152 190 236 289
#     4   9  17  31  51  73  95 115 140 181 232 285
#     4  10  20  32  47  69  99 134 171 207 240 283
#     4   8  14  26  44  66  95 130 165 201 241 284
#     4   9  19  36  54  69  89 121 160 200 241 288
#
# _framework density 16.831686000000001
#
# number of rings (size 3 to 8) (size 9 to 14) (size 15 to 20)
#    0.545    1.909    0.000    4.364    0.000    5.818 
#    0.000    2.727    0.000    0.000    0.000    0.000 
#    0.000    0.727    0.000    7.636    0.000    3.636 
#
# Total GULP energy -545264.159106 kJ/mol
# GULP energy per Si atom -12392.367252 kJ/mol
# Density = 1.679338 g / cm^3
# Si number density = 16.831686 Si / 1000 Ang^3
#
#
#
# Elastic Constant Matrix: (Units=GPa)
#
#
# Indices 1 2 3 4 5 6 
#
# 1 122.1733 47.7075 31.0366 0.0000 0.0000 0.0000
# 2 47.7075 87.7068 18.8201 0.0000 0.0000 0.0000
# 3 31.0366 18.8201 43.9555 0.0000 0.0000 0.0000
# 4 0.0000 0.0000 0.0000 4.7732 0.0000 0.0000
# 5 0.0000 0.0000 0.0000 0.0000 23.9578 0.0000
# 6 0.0000 0.0000 0.0000 0.0000 0.0000 28.8810
#
#
#
# Elastic Compliance Matrix: (Units=1/GPa)
#
#
# Indices 1 2 3 4 5 6 
#
# 1 0.011712 -0.005061 -0.006103 0.000000 0.000000 0.000000
# 2 -0.005061 0.014742 -0.002739 0.000000 0.000000 0.000000
# 3 -0.006103 -0.002739 0.028232 0.000000 0.000000 0.000000
# 4 0.000000 0.000000 0.000000 0.209501 0.000000 0.000000
# 5 0.000000 0.000000 0.000000 0.000000 0.041740 0.000000
# 6 0.000000 0.000000 0.000000 0.000000 0.000000 0.034625
#
#
# Mechanical properties :
#
#
# Convention : Reuss Voigt Hill
#
# Bulk Modulus (GPa) = 37.20037 49.88488 43.54262
# Shear Modulus (GPa) = 13.25148 21.94050 17.59599
#
# Velocity S-wave (km/s) = 2.80892 3.61435 3.23679
# Velocity P-wave (km/s) = 5.71572 6.86439 6.31622
#
# Compressibility (1/GPa) = 0.02688146
#
# Stress axis : x y z
#
# Youngs Moduli (GPa) = 85.38516 67.83274 35.42105
#
# Poissons Ratio (x) = 0.34330 0.21616
# Poissons Ratio (y) = 0.43213 0.09700
# Poissons Ratio (z) = 0.52107 0.18576
#
# Static dielectric constant tensor:
#      x y z
#    x 3.299630 0.000000 0.000000 
#    y 0.000000 3.143480 0.000000 
#    z 0.000000 0.000000 2.940470 
# 
# 
# High freq. dielectric constant tensor:
#      x y z
#    x 1.660020 0.000000 0.000000 
#    y 0.000000 1.632570 0.000000 
#    z 0.000000 0.000000 1.611370 
# 
# From -- ./inp_files/21291.got.cif
#   From: 2010.03.12/outbox.cif.g09.slc.cpg/sg47_11_cif.got.tgz:21291.got - 2010.04.14 03:12:58.
