data_PCOD8196173
_publ_section_title
;
Structure prediction by ZEFSAII (Michael W. Deem and Ramdas Pophale) SiO2 
 PCOD8196173
Probable space group: P M M M
;
_chemical_formula_sum "Si O2"
_cell_formula_units_Z 52
_cell_length_a 17.146823
_cell_length_b 9.022476
_cell_length_c 17.422409
_cell_angle_alpha 90.000000
_cell_angle_beta 90.000000
_cell_angle_gamma 90.000000
_cell_volume 2695.365127
_symmetry_space_group_name_H-M "P M M M"
_symmetry_group_IT_number 47
_symmetry_cell_setting 'orthorhombic'
loop_
_space_group_symop_operation_xyz
x,y,z
-x,-y,z
x,-y,-z
-x,y,-z
-x,-y,-z
x,y,-z
-x,y,z
x,-y,z
loop_
_atom_site_type_symbol
_atom_site_label
_atom_site_fract_x
_atom_site_fract_y
_atom_site_fract_z
Si Si1 0.317536 0.324084 0.352426
Si Si2 0.911611 0.168232 0.185073
Si Si3 0.500000 0.323337 0.087669
Si Si4 0.141346 0.324828 0.333228
Si Si5 0.353533 0.675769 0.183937
Si Si6 0.410934 0.676898 0.500000
Si Si7 0.228449 0.830568 0.085764
Si Si8 0.000000 0.164436 0.589569
O O1 0.319981 0.500000 0.353930
O O2 0.227704 0.271021 0.358488
O O3 0.356209 0.267835 0.272342
O O4 0.366964 0.260657 0.424223
O O5 0.873938 0.278688 0.246160
O O6 0.862951 0.181979 0.106523
O O7 0.000000 0.215901 0.167553
O O8 0.907600 0.000000 0.216890
O O9 0.500000 0.500000 0.085990
O O10 0.574286 0.261838 0.134355
O O11 0.500000 0.261921 0.000000
O O12 0.133328 0.500000 0.340953
O O13 0.077677 0.250077 0.387110
O O14 0.353172 0.500000 0.182522
O O15 0.274946 0.731371 0.145396
O O16 0.409329 0.500000 0.500000
O O17 0.500000 0.734811 0.500000
O O18 0.257145 0.000000 0.091876
O O19 0.240563 0.769117 0.000000
O O20 0.000000 0.149864 0.500000
O O21 0.000000 0.000000 0.627311
#
# Coordination Sequence:
#
# PCOD8196173 Si02
#       8
#     8   8   4   8   8   4   8   4
#     4   9  19  32  50  80 112 144 180 225 275 330
#     4  10  20  35  55  77 107 147 187 229 273 325
#     4   9  18  30  49  78 108 140 179 227 279 331
#     4  11  21  35  56  82 112 145 185 230 278 328
#     4  10  19  34  55  79 109 143 184 228 278 336
#     4   9  18  32  52  79 115 150 178 217 277 335
#     4  10  21  36  54  79 110 145 188 234 281 334
#     4  11  25  41  57  81 114 149 188 229 277 338
#
# _framework density 19.292377999999999
#
# number of rings (size 3 to 8) (size 9 to 14) (size 15 to 20)
#    0.000    2.077    2.308    1.154    2.154    1.846 
#    0.000    1.923    0.000    1.385    0.000    2.154 
#    0.000    5.538    0.000    0.000    0.000    0.000 
#
# Total GULP energy -644686.688867 kJ/mol
# GULP energy per Si atom -12397.820940 kJ/mol
# Density = 1.924847 g / cm^3
# Si number density = 19.292378 Si / 1000 Ang^3
#
#
#
# Elastic Constant Matrix: (Units=GPa)
#
#
# Indices 1 2 3 4 5 6 
#
# 1 160.1179 26.7108 79.1646 0.0000 0.0000 0.0000
# 2 26.7108 37.5092 21.4682 0.0000 0.0000 0.0000
# 3 79.1646 21.4682 159.6261 0.0000 0.0000 0.0000
# 4 0.0000 0.0000 0.0000 21.0912 0.0000 0.0000
# 5 0.0000 0.0000 0.0000 0.0000 35.7354 0.0000
# 6 0.0000 0.0000 0.0000 0.0000 0.0000 7.9631
#
#
#
# Elastic Compliance Matrix: (Units=1/GPa)
#
#
# Indices 1 2 3 4 5 6 
#
# 1 0.008818 -0.004091 -0.003823 0.000000 0.000000 0.000000
# 2 -0.004091 0.030782 -0.002111 0.000000 0.000000 0.000000
# 3 -0.003823 -0.002111 0.008444 0.000000 0.000000 0.000000
# 4 0.000000 0.000000 0.000000 0.047413 0.000000 0.000000
# 5 0.000000 0.000000 0.000000 0.000000 0.027983 0.000000
# 6 0.000000 0.000000 0.000000 0.000000 0.000000 0.125579
#
#
# Mechanical properties :
#
#
# Convention : Reuss Voigt Hill
#
# Bulk Modulus (GPa) = 35.72191 67.99337 51.85764
# Shear Modulus (GPa) = 17.95969 28.28524 23.12246
#
# Velocity S-wave (km/s) = 3.05441 3.83317 3.46573
# Velocity P-wave (km/s) = 5.56736 7.41020 6.55388
#
# Compressibility (1/GPa) = 0.02799402
#
# Stress axis : x y z
#
# Youngs Moduli (GPa) = 113.40381 32.48678 118.42079
#
# Poissons Ratio (x) = 0.13292 0.45272
# Poissons Ratio (y) = 0.46398 0.24996
# Poissons Ratio (z) = 0.43354 0.06857
#
# Static dielectric constant tensor:
#      x y z
#    x 3.880390 0.000000 0.000000 
#    y 0.000000 3.184130 0.000000 
#    z 0.000000 0.000000 3.717250 
# 
# 
# High freq. dielectric constant tensor:
#      x y z
#    x 1.762420 0.000000 0.000000 
#    y 0.000000 1.711000 0.000000 
#    z 0.000000 0.000000 1.758700 
# 
# From -- ./inp_files/9613.got.cif
#   From: 2010.03.12/outbox.cif.g09.slc.cpg/sg47_5_cif.got.tgz:9613.got - 2010.04.14 03:12:58.
