data_PCOD8196300
_publ_section_title
;
Structure prediction by ZEFSAII (Michael W. Deem and Ramdas Pophale) SiO2 
 PCOD8196300
Probable space group: P M M M
;
_chemical_formula_sum "Si O2"
_cell_formula_units_Z 56
_cell_length_a 22.077800
_cell_length_b 8.810049
_cell_length_c 14.907626
_cell_angle_alpha 90.000000
_cell_angle_beta 90.000000
_cell_angle_gamma 90.000000
_cell_volume 2899.630154
_symmetry_space_group_name_H-M "P M M M"
_symmetry_group_IT_number 47
_symmetry_cell_setting 'orthorhombic'
loop_
_space_group_symop_operation_xyz
x,y,z
-x,-y,z
x,-y,-z
-x,y,-z
-x,-y,-z
x,y,-z
-x,y,z
x,-y,z
loop_
_atom_site_type_symbol
_atom_site_label
_atom_site_fract_x
_atom_site_fract_y
_atom_site_fract_z
Si Si1 0.570570 0.174512 0.101894
Si Si2 0.332383 0.321729 0.776968
Si Si3 0.121881 0.322271 0.835165
Si Si4 0.707384 0.824292 0.600945
Si Si5 0.067696 0.820066 0.500000
Si Si6 0.000000 0.820374 0.897663
Si Si7 0.766241 0.173431 0.901200
Si Si8 0.843818 0.176812 0.345916
O O1 0.500000 0.193216 0.122653
O O2 0.605554 0.275273 0.174354
O O3 0.590900 0.000000 0.112810
O O4 0.584638 0.228391 0.000000
O O5 0.324558 0.500000 0.782457
O O6 0.331756 0.270450 0.673070
O O7 0.276546 0.245232 0.827258
O O8 0.112850 0.500000 0.847544
O O9 0.058011 0.241037 0.846071
O O10 0.169689 0.259882 0.907630
O O11 0.150698 0.282753 0.739789
O O12 0.687992 0.775771 0.500000
O O13 0.778816 0.793863 0.609879
O O14 0.692656 0.000000 0.617409
O O15 0.103855 0.765769 0.412653
O O16 0.000000 0.749679 0.500000
O O17 0.064753 0.000000 0.500000
O O18 0.000000 0.000000 0.892756
O O19 0.000000 0.761963 0.000000
O O20 0.778090 0.000000 0.872996
O O21 0.735936 0.183662 0.000000
O O22 0.852113 0.000000 0.320629
#
# Coordination Sequence:
#
# PCOD8196300 Si02
#       8
#     8   8   8   8   4   4   8   8
#     4   9  19  38  64  92 124 166 212 252 292 346
#     4  12  24  36  56  90 128 162 197 244 304 358
#     4  12  25  39  57  84 115 144 180 233 297 354
#     4  10  20  37  61  85 113 155 206 252 294 351
#     4   9  18  32  55  87 111 137 185 240 289 344
#     4  11  25  45  65  80  99 140 193 235 280 347
#     4  11  23  39  59  82 112 153 199 243 287 344
#     4  10  19  35  58  82 110 146 188 233 285 350
#
# _framework density 19.312805999999998
#
# number of rings (size 3 to 8) (size 9 to 14) (size 15 to 20)
#    0.000    1.429    2.143    4.500    1.000    6.000 
#    0.000    1.071    0.000    0.857    0.000    3.000 
#    0.000    0.000    0.000    0.000    0.000    0.000 
#
# Total GULP energy -694528.218978 kJ/mol
# GULP energy per Si atom -12402.289625 kJ/mol
# Density = 1.926885 g / cm^3
# Si number density = 19.312806 Si / 1000 Ang^3
#
#
#
# Elastic Constant Matrix: (Units=GPa)
#
#
# Indices 1 2 3 4 5 6 
#
# 1 71.5794 20.8036 31.8741 0.0000 0.0000 0.0000
# 2 20.8036 85.5460 38.3565 0.0000 0.0000 0.0000
# 3 31.8741 38.3565 118.7879 0.0000 0.0000 0.0000
# 4 0.0000 0.0000 0.0000 0.5907 0.0000 0.0000
# 5 0.0000 0.0000 0.0000 0.0000 50.8381 0.0000
# 6 0.0000 0.0000 0.0000 0.0000 0.0000 21.7177
#
#
#
# Elastic Compliance Matrix: (Units=1/GPa)
#
#
# Indices 1 2 3 4 5 6 
#
# 1 0.016256 -0.002336 -0.003608 0.000000 0.000000 0.000000
# 2 -0.002336 0.014004 -0.003895 0.000000 0.000000 0.000000
# 3 -0.003608 -0.003895 0.010644 0.000000 0.000000 0.000000
# 4 0.000000 0.000000 0.000000 1.692820 0.000000 0.000000
# 5 0.000000 0.000000 0.000000 0.000000 0.019670 0.000000
# 6 0.000000 0.000000 0.000000 0.000000 0.000000 0.046045
#
#
# Mechanical properties :
#
#
# Convention : Reuss Voigt Hill
#
# Bulk Modulus (GPa) = 47.10971 50.88687 48.99829
# Shear Modulus (GPa) = 2.73794 26.95459 14.84626
#
# Velocity S-wave (km/s) = 1.19196 3.73994 2.77560
# Velocity P-wave (km/s) = 5.13228 6.71234 5.97477
#
# Compressibility (1/GPa) = 0.02122705
#
# Stress axis : x y z
#
# Youngs Moduli (GPa) = 61.51642 71.40767 93.94802
#
# Poissons Ratio (x) = 0.16678 0.33894
# Poissons Ratio (y) = 0.14368 0.36595
# Poissons Ratio (z) = 0.22194 0.27815
#
# Static dielectric constant tensor:
#      x y z
#    x 3.513860 0.000000 0.000000 
#    y 0.000000 3.395580 0.000000 
#    z 0.000000 0.000000 3.678770 
# 
# 
# High freq. dielectric constant tensor:
#      x y z
#    x 1.741850 0.000000 0.000000 
#    y 0.000000 1.738620 0.000000 
#    z 0.000000 0.000000 1.760120 
# 
# From -- ./inp_files/25180.got.cif
#   From: 2010.03.12/outbox.cif.g09.slc.cpg/sg47_13_cif.got.tgz:25180.got - 2010.04.14 03:12:58.
