data_PCOD8196923
_publ_section_title
;
Structure prediction by ZEFSAII (Michael W. Deem and Ramdas Pophale) SiO2 
 PCOD8196923
Probable space group: P M M M
;
_chemical_formula_sum "Si O2"
_cell_formula_units_Z 44
_cell_length_a 9.281121
_cell_length_b 28.810521
_cell_length_c 8.875670
_cell_angle_alpha 90.000000
_cell_angle_beta 90.000000
_cell_angle_gamma 90.000000
_cell_volume 2373.300296
_symmetry_space_group_name_H-M "P M M M"
_symmetry_group_IT_number 47
_symmetry_cell_setting 'orthorhombic'
loop_
_space_group_symop_operation_xyz
x,y,z
-x,-y,z
x,-y,-z
-x,y,-z
-x,-y,-z
x,y,-z
-x,y,z
x,-y,z
loop_
_atom_site_type_symbol
_atom_site_label
_atom_site_fract_x
_atom_site_fract_y
_atom_site_fract_z
Si Si1 0.834981 0.320138 0.175872
Si Si2 0.668281 0.500000 0.824349
Si Si3 0.838026 0.851692 0.679884
Si Si4 0.668904 0.762454 0.325132
Si Si5 0.165860 0.416308 0.323081
Si Si6 0.828760 0.049139 0.331205
O O1 0.733821 0.278807 0.228281
O O2 0.786241 0.366251 0.262756
O O3 0.000000 0.307530 0.215039
O O4 0.813443 0.329077 0.000000
O O5 0.500000 0.500000 0.789067
O O6 0.735482 0.454369 0.753127
O O7 0.702198 0.500000 0.000000
O O8 0.837650 0.855013 0.500000
O O9 0.734450 0.810747 0.736172
O O10 0.779474 0.901829 0.744880
O O11 0.000000 0.841187 0.737998
O O12 0.708388 0.754763 0.500000
O O13 0.500000 0.764171 0.298091
O O14 0.191493 0.417800 0.500000
O O15 0.000000 0.426489 0.281251
O O16 0.766339 0.047045 0.500000
O O17 0.000000 0.051565 0.337769
O O18 0.781497 0.000000 0.249512
#
# Coordination Sequence:
#
# PCOD8196923 Si02
#       6
#     8   4   8   8   8   8
#     4  10  21  37  57  79 101 128 165 209 256 303
#     4  11  24  39  56  82 116 151 182 211 246 288
#     4   8  13  22  38  59  84 118 159 201 243 288
#     4  10  20  32  47  69  98 132 167 203 246 297
#     4  10  21  38  61  86 109 136 172 212 254 300
#     4   7   9  14  27  50  79 110 147 192 240 287
#
# _framework density 18.539584999999999
#
# number of rings (size 3 to 8) (size 9 to 14) (size 15 to 20)
#    0.000    2.818    0.000    3.818    0.000    5.818 
#    0.000    0.000    0.000    0.545    0.000    3.818 
#    0.000    0.727    0.000    8.364    0.000    9.636 
#
# Total GULP energy -545220.464816 kJ/mol
# GULP energy per Si atom -12391.374200 kJ/mol
# Density = 1.849739 g / cm^3
# Si number density = 18.539585 Si / 1000 Ang^3
#
#
#
# Elastic Constant Matrix: (Units=GPa)
#
#
# Indices 1 2 3 4 5 6 
#
# 1 70.7589 71.6514 36.5170 0.0000 0.0000 0.0000
# 2 71.6514 184.5538 47.6325 0.0000 0.0000 0.0000
# 3 36.5170 47.6325 47.6647 0.0000 0.0000 0.0000
# 4 0.0000 0.0000 0.0000 -29.8472 0.0000 0.0000
# 5 0.0000 0.0000 0.0000 0.0000 20.5488 0.0000
# 6 0.0000 0.0000 0.0000 0.0000 0.0000 4.4916
#
#
#
# Elastic Compliance Matrix: (Units=1/GPa)
#
#
# Indices 1 2 3 4 5 6 
#
# 1 0.029624 -0.007605 -0.015096 0.000000 0.000000 0.000000
# 2 -0.007605 0.009254 -0.003421 0.000000 0.000000 0.000000
# 3 -0.015096 -0.003421 0.035964 0.000000 0.000000 0.000000
# 4 0.000000 0.000000 0.000000 -0.033504 0.000000 0.000000
# 5 0.000000 0.000000 0.000000 0.000000 0.048665 0.000000
# 6 0.000000 0.000000 0.000000 0.000000 0.000000 0.222639
#
#
# Mechanical properties :
#
#
# Convention : Reuss Voigt Hill
#
# Bulk Modulus (GPa) = 44.25196 68.28657 56.26927
# Shear Modulus (GPa) = 13.42572 8.85040 11.13806
#
# Velocity S-wave (km/s) = 2.69395 2.18727 2.45372
# Velocity P-wave (km/s) = 5.79631 6.57964 6.20036
#
# Compressibility (1/GPa) = 0.02259787
#
# Stress axis : x y z
#
# Youngs Moduli (GPa) = 33.75624 108.05947 27.80550
#
# Poissons Ratio (x) = 0.82181 0.41974
# Poissons Ratio (y) = 0.25672 0.09513
# Poissons Ratio (z) = 0.50957 0.36971
#
# Static dielectric constant tensor:
#      x y z
#    x 3.201480 0.000000 0.000000 
#    y 0.000000 3.962090 0.000000 
#    z 0.000000 0.000000 3.060580 
# 
# 
# High freq. dielectric constant tensor:
#      x y z
#    x 1.691590 0.000000 0.000000 
#    y 0.000000 1.749760 0.000000 
#    z 0.000000 0.000000 1.677540 
# 
# From -- ./inp_files/2146.got.cif
#   From: 2010.03.12/outbox.cif.g09.slc.cpg/sg47_2_cif.got.tgz:2146.got - 2010.04.14 03:12:58.
