data_PCOD8196934
_publ_section_title
;
Structure prediction by ZEFSAII (Michael W. Deem and Ramdas Pophale) SiO2 
 PCOD8196934
Probable space group: P M M M
;
_chemical_formula_sum "Si O2"
_cell_formula_units_Z 56
_cell_length_a 8.801470
_cell_length_b 14.647695
_cell_length_c 23.553209
_cell_angle_alpha 90.000000
_cell_angle_beta 90.000000
_cell_angle_gamma 90.000000
_cell_volume 3036.509101
_symmetry_space_group_name_H-M "P M M M"
_symmetry_group_IT_number 47
_symmetry_cell_setting 'orthorhombic'
loop_
_space_group_symop_operation_xyz
x,y,z
-x,-y,z
x,-y,-z
-x,y,-z
-x,-y,-z
x,y,-z
-x,y,z
x,-y,z
loop_
_atom_site_type_symbol
_atom_site_label
_atom_site_fract_x
_atom_site_fract_y
_atom_site_fract_z
Si Si1 0.325960 0.601909 0.126950
Si Si2 0.680606 0.602109 0.563407
Si Si3 0.676154 0.894370 0.165756
Si Si4 0.321749 0.776991 0.062120
Si Si5 0.820710 0.896331 0.715852
Si Si6 0.321158 0.728421 0.663422
Si Si7 0.174894 0.394775 0.244409
O O1 0.500000 0.613944 0.147471
O O2 0.297194 0.500000 0.103548
O O3 0.287297 0.671410 0.076383
O O4 0.216907 0.623850 0.179399
O O5 0.735442 0.628828 0.500000
O O6 0.500000 0.601192 0.566233
O O7 0.740379 0.500000 0.578837
O O8 0.744731 0.676869 0.607599
O O9 0.500000 0.869732 0.175445
O O10 0.746377 0.840913 0.111743
O O11 0.764420 0.864112 0.222239
O O12 0.700792 0.000000 0.152681
O O13 0.500000 0.795943 0.059007
O O14 0.249655 0.798716 0.000000
O O15 0.753232 0.828772 0.668243
O O16 0.000000 0.889851 0.714457
O O17 0.765340 0.000000 0.703223
O O18 0.500000 0.741658 0.659311
O O19 0.281801 0.667491 0.717525
O O20 0.205413 0.500000 0.260234
O O21 0.000000 0.367732 0.254224
#
# Coordination Sequence:
#
# PCOD8196934 Si02
#       7
#     8   8   8   8   8   8   8
#     4   9  17  29  45  64  87 118 157 199 240 283
#     4   8  15  29  49  75 107 139 169 201 238 281
#     4   9  17  30  49  71  93 118 151 193 241 292
#     4   9  17  28  43  65  90 115 148 192 240 288
#     4  10  21  36  53  73  99 131 165 203 249 299
#     4  11  20  30  51  79 104 131 165 206 248 290
#     4  10  20  32  47  70 101 133 163 199 245 296
#
# _framework density 18.442231
#
# number of rings (size 3 to 8) (size 9 to 14) (size 15 to 20)
#    0.000    2.571    0.000    3.000    0.000    4.000 
#    0.000    2.857    0.000    3.857    0.000   12.000 
#    0.000    0.000    0.000    0.000    0.000    0.000 
#
# Total GULP energy -694272.618209 kJ/mol
# GULP energy per Si atom -12397.725325 kJ/mol
# Density = 1.840026 g / cm^3
# Si number density = 18.442231 Si / 1000 Ang^3
#
#
#
# Elastic Constant Matrix: (Units=GPa)
#
#
# Indices 1 2 3 4 5 6 
#
# 1 38.8450 25.7044 22.6950 0.0000 0.0000 0.0000
# 2 25.7044 113.7469 76.3303 0.0000 0.0000 0.0000
# 3 22.6950 76.3303 110.2625 0.0000 0.0000 0.0000
# 4 0.0000 0.0000 0.0000 30.0886 0.0000 0.0000
# 5 0.0000 0.0000 0.0000 0.0000 2.4541 0.0000
# 6 0.0000 0.0000 0.0000 0.0000 0.0000 21.7038
#
#
#
# Elastic Compliance Matrix: (Units=1/GPa)
#
#
# Indices 1 2 3 4 5 6 
#
# 1 0.030737 -0.005043 -0.002835 0.000000 0.000000 0.000000
# 2 -0.005043 0.017246 -0.010901 0.000000 0.000000 0.000000
# 3 -0.002835 -0.010901 0.017199 0.000000 0.000000 0.000000
# 4 0.000000 0.000000 0.000000 0.033235 0.000000 0.000000
# 5 0.000000 0.000000 0.000000 0.000000 0.407475 0.000000
# 6 0.000000 0.000000 0.000000 0.000000 0.000000 0.046075
#
#
# Mechanical properties :
#
#
# Convention : Reuss Voigt Hill
#
# Bulk Modulus (GPa) = 36.20101 56.92375 46.56238
# Shear Modulus (GPa) = 8.35097 20.05763 14.20430
#
# Velocity S-wave (km/s) = 2.13026 3.30144 2.77827
# Velocity P-wave (km/s) = 5.07175 6.74283 5.96609
#
# Compressibility (1/GPa) = 0.02762354
#
# Stress axis : x y z
#
# Youngs Moduli (GPa) = 32.53406 57.98408 58.14300
#
# Poissons Ratio (x) = 0.29243 0.16485
# Poissons Ratio (y) = 0.16408 0.63380
# Poissons Ratio (z) = 0.09224 0.63207
#
# Static dielectric constant tensor:
#      x y z
#    x 3.120250 0.000000 0.000000 
#    y 0.000000 3.644000 0.000000 
#    z 0.000000 0.000000 3.493160 
# 
# 
# High freq. dielectric constant tensor:
#      x y z
#    x 1.684650 0.000000 0.000000 
#    y 0.000000 1.723240 0.000000 
#    z 0.000000 0.000000 1.699620 
# 
# From -- ./inp_files/7304.got.cif
#   From: 2010.03.12/outbox.cif.g09.slc.cpg/sg47_4_cif.got.tgz:7304.got - 2010.04.14 03:12:58.
