data_PCOD8196824
_publ_section_title
;
Structure prediction by ZEFSAII (Michael W. Deem and Ramdas Pophale) SiO2 
 PCOD8196824
Probable space group: P M M M
;
_chemical_formula_sum "Si O2"
_cell_formula_units_Z 64
_cell_length_a 8.880549
_cell_length_b 28.737869
_cell_length_c 14.718384
_cell_angle_alpha 90.000000
_cell_angle_beta 90.000000
_cell_angle_gamma 90.000000
_cell_volume 3756.250136
_symmetry_space_group_name_H-M "P M M M"
_symmetry_group_IT_number 47
_symmetry_cell_setting 'orthorhombic'
loop_
_space_group_symop_operation_xyz
x,y,z
-x,-y,z
x,-y,-z
-x,y,-z
-x,-y,-z
x,y,-z
-x,y,z
x,-y,z
loop_
_atom_site_type_symbol
_atom_site_label
_atom_site_fract_x
_atom_site_fract_y
_atom_site_fract_z
Si Si1 0.322869 0.777058 0.223341
Si Si2 0.820269 0.448826 0.722554
Si Si3 0.821240 0.404482 0.098044
Si Si4 0.821151 0.366161 0.600563
Si Si5 0.176334 0.856651 0.894915
Si Si6 0.668593 0.949124 0.892441
Si Si7 0.173000 0.299350 0.105223
Si Si8 0.177678 0.738359 0.604652
O O1 0.500000 0.782014 0.229557
O O2 0.258704 0.821657 0.172066
O O3 0.279958 0.731718 0.166382
O O4 0.259043 0.773597 0.326242
O O5 0.762709 0.500000 0.691554
O O6 0.763270 0.439846 0.825323
O O7 0.751112 0.407510 0.661459
O O8 0.000000 0.447246 0.718292
O O9 0.771824 0.351976 0.121241
O O10 0.000000 0.404722 0.092775
O O11 0.754855 0.419881 0.000000
O O12 0.758089 0.374739 0.500000
O O13 0.774613 0.314451 0.633045
O O14 0.000000 0.369450 0.601225
O O15 0.218210 0.908609 0.860904
O O16 0.000000 0.848924 0.885195
O O17 0.227058 0.848580 0.000000
O O18 0.500000 0.938054 0.856783
O O19 0.721451 0.000000 0.855090
O O20 0.666968 0.951285 0.000000
O O21 0.000000 0.292550 0.136718
O O22 0.189339 0.284973 0.000000
O O23 0.226319 0.748390 0.500000
O O24 0.000000 0.744861 0.614399
#
# Coordination Sequence:
#
# PCOD8196824 Si02
#       8
#     8   8   8   8   8   8   8   8
#     4  12  23  31  44  67  96 124 147 184 239 288
#     4   9  15  20  29  50  81 112 135 160 203 259
#     4   8  14  24  37  52  71 101 142 181 212 247
#     4   8  14  25  41  59  77 101 135 171 208 256
#     4  10  20  32  46  66  95 132 172 207 234 269
#     4   8  14  26  44  65  92 128 167 206 247 284
#     4   9  17  30  47  63  82 115 157 192 221 263
#     4   9  18  34  54  69  83 112 153 190 224 271
#
# _framework density 17.038270000000001
#
# number of rings (size 3 to 8) (size 9 to 14) (size 15 to 20)
#    0.000    2.875    0.000    4.500    0.000    5.500 
#    0.000    3.750    0.000    0.000    0.000    0.000 
#    0.000    8.500    0.000   27.250    0.000   24.500 
#
# Total GULP energy -793091.828364 kJ/mol
# GULP energy per Si atom -12392.059818 kJ/mol
# Density = 1.699949 g / cm^3
# Si number density = 17.038270 Si / 1000 Ang^3
#
#
#
# Elastic Constant Matrix: (Units=GPa)
#
#
# Indices 1 2 3 4 5 6 
#
# 1 52.0329 34.5846 34.1429 0.0000 0.0000 0.0000
# 2 34.5846 100.0359 59.6539 0.0000 0.0000 0.0000
# 3 34.1429 59.6539 88.9976 0.0000 0.0000 0.0000
# 4 0.0000 0.0000 0.0000 17.8204 0.0000 0.0000
# 5 0.0000 0.0000 0.0000 0.0000 12.2552 0.0000
# 6 0.0000 0.0000 0.0000 0.0000 0.0000 -1.1312
#
#
#
# Elastic Compliance Matrix: (Units=1/GPa)
#
#
# Indices 1 2 3 4 5 6 
#
# 1 0.027281 -0.005315 -0.006904 0.000000 0.000000 0.000000
# 2 -0.005315 0.017688 -0.009817 0.000000 0.000000 0.000000
# 3 -0.006904 -0.009817 0.020465 0.000000 0.000000 0.000000
# 4 0.000000 0.000000 0.000000 0.056116 0.000000 0.000000
# 5 0.000000 0.000000 0.000000 0.000000 0.081598 0.000000
# 6 0.000000 0.000000 0.000000 0.000000 0.000000 -0.884014
#
#
# Mechanical properties :
#
#
# Convention : Reuss Voigt Hill
#
# Bulk Modulus (GPa) = 46.80966 55.31436 51.06201
# Shear Modulus (GPa) = -7.94062 13.30121 2.68030
#
# Velocity S-wave (km/s) = -2.16115 2.79707 1.25560
# Velocity P-wave (km/s) = 4.61578 6.55490 5.66887
#
# Compressibility (1/GPa) = 0.02136311
#
# Stress axis : x y z
#
# Youngs Moduli (GPa) = 36.65519 56.53525 48.86387
#
# Poissons Ratio (x) = 0.30048 0.33734
# Poissons Ratio (y) = 0.19482 0.47970
# Poissons Ratio (z) = 0.25305 0.55501
#
# Static dielectric constant tensor:
#      x y z
#    x 2.783940 0.000000 0.000000 
#    y 0.000000 3.434320 0.000000 
#    z 0.000000 0.000000 3.328270 
# 
# 
# High freq. dielectric constant tensor:
#      x y z
#    x 1.613320 0.000000 0.000000 
#    y 0.000000 1.652210 0.000000 
#    z 0.000000 0.000000 1.642100 
# 
# From -- ./inp_files/22200.got.cif
#   From: 2010.03.12/outbox.cif.g09.slc.cpg/sg47_12_cif.got.tgz:22200.got - 2010.04.14 03:12:58.
