data_PCOD8196176
_publ_section_title
;
Structure prediction by ZEFSAII (Michael W. Deem and Ramdas Pophale) SiO2 
 PCOD8196176
Probable space group: P M M M
;
_chemical_formula_sum "Si O2"
_cell_formula_units_Z 48
_cell_length_a 14.494927
_cell_length_b 9.257368
_cell_length_c 18.114288
_cell_angle_alpha 90.000000
_cell_angle_beta 90.000000
_cell_angle_gamma 90.000000
_cell_volume 2430.663442
_symmetry_space_group_name_H-M "P M M M"
_symmetry_group_IT_number 47
_symmetry_cell_setting 'orthorhombic'
loop_
_space_group_symop_operation_xyz
x,y,z
-x,-y,z
x,-y,-z
-x,y,-z
-x,-y,-z
x,y,-z
-x,y,z
x,-y,z
loop_
_atom_site_type_symbol
_atom_site_label
_atom_site_fract_x
_atom_site_fract_y
_atom_site_fract_z
Si Si1 0.609209 0.660033 0.000000
Si Si2 0.103522 0.671527 0.500000
Si Si3 0.789097 0.671343 0.355219
Si Si4 0.396375 0.834692 0.858911
Si Si5 0.600200 0.328720 0.582520
Si Si6 0.108004 0.334459 0.915686
Si Si7 0.789824 0.833027 0.210642
O O1 0.641968 0.741466 0.073057
O O2 0.653057 0.500000 0.000000
O O3 0.500000 0.653216 0.000000
O O4 0.104771 0.500000 0.500000
O O5 0.154076 0.726668 0.573810
O O6 0.000000 0.733027 0.500000
O O7 0.798417 0.500000 0.344893
O O8 0.683124 0.723750 0.365561
O O9 0.827480 0.748493 0.282200
O O10 0.500000 0.786636 0.833302
O O11 0.321681 0.812749 0.794035
O O12 0.398762 0.000000 0.885381
O O13 0.613732 0.265908 0.500000
O O14 0.500000 0.278507 0.614048
O O15 0.604216 0.500000 0.577308
O O16 0.129957 0.500000 0.894483
O O17 0.162750 0.227961 0.862423
O O18 0.000000 0.303362 0.906969
O O19 0.139237 0.304025 0.000000
O O20 0.816787 0.000000 0.218458
#
# Coordination Sequence:
#
# PCOD8196176 Si02
#       7
#     4   4   8   8   8   8   8
#     4   9  17  29  49  77 104 133 180 241 287 316
#     4   9  18  34  58  84 106 135 177 221 268 330
#     4  10  19  34  55  80 110 143 183 229 275 327
#     4   9  19  36  53  71 106 156 198 226 263 324
#     4   8  13  24  47  78 107 136 176 229 283 327
#     4   9  20  41  66  88 110 140 181 231 288 344
#     4  11  24  37  54  84 118 153 190 229 276 329
#
# _framework density 19.747695
#
# number of rings (size 3 to 8) (size 9 to 14) (size 15 to 20)
#    0.000    2.667    0.833    1.750    1.167    4.333 
#    0.000    2.917    0.000    0.500    0.000    1.167 
#    0.000    0.000    0.000    0.000    0.000    0.000 
#
# Total GULP energy -594976.103208 kJ/mol
# GULP energy per Si atom -12395.335483 kJ/mol
# Density = 1.970275 g / cm^3
# Si number density = 19.747695 Si / 1000 Ang^3
#
#
#
# Elastic Constant Matrix: (Units=GPa)
#
#
# Indices 1 2 3 4 5 6 
#
# 1 89.0970 34.6800 52.6325 0.0000 0.0000 0.0000
# 2 34.6800 73.5091 54.1432 0.0000 0.0000 0.0000
# 3 52.6325 54.1432 126.7512 0.0000 0.0000 0.0000
# 4 0.0000 0.0000 0.0000 13.5999 0.0000 0.0000
# 5 0.0000 0.0000 0.0000 0.0000 18.6261 0.0000
# 6 0.0000 0.0000 0.0000 0.0000 0.0000 19.2115
#
#
#
# Elastic Compliance Matrix: (Units=1/GPa)
#
#
# Indices 1 2 3 4 5 6 
#
# 1 0.015555 -0.003766 -0.004850 0.000000 0.000000 0.000000
# 2 -0.003766 0.020760 -0.007304 0.000000 0.000000 0.000000
# 3 -0.004850 -0.007304 0.013024 0.000000 0.000000 0.000000
# 4 0.000000 0.000000 0.000000 0.073530 0.000000 0.000000
# 5 0.000000 0.000000 0.000000 0.000000 0.053688 0.000000
# 6 0.000000 0.000000 0.000000 0.000000 0.000000 0.052052
#
#
# Mechanical properties :
#
#
# Convention : Reuss Voigt Hill
#
# Bulk Modulus (GPa) = 57.15007 63.58541 60.36774
# Shear Modulus (GPa) = 18.77701 20.14759 19.46230
#
# Velocity S-wave (km/s) = 3.08692 3.19760 3.14275
# Velocity P-wave (km/s) = 6.45821 6.77508 6.61854
#
# Compressibility (1/GPa) = 0.01749779
#
# Stress axis : x y z
#
# Youngs Moduli (GPa) = 64.28871 48.16863 76.78328
#
# Poissons Ratio (x) = 0.18140 0.37243
# Poissons Ratio (y) = 0.24210 0.56085
# Poissons Ratio (z) = 0.31183 0.35184
#
# Static dielectric constant tensor:
#      x y z
#    x 3.808210 0.000000 0.000000 
#    y 0.000000 3.274940 0.000000 
#    z 0.000000 0.000000 3.434330 
# 
# 
# High freq. dielectric constant tensor:
#      x y z
#    x 1.776260 0.000000 0.000000 
#    y 0.000000 1.733700 0.000000 
#    z 0.000000 0.000000 1.761060 
# 
# From -- ./inp_files/24463.got.cif
#   From: 2010.03.12/outbox.cif.g09.slc.cpg/sg47_13_cif.got.tgz:24463.got - 2010.04.14 03:12:58.
