data_PCOD8196838
_publ_section_title
;
Structure prediction by ZEFSAII (Michael W. Deem and Ramdas Pophale) SiO2 
 PCOD8196838
Probable space group: P M M M
;
_chemical_formula_sum "Si O2"
_cell_formula_units_Z 52
_cell_length_a 9.081967
_cell_length_b 30.536628
_cell_length_c 10.490169
_cell_angle_alpha 90.000000
_cell_angle_beta 90.000000
_cell_angle_gamma 90.000000
_cell_volume 2909.266345
_symmetry_space_group_name_H-M "P M M M"
_symmetry_group_IT_number 47
_symmetry_cell_setting 'orthorhombic'
loop_
_space_group_symop_operation_xyz
x,y,z
-x,-y,z
x,-y,-z
-x,y,-z
-x,-y,-z
x,y,-z
-x,y,z
x,-y,z
loop_
_atom_site_type_symbol
_atom_site_label
_atom_site_fract_x
_atom_site_fract_y
_atom_site_fract_z
Si Si1 0.165049 0.205107 0.349083
Si Si2 0.325217 0.950903 0.142236
Si Si3 0.334182 0.710022 0.347536
Si Si4 0.673827 0.550314 0.747235
Si Si5 0.835499 0.551757 0.000000
Si Si6 0.838166 0.627257 0.355260
Si Si7 0.325864 0.883241 0.646310
O O1 0.158972 0.208594 0.500000
O O2 0.250086 0.247306 0.294171
O O3 0.251289 0.161617 0.308498
O O4 0.000000 0.203933 0.292319
O O5 0.500000 0.951209 0.147547
O O6 0.265188 0.920004 0.255793
O O7 0.265295 0.000000 0.167082
O O8 0.274626 0.935129 0.000000
O O9 0.337092 0.709678 0.500000
O O10 0.500000 0.710384 0.293832
O O11 0.252746 0.666940 0.290925
O O12 0.500000 0.556348 0.751610
O O13 0.715444 0.500000 0.716328
O O14 0.743544 0.567390 0.878708
O O15 0.746251 0.581915 0.643397
O O16 0.845867 0.500000 0.000000
O O17 0.000000 0.572076 0.000000
O O18 0.862909 0.640733 0.500000
O O19 0.000000 0.621668 0.290326
O O20 0.282699 0.895636 0.500000
O O21 0.500000 0.877059 0.657468
#
# Coordination Sequence:
#
# PCOD8196838 Si02
#       7
#     8   8   8   8   4   8   8
#     4   9  16  26  41  62  89 118 146 179 223 273
#     4   8  14  25  41  62  89 121 156 192 230 273
#     4   9  16  27  44  65  90 119 151 187 226 270
#     4  10  20  33  49  69  93 121 155 195 236 278
#     4   9  17  31  51  71  89 111 145 189 233 275
#     4  10  20  32  46  67  96 128 160 191 228 279
#     4   9  16  25  40  65  92 115 146 190 235 275
#
# _framework density 17.873922
#
# number of rings (size 3 to 8) (size 9 to 14) (size 15 to 20)
#    0.000    2.846    0.000    2.538    0.000    7.077 
#    0.000    3.077    0.000    0.923    2.000    3.231 
#    0.000    0.000    0.000    0.000    0.000    0.000 
#
# Total GULP energy -644474.209096 kJ/mol
# GULP energy per Si atom -12393.734790 kJ/mol
# Density = 1.783324 g / cm^3
# Si number density = 17.873922 Si / 1000 Ang^3
#
#
#
# Elastic Constant Matrix: (Units=GPa)
#
#
# Indices 1 2 3 4 5 6 
#
# 1 106.9823 63.0759 24.3102 0.0000 0.0000 0.0000
# 2 63.0759 143.0377 44.2128 0.0000 0.0000 0.0000
# 3 24.3102 44.2128 48.0638 0.0000 0.0000 0.0000
# 4 0.0000 0.0000 0.0000 6.3756 0.0000 0.0000
# 5 0.0000 0.0000 0.0000 0.0000 14.5482 0.0000
# 6 0.0000 0.0000 0.0000 0.0000 0.0000 17.4918
#
#
#
# Elastic Compliance Matrix: (Units=1/GPa)
#
#
# Indices 1 2 3 4 5 6 
#
# 1 0.012740 -0.005067 -0.001783 0.000000 0.000000 0.000000
# 2 -0.005067 0.011784 -0.008277 0.000000 0.000000 0.000000
# 3 -0.001783 -0.008277 0.029321 0.000000 0.000000 0.000000
# 4 0.000000 0.000000 0.000000 0.156848 0.000000 0.000000
# 5 0.000000 0.000000 0.000000 0.000000 0.068737 0.000000
# 6 0.000000 0.000000 0.000000 0.000000 0.000000 0.057170
#
#
# Mechanical properties :
#
#
# Convention : Reuss Voigt Hill
#
# Bulk Modulus (GPa) = 42.38781 62.36460 52.37621
# Shear Modulus (GPa) = 13.34343 18.78213 16.06278
#
# Velocity S-wave (km/s) = 2.73524 3.24514 3.00104
# Velocity P-wave (km/s) = 5.80876 7.00060 6.43234
#
# Compressibility (1/GPa) = 0.02359169
#
# Stress axis : x y z
#
# Youngs Moduli (GPa) = 78.49387 84.86135 34.10502
#
# Poissons Ratio (x) = 0.42998 0.06080
# Poissons Ratio (y) = 0.39772 0.28229
# Poissons Ratio (z) = 0.13994 0.70240
#
# Static dielectric constant tensor:
#      x y z
#    x 3.390670 0.000000 0.000000 
#    y 0.000000 3.394190 0.000000 
#    z 0.000000 0.000000 3.054600 
# 
# 
# High freq. dielectric constant tensor:
#      x y z
#    x 1.690430 0.000000 0.000000 
#    y 0.000000 1.692300 0.000000 
#    z 0.000000 0.000000 1.641380 
# 
# From -- ./inp_files/4571.got.cif
#   From: 2010.03.12/outbox.cif.g09.slc.cpg/sg47_3_cif.got.tgz:4571.got - 2010.04.14 03:12:58.
