data_PCOD8196457
_publ_section_title
;
Structure prediction by ZEFSAII (Michael W. Deem and Ramdas Pophale) SiO2 
 PCOD8196457
Probable space group: P M M M
;
_chemical_formula_sum "Si O2"
_cell_formula_units_Z 52
_cell_length_a 21.394715
_cell_length_b 19.629810
_cell_length_c 9.170909
_cell_angle_alpha 90.000000
_cell_angle_beta 90.000000
_cell_angle_gamma 90.000000
_cell_volume 3851.545083
_symmetry_space_group_name_H-M "P M M M"
_symmetry_group_IT_number 47
_symmetry_cell_setting 'orthorhombic'
loop_
_space_group_symop_operation_xyz
x,y,z
-x,-y,z
x,-y,-z
-x,y,-z
-x,-y,-z
x,y,-z
-x,y,z
x,-y,z
loop_
_atom_site_type_symbol
_atom_site_label
_atom_site_fract_x
_atom_site_fract_y
_atom_site_fract_z
Si Si1 0.255104 0.578530 0.171276
Si Si2 0.073870 0.925299 0.162489
Si Si3 0.379863 0.419325 0.663800
Si Si4 0.140828 0.674882 0.169105
Si Si5 0.072633 0.573818 0.658230
Si Si6 0.927337 0.207307 0.328002
Si Si7 0.500000 0.418652 0.835021
O O1 0.236549 0.500000 0.212379
O O2 0.316815 0.602565 0.255025
O O3 0.203266 0.634309 0.218619
O O4 0.268094 0.582920 0.000000
O O5 0.094310 0.867679 0.276892
O O6 0.000000 0.929026 0.157943
O O7 0.099899 0.000000 0.210668
O O8 0.098812 0.907116 0.000000
O O9 0.379944 0.389201 0.500000
O O10 0.385102 0.500000 0.658251
O O11 0.439013 0.389852 0.752158
O O12 0.085876 0.622468 0.206335
O O13 0.124342 0.742792 0.258094
O O14 0.141632 0.693372 0.000000
O O15 0.096530 0.602722 0.500000
O O16 0.103885 0.500000 0.686395
O O17 0.000000 0.564345 0.648388
O O18 0.921525 0.212010 0.500000
O O19 0.000000 0.223155 0.280892
O O20 0.500000 0.500000 0.835893
O O21 0.500000 0.390598 0.000000
#
# Coordination Sequence:
#
# PCOD8196457 Si02
#       7
#     8   8   8   8   8   8   4
#     4   9  18  31  42  52  69  93 122 156 194 233
#     4   8  14  26  44  63  80  96 114 139 174 217
#     4   9  16  25  38  56  74  91 115 147 181 219
#     4  11  21  30  41  55  71  93 122 156 190 225
#     4   9  18  31  43  53  66  85 111 147 192 237
#     4  10  20  31  42  57  77  99 122 150 186 228
#     4   9  15  23  37  55  75  97 115 137 176 219
#
# _framework density 13.501075
#
# number of rings (size 3 to 8) (size 9 to 14) (size 15 to 20)
#    0.000    2.692    0.000    3.462    0.000    8.308 
#    0.000    3.846    0.000    0.000    0.000    0.000 
#    0.000    0.000    0.000    0.000    0.000    0.000 
#
# Total GULP energy -644201.119367 kJ/mol
# GULP energy per Si atom -12388.483065 kJ/mol
# Density = 1.347035 g / cm^3
# Si number density = 13.501075 Si / 1000 Ang^3
#
#
#
# Elastic Constant Matrix: (Units=GPa)
#
#
# Indices 1 2 3 4 5 6 
#
# 1 65.3677 36.6108 41.3095 0.0000 0.0000 0.0000
# 2 36.6108 73.1694 37.8998 0.0000 0.0000 0.0000
# 3 41.3095 37.8998 69.3878 0.0000 0.0000 0.0000
# 4 0.0000 0.0000 0.0000 18.1237 0.0000 0.0000
# 5 0.0000 0.0000 0.0000 0.0000 19.8031 0.0000
# 6 0.0000 0.0000 0.0000 0.0000 0.0000 18.6319
#
#
#
# Elastic Compliance Matrix: (Units=1/GPa)
#
#
# Indices 1 2 3 4 5 6 
#
# 1 0.027017 -0.007233 -0.012134 0.000000 0.000000 0.000000
# 2 -0.007233 0.020996 -0.007162 0.000000 0.000000 0.000000
# 3 -0.012134 -0.007162 0.025547 0.000000 0.000000 0.000000
# 4 0.000000 0.000000 0.000000 0.055176 0.000000 0.000000
# 5 0.000000 0.000000 0.000000 0.000000 0.050497 0.000000
# 6 0.000000 0.000000 0.000000 0.000000 0.000000 0.053671
#
#
# Mechanical properties :
#
#
# Convention : Reuss Voigt Hill
#
# Bulk Modulus (GPa) = 48.77361 48.84055 48.80708
# Shear Modulus (GPa) = 17.07673 17.45206 17.26439
#
# Velocity S-wave (km/s) = 3.56032 3.59923 3.57983
# Velocity P-wave (km/s) = 7.28734 7.31618 7.30177
#
# Compressibility (1/GPa) = 0.02050289
#
# Stress axis : x y z
#
# Youngs Moduli (GPa) = 37.01349 47.62884 39.14343
#
# Poissons Ratio (x) = 0.34452 0.47495
# Poissons Ratio (y) = 0.26773 0.28033
# Poissons Ratio (z) = 0.44911 0.34110
#
# Static dielectric constant tensor:
#      x y z
#    x 2.540170 0.000000 0.000000 
#    y 0.000000 2.670530 0.000000 
#    z 0.000000 0.000000 2.855580 
# 
# 
# High freq. dielectric constant tensor:
#      x y z
#    x 1.481860 0.000000 0.000000 
#    y 0.000000 1.477350 0.000000 
#    z 0.000000 0.000000 1.528280 
# 
# From -- ./inp_files/11492.got.cif
#   From: 2010.03.12/outbox.cif.g09.slc.cpg/sg47_6_cif.got.tgz:11492.got - 2010.04.14 03:12:58.
