data_PCOD8196008
_publ_section_title
;
Structure prediction by ZEFSAII (Michael W. Deem and Ramdas Pophale) SiO2 
 PCOD8196008
Probable space group: P M M M
;
_chemical_formula_sum "Si O2"
_cell_formula_units_Z 52
_cell_length_a 17.434483
_cell_length_b 9.071058
_cell_length_c 17.554164
_cell_angle_alpha 90.000000
_cell_angle_beta 90.000000
_cell_angle_gamma 90.000000
_cell_volume 2776.177107
_symmetry_space_group_name_H-M "P M M M"
_symmetry_group_IT_number 47
_symmetry_cell_setting 'orthorhombic'
loop_
_space_group_symop_operation_xyz
x,y,z
-x,-y,z
x,-y,-z
-x,y,-z
-x,-y,-z
x,y,-z
-x,y,z
x,-y,z
loop_
_atom_site_type_symbol
_atom_site_label
_atom_site_fract_x
_atom_site_fract_y
_atom_site_fract_z
Si Si1 0.876429 0.167216 0.500000
Si Si2 0.587194 0.833277 0.910609
Si Si3 0.000000 0.174062 0.914686
Si Si4 0.306699 0.662014 0.356814
Si Si5 0.306863 0.163143 0.500000
Si Si6 0.125058 0.334432 0.648058
Si Si7 0.134062 0.175648 0.803010
Si Si8 0.705682 0.325640 0.809957
O O1 0.784608 0.168327 0.500000
O O2 0.909157 0.249916 0.425315
O O3 0.907108 0.000000 0.500000
O O4 0.500000 0.796958 0.887248
O O5 0.642543 0.715933 0.871621
O O6 0.608193 0.000000 0.885642
O O7 0.598089 0.815556 0.000000
O O8 0.924261 0.224513 0.869350
O O9 0.000000 0.000000 0.921313
O O10 0.000000 0.243665 0.000000
O O11 0.341504 0.500000 0.369578
O O12 0.340614 0.762771 0.423673
O O13 0.215531 0.656156 0.361382
O O14 0.328082 0.721717 0.272786
O O15 0.339496 0.000000 0.500000
O O16 0.090594 0.500000 0.652573
O O17 0.103581 0.244624 0.724027
O O18 0.216299 0.238858 0.827494
O O19 0.139018 0.000000 0.793157
O O20 0.723090 0.500000 0.811464
#
# Coordination Sequence:
#
# PCOD8196008 Si02
#       8
#     4   8   4   8   4   8   8   8
#     4   9  15  23  39  66  96 128 168 206 244 297
#     4   9  19  36  56  78 105 137 171 206 249 304
#     4   9  20  38  57  76  97 126 169 217 264 315
#     4   8  15  26  39  59  93 132 164 197 241 293
#     4   9  15  21  35  61  91 123 163 208 245 280
#     4   9  16  27  43  66  98 132 165 205 255 305
#     4  10  19  33  54  76 100 133 173 217 262 308
#     4  10  20  33  51  78 108 137 171 210 255 306
#
# _framework density 18.730793999999999
#
# number of rings (size 3 to 8) (size 9 to 14) (size 15 to 20)
#    0.000    2.846    0.000    3.231    0.000    7.385 
#    0.000    3.846    0.000    3.692    0.000    3.769 
#    0.000    4.308    0.000    0.000    0.000    0.000 
#
# Total GULP energy -644609.841466 kJ/mol
# GULP energy per Si atom -12396.343105 kJ/mol
# Density = 1.868816 g / cm^3
# Si number density = 18.730794 Si / 1000 Ang^3
#
#
#
# Elastic Constant Matrix: (Units=GPa)
#
#
# Indices 1 2 3 4 5 6 
#
# 1 57.0633 36.5850 51.9124 0.0000 0.0000 0.0000
# 2 36.5850 115.8969 63.9060 0.0000 0.0000 0.0000
# 3 51.9124 63.9060 139.0792 0.0000 0.0000 0.0000
# 4 0.0000 0.0000 0.0000 32.8439 0.0000 0.0000
# 5 0.0000 0.0000 0.0000 0.0000 -9.2486 0.0000
# 6 0.0000 0.0000 0.0000 0.0000 0.0000 6.2398
#
#
#
# Elastic Compliance Matrix: (Units=1/GPa)
#
#
# Indices 1 2 3 4 5 6 
#
# 1 0.027923 -0.004108 -0.008535 0.000000 0.000000 0.000000
# 2 -0.004108 0.012161 -0.004054 0.000000 0.000000 0.000000
# 3 -0.008535 -0.004054 0.012239 0.000000 0.000000 0.000000
# 4 0.000000 0.000000 0.000000 0.030447 0.000000 0.000000
# 5 0.000000 0.000000 0.000000 0.000000 -0.108125 0.000000
# 6 0.000000 0.000000 0.000000 0.000000 0.000000 0.160263
#
#
# Mechanical properties :
#
#
# Convention : Reuss Voigt Hill
#
# Bulk Modulus (GPa) = 52.83287 68.53845 60.68566
# Shear Modulus (GPa) = 28.63514 16.60942 22.62228
#
# Velocity S-wave (km/s) = 3.91420 2.98106 3.47905
# Velocity P-wave (km/s) = 6.97822 6.96561 6.97192
#
# Compressibility (1/GPa) = 0.01892761
#
# Stress axis : x y z
#
# Youngs Moduli (GPa) = 35.81337 82.23146 81.70796
#
# Poissons Ratio (x) = 0.33783 0.69734
# Poissons Ratio (y) = 0.14713 0.33127
# Poissons Ratio (z) = 0.30565 0.33340
#
# Static dielectric constant tensor:
#      x y z
#    x 2.950470 0.000000 0.000000 
#    y 0.000000 3.521010 0.000000 
#    z 0.000000 0.000000 3.709270 
# 
# 
# High freq. dielectric constant tensor:
#      x y z
#    x 1.680220 0.000000 0.000000 
#    y 0.000000 1.729690 0.000000 
#    z 0.000000 0.000000 1.737130 
# 
# From -- ./inp_files/25085.got.cif
#   From: 2010.03.12/outbox.cif.g09.slc.cpg/sg47_13_cif.got.tgz:25085.got - 2010.04.14 03:12:58.
