data_PCOD8196276
_publ_section_title
;
Structure prediction by ZEFSAII (Michael W. Deem and Ramdas Pophale) SiO2 
 PCOD8196276
Probable space group: P M M M
;
_chemical_formula_sum "Si O2"
_cell_formula_units_Z 44
_cell_length_a 8.877568
_cell_length_b 17.151571
_cell_length_c 15.404315
_cell_angle_alpha 90.000000
_cell_angle_beta 90.000000
_cell_angle_gamma 90.000000
_cell_volume 2345.526283
_symmetry_space_group_name_H-M "P M M M"
_symmetry_group_IT_number 47
_symmetry_cell_setting 'orthorhombic'
loop_
_space_group_symop_operation_xyz
x,y,z
-x,-y,z
x,-y,-z
-x,y,-z
-x,-y,-z
x,y,-z
-x,y,z
x,-y,z
loop_
_atom_site_type_symbol
_atom_site_label
_atom_site_fract_x
_atom_site_fract_y
_atom_site_fract_z
Si Si1 0.176987 0.500000 0.154307
Si Si2 0.673817 0.331677 0.598084
Si Si3 0.671070 0.500000 0.663919
Si Si4 0.176775 0.754414 0.244187
Si Si5 0.820855 0.914103 0.685170
Si Si6 0.162661 0.908487 0.500000
Si Si7 0.327329 0.344017 0.098145
O O1 0.217105 0.500000 0.255187
O O2 0.240481 0.424625 0.106708
O O3 0.000000 0.500000 0.143701
O O4 0.717698 0.306297 0.500000
O O5 0.500000 0.311749 0.617609
O O6 0.701874 0.424223 0.605777
O O7 0.777297 0.286849 0.666374
O O8 0.500000 0.500000 0.699649
O O9 0.221339 0.846402 0.246929
O O10 0.262076 0.720879 0.161730
O O11 0.000000 0.741811 0.230974
O O12 0.750624 0.888932 0.590503
O O13 0.000000 0.918342 0.673036
O O14 0.761087 0.000000 0.715443
O O15 0.000000 0.865296 0.500000
O O16 0.135121 0.000000 0.500000
O O17 0.500000 0.358930 0.123388
O O18 0.310535 0.312946 0.000000
#
# Coordination Sequence:
#
# PCOD8196276 Si02
#       7
#     4   8   4   8   8   4   8
#     4  12  23  36  59  89 115 138 173 229 285 323
#     4  10  21  36  54  76 108 155 200 230 265 321
#     4  10  19  35  57  75 105 153 195 225 261 320
#     4  11  22  34  55  86 115 141 178 237 288 324
#     4   8  15  28  47  74 109 147 182 219 272 331
#     4   7  10  20  40  66  99 140 179 210 249 311
#     4  11  24  42  62  81 107 147 186 219 269 340
#
# _framework density 18.759115999999999
#
# number of rings (size 3 to 8) (size 9 to 14) (size 15 to 20)
#    0.000    2.091    1.818    3.545    1.273    4.000 
#    0.000    0.000    0.000    4.364    0.000    5.091 
#    0.000    0.000    0.000    0.000    0.000    0.000 
#
# Total GULP energy -545336.338054 kJ/mol
# GULP energy per Si atom -12394.007683 kJ/mol
# Density = 1.871642 g / cm^3
# Si number density = 18.759116 Si / 1000 Ang^3
#
#
#
# Elastic Constant Matrix: (Units=GPa)
#
#
# Indices 1 2 3 4 5 6 
#
# 1 91.2757 41.0251 47.7919 0.0000 0.0000 0.0000
# 2 41.0251 121.5226 54.3359 0.0000 0.0000 0.0000
# 3 47.7919 54.3359 114.9891 0.0000 0.0000 0.0000
# 4 0.0000 0.0000 0.0000 212.1055 0.0000 0.0000
# 5 0.0000 0.0000 0.0000 0.0000 15.1998 0.0000
# 6 0.0000 0.0000 0.0000 0.0000 0.0000 -16.8950
#
#
#
# Elastic Compliance Matrix: (Units=1/GPa)
#
#
# Indices 1 2 3 4 5 6 
#
# 1 0.014735 -0.002835 -0.004785 0.000000 0.000000 0.000000
# 2 -0.002835 0.010979 -0.004009 0.000000 0.000000 0.000000
# 3 -0.004785 -0.004009 0.012580 0.000000 0.000000 0.000000
# 4 0.000000 0.000000 0.000000 0.004715 0.000000 0.000000
# 5 0.000000 0.000000 0.000000 0.000000 0.065790 0.000000
# 6 0.000000 0.000000 0.000000 0.000000 0.000000 -0.059189
#
#
# Mechanical properties :
#
#
# Convention : Reuss Voigt Hill
#
# Bulk Modulus (GPa) = 66.51028 68.23258 67.37143
# Shear Modulus (GPa) = 64.20164 54.39103 59.29633
#
# Velocity S-wave (km/s) = 5.85649 5.39049 5.62832
# Velocity P-wave (km/s) = 9.01461 8.67152 8.84473
#
# Compressibility (1/GPa) = 0.01503527
#
# Stress axis : x y z
#
# Youngs Moduli (GPa) = 67.86395 91.08470 79.49346
#
# Poissons Ratio (x) = 0.25825 0.38034
# Poissons Ratio (y) = 0.19241 0.31872
# Poissons Ratio (z) = 0.32470 0.36520
#
# Static dielectric constant tensor:
#      x y z
#    x 3.237400 0.000000 0.000000 
#    y 0.000000 3.624480 0.000000 
#    z 0.000000 0.000000 3.474090 
# 
# 
# High freq. dielectric constant tensor:
#      x y z
#    x 1.704720 0.000000 0.000000 
#    y 0.000000 1.728170 0.000000 
#    z 0.000000 0.000000 1.719630 
# 
# From -- ./inp_files/20951.got.cif
#   From: 2010.03.12/outbox.cif.g09.slc.cpg/sg47_11_cif.got.tgz:20951.got - 2010.04.14 03:12:58.
