data_PCOD8196179
_publ_section_title
;
Structure prediction by ZEFSAII (Michael W. Deem and Ramdas Pophale) SiO2 
 PCOD8196179
Probable space group: P M M M
;
_chemical_formula_sum "Si O2"
_cell_formula_units_Z 48
_cell_length_a 15.598442
_cell_length_b 17.903310
_cell_length_c 9.265962
_cell_angle_alpha 90.000000
_cell_angle_beta 90.000000
_cell_angle_gamma 90.000000
_cell_volume 2587.647227
_symmetry_space_group_name_H-M "P M M M"
_symmetry_group_IT_number 47
_symmetry_cell_setting 'orthorhombic'
loop_
_space_group_symop_operation_xyz
x,y,z
-x,-y,z
x,-y,-z
-x,y,-z
-x,-y,-z
x,y,-z
-x,y,z
x,-y,z
loop_
_atom_site_type_symbol
_atom_site_label
_atom_site_fract_x
_atom_site_fract_y
_atom_site_fract_z
Si Si1 0.334807 0.856785 0.665798
Si Si2 0.600262 0.000000 0.168361
Si Si3 0.905339 0.661212 0.328556
Si Si4 0.000000 0.087821 0.161423
Si Si5 0.736065 0.416344 0.672260
Si Si6 0.404120 0.300491 0.671393
Si Si7 0.864439 0.173281 0.334933
O O1 0.360337 0.873370 0.500000
O O2 0.359502 0.926588 0.762405
O O3 0.382971 0.783080 0.725434
O O4 0.235002 0.842016 0.681015
O O5 0.500000 0.000000 0.198949
O O6 0.622231 0.000000 0.000000
O O7 0.902644 0.659638 0.500000
O O8 0.830125 0.607565 0.268665
O O9 0.886767 0.744833 0.274477
O O10 0.000000 0.635334 0.273682
O O11 0.914422 0.113212 0.241610
O O12 0.000000 0.000000 0.159371
O O13 0.000000 0.120591 0.000000
O O14 0.735424 0.412989 0.500000
O O15 0.716486 0.500000 0.727171
O O16 0.663012 0.360935 0.735204
O O17 0.396315 0.301101 0.500000
O O18 0.500000 0.322274 0.722154
O O19 0.894530 0.165904 0.500000
#
# Coordination Sequence:
#
# PCOD8196179 Si02
#       7
#     8   4   8   4   8   8   8
#     4  10  20  35  57  81 103 135 182 227 265 312
#     4  11  25  41  55  76 109 142 171 215 276 331
#     4   9  15  26  45  67  94 130 171 214 256 300
#     4  11  25  39  51  75 110 139 168 214 269 321
#     4   9  16  25  38  64 104 141 173 211 258 316
#     4   9  16  27  45  69  99 137 177 216 260 312
#     4  10  19  34  56  77  99 136 180 219 258 306
#
# _framework density 18.549668
#
# number of rings (size 3 to 8) (size 9 to 14) (size 15 to 20)
#    0.000    2.333    2.500    1.000    1.167    3.333 
#    0.000    3.333    0.000    0.000    0.000    0.000 
#    0.000    3.333    0.000    3.500    0.000    3.333 
#
# Total GULP energy -595082.979712 kJ/mol
# GULP energy per Si atom -12397.562077 kJ/mol
# Density = 1.850745 g / cm^3
# Si number density = 18.549668 Si / 1000 Ang^3
#
#
#
# Elastic Constant Matrix: (Units=GPa)
#
#
# Indices 1 2 3 4 5 6 
#
# 1 136.0295 72.3462 25.9796 0.0000 0.0000 0.0000
# 2 72.3462 134.6017 24.7386 0.0000 0.0000 0.0000
# 3 25.9796 24.7386 35.6924 0.0000 0.0000 0.0000
# 4 0.0000 0.0000 0.0000 73.2105 0.0000 0.0000
# 5 0.0000 0.0000 0.0000 0.0000 8.7484 0.0000
# 6 0.0000 0.0000 0.0000 0.0000 0.0000 46.0907
#
#
#
# Elastic Compliance Matrix: (Units=1/GPa)
#
#
# Indices 1 2 3 4 5 6 
#
# 1 0.010872 -0.005030 -0.004427 0.000000 0.000000 0.000000
# 2 -0.005030 0.010841 -0.003853 0.000000 0.000000 0.000000
# 3 -0.004427 -0.003853 0.033910 0.000000 0.000000 0.000000
# 4 0.000000 0.000000 0.000000 0.013659 0.000000 0.000000
# 5 0.000000 0.000000 0.000000 0.000000 0.114306 0.000000
# 6 0.000000 0.000000 0.000000 0.000000 0.000000 0.021696
#
#
# Mechanical properties :
#
#
# Convention : Reuss Voigt Hill
#
# Bulk Modulus (GPa) = 34.47894 61.38359 47.93127
# Shear Modulus (GPa) = 20.69777 37.82719 29.26248
#
# Velocity S-wave (km/s) = 3.34399 4.52069 3.97611
# Velocity P-wave (km/s) = 5.79115 7.77253 6.85382
#
# Compressibility (1/GPa) = 0.02900321
#
# Stress axis : x y z
#
# Youngs Moduli (GPa) = 91.97986 92.24351 29.48973
#
# Poissons Ratio (x) = 0.46397 0.13056
# Poissons Ratio (y) = 0.46264 0.11362
# Poissons Ratio (z) = 0.40722 0.35540
#
# Static dielectric constant tensor:
#      x y z
#    x 3.699970 0.000000 0.000000 
#    y 0.000000 3.421570 0.000000 
#    z 0.000000 0.000000 2.904450 
# 
# 
# High freq. dielectric constant tensor:
#      x y z
#    x 1.740830 0.000000 0.000000 
#    y 0.000000 1.725790 0.000000 
#    z 0.000000 0.000000 1.650780 
# 
# From -- ./inp_files/6464.got.cif
#   From: 2010.03.12/outbox.cif.g09.slc.cpg/sg47_4_cif.got.tgz:6464.got - 2010.04.14 03:12:58.
