data_PCOD8196289
_publ_section_title
;
Structure prediction by ZEFSAII (Michael W. Deem and Ramdas Pophale) SiO2 
 PCOD8196289
Probable space group: P M M M
;
_chemical_formula_sum "Si O2"
_cell_formula_units_Z 52
_cell_length_a 16.976562
_cell_length_b 17.806230
_cell_length_c 8.979548
_cell_angle_alpha 90.000000
_cell_angle_beta 90.000000
_cell_angle_gamma 90.000000
_cell_volume 2714.414702
_symmetry_space_group_name_H-M "P M M M"
_symmetry_group_IT_number 47
_symmetry_cell_setting 'orthorhombic'
loop_
_space_group_symop_operation_xyz
x,y,z
-x,-y,z
x,-y,-z
-x,y,-z
-x,-y,-z
x,y,-z
-x,y,z
x,-y,z
loop_
_atom_site_type_symbol
_atom_site_label
_atom_site_fract_x
_atom_site_fract_y
_atom_site_fract_z
Si Si1 0.308712 0.916617 0.176204
Si Si2 0.147715 0.157453 0.173047
Si Si3 0.842742 0.666526 0.826587
Si Si4 0.588084 0.500000 0.676858
Si Si5 0.590263 0.779153 0.175765
Si Si6 0.682289 0.644594 0.323285
Si Si7 0.000000 0.084772 0.324196
Si Si8 0.000000 0.414920 0.823069
O O1 0.226603 0.882181 0.233765
O O2 0.380322 0.862149 0.223752
O O3 0.321914 0.000000 0.244682
O O4 0.305064 0.922038 0.000000
O O5 0.153451 0.245384 0.202520
O O6 0.076430 0.126452 0.266942
O O7 0.133030 0.140011 0.000000
O O8 0.770469 0.632424 0.734869
O O9 0.922373 0.628061 0.764995
O O10 0.829822 0.648437 0.000000
O O11 0.500000 0.500000 0.743390
O O12 0.585679 0.500000 0.500000
O O13 0.632160 0.426050 0.734988
O O14 0.500000 0.770506 0.225894
O O15 0.643912 0.719300 0.258256
O O16 0.600940 0.767194 0.000000
O O17 0.682871 0.650306 0.500000
O O18 0.000000 0.087018 0.500000
O O19 0.000000 0.000000 0.263276
O O20 0.000000 0.500000 0.761726
O O21 0.000000 0.413719 0.000000
#
# Coordination Sequence:
#
# PCOD8196289 Si02
#       8
#     8   8   8   4   8   8   4   4
#     4   9  17  31  53  82 113 145 185 232 279 330
#     4  10  19  35  58  79 106 147 192 232 272 332
#     4  10  20  37  60  85 113 145 187 233 277 327
#     4   9  20  38  57  80 113 152 192 231 273 333
#     4  10  20  36  58  84 115 148 187 237 285 331
#     4  11  22  37  60  86 115 151 190 230 281 341
#     4  11  24  37  51  79 116 145 178 232 287 330
#     4   9  19  34  55  85 116 149 182 220 274 333
#
# _framework density 19.156983
#
# number of rings (size 3 to 8) (size 9 to 14) (size 15 to 20)
#    0.000    2.077    1.538    2.077    1.077    4.308 
#    0.000    3.077    0.000    3.692    0.000    1.077 
#    0.000    0.000    0.000    0.000    0.000    0.000 
#
# Total GULP energy -644881.656535 kJ/mol
# GULP energy per Si atom -12401.570318 kJ/mol
# Density = 1.911338 g / cm^3
# Si number density = 19.156983 Si / 1000 Ang^3
#
#
#
# Elastic Constant Matrix: (Units=GPa)
#
#
# Indices 1 2 3 4 5 6 
#
# 1 165.7114 68.6964 34.6346 0.0000 0.0000 0.0000
# 2 68.6964 136.2352 28.1671 0.0000 0.0000 0.0000
# 3 34.6346 28.1671 34.6520 0.0000 0.0000 0.0000
# 4 0.0000 0.0000 0.0000 12.2148 0.0000 0.0000
# 5 0.0000 0.0000 0.0000 0.0000 21.7994 0.0000
# 6 0.0000 0.0000 0.0000 0.0000 0.0000 33.1035
#
#
#
# Elastic Compliance Matrix: (Units=1/GPa)
#
#
# Indices 1 2 3 4 5 6 
#
# 1 0.008577 -0.003068 -0.006079 0.000000 0.000000 0.000000
# 2 -0.003068 0.009921 -0.004997 0.000000 0.000000 0.000000
# 3 -0.006079 -0.004997 0.038996 0.000000 0.000000 0.000000
# 4 0.000000 0.000000 0.000000 0.081868 0.000000 0.000000
# 5 0.000000 0.000000 0.000000 0.000000 0.045873 0.000000
# 6 0.000000 0.000000 0.000000 0.000000 0.000000 0.030208
#
#
# Mechanical properties :
#
#
# Convention : Reuss Voigt Hill
#
# Bulk Modulus (GPa) = 34.24042 66.62162 50.43102
# Shear Modulus (GPa) = 19.72645 27.09689 23.41167
#
# Velocity S-wave (km/s) = 3.21242 3.76502 3.49964
# Velocity P-wave (km/s) = 5.62778 7.33162 6.53546
#
# Compressibility (1/GPa) = 0.02920525
#
# Stress axis : x y z
#
# Youngs Moduli (GPa) = 116.59115 100.80054 25.64350
#
# Poissons Ratio (x) = 0.30927 0.15588
# Poissons Ratio (y) = 0.35772 0.12815
# Poissons Ratio (z) = 0.70872 0.50374
#
# Static dielectric constant tensor:
#      x y z
#    x 3.703410 0.000000 0.000000 
#    y 0.000000 3.851100 0.000000 
#    z 0.000000 0.000000 3.131360 
# 
# 
# High freq. dielectric constant tensor:
#      x y z
#    x 1.761170 0.000000 0.000000 
#    y 0.000000 1.759870 0.000000 
#    z 0.000000 0.000000 1.704850 
# 
# From -- ./inp_files/9620.got.cif
#   From: 2010.03.12/outbox.cif.g09.slc.cpg/sg47_5_cif.got.tgz:9620.got - 2010.04.14 03:12:58.
