data_PCOD8196755
_publ_section_title
;
Structure prediction by ZEFSAII (Michael W. Deem and Ramdas Pophale) SiO2 
 PCOD8196755
Probable space group: P M M M
;
_chemical_formula_sum "Si O2"
_cell_formula_units_Z 52
_cell_length_a 23.693247
_cell_length_b 13.959600
_cell_length_c 9.574511
_cell_angle_alpha 90.000000
_cell_angle_beta 90.000000
_cell_angle_gamma 90.000000
_cell_volume 3166.752766
_symmetry_space_group_name_H-M "P M M M"
_symmetry_group_IT_number 47
_symmetry_cell_setting 'orthorhombic'
loop_
_space_group_symop_operation_xyz
x,y,z
-x,-y,z
x,-y,-z
-x,y,-z
-x,-y,-z
x,y,-z
-x,y,z
x,-y,z
loop_
_atom_site_type_symbol
_atom_site_label
_atom_site_fract_x
_atom_site_fract_y
_atom_site_fract_z
Si Si1 0.500000 0.614301 0.659627
Si Si2 0.059665 0.613638 0.656345
Si Si3 0.663299 0.106808 0.159673
Si Si4 0.561897 0.886320 0.656804
Si Si5 0.277293 0.292841 0.840012
Si Si6 0.818382 0.389698 0.666268
Si Si7 0.605048 0.613202 0.159630
O O1 0.500000 0.500000 0.664634
O O2 0.500000 0.651881 0.500000
O O3 0.444069 0.653181 0.738502
O O4 0.057402 0.654948 0.500000
O O5 0.061957 0.500000 0.649309
O O6 0.119556 0.645777 0.723598
O O7 0.000000 0.645637 0.732436
O O8 0.609936 0.152507 0.240312
O O9 0.716187 0.177934 0.178826
O O10 0.679921 0.000000 0.213434
O O11 0.644156 0.103058 0.000000
O O12 0.578603 0.856808 0.500000
O O13 0.500000 0.842663 0.694461
O O14 0.558503 0.000000 0.671205
O O15 0.227404 0.324216 0.739744
O O16 0.335291 0.343078 0.793644
O O17 0.262603 0.319598 0.000000
O O18 0.814837 0.376498 0.500000
O O19 0.807293 0.500000 0.707138
O O20 0.610151 0.500000 0.174714
O O21 0.590617 0.642236 0.000000
#
# Coordination Sequence:
#
# PCOD8196755 Si02
#       7
#     4   8   8   8   8   8   8
#     4   9  17  29  45  63  80  99 128 170 215 249
#     4   7  10  19  37  61  89 120 150 175 200 236
#     4   9  18  32  47  62  81 107 142 182 219 257
#     4   8  14  26  44  63  81 101 125 158 209 270
#     4  10  20  32  45  63  86 115 147 178 217 263
#     4   9  17  28  44  68  95 121 149 180 210 243
#     4   9  17  30  46  60  77 105 137 166 202 254
#
# _framework density 16.420605999999999
#
# number of rings (size 3 to 8) (size 9 to 14) (size 15 to 20)
#    0.000    3.308    0.000    2.538    0.000    3.385 
#    1.385    3.077    0.000    0.462    0.000    2.154 
#    0.000    0.615    0.000    7.692    0.000    0.308 
#
# Total GULP energy -644206.868222 kJ/mol
# GULP energy per Si atom -12388.593620 kJ/mol
# Density = 1.638323 g / cm^3
# Si number density = 16.420606 Si / 1000 Ang^3
#
#
#
# Elastic Constant Matrix: (Units=GPa)
#
#
# Indices 1 2 3 4 5 6 
#
# 1 148.5479 42.8805 58.8250 0.0000 0.0000 0.0000
# 2 42.8805 33.2717 22.4539 0.0000 0.0000 0.0000
# 3 58.8250 22.4539 57.7341 0.0000 0.0000 0.0000
# 4 0.0000 0.0000 0.0000 13.7447 0.0000 0.0000
# 5 0.0000 0.0000 0.0000 0.0000 7.9201 0.0000
# 6 0.0000 0.0000 0.0000 0.0000 0.0000 11.9596
#
#
#
# Elastic Compliance Matrix: (Units=1/GPa)
#
#
# Indices 1 2 3 4 5 6 
#
# 1 0.013830 -0.011273 -0.009707 0.000000 0.000000 0.000000
# 2 -0.011273 0.049941 -0.007937 0.000000 0.000000 0.000000
# 3 -0.009707 -0.007937 0.030298 0.000000 0.000000 0.000000
# 4 0.000000 0.000000 0.000000 0.072755 0.000000 0.000000
# 5 0.000000 0.000000 0.000000 0.000000 0.126261 0.000000
# 6 0.000000 0.000000 0.000000 0.000000 0.000000 0.083615
#
#
# Mechanical properties :
#
#
# Convention : Reuss Voigt Hill
#
# Bulk Modulus (GPa) = 27.59772 54.20807 40.90290
# Shear Modulus (GPa) = 11.19542 14.41783 12.80662
#
# Velocity S-wave (km/s) = 2.61394 2.96638 2.79572
# Velocity P-wave (km/s) = 5.09446 6.69451 5.94853
#
# Compressibility (1/GPa) = 0.03623487
#
# Stress axis : x y z
#
# Youngs Moduli (GPa) = 72.30679 20.02382 33.00562
#
# Poissons Ratio (x) = 0.22573 0.32038
# Poissons Ratio (y) = 0.81513 0.26195
# Poissons Ratio (z) = 0.70188 0.15892
#
# Static dielectric constant tensor:
#      x y z
#    x 3.421650 0.000000 0.000000 
#    y 0.000000 2.945170 0.000000 
#    z 0.000000 0.000000 2.977470 
# 
# 
# High freq. dielectric constant tensor:
#      x y z
#    x 1.623550 0.000000 0.000000 
#    y 0.000000 1.607880 0.000000 
#    z 0.000000 0.000000 1.613410 
# 
# From -- ./inp_files/12513.got.cif
#   From: 2010.03.12/outbox.cif.g09.slc.cpg/sg47_7_cif.got.tgz:12513.got - 2010.04.14 03:12:58.
