data_PCOD8196103
_publ_section_title
;
Structure prediction by ZEFSAII (Michael W. Deem and Ramdas Pophale) SiO2 
 PCOD8196103
Probable space group: P M M M
;
_chemical_formula_sum "Si O2"
_cell_formula_units_Z 56
_cell_length_a 20.535109
_cell_length_b 15.500292
_cell_length_c 8.821992
_cell_angle_alpha 90.000000
_cell_angle_beta 90.000000
_cell_angle_gamma 90.000000
_cell_volume 2808.041692
_symmetry_space_group_name_H-M "P M M M"
_symmetry_group_IT_number 47
_symmetry_cell_setting 'orthorhombic'
loop_
_space_group_symop_operation_xyz
x,y,z
-x,-y,z
x,-y,-z
-x,y,-z
-x,-y,-z
x,y,-z
-x,y,z
x,-y,z
loop_
_atom_site_type_symbol
_atom_site_label
_atom_site_fract_x
_atom_site_fract_y
_atom_site_fract_z
Si Si1 0.325725 0.403839 0.823423
Si Si2 0.790313 0.321663 0.679434
Si Si3 0.930203 0.275541 0.678804
Si Si4 0.117301 0.906877 0.673633
Si Si5 0.426576 0.739992 0.175792
Si Si6 0.372317 0.095450 0.674888
Si Si7 0.243166 0.144440 0.177500
O O1 0.352751 0.500000 0.790334
O O2 0.254632 0.397430 0.744847
O O3 0.377701 0.333856 0.760625
O O4 0.314901 0.388754 0.000000
O O5 0.790960 0.327088 0.500000
O O6 0.865829 0.325139 0.741607
O O7 0.756827 0.233984 0.732473
O O8 0.931393 0.287065 0.500000
O O9 0.927560 0.173581 0.721664
O O10 0.000000 0.310296 0.745085
O O11 0.140167 0.893004 0.500000
O O12 0.180461 0.911358 0.779689
O O13 0.081036 0.000000 0.691372
O O14 0.500000 0.705825 0.198634
O O15 0.419742 0.829689 0.265376
O O16 0.411561 0.758111 0.000000
O O17 0.355835 0.113827 0.500000
O O18 0.306780 0.093191 0.772982
O O19 0.404754 0.000000 0.693233
O O20 0.244784 0.163626 0.000000
#
# Coordination Sequence:
#
# PCOD8196103 Si02
#       7
#     8   8   8   8   8   8   8
#     4  10  21  38  62  91 119 148 183 225 278 340
#     4  10  19  33  56  83 111 144 183 229 280 331
#     4   8  15  28  47  73 104 140 183 230 280 331
#     4   9  17  28  43  67 100 137 181 233 285 335
#     4  10  22  40  61  86 117 153 190 229 276 332
#     4  11  23  37  55  80 112 152 196 239 283 329
#     4  11  20  31  50  75 105 143 187 234 285 333
#
# _framework density 19.942723999999998
#
# number of rings (size 3 to 8) (size 9 to 14) (size 15 to 20)
#    0.000    2.143    1.429    3.429    0.000    4.571 
#    0.000    4.286    0.000   11.143    0.000    9.000 
#    0.000    0.000    0.000    0.000    0.000    0.000 
#
# Total GULP energy -693932.737027 kJ/mol
# GULP energy per Si atom -12391.656018 kJ/mol
# Density = 1.989733 g / cm^3
# Si number density = 19.942724 Si / 1000 Ang^3
#
#
#
# Elastic Constant Matrix: (Units=GPa)
#
#
# Indices 1 2 3 4 5 6 
#
# 1 128.5224 49.5088 29.0602 0.0000 0.0000 0.0000
# 2 49.5088 95.4570 26.2806 0.0000 0.0000 0.0000
# 3 29.0602 26.2806 41.3206 0.0000 0.0000 0.0000
# 4 0.0000 0.0000 0.0000 22.8439 0.0000 0.0000
# 5 0.0000 0.0000 0.0000 0.0000 19.0914 0.0000
# 6 0.0000 0.0000 0.0000 0.0000 0.0000 10.8786
#
#
#
# Elastic Compliance Matrix: (Units=1/GPa)
#
#
# Indices 1 2 3 4 5 6 
#
# 1 0.010432 -0.004110 -0.004722 0.000000 0.000000 0.000000
# 2 -0.004110 0.014319 -0.006216 0.000000 0.000000 0.000000
# 3 -0.004722 -0.006216 0.031476 0.000000 0.000000 0.000000
# 4 0.000000 0.000000 0.000000 0.043775 0.000000 0.000000
# 5 0.000000 0.000000 0.000000 0.000000 0.052380 0.000000
# 6 0.000000 0.000000 0.000000 0.000000 0.000000 0.091924
#
#
# Mechanical properties :
#
#
# Convention : Reuss Voigt Hill
#
# Bulk Modulus (GPa) = 38.27218 52.77770 45.52494
# Shear Modulus (GPa) = 17.66073 21.25947 19.46010
#
# Velocity S-wave (km/s) = 2.97909 3.26855 3.12717
# Velocity P-wave (km/s) = 5.57369 6.38488 5.99302
#
# Compressibility (1/GPa) = 0.02612864
#
# Stress axis : x y z
#
# Youngs Moduli (GPa) = 95.85986 69.83606 31.77031
#
# Poissons Ratio (x) = 0.28705 0.15003
# Poissons Ratio (y) = 0.39402 0.19750
# Poissons Ratio (z) = 0.45268 0.43414
#
# Static dielectric constant tensor:
#      x y z
#    x 3.818880 0.000000 0.000000 
#    y 0.000000 3.547410 0.000000 
#    z 0.000000 0.000000 3.458640 
# 
# 
# High freq. dielectric constant tensor:
#      x y z
#    x 1.774230 0.000000 0.000000 
#    y 0.000000 1.761440 0.000000 
#    z 0.000000 0.000000 1.754990 
# 
# From -- ./inp_files/11215.got.cif
#   From: 2010.03.12/outbox.cif.g09.slc.cpg/sg47_6_cif.got.tgz:11215.got - 2010.04.14 03:12:58.
