data_PCOD8196029
_publ_section_title
;
Structure prediction by ZEFSAII (Michael W. Deem and Ramdas Pophale) SiO2 
 PCOD8196029
Probable space group: P M M M
;
_chemical_formula_sum "Si O2"
_cell_formula_units_Z 64
_cell_length_a 15.079578
_cell_length_b 24.876844
_cell_length_c 9.234625
_cell_angle_alpha 90.000000
_cell_angle_beta 90.000000
_cell_angle_gamma 90.000000
_cell_volume 3464.206204
_symmetry_space_group_name_H-M "P M M M"
_symmetry_group_IT_number 47
_symmetry_cell_setting 'orthorhombic'
loop_
_space_group_symop_operation_xyz
x,y,z
-x,-y,z
x,-y,-z
-x,y,-z
-x,-y,-z
x,y,-z
-x,y,z
x,-y,z
loop_
_atom_site_type_symbol
_atom_site_label
_atom_site_fract_x
_atom_site_fract_y
_atom_site_fract_z
Si Si1 0.712587 0.852393 0.828132
Si Si2 0.400619 0.350820 0.165887
Si Si3 0.263699 0.559975 0.168029
Si Si4 0.333981 0.253423 0.665435
Si Si5 0.601402 0.937291 0.665972
Si Si6 0.098895 0.400508 0.668562
Si Si7 0.867083 0.718196 0.663120
Si Si8 0.904385 0.178560 0.167332
O O1 0.663412 0.802422 0.752812
O O2 0.667855 0.906667 0.772283
O O3 0.817360 0.854608 0.781210
O O4 0.700828 0.847966 0.000000
O O5 0.500000 0.374150 0.176497
O O6 0.334578 0.396648 0.227795
O O7 0.398165 0.296380 0.259572
O O8 0.376242 0.336588 0.000000
O O9 0.301628 0.500000 0.194963
O O10 0.169478 0.563871 0.247058
O O11 0.246490 0.570410 0.000000
O O12 0.364224 0.242547 0.500000
O O13 0.238139 0.279761 0.672401
O O14 0.622668 0.922114 0.500000
O O15 0.500000 0.921895 0.702886
O O16 0.617075 0.000000 0.692423
O O17 0.124047 0.402315 0.500000
O O18 0.102319 0.339107 0.724620
O O19 0.000000 0.423524 0.695992
O O20 0.901084 0.726215 0.500000
O O21 0.911412 0.764244 0.756762
O O22 0.000000 0.148582 0.196098
O O23 0.891929 0.191052 0.000000
#
# Coordination Sequence:
#
# PCOD8196029 Si02
#       8
#     8   8   8   8   8   8   8   8
#     4  10  20  33  53  82 114 146 181 221 263 311
#     4  10  21  37  57  79 103 132 168 213 265 319
#     4  10  22  39  57  76 100 131 169 216 265 316
#     4  10  19  33  54  78 107 141 174 210 257 312
#     4   9  19  37  59  81 107 141 182 228 275 320
#     4  10  20  34  53  77 104 134 169 210 258 312
#     4   9  17  30  49  73 101 133 170 211 253 302
#     4   9  18  31  47  72 108 146 180 214 255 304
#
# _framework density 18.474651000000001
#
# number of rings (size 3 to 8) (size 9 to 14) (size 15 to 20)
#    0.000    2.375    1.250    1.500    0.000    4.500 
#    0.000    3.125    0.000    0.375    0.000    4.375 
#    0.000    0.000    0.000    0.000    0.000    0.000 
#
# Total GULP energy -793422.024430 kJ/mol
# GULP energy per Si atom -12397.219132 kJ/mol
# Density = 1.843260 g / cm^3
# Si number density = 18.474651 Si / 1000 Ang^3
#
#
#
# Elastic Constant Matrix: (Units=GPa)
#
#
# Indices 1 2 3 4 5 6 
#
# 1 98.2634 49.8962 39.8840 0.0000 0.0000 0.0000
# 2 49.8962 84.4519 42.4600 0.0000 0.0000 0.0000
# 3 39.8840 42.4600 68.5893 0.0000 0.0000 0.0000
# 4 0.0000 0.0000 0.0000 29.6705 0.0000 0.0000
# 5 0.0000 0.0000 0.0000 0.0000 21.2267 0.0000
# 6 0.0000 0.0000 0.0000 0.0000 0.0000 17.0748
#
#
#
# Elastic Compliance Matrix: (Units=1/GPa)
#
#
# Indices 1 2 3 4 5 6 
#
# 1 0.015589 -0.006755 -0.004883 0.000000 0.000000 0.000000
# 2 -0.006755 0.020119 -0.008527 0.000000 0.000000 0.000000
# 3 -0.004883 -0.008527 0.022697 0.000000 0.000000 0.000000
# 4 0.000000 0.000000 0.000000 0.033704 0.000000 0.000000
# 5 0.000000 0.000000 0.000000 0.000000 0.047110 0.000000
# 6 0.000000 0.000000 0.000000 0.000000 0.000000 0.058566
#
#
# Mechanical properties :
#
#
# Convention : Reuss Voigt Hill
#
# Bulk Modulus (GPa) = 55.32288 57.30944 56.31616
# Shear Modulus (GPa) = 20.48007 21.53203 21.00605
#
# Velocity S-wave (km/s) = 3.33310 3.41763 3.37563
# Velocity P-wave (km/s) = 6.69500 6.83093 6.76330
#
# Compressibility (1/GPa) = 0.01807570
#
# Stress axis : x y z
#
# Youngs Moduli (GPa) = 64.14846 49.70388 44.05811
#
# Poissons Ratio (x) = 0.33576 0.21513
# Poissons Ratio (y) = 0.43334 0.37567
# Poissons Ratio (z) = 0.31323 0.42381
#
# Static dielectric constant tensor:
#      x y z
#    x 3.528730 0.000000 0.000000 
#    y 0.000000 3.172730 0.000000 
#    z 0.000000 0.000000 3.378000 
# 
# 
# High freq. dielectric constant tensor:
#      x y z
#    x 1.723150 0.000000 0.000000 
#    y 0.000000 1.694400 0.000000 
#    z 0.000000 0.000000 1.712810 
# 
# From -- ./inp_files/7916.got.cif
#   From: 2010.03.12/outbox.cif.g09.slc.cpg/sg47_4_cif.got.tgz:7916.got - 2010.04.14 03:12:58.
