data_PCOD8196634
_publ_section_title
;
Structure prediction by ZEFSAII (Michael W. Deem and Ramdas Pophale) SiO2 
 PCOD8196634
Probable space group: P M M M
;
_chemical_formula_sum "Si O2"
_cell_formula_units_Z 52
_cell_length_a 20.832257
_cell_length_b 8.871725
_cell_length_c 14.424170
_cell_angle_alpha 90.000000
_cell_angle_beta 90.000000
_cell_angle_gamma 90.000000
_cell_volume 2665.847048
_symmetry_space_group_name_H-M "P M M M"
_symmetry_group_IT_number 47
_symmetry_cell_setting 'orthorhombic'
loop_
_space_group_symop_operation_xyz
x,y,z
-x,-y,z
x,-y,-z
-x,y,-z
-x,-y,-z
x,y,-z
-x,y,z
x,-y,z
loop_
_atom_site_type_symbol
_atom_site_label
_atom_site_fract_x
_atom_site_fract_y
_atom_site_fract_z
Si Si1 0.116025 0.820660 0.278028
Si Si2 0.000000 0.320949 0.391257
Si Si3 0.375348 0.820672 0.398518
Si Si4 0.232736 0.821357 0.602035
Si Si5 0.429994 0.178400 0.788745
Si Si6 0.828912 0.678525 0.105903
Si Si7 0.315296 0.667591 0.891084
O O1 0.182205 0.762075 0.323377
O O2 0.119395 0.761624 0.172056
O O3 0.060709 0.745898 0.338196
O O4 0.106754 0.000000 0.278966
O O5 0.000000 0.500000 0.382290
O O6 0.000000 0.272063 0.500000
O O7 0.397201 0.759163 0.500000
O O8 0.303797 0.761201 0.373827
O O9 0.421847 0.762829 0.317262
O O10 0.374461 0.000000 0.402365
O O11 0.212487 0.762912 0.500000
O O12 0.232531 0.000000 0.602555
O O13 0.500000 0.237080 0.823817
O O14 0.371520 0.229808 0.851578
O O15 0.428766 0.000000 0.790471
O O16 0.834780 0.500000 0.118291
O O17 0.756041 0.731248 0.131229
O O18 0.845166 0.724062 0.000000
O O19 0.322663 0.500000 0.849583
O O20 0.324623 0.662711 0.000000
#
# Coordination Sequence:
#
# PCOD8196634 Si02
#       7
#     8   4   8   8   8   8   8
#     4  11  21  34  57  86 115 146 180 223 272 319
#     4  11  25  43  60  81 116 161 199 224 254 305
#     4   8  14  26  44  67  97 131 166 206 256 316
#     4   8  14  25  44  72 102 130 163 208 263 316
#     4  10  20  31  45  70 102 134 172 221 274 323
#     4   9  19  37  59  82 109 140 176 221 273 328
#     4   9  19  36  56  76 100 135 177 218 263 320
#
# _framework density 19.505994999999999
#
# number of rings (size 3 to 8) (size 9 to 14) (size 15 to 20)
#    0.000    2.692    0.000    3.923    0.000    4.615 
#    0.000    5.000    0.000    2.769    0.000    5.385 
#    0.000    0.000    0.000    0.000    0.000    0.000 
#
# Total GULP energy -644365.988196 kJ/mol
# GULP energy per Si atom -12391.653619 kJ/mol
# Density = 1.946160 g / cm^3
# Si number density = 19.505995 Si / 1000 Ang^3
#
#
#
# Elastic Constant Matrix: (Units=GPa)
#
#
# Indices 1 2 3 4 5 6 
#
# 1 94.0549 37.0791 64.8972 0.0000 0.0000 0.0000
# 2 37.0791 46.9088 36.4468 0.0000 0.0000 0.0000
# 3 64.8972 36.4468 101.6434 0.0000 0.0000 0.0000
# 4 0.0000 0.0000 0.0000 19.8013 0.0000 0.0000
# 5 0.0000 0.0000 0.0000 0.0000 28.1769 0.0000
# 6 0.0000 0.0000 0.0000 0.0000 0.0000 24.5854
#
#
#
# Elastic Compliance Matrix: (Units=1/GPa)
#
#
# Indices 1 2 3 4 5 6 
#
# 1 0.021283 -0.008685 -0.010475 0.000000 0.000000 0.000000
# 2 -0.008685 0.033095 -0.006322 0.000000 0.000000 0.000000
# 3 -0.010475 -0.006322 0.018793 0.000000 0.000000 0.000000
# 4 0.000000 0.000000 0.000000 0.050502 0.000000 0.000000
# 5 0.000000 0.000000 0.000000 0.000000 0.035490 0.000000
# 6 0.000000 0.000000 0.000000 0.000000 0.000000 0.040674
#
#
# Mechanical properties :
#
#
# Convention : Reuss Voigt Hill
#
# Bulk Modulus (GPa) = 45.02834 57.71703 51.37269
# Shear Modulus (GPa) = 19.36455 21.45833 20.41144
#
# Velocity S-wave (km/s) = 3.15421 3.32036 3.23835
# Velocity P-wave (km/s) = 6.03323 6.65983 6.35426
#
# Compressibility (1/GPa) = 0.02220824
#
# Stress axis : x y z
#
# Youngs Moduli (GPa) = 46.98477 30.21621 53.21075
#
# Poissons Ratio (x) = 0.26242 0.55738
# Poissons Ratio (y) = 0.40806 0.33639
# Poissons Ratio (z) = 0.49216 0.19102
#
# Static dielectric constant tensor:
#      x y z
#    x 3.771660 0.000000 0.000000 
#    y 0.000000 3.218170 0.000000 
#    z 0.000000 0.000000 3.781290 
# 
# 
# High freq. dielectric constant tensor:
#      x y z
#    x 1.755110 0.000000 0.000000 
#    y 0.000000 1.720160 0.000000 
#    z 0.000000 0.000000 1.770700 
# 
# From -- ./inp_files/25012.got.cif
#   From: 2010.03.12/outbox.cif.g09.slc.cpg/sg47_13_cif.got.tgz:25012.got - 2010.04.14 03:12:58.
