data_PCOD8196604
_publ_section_title
;
Structure prediction by ZEFSAII (Michael W. Deem and Ramdas Pophale) SiO2 
 PCOD8196604
Probable space group: P M M M
;
_chemical_formula_sum "Si O2"
_cell_formula_units_Z 40
_cell_length_a 25.668868
_cell_length_b 9.850402
_cell_length_c 9.287840
_cell_angle_alpha 90.000000
_cell_angle_beta 90.000000
_cell_angle_gamma 90.000000
_cell_volume 2348.417979
_symmetry_space_group_name_H-M "P M M M"
_symmetry_group_IT_number 47
_symmetry_cell_setting 'orthorhombic'
loop_
_space_group_symop_operation_xyz
x,y,z
-x,-y,z
x,-y,-z
-x,y,-z
-x,-y,-z
x,y,-z
-x,y,z
x,-y,z
loop_
_atom_site_type_symbol
_atom_site_label
_atom_site_fract_x
_atom_site_fract_y
_atom_site_fract_z
Si Si1 0.262237 0.658111 0.667307
Si Si2 0.557264 0.161044 0.661359
Si Si3 0.656738 0.841793 0.831129
Si Si4 0.057749 0.151705 0.328744
Si Si5 0.144610 0.350315 0.670754
O O1 0.272526 0.689827 0.500000
O O2 0.273670 0.500000 0.699675
O O3 0.297527 0.754128 0.763453
O O4 0.203011 0.695298 0.710733
O O5 0.569844 0.213203 0.500000
O O6 0.500000 0.215284 0.709909
O O7 0.601807 0.213460 0.768958
O O8 0.556153 0.000000 0.662802
O O9 0.665521 0.000000 0.792340
O O10 0.655921 0.817561 0.000000
O O11 0.061710 0.151705 0.500000
O O12 0.102043 0.248513 0.260981
O O13 0.000000 0.201951 0.281984
O O14 0.067520 0.000000 0.270109
O O15 0.139227 0.354749 0.500000
O O16 0.133419 0.500000 0.733768
#
# Coordination Sequence:
#
# PCOD8196604 Si02
#       5
#     8   8   8   8   8
#     4   9  18  32  48  65  87 118 156 195 233 273
#     4   8  14  26  45  68  93 121 152 185 222 265
#     4  10  20  31  45  69  97 122 151 187 227 273
#     4   8  13  20  30  48  77 110 140 171 212 263
#     4   8  14  24  37  54  76 104 142 184 221 260
#
# _framework density 17.032741000000001
#
# number of rings (size 3 to 8) (size 9 to 14) (size 15 to 20)
#    0.000    3.400    0.000    3.000    0.000    3.200 
#    0.000    6.000    0.000    0.600    0.000    4.200 
#    0.000    0.800    0.000    8.800    0.000   14.400 
#
# Total GULP energy -495690.603367 kJ/mol
# GULP energy per Si atom -12392.265084 kJ/mol
# Density = 1.699397 g / cm^3
# Si number density = 17.032741 Si / 1000 Ang^3
#
#
#
# Elastic Constant Matrix: (Units=GPa)
#
#
# Indices 1 2 3 4 5 6 
#
# 1 170.6632 82.3618 56.7611 0.0000 0.0000 0.0000
# 2 82.3618 73.1877 38.2724 0.0000 0.0000 0.0000
# 3 56.7611 38.2724 54.4249 0.0000 0.0000 0.0000
# 4 0.0000 0.0000 0.0000 15.8106 0.0000 0.0000
# 5 0.0000 0.0000 0.0000 0.0000 0.8231 0.0000
# 6 0.0000 0.0000 0.0000 0.0000 0.0000 8.5546
#
#
#
# Elastic Compliance Matrix: (Units=1/GPa)
#
#
# Indices 1 2 3 4 5 6 
#
# 1 0.013787 -0.012647 -0.005486 0.000000 0.000000 0.000000
# 2 -0.012647 0.033211 -0.010165 0.000000 0.000000 0.000000
# 3 -0.005486 -0.010165 0.031243 0.000000 0.000000 0.000000
# 4 0.000000 0.000000 0.000000 0.063249 0.000000 0.000000
# 5 0.000000 0.000000 0.000000 0.000000 1.214914 0.000000
# 6 0.000000 0.000000 0.000000 0.000000 0.000000 0.116896
#
#
# Mechanical properties :
#
#
# Convention : Reuss Voigt Hill
#
# Bulk Modulus (GPa) = 46.19603 72.56292 59.37948
# Shear Modulus (GPa) = 3.25285 13.09636 8.17461
#
# Velocity S-wave (km/s) = 1.38344 2.77590 2.19312
# Velocity P-wave (km/s) = 5.45277 7.27796 6.43045
#
# Compressibility (1/GPa) = 0.02164688
#
# Stress axis : x y z
#
# Youngs Moduli (GPa) = 72.53004 30.11023 32.00699
#
# Poissons Ratio (x) = 0.38080 0.17558
# Poissons Ratio (y) = 0.91729 0.32535
# Poissons Ratio (z) = 0.39788 0.30607
#
# Static dielectric constant tensor:
#      x y z
#    x 3.578000 0.000000 0.000000 
#    y 0.000000 3.184010 0.000000 
#    z 0.000000 0.000000 2.776880 
# 
# 
# High freq. dielectric constant tensor:
#      x y z
#    x 1.673040 0.000000 0.000000 
#    y 0.000000 1.634830 0.000000 
#    z 0.000000 0.000000 1.609260 
# 
# From -- ./inp_files/1677.got.cif
#   From: 2010.03.12/outbox.cif.g09.slc.cpg/sg47_1_cif.got.tgz:1677.got - 2010.04.14 03:12:58.
