data_PCOD8196561
_publ_section_title
;
Structure prediction by ZEFSAII (Michael W. Deem and Ramdas Pophale) SiO2 
 PCOD8196561
Probable space group: P M M M
;
_chemical_formula_sum "Si O2"
_cell_formula_units_Z 56
_cell_length_a 18.763167
_cell_length_b 19.209984
_cell_length_c 9.133547
_cell_angle_alpha 90.000000
_cell_angle_beta 90.000000
_cell_angle_gamma 90.000000
_cell_volume 3292.096940
_symmetry_space_group_name_H-M "P M M M"
_symmetry_group_IT_number 47
_symmetry_cell_setting 'orthorhombic'
loop_
_space_group_symop_operation_xyz
x,y,z
-x,-y,z
x,-y,-z
-x,y,-z
-x,-y,-z
x,y,-z
-x,y,z
x,-y,z
loop_
_atom_site_type_symbol
_atom_site_label
_atom_site_fract_x
_atom_site_fract_y
_atom_site_fract_z
Si Si1 0.299266 0.421330 0.672129
Si Si2 0.351879 0.216252 0.326579
Si Si3 0.418188 0.342167 0.830790
Si Si4 0.419795 0.076229 0.673768
Si Si5 0.919939 0.788815 0.673603
Si Si6 0.211794 0.707085 0.327801
Si Si7 0.084504 0.076016 0.836223
O O1 0.313679 0.410674 0.500000
O O2 0.276091 0.500000 0.708702
O O3 0.371613 0.402839 0.756385
O O4 0.235727 0.369750 0.726417
O O5 0.363787 0.223629 0.500000
O O6 0.406238 0.268515 0.248234
O O7 0.367975 0.137834 0.270201
O O8 0.271346 0.236269 0.281393
O O9 0.500000 0.364334 0.813163
O O10 0.396306 0.335169 0.000000
O O11 0.420305 0.075939 0.500000
O O12 0.500000 0.090163 0.731253
O O13 0.393297 0.000000 0.730376
O O14 0.920105 0.791698 0.500000
O O15 0.865565 0.729764 0.735367
O O16 0.889885 0.863146 0.728282
O O17 0.000000 0.772725 0.732517
O O18 0.204372 0.705912 0.500000
O O19 0.000000 0.073974 0.836456
O O20 0.113173 0.000000 0.783342
O O21 0.112555 0.091591 0.000000
#
# Coordination Sequence:
#
# PCOD8196561 Si02
#       7
#     8   8   8   8   8   8   8
#     4   9  18  33  52  69  85 111 145 177 209 251
#     4   9  16  28  46  63  83 115 153 188 218 255
#     4  10  20  31  44  66  95 121 143 173 214 256
#     4   8  13  21  36  60  84 104 135 183 229 258
#     4   9  16  26  42  63  87 115 144 176 217 264
#     4   8  15  28  44  64  87 108 137 177 215 251
#     4   8  14  25  40  58  82 111 142 178 217 253
#
# _framework density 17.010434
#
# number of rings (size 3 to 8) (size 9 to 14) (size 15 to 20)
#    0.000    3.286    0.000    2.571    0.000    2.571 
#    0.000    6.429    0.000    3.429    0.000    5.000 
#    0.000    0.000    0.000    8.714    0.000    9.429 
#
# Total GULP energy -693849.048237 kJ/mol
# GULP energy per Si atom -12390.161576 kJ/mol
# Density = 1.697172 g / cm^3
# Si number density = 17.010434 Si / 1000 Ang^3
#
#
#
# Elastic Constant Matrix: (Units=GPa)
#
#
# Indices 1 2 3 4 5 6 
#
# 1 94.6999 73.1228 23.4603 0.0000 0.0000 0.0000
# 2 73.1228 156.7694 25.6013 0.0000 0.0000 0.0000
# 3 23.4603 25.6013 31.3947 0.0000 0.0000 0.0000
# 4 0.0000 0.0000 0.0000 9.9708 0.0000 0.0000
# 5 0.0000 0.0000 0.0000 0.0000 9.9909 0.0000
# 6 0.0000 0.0000 0.0000 0.0000 0.0000 20.7851
#
#
#
# Elastic Compliance Matrix: (Units=1/GPa)
#
#
# Indices 1 2 3 4 5 6 
#
# 1 0.017948 -0.007131 -0.007597 0.000000 0.000000 0.000000
# 2 -0.007131 0.010192 -0.002983 0.000000 0.000000 0.000000
# 3 -0.007597 -0.002983 0.039961 0.000000 0.000000 0.000000
# 4 0.000000 0.000000 0.000000 0.100293 0.000000 0.000000
# 5 0.000000 0.000000 0.000000 0.000000 0.100091 0.000000
# 6 0.000000 0.000000 0.000000 0.000000 0.000000 0.048111
#
#
# Mechanical properties :
#
#
# Convention : Reuss Voigt Hill
#
# Bulk Modulus (GPa) = 30.59901 58.58142 44.59022
# Shear Modulus (GPa) = 13.77750 18.86134 16.31942
#
# Velocity S-wave (km/s) = 2.84904 3.33349 3.10074
# Velocity P-wave (km/s) = 5.37123 7.02350 6.25219
#
# Compressibility (1/GPa) = 0.03268080
#
# Stress axis : x y z
#
# Youngs Moduli (GPa) = 55.71720 98.11670 25.02410
#
# Poissons Ratio (x) = 0.69966 0.19010
# Poissons Ratio (y) = 0.39731 0.07463
# Poissons Ratio (z) = 0.42327 0.29263
#
# Static dielectric constant tensor:
#      x y z
#    x 3.267940 0.000000 0.000000 
#    y 0.000000 3.554130 0.000000 
#    z 0.000000 0.000000 2.930040 
# 
# 
# High freq. dielectric constant tensor:
#      x y z
#    x 1.632650 0.000000 0.000000 
#    y 0.000000 1.657610 0.000000 
#    z 0.000000 0.000000 1.623710 
# 
# From -- ./inp_files/11508.got.cif
#   From: 2010.03.12/outbox.cif.g09.slc.cpg/sg47_6_cif.got.tgz:11508.got - 2010.04.14 03:12:58.
