data_PCOD8196678
_publ_section_title
;
Structure prediction by ZEFSAII (Michael W. Deem and Ramdas Pophale) SiO2 
 PCOD8196678
Probable space group: P M M M
;
_chemical_formula_sum "Si O2"
_cell_formula_units_Z 36
_cell_length_a 25.107586
_cell_length_b 7.954296
_cell_length_c 9.302481
_cell_angle_alpha 90.000000
_cell_angle_beta 90.000000
_cell_angle_gamma 90.000000
_cell_volume 1857.827978
_symmetry_space_group_name_H-M "P M M M"
_symmetry_group_IT_number 47
_symmetry_cell_setting 'orthorhombic'
loop_
_space_group_symop_operation_xyz
x,y,z
-x,-y,z
x,-y,-z
-x,y,-z
-x,-y,-z
x,y,-z
-x,y,z
x,-y,z
loop_
_atom_site_type_symbol
_atom_site_label
_atom_site_fract_x
_atom_site_fract_y
_atom_site_fract_z
Si Si1 0.057364 0.691078 0.170203
Si Si2 0.633108 0.305146 0.830985
Si Si3 0.265169 0.693120 0.342300
Si Si4 0.831116 0.191302 0.837363
Si Si5 0.559371 0.000000 0.170222
O O1 0.064764 0.500000 0.220832
O O2 0.108643 0.794113 0.225782
O O3 0.000000 0.760130 0.229870
O O4 0.055340 0.703717 0.000000
O O5 0.617931 0.500000 0.791402
O O6 0.686649 0.237454 0.754408
O O7 0.587759 0.173764 0.779566
O O8 0.643557 0.290812 0.000000
O O9 0.263844 0.781975 0.500000
O O10 0.276759 0.500000 0.366023
O O11 0.208782 0.709482 0.263947
O O12 0.812996 0.000000 0.836627
O O13 0.828484 0.265059 0.000000
O O14 0.500000 0.000000 0.236713
O O15 0.556618 0.000000 0.000000
#
# Coordination Sequence:
#
# PCOD8196678 Si02
#       5
#     8   8   8   8   4
#     4   8  14  26  45  68  94 126 164 205 249 299
#     4   9  18  33  54  79 107 140 176 216 261 308
#     4  10  21  36  53  73  99 133 173 217 262 306
#     4  10  20  31  47  74 104 133 165 205 255 310
#     4   9  18  32  53  83 113 139 172 215 258 305
#
# _framework density 19.377465000000001
#
# number of rings (size 3 to 8) (size 9 to 14) (size 15 to 20)
#    0.000    2.778    0.000    2.000    1.556    3.556 
#    0.000    4.444    0.000    2.000    0.000    7.778 
#    0.000    0.000    0.000    0.000    0.000    0.000 
#
# Total GULP energy -446032.596653 kJ/mol
# GULP energy per Si atom -12389.794351 kJ/mol
# Density = 1.933336 g / cm^3
# Si number density = 19.377465 Si / 1000 Ang^3
#
#
#
# Elastic Constant Matrix: (Units=GPa)
#
#
# Indices 1 2 3 4 5 6 
#
# 1 172.4870 46.0238 51.3998 0.0000 0.0000 0.0000
# 2 46.0238 66.8310 21.1572 0.0000 0.0000 0.0000
# 3 51.3998 21.1572 61.5749 0.0000 0.0000 0.0000
# 4 0.0000 0.0000 0.0000 9.3202 0.0000 0.0000
# 5 0.0000 0.0000 0.0000 0.0000 2.1785 0.0000
# 6 0.0000 0.0000 0.0000 0.0000 0.0000 31.1768
#
#
#
# Elastic Compliance Matrix: (Units=1/GPa)
#
#
# Indices 1 2 3 4 5 6 
#
# 1 0.008615 -0.004102 -0.005782 0.000000 0.000000 0.000000
# 2 -0.004102 0.018743 -0.003016 0.000000 0.000000 0.000000
# 3 -0.005782 -0.003016 0.022103 0.000000 0.000000 0.000000
# 4 0.000000 0.000000 0.000000 0.107293 0.000000 0.000000
# 5 0.000000 0.000000 0.000000 0.000000 0.459031 0.000000
# 6 0.000000 0.000000 0.000000 0.000000 0.000000 0.032075
#
#
# Mechanical properties :
#
#
# Convention : Reuss Voigt Hill
#
# Bulk Modulus (GPa) = 42.26320 59.78385 51.02353
# Shear Modulus (GPa) = 7.33625 20.68924 14.01274
#
# Velocity S-wave (km/s) = 1.94787 3.27111 2.69206
# Velocity P-wave (km/s) = 5.18814 6.72206 6.00428
#
# Compressibility (1/GPa) = 0.02366125
#
# Stress axis : x y z
#
# Youngs Moduli (GPa) = 116.07464 53.35330 45.24271
#
# Poissons Ratio (x) = 0.21888 0.26159
# Poissons Ratio (y) = 0.47619 0.13643
# Poissons Ratio (z) = 0.67113 0.16089
#
# Static dielectric constant tensor:
#      x y z
#    x 5.165810 0.000000 0.000000 
#    y 0.000000 3.492780 0.000000 
#    z 0.000000 0.000000 3.346330 
# 
# 
# High freq. dielectric constant tensor:
#      x y z
#    x 1.763340 0.000000 0.000000 
#    y 0.000000 1.746700 0.000000 
#    z 0.000000 0.000000 1.704350 
# 
# From -- ./inp_files/12056.got.cif
#   From: 2010.03.12/outbox.cif.g09.slc.cpg/sg47_7_cif.got.tgz:12056.got - 2010.04.14 03:12:58.
