data_PCOD8196238
_publ_section_title
;
Structure prediction by ZEFSAII (Michael W. Deem and Ramdas Pophale) SiO2 
 PCOD8196238
Probable space group: P M M M
;
_chemical_formula_sum "Si O2"
_cell_formula_units_Z 56
_cell_length_a 8.726084
_cell_length_b 22.988178
_cell_length_c 14.531152
_cell_angle_alpha 90.000000
_cell_angle_beta 90.000000
_cell_angle_gamma 90.000000
_cell_volume 2914.902188
_symmetry_space_group_name_H-M "P M M M"
_symmetry_group_IT_number 47
_symmetry_cell_setting 'orthorhombic'
loop_
_space_group_symop_operation_xyz
x,y,z
-x,-y,z
x,-y,-z
-x,y,-z
-x,-y,-z
x,y,-z
-x,y,z
x,-y,z
loop_
_atom_site_type_symbol
_atom_site_label
_atom_site_fract_x
_atom_site_fract_y
_atom_site_fract_z
Si Si1 0.818343 0.111087 0.284829
Si Si2 0.818547 0.227124 0.605927
Si Si3 0.181863 0.000000 0.602269
Si Si4 0.826482 0.260862 0.897639
Si Si5 0.677456 0.678294 0.264390
Si Si6 0.180724 0.565364 0.312957
Si Si7 0.330711 0.431703 0.500000
Si Si8 0.323186 0.861614 0.898949
O O1 0.765313 0.170923 0.334720
O O2 0.760609 0.057882 0.346995
O O3 0.735499 0.100085 0.186539
O O4 0.000000 0.110133 0.270331
O O5 0.760144 0.221922 0.500000
O O6 0.752506 0.285361 0.652323
O O7 0.000000 0.231494 0.607030
O O8 0.252197 0.000000 0.500000
O O9 0.000000 0.000000 0.597265
O O10 0.704447 0.291536 0.832862
O O11 0.786903 0.193555 0.899125
O O12 0.000000 0.268039 0.859328
O O13 0.813327 0.287495 0.000000
O O14 0.500000 0.672383 0.286134
O O15 0.748590 0.614001 0.247010
O O16 0.242358 0.500000 0.290411
O O17 0.233551 0.587770 0.412668
O O18 0.000000 0.565600 0.306656
O O19 0.350581 0.500000 0.500000
O O20 0.500000 0.402439 0.500000
O O21 0.500000 0.843793 0.883412
O O22 0.306007 0.892680 0.000000
#
# Coordination Sequence:
#
# PCOD8196238 Si02
#       8
#     8   8   4   8   8   8   4   8
#     4  10  19  34  58  84 112 148 190 236 284 333
#     4  10  21  36  54  78 111 150 190 233 281 334
#     4   9  18  34  58  87 114 146 193 241 282 329
#     4  10  20  36  59  85 112 143 183 230 280 339
#     4  12  24  36  55  83 116 149 184 229 282 339
#     4  10  21  37  56  76 104 146 192 234 277 331
#     4   9  17  31  51  75 103 137 181 230 277 326
#     4  10  20  34  54  81 113 147 182 226 284 342
#
# _framework density 19.211621999999998
#
# number of rings (size 3 to 8) (size 9 to 14) (size 15 to 20)
#    0.000    1.857    1.429    3.214    1.000    5.429 
#    0.000    0.714    0.000    4.286    0.000    3.000 
#    0.000    0.000    0.000    0.000    0.000    0.000 
#
# Total GULP energy -694166.689198 kJ/mol
# GULP energy per Si atom -12395.833736 kJ/mol
# Density = 1.916790 g / cm^3
# Si number density = 19.211622 Si / 1000 Ang^3
#
#
#
# Elastic Constant Matrix: (Units=GPa)
#
#
# Indices 1 2 3 4 5 6 
#
# 1 55.7083 26.8740 31.1068 0.0000 0.0000 0.0000
# 2 26.8740 103.3440 45.4264 0.0000 0.0000 0.0000
# 3 31.1068 45.4264 133.9129 0.0000 0.0000 0.0000
# 4 0.0000 0.0000 0.0000 21.2009 0.0000 0.0000
# 5 0.0000 0.0000 0.0000 0.0000 14.2936 0.0000
# 6 0.0000 0.0000 0.0000 0.0000 0.0000 15.2956
#
#
#
# Elastic Compliance Matrix: (Units=1/GPa)
#
#
# Indices 1 2 3 4 5 6 
#
# 1 0.022001 -0.004084 -0.003725 0.000000 0.000000 0.000000
# 2 -0.004084 0.012130 -0.003166 0.000000 0.000000 0.000000
# 3 -0.003725 -0.003166 0.009407 0.000000 0.000000 0.000000
# 4 0.000000 0.000000 0.000000 0.047168 0.000000 0.000000
# 5 0.000000 0.000000 0.000000 0.000000 0.069962 0.000000
# 6 0.000000 0.000000 0.000000 0.000000 0.000000 0.065378
#
#
# Mechanical properties :
#
#
# Convention : Reuss Voigt Hill
#
# Bulk Modulus (GPa) = 46.32316 55.53105 50.92711
# Shear Modulus (GPa) = 19.59311 22.79521 21.19416
#
# Velocity S-wave (km/s) = 3.19698 3.44834 3.32504
# Velocity P-wave (km/s) = 6.14752 6.69496 6.42707
#
# Compressibility (1/GPa) = 0.02158748
#
# Stress axis : x y z
#
# Youngs Moduli (GPa) = 45.45290 82.43953 106.30432
#
# Poissons Ratio (x) = 0.33665 0.39602
# Poissons Ratio (y) = 0.18561 0.33658
# Poissons Ratio (z) = 0.16933 0.26102
#
# Static dielectric constant tensor:
#      x y z
#    x 3.381470 0.000000 0.000000 
#    y 0.000000 3.468450 0.000000 
#    z 0.000000 0.000000 3.752610 
# 
# 
# High freq. dielectric constant tensor:
#      x y z
#    x 1.741700 0.000000 0.000000 
#    y 0.000000 1.730470 0.000000 
#    z 0.000000 0.000000 1.749180 
# 
# From -- ./inp_files/21592.got.cif
#   From: 2010.03.12/outbox.cif.g09.slc.cpg/sg47_11_cif.got.tgz:21592.got - 2010.04.14 03:12:58.
