data_PCOD8196450
_publ_section_title
;
Structure prediction by ZEFSAII (Michael W. Deem and Ramdas Pophale) SiO2 
 PCOD8196450
Probable space group: P M M M
;
_chemical_formula_sum "Si O2"
_cell_formula_units_Z 48
_cell_length_a 17.401709
_cell_length_b 9.191356
_cell_length_c 22.976866
_cell_angle_alpha 90.000000
_cell_angle_beta 90.000000
_cell_angle_gamma 90.000000
_cell_volume 3675.041781
_symmetry_space_group_name_H-M "P M M M"
_symmetry_group_IT_number 47
_symmetry_cell_setting 'orthorhombic'
loop_
_space_group_symop_operation_xyz
x,y,z
-x,-y,z
x,-y,-z
-x,y,-z
-x,-y,-z
x,y,-z
-x,y,z
x,-y,z
loop_
_atom_site_type_symbol
_atom_site_label
_atom_site_fract_x
_atom_site_fract_y
_atom_site_fract_z
Si Si1 0.000000 0.834816 0.569428
Si Si2 0.300323 0.168978 0.431608
Si Si3 0.591299 0.836582 0.762425
Si Si4 0.148783 0.335150 0.569228
Si Si5 0.408152 0.337168 0.000000
Si Si6 0.408689 0.836366 0.109550
Si Si7 0.408936 0.333330 0.651090
O O1 0.925319 0.750476 0.593425
O O2 0.000000 0.836377 0.500000
O O3 0.000000 0.000000 0.593254
O O4 0.311859 0.190871 0.500000
O O5 0.224234 0.250785 0.408928
O O6 0.373839 0.239367 0.400965
O O7 0.293318 0.000000 0.415190
O O8 0.500000 0.838598 0.761660
O O9 0.619341 0.782709 0.826434
O O10 0.622124 0.727869 0.712876
O O11 0.621926 0.000000 0.750152
O O12 0.146423 0.337101 0.500000
O O13 0.149036 0.500000 0.593605
O O14 0.374176 0.262356 0.058134
O O15 0.377234 0.500000 0.000000
O O16 0.500000 0.330001 0.000000
O O17 0.500000 0.830783 0.107112
O O18 0.379829 0.000000 0.098857
O O19 0.500000 0.317529 0.646267
O O20 0.382615 0.500000 0.645577
#
# Coordination Sequence:
#
# PCOD8196450 Si02
#       7
#     4   8   8   8   4   8   8
#     4   9  15  23  37  57  79  99 117 133 151 186
#     4  10  20  32  44  56  70  89 113 142 177 216
#     4   8  14  25  39  51  62  79 105 136 168 203
#     4   9  16  26  40  57  76  95 113 134 163 199
#     4   9  15  19  25  41  63  83 101 123 153 190
#     4   8  13  21  32  44  59  80 103 126 155 193
#     4  10  20  31  42  55  69  86 110 143 183 223
#
# _framework density 13.061076999999999
#
# number of rings (size 3 to 8) (size 9 to 14) (size 15 to 20)
#    0.000    3.000    0.000    3.000    0.000    7.000 
#    0.000    5.000    0.000    0.000    0.000    0.000 
#    0.000    0.000    0.000    0.000    0.000    0.000 
#
# Total GULP energy -594950.453737 kJ/mol
# GULP energy per Si atom -12394.801120 kJ/mol
# Density = 1.303135 g / cm^3
# Si number density = 13.061077 Si / 1000 Ang^3
#
#
#
# Elastic Constant Matrix: (Units=GPa)
#
#
# Indices 1 2 3 4 5 6 
#
# 1 32.8732 31.7194 23.4446 0.0000 0.0000 0.0000
# 2 31.7194 115.0837 48.1112 0.0000 0.0000 0.0000
# 3 23.4446 48.1112 60.5775 0.0000 0.0000 0.0000
# 4 0.0000 0.0000 0.0000 18.1386 0.0000 0.0000
# 5 0.0000 0.0000 0.0000 0.0000 0.4985 0.0000
# 6 0.0000 0.0000 0.0000 0.0000 0.0000 18.7695
#
#
#
# Elastic Compliance Matrix: (Units=1/GPa)
#
#
# Indices 1 2 3 4 5 6 
#
# 1 0.046366 -0.007901 -0.011670 0.000000 0.000000 0.000000
# 2 -0.007901 0.014355 -0.008343 0.000000 0.000000 0.000000
# 3 -0.011670 -0.008343 0.027650 0.000000 0.000000 0.000000
# 4 0.000000 0.000000 0.000000 0.055131 0.000000 0.000000
# 5 0.000000 0.000000 0.000000 0.000000 2.005894 0.000000
# 6 0.000000 0.000000 0.000000 0.000000 0.000000 0.053278
#
#
# Mechanical properties :
#
#
# Convention : Reuss Voigt Hill
#
# Bulk Modulus (GPa) = 30.72738 46.12053 38.42396
# Shear Modulus (GPa) = 2.20328 14.49861 8.35094
#
# Velocity S-wave (km/s) = 1.30022 3.33537 2.53133
# Velocity P-wave (km/s) = 5.08243 7.08668 6.16653
#
# Compressibility (1/GPa) = 0.03254426
#
# Stress axis : x y z
#
# Youngs Moduli (GPa) = 21.56747 69.66331 36.16631
#
# Poissons Ratio (x) = 0.55041 0.42204
# Poissons Ratio (y) = 0.17040 0.30173
# Poissons Ratio (z) = 0.25168 0.58119
#
# Static dielectric constant tensor:
#      x y z
#    x 2.286050 0.000000 0.000000 
#    y 0.000000 2.848370 0.000000 
#    z 0.000000 0.000000 2.656930 
# 
# 
# High freq. dielectric constant tensor:
#      x y z
#    x 1.441280 0.000000 0.000000 
#    y 0.000000 1.514040 0.000000 
#    z 0.000000 0.000000 1.473620 
# 
# From -- ./inp_files/31250.got.cif
#   From: 2010.03.12/outbox.cif.g09.slc.cpg/sg47_16_cif.got.tgz:31250.got - 2010.04.14 03:12:58.
