data_PCOD8196747
_publ_section_title
;
Structure prediction by ZEFSAII (Michael W. Deem and Ramdas Pophale) SiO2 
 PCOD8196747
Probable space group: P M M M
;
_chemical_formula_sum "Si O2"
_cell_formula_units_Z 60
_cell_length_a 23.556038
_cell_length_b 9.126100
_cell_length_c 18.526612
_cell_angle_alpha 90.000000
_cell_angle_beta 90.000000
_cell_angle_gamma 90.000000
_cell_volume 3982.753939
_symmetry_space_group_name_H-M "P M M M"
_symmetry_group_IT_number 47
_symmetry_cell_setting 'orthorhombic'
loop_
_space_group_symop_operation_xyz
x,y,z
-x,-y,z
x,-y,-z
-x,y,-z
-x,-y,-z
x,y,-z
-x,y,z
x,-y,z
loop_
_atom_site_type_symbol
_atom_site_label
_atom_site_fract_x
_atom_site_fract_y
_atom_site_fract_z
Si Si1 0.668441 0.830739 0.792970
Si Si2 0.718025 0.327502 0.918485
Si Si3 0.765909 0.664601 0.280101
Si Si4 0.063319 0.172910 0.081089
Si Si5 0.500000 0.673768 0.584280
Si Si6 0.711435 0.667269 0.419872
Si Si7 0.162968 0.334020 0.153224
Si Si8 0.607831 0.827617 0.651455
O O1 0.668016 0.741945 0.868618
O O2 0.724731 0.788034 0.750022
O O3 0.616296 0.797306 0.737787
O O4 0.670374 0.000000 0.813402
O O5 0.710177 0.500000 0.915675
O O6 0.780425 0.282141 0.889330
O O7 0.711389 0.268070 0.000000
O O8 0.742972 0.500000 0.260054
O O9 0.766687 0.682383 0.367123
O O10 0.826446 0.683129 0.239994
O O11 0.108984 0.236902 0.135604
O O12 0.000000 0.224231 0.103718
O O13 0.067309 0.000000 0.084441
O O14 0.076624 0.227849 0.000000
O O15 0.500000 0.500000 0.593288
O O16 0.500000 0.718534 0.500000
O O17 0.553977 0.739591 0.624306
O O18 0.731065 0.712543 0.500000
O O19 0.688598 0.500000 0.418512
O O20 0.661541 0.773010 0.394156
O O21 0.148519 0.500000 0.131566
O O22 0.599901 0.000000 0.637055
#
# Coordination Sequence:
#
# PCOD8196747 Si02
#       8
#     8   8   8   8   4   8   8   8
#     4   9  17  28  42  61  83 108 139 169 199 241
#     4   9  17  28  42  62  87 112 137 167 205 245
#     4   8  15  27  40  56  81 109 134 164 202 241
#     4   9  18  30  40  52  74 104 136 169 204 239
#     4  11  23  35  47  65  86 109 142 177 203 236
#     4   9  16  27  44  63  83 110 141 167 195 238
#     4   9  16  26  40  57  79 107 136 166 200 237
#     4  10  20  32  45  62  86 114 140 169 206 242
#
# _framework density 15.064952999999999
#
# number of rings (size 3 to 8) (size 9 to 14) (size 15 to 20)
#    0.000    2.867    0.000    3.000    0.000    7.467 
#    0.000    0.667    0.000    0.000    0.000    0.467 
#    0.000    4.267    0.000    6.667    0.000    1.067 
#
# Total GULP energy -743342.882494 kJ/mol
# GULP energy per Si atom -12389.048042 kJ/mol
# Density = 1.503066 g / cm^3
# Si number density = 15.064953 Si / 1000 Ang^3
#
#
#
# Elastic Constant Matrix: (Units=GPa)
#
#
# Indices 1 2 3 4 5 6 
#
# 1 73.8649 35.3612 58.2518 0.0000 0.0000 0.0000
# 2 35.3612 51.0456 40.8169 0.0000 0.0000 0.0000
# 3 58.2518 40.8169 135.2381 0.0000 0.0000 0.0000
# 4 0.0000 0.0000 0.0000 21.6392 0.0000 0.0000
# 5 0.0000 0.0000 0.0000 0.0000 22.4813 0.0000
# 6 0.0000 0.0000 0.0000 0.0000 0.0000 16.8369
#
#
#
# Elastic Compliance Matrix: (Units=1/GPa)
#
#
# Indices 1 2 3 4 5 6 
#
# 1 0.024624 -0.011305 -0.007194 0.000000 0.000000 0.000000
# 2 -0.011305 0.031013 -0.004490 0.000000 0.000000 0.000000
# 3 -0.007194 -0.004490 0.011849 0.000000 0.000000 0.000000
# 4 0.000000 0.000000 0.000000 0.046212 0.000000 0.000000
# 5 0.000000 0.000000 0.000000 0.000000 0.044481 0.000000
# 6 0.000000 0.000000 0.000000 0.000000 0.000000 0.059393
#
#
# Mechanical properties :
#
#
# Convention : Reuss Voigt Hill
#
# Bulk Modulus (GPa) = 46.50099 58.77873 52.63986
# Shear Modulus (GPa) = 18.46920 20.57272 19.52096
#
# Velocity S-wave (km/s) = 3.50519 3.69941 3.60361
# Velocity P-wave (km/s) = 6.87865 7.57292 7.23412
#
# Compressibility (1/GPa) = 0.02150492
#
# Stress axis : x y z
#
# Youngs Moduli (GPa) = 40.61068 32.24496 84.39881
#
# Poissons Ratio (x) = 0.36454 0.60719
# Poissons Ratio (y) = 0.45912 0.37899
# Poissons Ratio (z) = 0.29217 0.14480
#
# Static dielectric constant tensor:
#      x y z
#    x 2.708510 0.000000 0.000000 
#    y 0.000000 2.917070 0.000000 
#    z 0.000000 0.000000 3.261700 
# 
# 
# High freq. dielectric constant tensor:
#      x y z
#    x 1.532470 0.000000 0.000000 
#    y 0.000000 1.582510 0.000000 
#    z 0.000000 0.000000 1.579890 
# 
# From -- ./inp_files/28899.got.cif
#   From: 2010.03.12/outbox.cif.g09.slc.cpg/sg47_15_cif.got.tgz:28899.got - 2010.04.14 03:12:58.
