data_PCOD8196135
_publ_section_title
;
Structure prediction by ZEFSAII (Michael W. Deem and Ramdas Pophale) SiO2 
 PCOD8196135
Probable space group: P M M M
;
_chemical_formula_sum "Si O2"
_cell_formula_units_Z 52
_cell_length_a 9.251864
_cell_length_b 19.890068
_cell_length_c 15.889955
_cell_angle_alpha 90.000000
_cell_angle_beta 90.000000
_cell_angle_gamma 90.000000
_cell_volume 2924.072762
_symmetry_space_group_name_H-M "P M M M"
_symmetry_group_IT_number 47
_symmetry_cell_setting 'orthorhombic'
loop_
_space_group_symop_operation_xyz
x,y,z
-x,-y,z
x,-y,-z
-x,y,-z
-x,-y,-z
x,y,-z
-x,y,z
x,-y,z
loop_
_atom_site_type_symbol
_atom_site_label
_atom_site_fract_x
_atom_site_fract_y
_atom_site_fract_z
Si Si1 0.328285 0.076044 0.906308
Si Si2 0.668067 0.327027 0.797439
Si Si3 0.833136 0.349911 0.634699
Si Si4 0.668592 0.174232 0.238130
Si Si5 0.832872 0.803300 0.594440
Si Si6 0.658124 0.422121 0.500000
Si Si7 0.161360 0.425315 0.901027
O O1 0.500000 0.080584 0.905436
O O2 0.266289 0.122934 0.831527
O O3 0.276790 0.000000 0.888450
O O4 0.273803 0.098556 0.000000
O O5 0.500000 0.341207 0.781054
O O6 0.766832 0.358329 0.725850
O O7 0.697586 0.247321 0.801966
O O8 0.722650 0.367174 0.878843
O O9 0.807621 0.276210 0.596779
O O10 0.748667 0.403596 0.581042
O O11 0.000000 0.369246 0.636346
O O12 0.500000 0.161622 0.254006
O O13 0.743769 0.162595 0.329241
O O14 0.784689 0.827919 0.500000
O O15 0.000000 0.821220 0.609276
O O16 0.632343 0.500000 0.500000
O O17 0.500000 0.386185 0.500000
O O18 0.206111 0.500000 0.866915
O O19 0.000000 0.407018 0.867652
O O20 0.158517 0.428198 0.000000
#
# Coordination Sequence:
#
# PCOD8196135 Si02
#       7
#     8   8   8   8   8   4   8
#     4   8  14  27  49  75 104 139 173 204 242 291
#     4  10  20  32  48  74 103 127 154 199 258 304
#     4  10  19  34  52  68  89 122 163 200 237 290
#     4   9  18  30  47  77 106 128 164 209 251 296
#     4   9  17  31  50  71  95 126 164 203 245 294
#     4  11  23  35  47  67  95 123 154 199 252 299
#     4   9  19  36  54  69  88 121 166 208 245 294
#
# _framework density 17.783415000000002
#
# number of rings (size 3 to 8) (size 9 to 14) (size 15 to 20)
#    0.000    2.692    0.769    2.077    0.000    4.000 
#    0.000    2.308    0.000    1.385    0.000    4.308 
#    0.000    0.000    0.000    0.000    0.000    0.000 
#
# Total GULP energy -644421.500210 kJ/mol
# GULP energy per Si atom -12392.721158 kJ/mol
# Density = 1.774294 g / cm^3
# Si number density = 17.783415 Si / 1000 Ang^3
#
#
#
# Elastic Constant Matrix: (Units=GPa)
#
#
# Indices 1 2 3 4 5 6 
#
# 1 84.4453 39.9064 49.2612 0.0000 0.0000 0.0000
# 2 39.9064 71.8362 58.5374 0.0000 0.0000 0.0000
# 3 49.2612 58.5374 118.9255 0.0000 0.0000 0.0000
# 4 0.0000 0.0000 0.0000 29.1923 0.0000 0.0000
# 5 0.0000 0.0000 0.0000 0.0000 32.4061 0.0000
# 6 0.0000 0.0000 0.0000 0.0000 0.0000 14.9681
#
#
#
# Elastic Compliance Matrix: (Units=1/GPa)
#
#
# Indices 1 2 3 4 5 6 
#
# 1 0.017141 -0.006239 -0.004029 0.000000 0.000000 0.000000
# 2 -0.006239 0.025514 -0.009974 0.000000 0.000000 0.000000
# 3 -0.004029 -0.009974 0.014987 0.000000 0.000000 0.000000
# 4 0.000000 0.000000 0.000000 0.034256 0.000000 0.000000
# 5 0.000000 0.000000 0.000000 0.000000 0.030858 0.000000
# 6 0.000000 0.000000 0.000000 0.000000 0.000000 0.066809
#
#
# Mechanical properties :
#
#
# Convention : Reuss Voigt Hill
#
# Bulk Modulus (GPa) = 58.28367 63.40190 60.84279
# Shear Modulus (GPa) = 21.20728 23.81343 22.51036
#
# Velocity S-wave (km/s) = 3.45705 3.66332 3.56168
# Velocity P-wave (km/s) = 6.98429 7.32276 7.15553
#
# Compressibility (1/GPa) = 0.01715746
#
# Stress axis : x y z
#
# Youngs Moduli (GPa) = 58.34095 39.19400 66.72384
#
# Poissons Ratio (x) = 0.24452 0.26884
# Poissons Ratio (y) = 0.36397 0.66553
# Poissons Ratio (z) = 0.23507 0.39093
#
# Static dielectric constant tensor:
#      x y z
#    x 3.212900 0.000000 0.000000 
#    y 0.000000 3.197780 0.000000 
#    z 0.000000 0.000000 3.420120 
# 
# 
# High freq. dielectric constant tensor:
#      x y z
#    x 1.675890 0.000000 0.000000 
#    y 0.000000 1.662230 0.000000 
#    z 0.000000 0.000000 1.695180 
# 
# From -- ./inp_files/26718.got.cif
#   From: 2010.03.12/outbox.cif.g09.slc.cpg/sg47_14_cif.got.tgz:26718.got - 2010.04.14 03:12:58.
