data_PCOD8196994
_publ_section_title
;
Structure prediction by ZEFSAII (Michael W. Deem and Ramdas Pophale) SiO2 
 PCOD8196994
Probable space group: P M M M
;
_chemical_formula_sum "Si O2"
_cell_formula_units_Z 64
_cell_length_a 28.932253
_cell_length_b 14.600585
_cell_length_c 9.394221
_cell_angle_alpha 90.000000
_cell_angle_beta 90.000000
_cell_angle_gamma 90.000000
_cell_volume 3968.380290
_symmetry_space_group_name_H-M "P M M M"
_symmetry_group_IT_number 47
_symmetry_cell_setting 'orthorhombic'
loop_
_space_group_symop_operation_xyz
x,y,z
-x,-y,z
x,-y,-z
-x,y,-z
-x,-y,-z
x,y,-z
-x,y,z
x,-y,z
loop_
_atom_site_type_symbol
_atom_site_label
_atom_site_fract_x
_atom_site_fract_y
_atom_site_fract_z
Si Si1 0.186119 0.893414 0.338079
Si Si2 0.126940 0.398431 0.668817
Si Si3 0.230726 0.601446 0.669198
Si Si4 0.274336 0.216202 0.330916
Si Si5 0.051886 0.744189 0.335353
Si Si6 0.449240 0.891301 0.840292
Si Si7 0.095634 0.893889 0.834565
Si Si8 0.362036 0.894057 0.667832
O O1 0.174429 0.862625 0.500000
O O2 0.230783 0.842037 0.277209
O O3 0.143875 0.866319 0.237857
O O4 0.197523 0.000000 0.332014
O O5 0.124019 0.399055 0.500000
O O6 0.115705 0.500000 0.727444
O O7 0.178784 0.370324 0.718122
O O8 0.088457 0.328869 0.728539
O O9 0.231390 0.597852 0.500000
O O10 0.243976 0.500000 0.728907
O O11 0.267240 0.678553 0.722838
O O12 0.276426 0.211743 0.500000
O O13 0.320984 0.170054 0.270512
O O14 0.062409 0.767094 0.500000
O O15 0.055648 0.836649 0.242988
O O16 0.000000 0.705080 0.318153
O O17 0.500000 0.855426 0.790448
O O18 0.409264 0.855259 0.736101
O O19 0.449638 0.000000 0.837248
O O20 0.438977 0.856367 0.000000
O O21 0.084063 0.000000 0.810569
O O22 0.098138 0.868830 0.000000
O O23 0.367194 0.884331 0.500000
O O24 0.352283 0.000000 0.710009
#
# Coordination Sequence:
#
# PCOD8196994 Si02
#       8
#     8   8   8   8   8   8   8   8
#     4   9  16  27  45  65  83 107 139 171 203 242
#     4   8  14  26  45  69  93 111 130 163 206 248
#     4   8  13  21  35  56  81 109 137 161 190 234
#     4   9  15  23  37  58  86 114 136 164 203 243
#     4  10  20  32  48  70  90 108 134 168 206 249
#     4   8  14  25  39  53  73 106 145 179 209 241
#     4  10  21  35  48  62  83 112 144 176 209 244
#     4   9  16  24  35  55  83 112 141 171 204 242
#
# _framework density 16.127488
#
# number of rings (size 3 to 8) (size 9 to 14) (size 15 to 20)
#    0.000    3.125    0.000    2.625    0.000    5.250 
#    0.000    4.375    0.000    3.375    0.000    0.875 
#    0.000    2.000    0.000    6.250    0.000    1.250 
#
# Total GULP energy -793156.424635 kJ/mol
# GULP energy per Si atom -12393.069135 kJ/mol
# Density = 1.609078 g / cm^3
# Si number density = 16.127488 Si / 1000 Ang^3
#
#
#
# Elastic Constant Matrix: (Units=GPa)
#
#
# Indices 1 2 3 4 5 6 
#
# 1 112.7723 62.6818 30.1480 0.0000 0.0000 0.0000
# 2 62.6818 77.7520 25.2765 0.0000 0.0000 0.0000
# 3 30.1480 25.2765 36.8075 0.0000 0.0000 0.0000
# 4 0.0000 0.0000 0.0000 7.7957 0.0000 0.0000
# 5 0.0000 0.0000 0.0000 0.0000 7.1401 0.0000
# 6 0.0000 0.0000 0.0000 0.0000 0.0000 18.7669
#
#
#
# Elastic Compliance Matrix: (Units=1/GPa)
#
#
# Indices 1 2 3 4 5 6 
#
# 1 0.016978 -0.011801 -0.005802 0.000000 0.000000 0.000000
# 2 -0.011801 0.024760 -0.007338 0.000000 0.000000 0.000000
# 3 -0.005802 -0.007338 0.036960 0.000000 0.000000 0.000000
# 4 0.000000 0.000000 0.000000 0.128276 0.000000 0.000000
# 5 0.000000 0.000000 0.000000 0.000000 0.140054 0.000000
# 6 0.000000 0.000000 0.000000 0.000000 0.000000 0.053285
#
#
# Mechanical properties :
#
#
# Convention : Reuss Voigt Hill
#
# Bulk Modulus (GPa) = 34.70240 51.50495 43.10367
# Shear Modulus (GPa) = 10.87428 14.02223 12.44825
#
# Velocity S-wave (km/s) = 2.59949 2.95186 2.78126
# Velocity P-wave (km/s) = 5.52938 6.60480 6.09087
#
# Compressibility (1/GPa) = 0.02881645
#
# Stress axis : x y z
#
# Youngs Moduli (GPa) = 58.90060 40.38705 27.05646
#
# Poissons Ratio (x) = 0.47660 0.15698
# Poissons Ratio (y) = 0.69508 0.19853
# Poissons Ratio (z) = 0.34175 0.29635
#
# Static dielectric constant tensor:
#      x y z
#    x 3.236340 0.000000 0.000000 
#    y 0.000000 3.182690 0.000000 
#    z 0.000000 0.000000 2.724640 
# 
# 
# High freq. dielectric constant tensor:
#      x y z
#    x 1.613530 0.000000 0.000000 
#    y 0.000000 1.604260 0.000000 
#    z 0.000000 0.000000 1.577510 
# 
# From -- ./inp_files/8252.got.cif
#   From: 2010.03.12/outbox.cif.g09.slc.cpg/sg47_5_cif.got.tgz:8252.got - 2010.04.14 03:12:58.
