data_PCOD8196980
_publ_section_title
;
Structure prediction by ZEFSAII (Michael W. Deem and Ramdas Pophale) SiO2 
 PCOD8196980
Probable space group: P M M M
;
_chemical_formula_sum "Si O2"
_cell_formula_units_Z 48
_cell_length_a 30.969732
_cell_length_b 9.218987
_cell_length_c 8.717465
_cell_angle_alpha 90.000000
_cell_angle_beta 90.000000
_cell_angle_gamma 90.000000
_cell_volume 2488.919568
_symmetry_space_group_name_H-M "P M M M"
_symmetry_group_IT_number 47
_symmetry_cell_setting 'orthorhombic'
loop_
_space_group_symop_operation_xyz
x,y,z
-x,-y,z
x,-y,-z
-x,y,-z
-x,-y,-z
x,y,-z
-x,y,z
x,-y,z
loop_
_atom_site_type_symbol
_atom_site_label
_atom_site_fract_x
_atom_site_fract_y
_atom_site_fract_z
Si Si1 0.753266 0.834409 0.822687
Si Si2 0.920698 0.333195 0.179755
Si Si3 0.500000 0.172478 0.668271
Si Si4 0.843253 0.167847 0.678406
Si Si5 0.000000 0.163819 0.681096
Si Si6 0.407661 0.837410 0.683196
Si Si7 0.675542 0.670276 0.323094
O O1 0.794596 0.789765 0.722389
O O2 0.714059 0.732028 0.777765
O O3 0.739952 0.000000 0.788150
O O4 0.765009 0.811739 0.000000
O O5 0.922455 0.500000 0.232651
O O6 0.874547 0.267738 0.222598
O O7 0.957566 0.245491 0.265105
O O8 0.928466 0.318913 0.000000
O O9 0.500000 0.244942 0.500000
O O10 0.545452 0.216479 0.751111
O O11 0.500000 0.000000 0.651346
O O12 0.850734 0.199445 0.500000
O O13 0.852438 0.000000 0.718388
O O14 0.000000 0.159964 0.500000
O O15 0.000000 0.000000 0.747125
O O16 0.411150 0.835327 0.500000
O O17 0.369618 0.733015 0.741017
O O18 0.397108 0.000000 0.740884
O O19 0.682549 0.715542 0.500000
O O20 0.674156 0.500000 0.301632
#
# Coordination Sequence:
#
# PCOD8196980 Si02
#       7
#     8   8   4   8   4   8   8
#     4  10  21  37  57  79 102 133 175 220 265 313
#     4  11  24  40  59  86 119 153 188 225 268 319
#     4   7  10  18  35  61  90 121 160 205 252 300
#     4  10  21  38  61  87 112 140 177 220 267 320
#     4  11  24  41  62  88 116 149 192 237 278 320
#     4   8  13  23  41  64  92 127 166 208 253 302
#     4  10  20  32  47  71 103 137 172 210 256 311
#
# _framework density 19.285475000000002
#
# number of rings (size 3 to 8) (size 9 to 14) (size 15 to 20)
#    0.000    2.333    0.000    4.000    0.000    8.667 
#    0.000    0.417    0.000    2.500    0.000    0.583 
#    0.000    4.667    0.000    0.000    0.000    0.000 
#
# Total GULP energy -595111.397661 kJ/mol
# GULP energy per Si atom -12398.154118 kJ/mol
# Density = 1.924158 g / cm^3
# Si number density = 19.285475 Si / 1000 Ang^3
#
#
#
# Elastic Constant Matrix: (Units=GPa)
#
#
# Indices 1 2 3 4 5 6 
#
# 1 134.1457 64.4384 21.8511 0.0000 0.0000 0.0000
# 2 64.4384 99.1335 29.3550 0.0000 0.0000 0.0000
# 3 21.8511 29.3550 39.3413 0.0000 0.0000 0.0000
# 4 0.0000 0.0000 0.0000 23.7749 0.0000 0.0000
# 5 0.0000 0.0000 0.0000 0.0000 -28.7905 0.0000
# 6 0.0000 0.0000 0.0000 0.0000 0.0000 -14.3673
#
#
#
# Elastic Compliance Matrix: (Units=1/GPa)
#
#
# Indices 1 2 3 4 5 6 
#
# 1 0.010868 -0.006774 -0.000982 0.000000 0.000000 0.000000
# 2 -0.006774 0.017170 -0.009049 0.000000 0.000000 0.000000
# 3 -0.000982 -0.009049 0.032717 0.000000 0.000000 0.000000
# 4 0.000000 0.000000 0.000000 0.042061 0.000000 0.000000
# 5 0.000000 0.000000 0.000000 0.000000 -0.034734 0.000000
# 6 0.000000 0.000000 0.000000 0.000000 0.000000 -0.069602
#
#
# Mechanical properties :
#
#
# Convention : Reuss Voigt Hill
#
# Bulk Modulus (GPa) = 36.84028 55.98995 46.41511
# Shear Modulus (GPa) = 121.53853 6.58848 64.06350
#
# Velocity S-wave (km/s) = 7.94717 1.85033 5.76980
# Velocity P-wave (km/s) = 10.16633 5.80174 8.27691
#
# Compressibility (1/GPa) = 0.02714420
#
# Stress axis : x y z
#
# Youngs Moduli (GPa) = 92.00933 58.24051 30.56561
#
# Poissons Ratio (x) = 0.39451 0.03002
# Poissons Ratio (y) = 0.62325 0.27660
# Poissons Ratio (z) = 0.09038 0.52704
#
# Static dielectric constant tensor:
#      x y z
#    x 3.865180 0.000000 0.000000 
#    y 0.000000 3.490420 0.000000 
#    z 0.000000 0.000000 3.279920 
# 
# 
# High freq. dielectric constant tensor:
#      x y z
#    x 1.772140 0.000000 0.000000 
#    y 0.000000 1.739170 0.000000 
#    z 0.000000 0.000000 1.722920 
# 
# From -- ./inp_files/13815.got.cif
#   From: 2010.03.12/outbox.cif.g09.slc.cpg/sg47_7_cif.got.tgz:13815.got - 2010.04.14 03:12:58.
