data_PCOD8196375
_publ_section_title
;
Structure prediction by ZEFSAII (Michael W. Deem and Ramdas Pophale) SiO2 
 PCOD8196375
Probable space group: P M M M
;
_chemical_formula_sum "Si O2"
_cell_formula_units_Z 44
_cell_length_a 15.237936
_cell_length_b 22.474017
_cell_length_c 9.360372
_cell_angle_alpha 90.000000
_cell_angle_beta 90.000000
_cell_angle_gamma 90.000000
_cell_volume 3205.530836
_symmetry_space_group_name_H-M "P M M M"
_symmetry_group_IT_number 47
_symmetry_cell_setting 'orthorhombic'
loop_
_space_group_symop_operation_xyz
x,y,z
-x,-y,z
x,-y,-z
-x,y,-z
-x,-y,-z
x,y,-z
-x,y,z
x,-y,z
loop_
_atom_site_type_symbol
_atom_site_label
_atom_site_fract_x
_atom_site_fract_y
_atom_site_fract_z
Si Si1 0.239152 0.070531 0.663450
Si Si2 0.104320 0.722702 0.841412
Si Si3 0.403201 0.929300 0.160395
Si Si4 0.104685 0.387061 0.338907
Si Si5 0.101445 0.855823 0.833210
Si Si6 0.104549 0.500000 0.837980
O O1 0.239247 0.090907 0.500000
O O2 0.328717 0.095687 0.734093
O O3 0.155344 0.097536 0.741180
O O4 0.232830 0.000000 0.679228
O O5 0.141049 0.674072 0.730257
O O6 0.133133 0.788902 0.794255
O O7 0.000000 0.720189 0.846969
O O8 0.140783 0.708111 0.000000
O O9 0.500000 0.906752 0.209235
O O10 0.402255 0.000000 0.163083
O O11 0.383073 0.906644 0.000000
O O12 0.141218 0.392377 0.500000
O O13 0.139990 0.442076 0.245152
O O14 0.000000 0.387231 0.340305
O O15 0.000000 0.864502 0.792815
O O16 0.116737 0.868464 0.000000
O O17 0.000000 0.500000 0.840336
O O18 0.141049 0.500000 0.000000
#
# Coordination Sequence:
#
# PCOD8196375 Si02
#       6
#     8   8   8   8   8   4
#     4  10  20  30  40  57  79  99 118 146 187 230
#     4   8  14  25  38  49  61  80 110 146 181 215
#     4   8  14  26  44  62  77  94 116 141 171 212
#     4   9  15  21  30  45  63  81 103 134 173 214
#     4   9  18  31  44  55  68  92 127 162 191 221
#     4   9  15  21  29  41  59  83 107 133 168 207
#
# _framework density 13.726276
#
# number of rings (size 3 to 8) (size 9 to 14) (size 15 to 20)
#    0.000    3.182    0.000    3.000    0.000    6.182 
#    0.000    5.455    0.000    0.000    0.000    0.000 
#    0.000    0.000    0.000    0.000    0.000    0.000 
#
# Total GULP energy -545355.321318 kJ/mol
# GULP energy per Si atom -12394.439121 kJ/mol
# Density = 1.369503 g / cm^3
# Si number density = 13.726276 Si / 1000 Ang^3
#
#
#
# Elastic Constant Matrix: (Units=GPa)
#
#
# Indices 1 2 3 4 5 6 
#
# 1 53.3681 25.2403 42.7793 0.0000 0.0000 0.0000
# 2 25.2403 43.5009 40.0958 0.0000 0.0000 0.0000
# 3 42.7793 40.0958 105.7303 0.0000 0.0000 0.0000
# 4 0.0000 0.0000 0.0000 21.8430 0.0000 0.0000
# 5 0.0000 0.0000 0.0000 0.0000 13.3632 0.0000
# 6 0.0000 0.0000 0.0000 0.0000 0.0000 0.2964
#
#
#
# Elastic Compliance Matrix: (Units=1/GPa)
#
#
# Indices 1 2 3 4 5 6 
#
# 1 0.030134 -0.009603 -0.008551 0.000000 0.000000 0.000000
# 2 -0.009603 0.038402 -0.010677 0.000000 0.000000 0.000000
# 3 -0.008551 -0.010677 0.016967 0.000000 0.000000 0.000000
# 4 0.000000 0.000000 0.000000 0.045781 0.000000 0.000000
# 5 0.000000 0.000000 0.000000 0.000000 0.074833 0.000000
# 6 0.000000 0.000000 0.000000 0.000000 0.000000 3.373487
#
#
# Mechanical properties :
#
#
# Convention : Reuss Voigt Hill
#
# Bulk Modulus (GPa) = 35.91960 46.53665 41.22813
# Shear Modulus (GPa) = 1.37116 13.39944 7.38530
#
# Velocity S-wave (km/s) = 1.00055 3.12779 2.32209
# Velocity P-wave (km/s) = 5.24977 6.85719 6.10660
#
# Compressibility (1/GPa) = 0.02783995
#
# Stress axis : x y z
#
# Youngs Moduli (GPa) = 33.18562 26.04056 58.93850
#
# Poissons Ratio (x) = 0.25007 0.50396
# Poissons Ratio (y) = 0.31868 0.62932
# Poissons Ratio (z) = 0.28376 0.27805
#
# Static dielectric constant tensor:
#      x y z
#    x 2.393420 0.000000 0.000000 
#    y 0.000000 2.696270 0.000000 
#    z 0.000000 0.000000 2.916790 
# 
# 
# High freq. dielectric constant tensor:
#      x y z
#    x 1.462800 0.000000 0.000000 
#    y 0.000000 1.507750 0.000000 
#    z 0.000000 0.000000 1.535490 
# 
# From -- ./inp_files/7508.got.cif
#   From: 2010.03.12/outbox.cif.g09.slc.cpg/sg47_4_cif.got.tgz:7508.got - 2010.04.14 03:12:58.
