data_PCOD8196137
_publ_section_title
;
Structure prediction by ZEFSAII (Michael W. Deem and Ramdas Pophale) SiO2 
 PCOD8196137
Probable space group: P M M M
;
_chemical_formula_sum "Si O2"
_cell_formula_units_Z 44
_cell_length_a 17.006561
_cell_length_b 15.465627
_cell_length_c 9.135412
_cell_angle_alpha 90.000000
_cell_angle_beta 90.000000
_cell_angle_gamma 90.000000
_cell_volume 2402.769836
_symmetry_space_group_name_H-M "P M M M"
_symmetry_group_IT_number 47
_symmetry_cell_setting 'orthorhombic'
loop_
_space_group_symop_operation_xyz
x,y,z
-x,-y,z
x,-y,-z
-x,y,-z
-x,-y,-z
x,y,-z
-x,y,z
x,-y,z
loop_
_atom_site_type_symbol
_atom_site_label
_atom_site_fract_x
_atom_site_fract_y
_atom_site_fract_z
Si Si1 0.758929 0.406438 0.169912
Si Si2 0.708407 0.778997 0.825944
Si Si3 0.000000 0.097851 0.841350
Si Si4 0.592317 0.902112 0.331539
Si Si5 0.135936 0.176497 0.666484
Si Si6 0.912764 0.370545 0.665009
O O1 0.716732 0.500000 0.202126
O O2 0.708174 0.323259 0.224532
O O3 0.845244 0.412970 0.238851
O O4 0.773527 0.393556 0.000000
O O5 0.631959 0.828532 0.767805
O O6 0.782949 0.825211 0.754822
O O7 0.711527 0.787537 0.000000
O O8 0.077644 0.112434 0.746679
O O9 0.000000 0.000000 0.884529
O O10 0.000000 0.148625 0.000000
O O11 0.615287 0.885861 0.500000
O O12 0.500000 0.891482 0.308268
O O13 0.617772 0.000000 0.285913
O O14 0.152008 0.146231 0.500000
O O15 0.093705 0.268089 0.670183
O O16 0.901689 0.404218 0.500000
O O17 0.000000 0.396583 0.722545
#
# Coordination Sequence:
#
# PCOD8196137 Si02
#       6
#     8   8   4   8   8   8
#     4   9  19  34  49  70 102 139 178 216 258 311
#     4  10  20  34  55  82 108 139 176 217 264 309
#     4  11  23  35  47  67  96 129 170 223 273 312
#     4   9  19  37  60  85 112 140 169 205 256 319
#     4  10  19  34  52  69  94 133 177 216 259 314
#     4   9  17  30  47  68  93 123 166 219 268 310
#
# _framework density 18.312200000000001
#
# number of rings (size 3 to 8) (size 9 to 14) (size 15 to 20)
#    0.000    2.455    0.909    1.909    0.000    4.727 
#    0.000    2.727    0.000    0.545    0.000    3.818 
#    0.000    0.000    0.000    0.000    0.000    0.000 
#
# Total GULP energy -545248.224802 kJ/mol
# GULP energy per Si atom -12392.005109 kJ/mol
# Density = 1.827052 g / cm^3
# Si number density = 18.312200 Si / 1000 Ang^3
#
#
#
# Elastic Constant Matrix: (Units=GPa)
#
#
# Indices 1 2 3 4 5 6 
#
# 1 72.4092 50.4357 39.8691 0.0000 0.0000 0.0000
# 2 50.4357 107.7409 48.9731 0.0000 0.0000 0.0000
# 3 39.8691 48.9731 86.7621 0.0000 0.0000 0.0000
# 4 0.0000 0.0000 0.0000 17.1161 0.0000 0.0000
# 5 0.0000 0.0000 0.0000 0.0000 -3.3456 0.0000
# 6 0.0000 0.0000 0.0000 0.0000 0.0000 8.7002
#
#
#
# Elastic Compliance Matrix: (Units=1/GPa)
#
#
# Indices 1 2 3 4 5 6 
#
# 1 0.022549 -0.007863 -0.005923 0.000000 0.000000 0.000000
# 2 -0.007863 0.015227 -0.004981 0.000000 0.000000 0.000000
# 3 -0.005923 -0.004981 0.017059 0.000000 0.000000 0.000000
# 4 0.000000 0.000000 0.000000 0.058424 0.000000 0.000000
# 5 0.000000 0.000000 0.000000 0.000000 -0.298899 0.000000
# 6 0.000000 0.000000 0.000000 0.000000 0.000000 0.114940
#
#
# Mechanical properties :
#
#
# Convention : Reuss Voigt Hill
#
# Bulk Modulus (GPa) = 57.80631 60.60755 59.20693
# Shear Modulus (GPa) = -182.49632 13.00310 -84.74661
#
# Velocity S-wave (km/s) = -9.99373 2.66762 -6.81023
# Velocity P-wave (km/s) = 10.07624 6.53123 5.42557
#
# Compressibility (1/GPa) = 0.01729915
#
# Stress axis : x y z
#
# Youngs Moduli (GPa) = 44.34836 65.67406 58.61847
#
# Poissons Ratio (x) = 0.51640 0.34721
# Poissons Ratio (y) = 0.34872 0.29201
# Poissons Ratio (z) = 0.26269 0.32715
#
# Static dielectric constant tensor:
#      x y z
#    x 3.133110 0.000000 0.000000 
#    y 0.000000 3.558920 0.000000 
#    z 0.000000 0.000000 3.431200 
# 
# 
# High freq. dielectric constant tensor:
#      x y z
#    x 1.681510 0.000000 0.000000 
#    y 0.000000 1.714560 0.000000 
#    z 0.000000 0.000000 1.714960 
# 
# From -- ./inp_files/8950.got.cif
#   From: 2010.03.12/outbox.cif.g09.slc.cpg/sg47_5_cif.got.tgz:8950.got - 2010.04.14 03:12:58.
