data_PCOD8196020
_publ_section_title
;
Structure prediction by ZEFSAII (Michael W. Deem and Ramdas Pophale) SiO2 
 PCOD8196020
Probable space group: P M M M
;
_chemical_formula_sum "Si O2"
_cell_formula_units_Z 48
_cell_length_a 8.105777
_cell_length_b 9.074586
_cell_length_c 32.428258
_cell_angle_alpha 90.000000
_cell_angle_beta 90.000000
_cell_angle_gamma 90.000000
_cell_volume 2385.311445
_symmetry_space_group_name_H-M "P M M M"
_symmetry_group_IT_number 47
_symmetry_cell_setting 'orthorhombic'
loop_
_space_group_symop_operation_xyz
x,y,z
-x,-y,z
x,-y,-z
-x,y,-z
-x,-y,-z
x,y,-z
-x,y,z
x,-y,z
loop_
_atom_site_type_symbol
_atom_site_label
_atom_site_fract_x
_atom_site_fract_y
_atom_site_fract_z
Si Si1 0.805207 0.664873 0.580455
Si Si2 0.194147 0.170425 0.661432
Si Si3 0.689450 0.333255 0.740987
Si Si4 0.305886 0.165350 0.500000
Si Si5 0.811463 0.834509 0.182200
Si Si6 0.000000 0.824236 0.046864
Si Si7 0.682938 0.175155 0.096068
O O1 0.730185 0.500000 0.579277
O O2 0.737268 0.748839 0.620660
O O3 0.754922 0.751120 0.540026
O O4 0.000000 0.657457 0.582662
O O5 0.285407 0.237224 0.700455
O O6 0.000000 0.193912 0.667055
O O7 0.240764 0.000000 0.657449
O O8 0.500000 0.326821 0.754139
O O9 0.747719 0.500000 0.732080
O O10 0.794282 0.270250 0.778641
O O11 0.500000 0.160244 0.500000
O O12 0.232126 0.000000 0.500000
O O13 0.706513 0.774361 0.143515
O O14 0.000000 0.835889 0.167542
O O15 0.754927 0.000000 0.194593
O O16 0.167873 0.760788 0.068036
O O17 0.000000 0.000000 0.049399
O O18 0.000000 0.768375 0.000000
O O19 0.500000 0.229442 0.081234
O O20 0.691675 0.000000 0.094032
#
# Coordination Sequence:
#
# PCOD8196020 Si02
#       7
#     8   8   8   4   8   4   8
#     4  10  21  38  61  86 111 142 181 225 275 329
#     4  10  21  38  60  84 108 139 180 222 267 323
#     4  11  24  38  52  76 110 144 179 221 270 325
#     4  11  24  39  56  82 114 147 184 225 272 326
#     4  10  19  33  54  77 102 136 181 229 275 329
#     4   9  16  26  40  64 101 141 183 229 277 336
#     4   9  16  27  44  67  98 137 180 227 279 333
#
# _framework density 20.123158
#
# number of rings (size 3 to 8) (size 9 to 14) (size 15 to 20)
#    0.000    2.000    0.833    3.000    0.000    9.000 
#    0.000    1.667    0.000    0.000    0.000    0.000 
#    0.000    1.333    0.000    3.500    0.000    3.333 
#
# Total GULP energy -595210.098924 kJ/mol
# GULP energy per Si atom -12400.210394 kJ/mol
# Density = 2.007736 g / cm^3
# Si number density = 20.123158 Si / 1000 Ang^3
#
#
#
# Elastic Constant Matrix: (Units=GPa)
#
#
# Indices 1 2 3 4 5 6 
#
# 1 82.3483 27.0885 50.8804 0.0000 0.0000 0.0000
# 2 27.0885 108.6625 48.3956 0.0000 0.0000 0.0000
# 3 50.8804 48.3956 147.8684 0.0000 0.0000 0.0000
# 4 0.0000 0.0000 0.0000 -28.0353 0.0000 0.0000
# 5 0.0000 0.0000 0.0000 0.0000 17.5607 0.0000
# 6 0.0000 0.0000 0.0000 0.0000 0.0000 19.3567
#
#
#
# Elastic Compliance Matrix: (Units=1/GPa)
#
#
# Indices 1 2 3 4 5 6 
#
# 1 0.015707 -0.001766 -0.004827 0.000000 0.000000 0.000000
# 2 -0.001766 0.010972 -0.002983 0.000000 0.000000 0.000000
# 3 -0.004827 -0.002983 0.009400 0.000000 0.000000 0.000000
# 4 0.000000 0.000000 0.000000 -0.035669 0.000000 0.000000
# 5 0.000000 0.000000 0.000000 0.000000 0.056945 0.000000
# 6 0.000000 0.000000 0.000000 0.000000 0.000000 0.051662
#
#
# Mechanical properties :
#
#
# Convention : Reuss Voigt Hill
#
# Bulk Modulus (GPa) = 59.07789 65.73424 62.40607
# Shear Modulus (GPa) = 37.36649 15.94407 26.65528
#
# Velocity S-wave (km/s) = 4.31384 2.81788 3.64346
# Velocity P-wave (km/s) = 7.36439 6.58211 6.98421
#
# Compressibility (1/GPa) = 0.01692681
#
# Stress axis : x y z
#
# Youngs Moduli (GPa) = 63.66743 91.14352 106.38354
#
# Poissons Ratio (x) = 0.16095 0.51347
# Poissons Ratio (y) = 0.11243 0.31737
# Poissons Ratio (z) = 0.30730 0.27191
#
# Static dielectric constant tensor:
#      x y z
#    x 3.728560 0.000000 0.000000 
#    y 0.000000 3.601460 0.000000 
#    z 0.000000 0.000000 3.717340 
# 
# 
# High freq. dielectric constant tensor:
#      x y z
#    x 1.787890 0.000000 0.000000 
#    y 0.000000 1.758980 0.000000 
#    z 0.000000 0.000000 1.791600 
# 
# From -- ./inp_files/34064.got.cif
#   From: 2010.03.12/outbox.cif.g09.slc.cpg/sg47_18_cif.got.tgz:34064.got - 2010.04.14 03:12:58.
