data_PCOD8196461
_publ_section_title
;
Structure prediction by ZEFSAII (Michael W. Deem and Ramdas Pophale) SiO2 
 PCOD8196461
Probable space group: P M M M
;
_chemical_formula_sum "Si O2"
_cell_formula_units_Z 48
_cell_length_a 22.011646
_cell_length_b 18.003931
_cell_length_c 9.207077
_cell_angle_alpha 90.000000
_cell_angle_beta 90.000000
_cell_angle_gamma 90.000000
_cell_volume 3648.729221
_symmetry_space_group_name_H-M "P M M M"
_symmetry_group_IT_number 47
_symmetry_cell_setting 'orthorhombic'
loop_
_space_group_symop_operation_xyz
x,y,z
-x,-y,z
x,-y,-z
-x,y,-z
-x,-y,-z
x,y,-z
-x,y,z
x,-y,z
loop_
_atom_site_type_symbol
_atom_site_label
_atom_site_fract_x
_atom_site_fract_y
_atom_site_fract_z
Si Si1 0.500000 0.411246 0.838120
Si Si2 0.139128 0.355370 0.826906
Si Si3 0.071778 0.224108 0.667910
Si Si4 0.067722 0.500000 0.172236
Si Si5 0.386480 0.588231 0.660610
Si Si6 0.927946 0.918140 0.837447
Si Si7 0.748910 0.585697 0.328740
O O1 0.500000 0.500000 0.833805
O O2 0.560808 0.379315 0.763046
O O3 0.500000 0.380203 0.000000
O O4 0.106066 0.283978 0.764275
O O5 0.102043 0.427092 0.771837
O O6 0.206708 0.361477 0.762412
O O7 0.142083 0.349748 0.000000
O O8 0.089760 0.232632 0.500000
O O9 0.094594 0.143514 0.723208
O O10 0.000000 0.234249 0.691614
O O11 0.000000 0.500000 0.238532
O O12 0.065002 0.500000 0.000000
O O13 0.397690 0.620698 0.500000
O O14 0.390208 0.500000 0.654406
O O15 0.319327 0.610692 0.715704
O O16 0.000000 0.919561 0.838498
O O17 0.903702 0.000000 0.790487
O O18 0.904475 0.898804 0.000000
O O19 0.759390 0.596588 0.500000
O O20 0.759991 0.500000 0.284967
#
# Coordination Sequence:
#
# PCOD8196461 Si02
#       7
#     4   8   8   4   8   8   8
#     4   9  15  21  31  51  73  89 107 141 180 211
#     4  11  20  30  43  56  72  95 124 159 196 233
#     4  10  20  31  42  58  78  98 121 151 189 229
#     4   9  18  30  41  53  67  86 117 156 197 237
#     4   8  14  24  37  50  66  91 116 139 175 223
#     4   8  14  26  44  63  80  97 116 139 173 220
#     4   9  17  29  42  54  70  92 120 155 191 228
#
# _framework density 13.155265999999999
#
# number of rings (size 3 to 8) (size 9 to 14) (size 15 to 20)
#    0.000    2.833    0.833    3.250    0.000    3.667 
#    0.000    3.333    0.000    2.000    0.000    0.000 
#    0.000    0.000    0.000    0.000    0.000    0.000 
#
# Total GULP energy -594969.051620 kJ/mol
# GULP energy per Si atom -12395.188575 kJ/mol
# Density = 1.312532 g / cm^3
# Si number density = 13.155266 Si / 1000 Ang^3
#
#
#
# Elastic Constant Matrix: (Units=GPa)
#
#
# Indices 1 2 3 4 5 6 
#
# 1 83.2017 29.4446 44.7546 0.0000 0.0000 0.0000
# 2 29.4446 65.6264 33.5613 0.0000 0.0000 0.0000
# 3 44.7546 33.5613 73.7871 0.0000 0.0000 0.0000
# 4 0.0000 0.0000 0.0000 17.2022 0.0000 0.0000
# 5 0.0000 0.0000 0.0000 0.0000 18.9700 0.0000
# 6 0.0000 0.0000 0.0000 0.0000 0.0000 1.8351
#
#
#
# Elastic Compliance Matrix: (Units=1/GPa)
#
#
# Indices 1 2 3 4 5 6 
#
# 1 0.018377 -0.003316 -0.009638 0.000000 0.000000 0.000000
# 2 -0.003316 0.020455 -0.007292 0.000000 0.000000 0.000000
# 3 -0.009638 -0.007292 0.022715 0.000000 0.000000 0.000000
# 4 0.000000 0.000000 0.000000 0.058132 0.000000 0.000000
# 5 0.000000 0.000000 0.000000 0.000000 0.052715 0.000000
# 6 0.000000 0.000000 0.000000 0.000000 0.000000 0.544937
#
#
# Mechanical properties :
#
#
# Convention : Reuss Voigt Hill
#
# Bulk Modulus (GPa) = 47.49698 48.68181 48.08940
# Shear Modulus (GPa) = 6.53730 15.25844 10.89787
#
# Velocity S-wave (km/s) = 2.23162 3.40939 2.88132
# Velocity P-wave (km/s) = 6.54396 7.25151 6.90681
#
# Compressibility (1/GPa) = 0.02105397
#
# Stress axis : x y z
#
# Youngs Moduli (GPa) = 54.41625 48.88797 44.02381
#
# Poissons Ratio (x) = 0.16213 0.42429
# Poissons Ratio (y) = 0.18046 0.32103
# Poissons Ratio (z) = 0.52445 0.35650
#
# Static dielectric constant tensor:
#      x y z
#    x 2.619760 0.000000 0.000000 
#    y 0.000000 2.493050 0.000000 
#    z 0.000000 0.000000 2.705370 
# 
# 
# High freq. dielectric constant tensor:
#      x y z
#    x 1.481990 0.000000 0.000000 
#    y 0.000000 1.457980 0.000000 
#    z 0.000000 0.000000 1.506240 
# 
# From -- ./inp_files/11413.got.cif
#   From: 2010.03.12/outbox.cif.g09.slc.cpg/sg47_6_cif.got.tgz:11413.got - 2010.04.14 03:12:58.
