data_PCOD8196068
_publ_section_title
;
Structure prediction by ZEFSAII (Michael W. Deem and Ramdas Pophale) SiO2 
 PCOD8196068
Probable space group: P M M M
;
_chemical_formula_sum "Si O2"
_cell_formula_units_Z 48
_cell_length_a 13.985035
_cell_length_b 8.918394
_cell_length_c 20.680558
_cell_angle_alpha 90.000000
_cell_angle_beta 90.000000
_cell_angle_gamma 90.000000
_cell_volume 2579.362996
_symmetry_space_group_name_H-M "P M M M"
_symmetry_group_IT_number 47
_symmetry_cell_setting 'orthorhombic'
loop_
_space_group_symop_operation_xyz
x,y,z
-x,-y,z
x,-y,-z
-x,y,-z
-x,-y,-z
x,y,-z
-x,y,z
x,-y,z
loop_
_atom_site_type_symbol
_atom_site_label
_atom_site_fract_x
_atom_site_fract_y
_atom_site_fract_z
Si Si1 0.107545 0.321656 0.000000
Si Si2 0.784329 0.822983 0.626980
Si Si3 0.391112 0.825528 0.184002
Si Si4 0.220157 0.324388 0.125412
Si Si5 0.892541 0.178305 0.500000
Si Si6 0.888456 0.672362 0.743840
Si Si7 0.608152 0.323896 0.320211
O O1 0.163356 0.263921 0.936826
O O2 0.101940 0.500000 0.000000
O O3 0.000000 0.255327 0.000000
O O4 0.838004 0.762377 0.563385
O O5 0.844808 0.778026 0.689409
O O6 0.679059 0.749380 0.627762
O O7 0.772244 0.000000 0.625133
O O8 0.500000 0.794940 0.162088
O O9 0.321246 0.762514 0.128708
O O10 0.366616 0.739207 0.249842
O O11 0.372552 0.000000 0.196166
O O12 0.241641 0.500000 0.119555
O O13 0.156753 0.285484 0.187588
O O14 0.000000 0.244251 0.500000
O O15 0.896397 0.000000 0.500000
O O16 0.867053 0.500000 0.725729
O O17 0.000000 0.704859 0.749037
O O18 0.500000 0.282616 0.340329
O O19 0.624985 0.500000 0.317826
#
# Coordination Sequence:
#
# PCOD8196068 Si02
#       7
#     4   8   8   8   4   8   8
#     4   9  18  34  56  81 110 148 189 225 268 323
#     4  11  21  35  57  82 109 144 185 228 273 322
#     4  10  20  34  54  81 111 143 180 224 276 331
#     4  10  19  33  55  81 110 145 184 227 274 322
#     4   9  20  38  56  77 110 150 187 223 268 321
#     4  10  20  33  51  78 110 141 179 229 278 324
#     4  10  20  35  56  82 112 144 178 222 277 332
#
# _framework density 18.609247
#
# number of rings (size 3 to 8) (size 9 to 14) (size 15 to 20)
#    0.000    2.000    1.667    2.500    0.000    5.000 
#    0.000    2.917    0.000   10.000    0.000    0.000 
#    0.000    0.000    0.000    0.000    0.000    0.000 
#
# Total GULP energy -595345.917109 kJ/mol
# GULP energy per Si atom -12403.039940 kJ/mol
# Density = 1.856689 g / cm^3
# Si number density = 18.609247 Si / 1000 Ang^3
#
#
#
# Elastic Constant Matrix: (Units=GPa)
#
#
# Indices 1 2 3 4 5 6 
#
# 1 164.0001 46.7064 81.5678 0.0000 0.0000 0.0000
# 2 46.7064 59.5814 41.9945 0.0000 0.0000 0.0000
# 3 81.5678 41.9945 132.7406 0.0000 0.0000 0.0000
# 4 0.0000 0.0000 0.0000 19.6487 0.0000 0.0000
# 5 0.0000 0.0000 0.0000 0.0000 34.8538 0.0000
# 6 0.0000 0.0000 0.0000 0.0000 0.0000 31.1242
#
#
#
# Elastic Compliance Matrix: (Units=1/GPa)
#
#
# Indices 1 2 3 4 5 6 
#
# 1 0.009575 -0.004323 -0.004516 0.000000 0.000000 0.000000
# 2 -0.004323 0.023552 -0.004795 0.000000 0.000000 0.000000
# 3 -0.004516 -0.004795 0.011825 0.000000 0.000000 0.000000
# 4 0.000000 0.000000 0.000000 0.050894 0.000000 0.000000
# 5 0.000000 0.000000 0.000000 0.000000 0.028691 0.000000
# 6 0.000000 0.000000 0.000000 0.000000 0.000000 0.032129
#
#
# Mechanical properties :
#
#
# Convention : Reuss Voigt Hill
#
# Bulk Modulus (GPa) = 56.54483 77.42883 66.98683
# Shear Modulus (GPa) = 26.33955 29.52889 27.93422
#
# Velocity S-wave (km/s) = 3.76626 3.98777 3.87860
# Velocity P-wave (km/s) = 7.02597 7.93102 7.49218
#
# Compressibility (1/GPa) = 0.01768508
#
# Stress axis : x y z
#
# Youngs Moduli (GPa) = 104.44120 42.45953 84.56348
#
# Poissons Ratio (x) = 0.18354 0.38189
# Poissons Ratio (y) = 0.45147 0.40546
# Poissons Ratio (z) = 0.47166 0.20358
#
# Static dielectric constant tensor:
#      x y z
#    x 3.723050 0.000000 0.000000 
#    y 0.000000 3.245850 0.000000 
#    z 0.000000 0.000000 3.355200 
# 
# 
# High freq. dielectric constant tensor:
#      x y z
#    x 1.743000 0.000000 0.000000 
#    y 0.000000 1.708340 0.000000 
#    z 0.000000 0.000000 1.704510 
# 
# From -- ./inp_files/9152.got.cif
#   From: 2010.03.12/outbox.cif.g09.slc.cpg/sg47_5_cif.got.tgz:9152.got - 2010.04.14 03:12:58.
