data_PCOD8196194
_publ_section_title
;
Structure prediction by ZEFSAII (Michael W. Deem and Ramdas Pophale) SiO2 
 PCOD8196194
Probable space group: P M M M
;
_chemical_formula_sum "Si O2"
_cell_formula_units_Z 52
_cell_length_a 8.917419
_cell_length_b 28.132460
_cell_length_c 11.663024
_cell_angle_alpha 90.000000
_cell_angle_beta 90.000000
_cell_angle_gamma 90.000000
_cell_volume 2925.890390
_symmetry_space_group_name_H-M "P M M M"
_symmetry_group_IT_number 47
_symmetry_cell_setting 'orthorhombic'
loop_
_space_group_symop_operation_xyz
x,y,z
-x,-y,z
x,-y,-z
-x,y,-z
-x,-y,-z
x,y,-z
-x,y,z
x,-y,z
loop_
_atom_site_type_symbol
_atom_site_label
_atom_site_fract_x
_atom_site_fract_y
_atom_site_fract_z
Si Si1 0.323341 0.446163 0.871493
Si Si2 0.821785 0.213539 0.500000
Si Si3 0.827618 0.269572 0.133747
Si Si4 0.172968 0.000000 0.866178
Si Si5 0.323714 0.812820 0.730894
Si Si6 0.175552 0.897126 0.135706
Si Si7 0.178402 0.321937 0.500000
Si Si8 0.825088 0.364113 0.737209
O O1 0.500000 0.440241 0.866457
O O2 0.276469 0.500000 0.841133
O O3 0.252022 0.412304 0.776926
O O4 0.266170 0.433467 0.000000
O O5 0.760092 0.186147 0.610036
O O6 0.762044 0.267856 0.500000
O O7 0.000000 0.211438 0.500000
O O8 0.719495 0.234083 0.199302
O O9 0.789001 0.322911 0.171636
O O10 0.000000 0.257191 0.165067
O O11 0.796961 0.264698 0.000000
O O12 0.235688 0.949331 0.820067
O O13 0.000000 0.000000 0.836450
O O14 0.199864 0.000000 0.000000
O O15 0.500000 0.813281 0.710347
O O16 0.276184 0.858912 0.801235
O O17 0.000000 0.889879 0.165180
O O18 0.199221 0.891607 0.000000
O O19 0.238697 0.348977 0.387317
O O20 0.000000 0.320151 0.500000
O O21 0.000000 0.374272 0.728969
#
# Coordination Sequence:
#
# PCOD8196194 Si02
#       8
#     8   4   8   4   8   8   4   8
#     4   9  19  36  55  76 106 142 175 209 258 319
#     4  11  21  41  63  73  95 141 188 225 264 313
#     4  10  20  34  53  77 105 140 180 218 261 316
#     4   7  12  26  51  80 105 134 181 231 263 303
#     4  12  24  35  50  78 112 141 176 220 268 322
#     4   9  17  32  55  81 109 144 184 223 266 316
#     4   9  18  35  58  78 100 131 172 219 266 308
#     4  10  19  34  56  81 103 131 175 223 263 305
#
# _framework density 17.772368
#
# number of rings (size 3 to 8) (size 9 to 14) (size 15 to 20)
#    0.000    2.231    1.538    3.923    0.000    4.308 
#    0.000    1.923    0.000    4.154    0.000    3.231 
#    0.000    0.000    0.000    0.000    0.000    0.000 
#
# Total GULP energy -644632.524860 kJ/mol
# GULP energy per Si atom -12396.779324 kJ/mol
# Density = 1.773192 g / cm^3
# Si number density = 17.772368 Si / 1000 Ang^3
#
#
#
# Elastic Constant Matrix: (Units=GPa)
#
#
# Indices 1 2 3 4 5 6 
#
# 1 66.1726 42.0965 37.5479 0.0000 0.0000 0.0000
# 2 42.0965 101.9870 39.2366 0.0000 0.0000 0.0000
# 3 37.5479 39.2366 88.7459 0.0000 0.0000 0.0000
# 4 0.0000 0.0000 0.0000 -4.8785 0.0000 0.0000
# 5 0.0000 0.0000 0.0000 0.0000 22.1463 0.0000
# 6 0.0000 0.0000 0.0000 0.0000 0.0000 4.5797
#
#
#
# Elastic Compliance Matrix: (Units=1/GPa)
#
#
# Indices 1 2 3 4 5 6 
#
# 1 0.023471 -0.007070 -0.006805 0.000000 0.000000 0.000000
# 2 -0.007070 0.013944 -0.003174 0.000000 0.000000 0.000000
# 3 -0.006805 -0.003174 0.015550 0.000000 0.000000 0.000000
# 4 0.000000 0.000000 0.000000 -0.204980 0.000000 0.000000
# 5 0.000000 0.000000 0.000000 0.000000 0.045154 0.000000
# 6 0.000000 0.000000 0.000000 0.000000 0.000000 0.218354
#
#
# Mechanical properties :
#
#
# Convention : Reuss Voigt Hill
#
# Bulk Modulus (GPa) = 52.99788 54.96308 53.98048
# Shear Modulus (GPa) = 32.92072 13.57113 23.24593
#
# Velocity S-wave (km/s) = 4.30857 2.76634 3.62053
# Velocity P-wave (km/s) = 7.39167 6.41848 6.92220
#
# Compressibility (1/GPa) = 0.01886868
#
# Stress axis : x y z
#
# Youngs Moduli (GPa) = 42.60626 71.71295 64.30732
#
# Poissons Ratio (x) = 0.50701 0.43758
# Poissons Ratio (y) = 0.30123 0.20410
# Poissons Ratio (z) = 0.28992 0.22761
#
# Static dielectric constant tensor:
#      x y z
#    x 3.046690 0.000000 0.000000 
#    y 0.000000 3.515590 0.000000 
#    z 0.000000 0.000000 3.438570 
# 
# 
# High freq. dielectric constant tensor:
#      x y z
#    x 1.664780 0.000000 0.000000 
#    y 0.000000 1.696440 0.000000 
#    z 0.000000 0.000000 1.679840 
# 
# From -- ./inp_files/15562.got.cif
#   From: 2010.03.12/outbox.cif.g09.slc.cpg/sg47_8_cif.got.tgz:15562.got - 2010.04.14 03:12:58.
