data_PCOD8196812
_publ_section_title
;
Structure prediction by ZEFSAII (Michael W. Deem and Ramdas Pophale) SiO2 
 PCOD8196812
Probable space group: P M M M
;
_chemical_formula_sum "Si O2"
_cell_formula_units_Z 56
_cell_length_a 9.236383
_cell_length_b 21.625709
_cell_length_c 18.043196
_cell_angle_alpha 90.000000
_cell_angle_beta 90.000000
_cell_angle_gamma 90.000000
_cell_volume 3604.008070
_symmetry_space_group_name_H-M "P M M M"
_symmetry_group_IT_number 47
_symmetry_cell_setting 'orthorhombic'
loop_
_space_group_symop_operation_xyz
x,y,z
-x,-y,z
x,-y,-z
-x,y,-z
-x,-y,-z
x,y,-z
-x,y,z
x,-y,z
loop_
_atom_site_type_symbol
_atom_site_label
_atom_site_fract_x
_atom_site_fract_y
_atom_site_fract_z
Si Si1 0.831155 0.697094 0.583239
Si Si2 0.829754 0.182552 0.677221
Si Si3 0.330241 0.570256 0.155839
Si Si4 0.828190 0.931291 0.582748
Si Si5 0.659564 0.632802 0.299880
Si Si6 0.166600 0.680943 0.086346
Si Si7 0.662753 0.245547 0.201331
O O1 0.767909 0.697090 0.500000
O O2 0.793558 0.762687 0.619873
O O3 0.763102 0.640176 0.629410
O O4 0.000000 0.684924 0.582300
O O5 0.769614 0.119450 0.640434
O O6 0.745203 0.191023 0.754616
O O7 0.000000 0.179915 0.694636
O O8 0.500000 0.586485 0.145851
O O9 0.296427 0.500000 0.133001
O O10 0.286881 0.579937 0.242558
O O11 0.238137 0.614477 0.102859
O O12 0.767290 0.918134 0.500000
O O13 0.000000 0.926397 0.579627
O O14 0.780302 0.000000 0.608865
O O15 0.500000 0.617072 0.330218
O O16 0.657888 0.695487 0.253589
O O17 0.248906 0.736840 0.127511
O O18 0.000000 0.679088 0.112899
O O19 0.178808 0.694956 0.000000
O O20 0.500000 0.224096 0.180369
#
# Coordination Sequence:
#
# PCOD8196812 Si02
#       7
#     8   8   8   8   8   8   8
#     4   9  16  24  36  56  79 102 131 170 215 256
#     4   9  15  24  40  60  83 111 144 182 217 247
#     4   9  18  32  48  64  83 110 142 170 197 238
#     4   8  13  21  35  58  88 121 156 190 220 250
#     4   8  15  27  41  57  76  99 130 168 206 242
#     4  10  20  32  46  66  91 113 133 163 203 245
#     4   9  17  29  44  61  82 109 140 172 207 250
#
# _framework density 15.538257
#
# number of rings (size 3 to 8) (size 9 to 14) (size 15 to 20)
#    0.000    3.143    0.000    2.571    0.000    7.143 
#    0.000    1.429    0.000    2.143    0.000    4.000 
#    0.000    0.571    0.000    6.571    0.000    1.857 
#
# Total GULP energy -694101.574410 kJ/mol
# GULP energy per Si atom -12394.670972 kJ/mol
# Density = 1.550289 g / cm^3
# Si number density = 15.538257 Si / 1000 Ang^3
#
#
#
# Elastic Constant Matrix: (Units=GPa)
#
#
# Indices 1 2 3 4 5 6 
#
# 1 66.1891 28.8536 46.4931 0.0000 0.0000 0.0000
# 2 28.8536 60.9412 39.5639 0.0000 0.0000 0.0000
# 3 46.4931 39.5639 89.2749 0.0000 0.0000 0.0000
# 4 0.0000 0.0000 0.0000 20.8384 0.0000 0.0000
# 5 0.0000 0.0000 0.0000 0.0000 19.0690 0.0000
# 6 0.0000 0.0000 0.0000 0.0000 0.0000 13.2429
#
#
#
# Elastic Compliance Matrix: (Units=1/GPa)
#
#
# Indices 1 2 3 4 5 6 
#
# 1 0.024747 -0.004703 -0.010804 0.000000 0.000000 0.000000
# 2 -0.004703 0.023931 -0.008156 0.000000 0.000000 0.000000
# 3 -0.010804 -0.008156 0.020442 0.000000 0.000000 0.000000
# 4 0.000000 0.000000 0.000000 0.047988 0.000000 0.000000
# 5 0.000000 0.000000 0.000000 0.000000 0.052441 0.000000
# 6 0.000000 0.000000 0.000000 0.000000 0.000000 0.075512
#
#
# Mechanical properties :
#
#
# Convention : Reuss Voigt Hill
#
# Bulk Modulus (GPa) = 45.88279 49.58073 47.73176
# Shear Modulus (GPa) = 16.68592 17.39636 17.04114
#
# Velocity S-wave (km/s) = 3.28054 3.34965 3.31527
# Velocity P-wave (km/s) = 6.62889 6.85115 6.74094
#
# Compressibility (1/GPa) = 0.02179466
#
# Stress axis : x y z
#
# Youngs Moduli (GPa) = 40.40839 41.78650 48.91775
#
# Poissons Ratio (x) = 0.19652 0.52850
# Poissons Ratio (y) = 0.19004 0.39899
# Poissons Ratio (z) = 0.43657 0.34082
#
# Static dielectric constant tensor:
#      x y z
#    x 2.978450 0.000000 0.000000 
#    y 0.000000 2.928790 0.000000 
#    z 0.000000 0.000000 2.986950 
# 
# 
# High freq. dielectric constant tensor:
#      x y z
#    x 1.586890 0.000000 0.000000 
#    y 0.000000 1.564540 0.000000 
#    z 0.000000 0.000000 1.584620 
# 
# From -- ./inp_files/9851.got.cif
#   From: 2010.03.12/outbox.cif.g09.slc.cpg/sg47_5_cif.got.tgz:9851.got - 2010.04.14 03:12:58.
