data_PCOD8196665
_publ_section_title
;
Structure prediction by ZEFSAII (Michael W. Deem and Ramdas Pophale) SiO2 
 PCOD8196665
Probable space group: P M M M
;
_chemical_formula_sum "Si O2"
_cell_formula_units_Z 64
_cell_length_a 9.225928
_cell_length_b 15.093005
_cell_length_c 23.919504
_cell_angle_alpha 90.000000
_cell_angle_beta 90.000000
_cell_angle_gamma 90.000000
_cell_volume 3330.718634
_symmetry_space_group_name_H-M "P M M M"
_symmetry_group_IT_number 47
_symmetry_cell_setting 'orthorhombic'
loop_
_space_group_symop_operation_xyz
x,y,z
-x,-y,z
x,-y,-z
-x,y,-z
-x,-y,-z
x,y,-z
-x,y,z
x,-y,z
loop_
_atom_site_type_symbol
_atom_site_label
_atom_site_fract_x
_atom_site_fract_y
_atom_site_fract_z
Si Si1 0.671836 0.226384 0.563247
Si Si2 0.334171 0.398087 0.744949
Si Si3 0.165225 0.103589 0.351633
Si Si4 0.170835 0.902073 0.227227
Si Si5 0.669228 0.263339 0.936580
Si Si6 0.169979 0.721781 0.830213
Si Si7 0.671761 0.596380 0.617834
Si Si8 0.842239 0.904298 0.064845
O O1 0.719831 0.205868 0.500000
O O2 0.500000 0.223135 0.570097
O O3 0.737836 0.153388 0.603469
O O4 0.731060 0.324566 0.579106
O O5 0.500000 0.366753 0.753169
O O6 0.318152 0.500000 0.763354
O O7 0.228752 0.338181 0.781023
O O8 0.282088 0.384929 0.681516
O O9 0.228351 0.123237 0.289299
O O10 0.000000 0.136944 0.357180
O O11 0.175671 0.000000 0.364755
O O12 0.211937 0.825675 0.182126
O O13 0.000000 0.908930 0.233549
O O14 0.230875 0.000000 0.209076
O O15 0.500000 0.278422 0.927579
O O16 0.758651 0.314130 0.888456
O O17 0.709240 0.161155 0.924957
O O18 0.714512 0.292178 0.000000
O O19 0.000000 0.707349 0.834234
O O20 0.500000 0.591619 0.614824
O O21 0.733967 0.500000 0.598396
O O22 0.000000 0.868842 0.088710
O O23 0.808312 0.000000 0.092856
O O24 0.863114 0.918391 0.000000
#
# Coordination Sequence:
#
# PCOD8196665 Si02
#       8
#     8   8   8   8   8   8   8   8
#     4  10  20  31  46  73 106 137 171 214 259 298
#     4   9  18  34  56  79 103 132 165 204 253 308
#     4   9  18  34  54  71  92 130 177 219 258 303
#     4   8  16  32  52  75 102 131 167 211 258 306
#     4  10  21  35  49  67  96 135 174 208 244 293
#     4  11  21  32  53  81 105 131 163 207 260 307
#     4   8  15  30  52  76 102 134 170 205 246 302
#     4   8  14  26  44  64  87 119 161 206 247 286
#
# _framework density 19.215073
#
# number of rings (size 3 to 8) (size 9 to 14) (size 15 to 20)
#    0.000    2.875    0.000    3.375    0.000    2.750 
#    0.000    5.625    0.000    4.125    0.000    3.500 
#    0.000    0.000    0.000    0.000    0.000    0.000 
#
# Total GULP energy -792945.309765 kJ/mol
# GULP energy per Si atom -12389.770465 kJ/mol
# Density = 1.917134 g / cm^3
# Si number density = 19.215073 Si / 1000 Ang^3
#
#
#
# Elastic Constant Matrix: (Units=GPa)
#
#
# Indices 1 2 3 4 5 6 
#
# 1 52.5442 21.7299 37.8926 0.0000 0.0000 0.0000
# 2 21.7299 51.0363 33.1250 0.0000 0.0000 0.0000
# 3 37.8926 33.1250 116.4652 0.0000 0.0000 0.0000
# 4 0.0000 0.0000 0.0000 6.2029 0.0000 0.0000
# 5 0.0000 0.0000 0.0000 0.0000 23.3535 0.0000
# 6 0.0000 0.0000 0.0000 0.0000 0.0000 20.0816
#
#
#
# Elastic Compliance Matrix: (Units=1/GPa)
#
#
# Indices 1 2 3 4 5 6 
#
# 1 0.026786 -0.007050 -0.006710 0.000000 0.000000 0.000000
# 2 -0.007050 0.025885 -0.005069 0.000000 0.000000 0.000000
# 3 -0.006710 -0.005069 0.012211 0.000000 0.000000 0.000000
# 4 0.000000 0.000000 0.000000 0.161216 0.000000 0.000000
# 5 0.000000 0.000000 0.000000 0.000000 0.042820 0.000000
# 6 0.000000 0.000000 0.000000 0.000000 0.000000 0.049797
#
#
# Mechanical properties :
#
#
# Convention : Reuss Voigt Hill
#
# Bulk Modulus (GPa) = 36.72992 45.06007 40.89500
# Shear Modulus (GPa) = 13.68189 18.41414 16.04801
#
# Velocity S-wave (km/s) = 2.67130 3.09903 2.89308
# Velocity P-wave (km/s) = 5.35454 6.02549 5.69990
#
# Compressibility (1/GPa) = 0.02722576
#
# Stress axis : x y z
#
# Youngs Moduli (GPa) = 37.33310 38.63199 81.89357
#
# Poissons Ratio (x) = 0.27234 0.54949
# Poissons Ratio (y) = 0.26319 0.41509
# Poissons Ratio (z) = 0.25050 0.19581
#
# Static dielectric constant tensor:
#      x y z
#    x 3.177380 0.000000 0.000000 
#    y 0.000000 3.606540 0.000000 
#    z 0.000000 0.000000 3.709240 
# 
# 
# High freq. dielectric constant tensor:
#      x y z
#    x 1.712060 0.000000 0.000000 
#    y 0.000000 1.732350 0.000000 
#    z 0.000000 0.000000 1.759220 
# 
# From -- ./inp_files/32154.got.cif
#   From: 2010.03.12/outbox.cif.g09.slc.cpg/sg47_17_cif.got.tgz:32154.got - 2010.04.14 03:12:58.
