data_PCOD8196942
_publ_section_title
;
Structure prediction by ZEFSAII (Michael W. Deem and Ramdas Pophale) SiO2 
 PCOD8196942
Probable space group: P M M M
;
_chemical_formula_sum "Si O2"
_cell_formula_units_Z 44
_cell_length_a 7.746265
_cell_length_b 9.035906
_cell_length_c 30.177966
_cell_angle_alpha 90.000000
_cell_angle_beta 90.000000
_cell_angle_gamma 90.000000
_cell_volume 2112.292317
_symmetry_space_group_name_H-M "P M M M"
_symmetry_group_IT_number 47
_symmetry_cell_setting 'orthorhombic'
loop_
_space_group_symop_operation_xyz
x,y,z
-x,-y,z
x,-y,-z
-x,y,-z
-x,-y,-z
x,y,-z
-x,y,z
x,-y,z
loop_
_atom_site_type_symbol
_atom_site_label
_atom_site_fract_x
_atom_site_fract_y
_atom_site_fract_z
Si Si1 0.206307 0.666495 0.641532
Si Si2 0.302961 0.332634 0.814478
Si Si3 0.500000 0.670554 0.052226
Si Si4 0.204362 0.168731 0.727911
Si Si5 0.805794 0.170747 0.898334
Si Si6 0.806464 0.675967 0.453119
O O1 0.272556 0.500000 0.651145
O O2 0.272944 0.772158 0.680651
O O3 0.280091 0.727091 0.593680
O O4 0.000000 0.667244 0.638996
O O5 0.500000 0.330467 0.830927
O O6 0.231126 0.500000 0.813406
O O7 0.292100 0.264834 0.765830
O O8 0.193199 0.236223 0.848799
O O9 0.500000 0.500000 0.066953
O O10 0.673978 0.744282 0.070162
O O11 0.500000 0.689879 0.000000
O O12 0.000000 0.185979 0.731630
O O13 0.263831 0.000000 0.733058
O O14 0.000000 0.187640 0.917496
O O15 0.750239 0.000000 0.895904
O O16 0.712912 0.724575 0.500000
O O17 0.812545 0.500000 0.450772
O O18 0.000000 0.739400 0.455137
#
# Coordination Sequence:
#
# PCOD8196942 Si02
#       6
#     8   8   4   8   8   8
#     4   8  13  22  37  57  84 120 162 210 263 319
#     4  11  23  38  58  84 113 147 190 240 294 351
#     4  11  25  45  69  99 135 175 219 265 310 355
#     4  10  20  32  47  70 101 138 179 221 271 334
#     4  11  24  42  67  98 131 169 211 256 310 369
#     4   7   9  14  27  49  76 108 150 200 254 313
#
# _framework density 20.830449000000002
#
# number of rings (size 3 to 8) (size 9 to 14) (size 15 to 20)
#    0.000    2.455    0.909    4.091    0.000    6.909 
#    0.000    1.818    0.000    0.545    0.000    3.818 
#    0.000    0.727    0.000    8.364    0.000    9.636 
#
# Total GULP energy -545230.959005 kJ/mol
# GULP energy per Si atom -12391.612705 kJ/mol
# Density = 2.078304 g / cm^3
# Si number density = 20.830449 Si / 1000 Ang^3
#
#
#
# Elastic Constant Matrix: (Units=GPa)
#
#
# Indices 1 2 3 4 5 6 
#
# 1 61.5693 38.2978 33.4118 0.0000 0.0000 0.0000
# 2 38.2978 140.1019 69.6044 0.0000 0.0000 0.0000
# 3 33.4118 69.6044 135.9985 0.0000 0.0000 0.0000
# 4 0.0000 0.0000 0.0000 8.9220 0.0000 0.0000
# 5 0.0000 0.0000 0.0000 0.0000 -2.0670 0.0000
# 6 0.0000 0.0000 0.0000 0.0000 0.0000 18.2786
#
#
#
# Elastic Compliance Matrix: (Units=1/GPa)
#
#
# Indices 1 2 3 4 5 6 
#
# 1 0.020383 -0.004136 -0.002891 0.000000 0.000000 0.000000
# 2 -0.004136 0.010410 -0.004312 0.000000 0.000000 0.000000
# 3 -0.002891 -0.004312 0.010270 0.000000 0.000000 0.000000
# 4 0.000000 0.000000 0.000000 0.112082 0.000000 0.000000
# 5 0.000000 0.000000 0.000000 0.000000 -0.483797 0.000000
# 6 0.000000 0.000000 0.000000 0.000000 0.000000 0.054709
#
#
# Mechanical properties :
#
#
# Convention : Reuss Voigt Hill
#
# Bulk Modulus (GPa) = 54.38799 68.92195 61.65497
# Shear Modulus (GPa) = -20.23173 18.11712 -1.05730
#
# Velocity S-wave (km/s) = -3.11988 2.95234 -0.71322
# Velocity P-wave (km/s) = 3.63157 6.69184 5.38373
#
# Compressibility (1/GPa) = 0.01838641
#
# Stress axis : x y z
#
# Youngs Moduli (GPa) = 49.05996 96.05744 97.36877
#
# Poissons Ratio (x) = 0.39725 0.28150
# Poissons Ratio (y) = 0.20289 0.41986
# Poissons Ratio (z) = 0.14184 0.41421
#
# Static dielectric constant tensor:
#      x y z
#    x 3.384340 0.000000 0.000000 
#    y 0.000000 3.642260 0.000000 
#    z 0.000000 0.000000 4.142230 
# 
# 
# High freq. dielectric constant tensor:
#      x y z
#    x 1.782620 0.000000 0.000000 
#    y 0.000000 1.791930 0.000000 
#    z 0.000000 0.000000 1.835280 
# 
# From -- ./inp_files/33896.got.cif
#   From: 2010.03.12/outbox.cif.g09.slc.cpg/sg47_17_cif.got.tgz:33896.got - 2010.04.14 03:12:58.
