data_PCOD8196528
_publ_section_title
;
Structure prediction by ZEFSAII (Michael W. Deem and Ramdas Pophale) SiO2 
 PCOD8196528
Probable space group: P M M M
;
_chemical_formula_sum "Si O2"
_cell_formula_units_Z 44
_cell_length_a 28.485743
_cell_length_b 9.256836
_cell_length_c 9.867764
_cell_angle_alpha 90.000000
_cell_angle_beta 90.000000
_cell_angle_gamma 90.000000
_cell_volume 2602.009486
_symmetry_space_group_name_H-M "P M M M"
_symmetry_group_IT_number 47
_symmetry_cell_setting 'orthorhombic'
loop_
_space_group_symop_operation_xyz
x,y,z
-x,-y,z
x,-y,-z
-x,y,-z
-x,-y,-z
x,y,-z
-x,y,z
x,-y,z
loop_
_atom_site_type_symbol
_atom_site_label
_atom_site_fract_x
_atom_site_fract_y
_atom_site_fract_z
Si Si1 0.690974 0.169696 0.342817
Si Si2 0.947936 0.671840 0.348553
Si Si3 0.600391 0.661735 0.338411
Si Si4 0.130128 0.671383 0.149482
Si Si5 0.500000 0.671616 0.351542
Si Si6 0.763905 0.667805 0.842187
O O1 0.699415 0.211139 0.500000
O O2 0.641323 0.231727 0.289712
O O3 0.731897 0.235808 0.253074
O O4 0.690121 0.000000 0.321031
O O5 0.938913 0.730432 0.500000
O O6 0.944449 0.500000 0.348327
O O7 0.908157 0.739759 0.251411
O O8 0.000000 0.719042 0.298947
O O9 0.596065 0.661378 0.500000
O O10 0.612400 0.500000 0.286632
O O11 0.549413 0.714965 0.278011
O O12 0.125449 0.500000 0.145326
O O13 0.182752 0.712025 0.194671
O O14 0.119866 0.734253 0.000000
O O15 0.500000 0.500000 0.367078
O O16 0.500000 0.744484 0.500000
O O17 0.754845 0.500000 0.810005
O O18 0.753535 0.699806 0.000000
#
# Coordination Sequence:
#
# PCOD8196528 Si02
#       6
#     8   8   8   8   4   8
#     4  10  20  31  43  64  93 120 148 183 222 267
#     4   8  13  20  30  48  77 110 139 166 201 250
#     4   8  13  23  40  61  86 116 148 181 217 257
#     4   8  14  24  37  54  76 102 136 178 217 253
#     4   7  10  18  35  59  84 111 144 179 214 254
#     4   9  18  32  48  65  85 112 150 192 229 267
#
# _framework density 16.910008999999999
#
# number of rings (size 3 to 8) (size 9 to 14) (size 15 to 20)
#    0.000    3.545    0.000    3.273    0.000    2.545 
#    0.000    4.091    0.000    2.727    0.000    0.636 
#    0.000    5.818    0.000    8.000    0.000   13.091 
#
# Total GULP energy -545100.397519 kJ/mol
# GULP energy per Si atom -12388.645398 kJ/mol
# Density = 1.687152 g / cm^3
# Si number density = 16.910009 Si / 1000 Ang^3
#
#
#
# Elastic Constant Matrix: (Units=GPa)
#
#
# Indices 1 2 3 4 5 6 
#
# 1 177.9486 49.3954 77.7706 0.0000 0.0000 0.0000
# 2 49.3954 46.3965 31.5541 0.0000 0.0000 0.0000
# 3 77.7706 31.5541 64.2991 0.0000 0.0000 0.0000
# 4 0.0000 0.0000 0.0000 14.2456 0.0000 0.0000
# 5 0.0000 0.0000 0.0000 0.0000 4.4669 0.0000
# 6 0.0000 0.0000 0.0000 0.0000 0.0000 0.3514
#
#
#
# Elastic Compliance Matrix: (Units=1/GPa)
#
#
# Indices 1 2 3 4 5 6 
#
# 1 0.012531 -0.004552 -0.012922 0.000000 0.000000 0.000000
# 2 -0.004552 0.034004 -0.011181 0.000000 0.000000 0.000000
# 3 -0.012922 -0.011181 0.036669 0.000000 0.000000 0.000000
# 4 0.000000 0.000000 0.000000 0.070197 0.000000 0.000000
# 5 0.000000 0.000000 0.000000 0.000000 0.223870 0.000000
# 6 0.000000 0.000000 0.000000 0.000000 0.000000 2.845694
#
#
# Mechanical properties :
#
#
# Convention : Reuss Voigt Hill
#
# Bulk Modulus (GPa) = 38.62099 67.34271 52.98185
# Shear Modulus (GPa) = 1.52026 12.47439 6.99733
#
# Velocity S-wave (km/s) = 0.94920 2.71900 2.03641
# Velocity P-wave (km/s) = 4.90816 7.05464 6.07692
#
# Compressibility (1/GPa) = 0.02589266
#
# Stress axis : x y z
#
# Youngs Moduli (GPa) = 79.80417 29.40816 27.27131
#
# Poissons Ratio (x) = 0.13388 0.35240
# Poissons Ratio (y) = 0.36330 0.30492
# Poissons Ratio (z) = 1.03123 0.32881
#
# Static dielectric constant tensor:
#      x y z
#    x 3.632370 0.000000 0.000000 
#    y 0.000000 2.696780 0.000000 
#    z 0.000000 0.000000 3.064380 
# 
# 
# High freq. dielectric constant tensor:
#      x y z
#    x 1.673640 0.000000 0.000000 
#    y 0.000000 1.599040 0.000000 
#    z 0.000000 0.000000 1.617780 
# 
# From -- ./inp_files/13555.got.cif
#   From: 2010.03.12/outbox.cif.g09.slc.cpg/sg47_7_cif.got.tgz:13555.got - 2010.04.14 03:12:58.
