data_PCOD8196890
_publ_section_title
;
Structure prediction by ZEFSAII (Michael W. Deem and Ramdas Pophale) SiO2 
 PCOD8196890
Probable space group: P M M M
;
_chemical_formula_sum "Si O2"
_cell_formula_units_Z 44
_cell_length_a 9.224968
_cell_length_b 25.252220
_cell_length_c 10.624287
_cell_angle_alpha 90.000000
_cell_angle_beta 90.000000
_cell_angle_gamma 90.000000
_cell_volume 2474.937446
_symmetry_space_group_name_H-M "P M M M"
_symmetry_group_IT_number 47
_symmetry_cell_setting 'orthorhombic'
loop_
_space_group_symop_operation_xyz
x,y,z
-x,-y,z
x,-y,-z
-x,y,-z
-x,-y,-z
x,y,-z
-x,y,z
x,-y,z
loop_
_atom_site_type_symbol
_atom_site_label
_atom_site_fract_x
_atom_site_fract_y
_atom_site_fract_z
Si Si1 0.827663 0.559741 0.640412
Si Si2 0.173064 0.364266 0.858808
Si Si3 0.662297 0.937384 0.500000
Si Si4 0.658946 0.849465 0.855969
Si Si5 0.839585 0.753374 0.851437
Si Si6 0.170538 0.061226 0.253639
O O1 0.777342 0.578467 0.500000
O O2 0.772661 0.500000 0.664646
O O3 0.762667 0.596576 0.751741
O O4 0.000000 0.561423 0.646465
O O5 0.225498 0.304942 0.823295
O O6 0.000000 0.365267 0.859484
O O7 0.228053 0.380209 0.000000
O O8 0.500000 0.913005 0.500000
O O9 0.752933 0.918401 0.380307
O O10 0.652606 0.000000 0.500000
O O11 0.500000 0.858856 0.793351
O O12 0.737341 0.798849 0.790933
O O13 0.758798 0.902042 0.852414
O O14 0.635592 0.835235 0.000000
O O15 0.000000 0.759258 0.791300
O O16 0.852767 0.761435 0.000000
O O17 0.000000 0.070716 0.263915
O O18 0.204912 0.000000 0.222976
#
# Coordination Sequence:
#
# PCOD8196890 Si02
#       6
#     8   8   4   8   8   8
#     4   8  13  20  30  48  79 116 145 171 214 271
#     4   8  13  21  35  54  74 103 146 187 220 262
#     4   9  17  31  51  71  91 117 149 185 226 269
#     4  10  20  32  47  68  93 121 153 189 232 284
#     4   8  14  26  43  60  80 110 147 185 225 268
#     4  10  20  33  50  71  94 121 154 190 228 276
#
# _framework density 17.778227999999999
#
# number of rings (size 3 to 8) (size 9 to 14) (size 15 to 20)
#    0.000    3.182    0.000    3.000    0.000    4.000 
#    0.000    3.636    2.000    0.000    0.000    0.000 
#    0.000    0.727    0.000    9.091    0.000   10.545 
#
# Total GULP energy -545160.455299 kJ/mol
# GULP energy per Si atom -12390.010348 kJ/mol
# Density = 1.773776 g / cm^3
# Si number density = 17.778228 Si / 1000 Ang^3
#
#
#
# Elastic Constant Matrix: (Units=GPa)
#
#
# Indices 1 2 3 4 5 6 
#
# 1 78.2918 47.1669 24.7270 0.0000 0.0000 0.0000
# 2 47.1669 122.3494 54.2022 0.0000 0.0000 0.0000
# 3 24.7270 54.2022 69.9906 0.0000 0.0000 0.0000
# 4 0.0000 0.0000 0.0000 12.0809 0.0000 0.0000
# 5 0.0000 0.0000 0.0000 0.0000 14.2740 0.0000
# 6 0.0000 0.0000 0.0000 0.0000 0.0000 8.8266
#
#
#
# Elastic Compliance Matrix: (Units=1/GPa)
#
#
# Indices 1 2 3 4 5 6 
#
# 1 0.016725 -0.005830 -0.001394 0.000000 0.000000 0.000000
# 2 -0.005830 0.014474 -0.009149 0.000000 0.000000 0.000000
# 3 -0.001394 -0.009149 0.021866 0.000000 0.000000 0.000000
# 4 0.000000 0.000000 0.000000 0.082775 0.000000 0.000000
# 5 0.000000 0.000000 0.000000 0.000000 0.070058 0.000000
# 6 0.000000 0.000000 0.000000 0.000000 0.000000 0.113294
#
#
# Mechanical properties :
#
#
# Convention : Reuss Voigt Hill
#
# Bulk Modulus (GPa) = 49.21699 58.09157 53.65428
# Shear Modulus (GPa) = 13.93878 16.67201 15.30539
#
# Velocity S-wave (km/s) = 2.80310 3.06564 2.93730
# Velocity P-wave (km/s) = 6.18227 6.72885 6.46134
#
# Compressibility (1/GPa) = 0.02031819
#
# Stress axis : x y z
#
# Youngs Moduli (GPa) = 59.78920 69.08821 45.73413
#
# Poissons Ratio (x) = 0.40281 0.06374
# Poissons Ratio (y) = 0.34859 0.41844
# Poissons Ratio (z) = 0.08333 0.63211
#
# Static dielectric constant tensor:
#      x y z
#    x 3.234460 0.000000 0.000000 
#    y 0.000000 3.406440 0.000000 
#    z 0.000000 0.000000 3.267050 
# 
# 
# High freq. dielectric constant tensor:
#      x y z
#    x 1.654490 0.000000 0.000000 
#    y 0.000000 1.684090 0.000000 
#    z 0.000000 0.000000 1.660030 
# 
# From -- ./inp_files/15271.got.cif
#   From: 2010.03.12/outbox.cif.g09.slc.cpg/sg47_8_cif.got.tgz:15271.got - 2010.04.14 03:12:58.
