data_PCOD8196756
_publ_section_title
;
Structure prediction by ZEFSAII (Michael W. Deem and Ramdas Pophale) SiO2 
 PCOD8196756
Probable space group: P M M M
;
_chemical_formula_sum "Si O2"
_cell_formula_units_Z 60
_cell_length_a 9.277177
_cell_length_b 19.444772
_cell_length_c 19.695685
_cell_angle_alpha 90.000000
_cell_angle_beta 90.000000
_cell_angle_gamma 90.000000
_cell_volume 3552.955660
_symmetry_space_group_name_H-M "P M M M"
_symmetry_group_IT_number 47
_symmetry_cell_setting 'orthorhombic'
loop_
_space_group_symop_operation_xyz
x,y,z
-x,-y,z
x,-y,-z
-x,y,-z
-x,-y,-z
x,y,-z
-x,y,z
x,-y,z
loop_
_atom_site_type_symbol
_atom_site_label
_atom_site_fract_x
_atom_site_fract_y
_atom_site_fract_z
Si Si1 0.830677 0.370338 0.620886
Si Si2 0.331115 0.181777 0.076807
Si Si3 0.169517 0.819440 0.716484
Si Si4 0.334740 0.422094 0.749809
Si Si5 0.830922 0.078463 0.832406
Si Si6 0.345830 0.423378 0.500000
Si Si7 0.168344 0.782318 0.425120
Si Si8 0.665032 0.282322 0.192257
O O1 0.771882 0.396673 0.692101
O O2 0.751912 0.414013 0.564994
O O3 0.791643 0.292034 0.603852
O O4 0.000000 0.383932 0.618572
O O5 0.500000 0.166275 0.080178
O O6 0.250482 0.115195 0.106026
O O7 0.288854 0.249847 0.119843
O O8 0.279486 0.194671 0.000000
O O9 0.210159 0.886380 0.760478
O O10 0.217797 0.832422 0.637269
O O11 0.243193 0.751488 0.747240
O O12 0.000000 0.803613 0.718324
O O13 0.500000 0.420155 0.723665
O O14 0.296013 0.500000 0.774402
O O15 0.313896 0.365454 0.810105
O O16 0.000000 0.084310 0.846665
O O17 0.779216 0.000000 0.828510
O O18 0.397734 0.500000 0.500000
O O19 0.500000 0.380970 0.500000
O O20 0.241690 0.796277 0.500000
O O21 0.000000 0.789434 0.437107
O O22 0.500000 0.263254 0.207732
#
# Coordination Sequence:
#
# PCOD8196756 Si02
#       8
#     8   8   8   8   8   4   8   8
#     4  11  20  31  46  64  85 112 150 195 239 285
#     4   9  18  32  50  73  99 126 156 189 225 266
#     4   9  16  29  49  67  88 120 155 191 229 270
#     4  10  20  32  45  63  89 119 150 189 239 287
#     4   9  18  31  48  73 102 129 155 183 219 267
#     4  11  23  35  43  55  83 121 154 185 234 296
#     4   9  16  27  44  65  86 110 145 191 236 271
#     4   9  17  30  48  67  89 119 155 193 230 273
#
# _framework density 16.887347999999999
#
# number of rings (size 3 to 8) (size 9 to 14) (size 15 to 20)
#    0.000    2.467    2.000    1.000    0.000    3.200 
#    0.000    1.333    0.000    0.800    0.000    5.600 
#    0.000    0.000    0.000   14.533    0.000   15.200 
#
# Total GULP energy -743330.352520 kJ/mol
# GULP energy per Si atom -12388.839209 kJ/mol
# Density = 1.684891 g / cm^3
# Si number density = 16.887348 Si / 1000 Ang^3
#
#
#
# Elastic Constant Matrix: (Units=GPa)
#
#
# Indices 1 2 3 4 5 6 
#
# 1 42.2119 30.1074 30.5545 0.0000 0.0000 0.0000
# 2 30.1074 104.2717 69.0535 0.0000 0.0000 0.0000
# 3 30.5545 69.0535 140.1603 0.0000 0.0000 0.0000
# 4 0.0000 0.0000 0.0000 21.6664 0.0000 0.0000
# 5 0.0000 0.0000 0.0000 0.0000 20.4278 0.0000
# 6 0.0000 0.0000 0.0000 0.0000 0.0000 19.0555
#
#
#
# Elastic Compliance Matrix: (Units=1/GPa)
#
#
# Indices 1 2 3 4 5 6 
#
# 1 0.030936 -0.006629 -0.003478 0.000000 0.000000 0.000000
# 2 -0.006629 0.015655 -0.006268 0.000000 0.000000 0.000000
# 3 -0.003478 -0.006268 0.010981 0.000000 0.000000 0.000000
# 4 0.000000 0.000000 0.000000 0.046154 0.000000 0.000000
# 5 0.000000 0.000000 0.000000 0.000000 0.048953 0.000000
# 6 0.000000 0.000000 0.000000 0.000000 0.000000 0.052478
#
#
# Mechanical properties :
#
#
# Convention : Reuss Voigt Hill
#
# Bulk Modulus (GPa) = 40.28671 60.67497 50.48084
# Shear Modulus (GPa) = 20.31025 22.69184 21.50104
#
# Velocity S-wave (km/s) = 3.47174 3.66965 3.57207
# Velocity P-wave (km/s) = 6.32286 7.34591 6.85350
#
# Compressibility (1/GPa) = 0.02482208
#
# Stress axis : x y z
#
# Youngs Moduli (GPa) = 32.32518 63.87617 91.06762
#
# Poissons Ratio (x) = 0.42345 0.31672
# Poissons Ratio (y) = 0.21429 0.57080
# Poissons Ratio (z) = 0.11242 0.40037
#
# Static dielectric constant tensor:
#      x y z
#    x 3.095190 0.000000 0.000000 
#    y 0.000000 3.221100 0.000000 
#    z 0.000000 0.000000 3.247600 
# 
# 
# High freq. dielectric constant tensor:
#      x y z
#    x 1.643180 0.000000 0.000000 
#    y 0.000000 1.634030 0.000000 
#    z 0.000000 0.000000 1.644250 
# 
# From -- ./inp_files/11615.got.cif
#   From: 2010.03.12/outbox.cif.g09.slc.cpg/sg47_6_cif.got.tgz:11615.got - 2010.04.14 03:12:58.
