data_PCOD8196861
_publ_section_title
;
Structure prediction by ZEFSAII (Michael W. Deem and Ramdas Pophale) SiO2 
 PCOD8196861
Probable space group: P M M M
;
_chemical_formula_sum "Si O2"
_cell_formula_units_Z 52
_cell_length_a 8.847444
_cell_length_b 11.843613
_cell_length_c 28.457869
_cell_angle_alpha 90.000000
_cell_angle_beta 90.000000
_cell_angle_gamma 90.000000
_cell_volume 2981.977803
_symmetry_space_group_name_H-M "P M M M"
_symmetry_group_IT_number 47
_symmetry_cell_setting 'orthorhombic'
loop_
_space_group_symop_operation_xyz
x,y,z
-x,-y,z
x,-y,-z
-x,y,-z
-x,-y,-z
x,y,-z
-x,y,z
x,-y,z
loop_
_atom_site_type_symbol
_atom_site_label
_atom_site_fract_x
_atom_site_fract_y
_atom_site_fract_z
Si Si1 0.675221 0.719837 0.946787
Si Si2 0.330841 0.865524 0.399629
Si Si3 0.174451 0.132356 0.694052
Si Si4 0.820488 0.500000 0.198841
Si Si5 0.320321 0.123775 0.500000
Si Si6 0.177957 0.500000 0.908022
Si Si7 0.320920 0.125367 0.863351
Si Si8 0.678716 0.270050 0.224429
O O1 0.500000 0.691892 0.938034
O O2 0.767619 0.608020 0.936335
O O3 0.730422 0.819895 0.912625
O O4 0.705230 0.759763 0.000000
O O5 0.500000 0.822006 0.387575
O O6 0.217416 0.827541 0.358538
O O7 0.274418 0.814955 0.450538
O O8 0.333454 0.000000 0.404459
O O9 0.278945 0.200550 0.729530
O O10 0.000000 0.160446 0.703272
O O11 0.208929 0.000000 0.700720
O O12 0.758692 0.500000 0.145238
O O13 0.758389 0.391037 0.225862
O O14 0.000000 0.500000 0.200934
O O15 0.500000 0.111638 0.500000
O O16 0.244477 0.000000 0.500000
O O17 0.000000 0.500000 0.906753
O O18 0.500000 0.117005 0.860248
O O19 0.259348 0.201463 0.820737
O O20 0.249748 0.000000 0.859955
O O21 0.500000 0.287259 0.222111
#
# Coordination Sequence:
#
# PCOD8196861 Si02
#       8
#     8   8   8   4   4   4   8   8
#     4  10  20  34  54  78 103 130 162 202 244 287
#     4   8  13  23  40  62  90 128 173 214 251 293
#     4  10  20  32  46  69 104 140 171 207 252 300
#     4  11  23  38  56  77 100 125 157 200 255 308
#     4   7  10  18  35  59  87 122 167 216 255 287
#     4  11  22  36  55  76 102 130 159 197 243 296
#     4   9  18  32  51  76 102 127 159 199 241 287
#     4  11  21  35  56  76  97 127 166 209 250 296
#
# _framework density 17.438092000000001
#
# number of rings (size 3 to 8) (size 9 to 14) (size 15 to 20)
#    0.000    2.385    1.538    3.000    0.000    3.692 
#    0.000    1.923    0.000    3.692    0.000    1.077 
#    0.000    0.615    0.000    6.615    0.000    4.769 
#
# Total GULP energy -644609.548298 kJ/mol
# GULP energy per Si atom -12396.337467 kJ/mol
# Density = 1.739840 g / cm^3
# Si number density = 17.438092 Si / 1000 Ang^3
#
#
#
# Elastic Constant Matrix: (Units=GPa)
#
#
# Indices 1 2 3 4 5 6 
#
# 1 47.9072 24.9767 28.6623 0.0000 0.0000 0.0000
# 2 24.9767 93.3018 43.8357 0.0000 0.0000 0.0000
# 3 28.6623 43.8357 134.1119 0.0000 0.0000 0.0000
# 4 0.0000 0.0000 0.0000 13.5073 0.0000 0.0000
# 5 0.0000 0.0000 0.0000 0.0000 20.2718 0.0000
# 6 0.0000 0.0000 0.0000 0.0000 0.0000 13.3850
#
#
#
# Elastic Compliance Matrix: (Units=1/GPa)
#
#
# Indices 1 2 3 4 5 6 
#
# 1 0.025842 -0.005107 -0.003854 0.000000 0.000000 0.000000
# 2 -0.005107 0.013672 -0.003377 0.000000 0.000000 0.000000
# 3 -0.003854 -0.003377 0.009384 0.000000 0.000000 0.000000
# 4 0.000000 0.000000 0.000000 0.074034 0.000000 0.000000
# 5 0.000000 0.000000 0.000000 0.000000 0.049330 0.000000
# 6 0.000000 0.000000 0.000000 0.000000 0.000000 0.074711
#
#
# Mechanical properties :
#
#
# Convention : Reuss Voigt Hill
#
# Bulk Modulus (GPa) = 41.28568 52.25226 46.76897
# Shear Modulus (GPa) = 17.87490 21.28925 19.58208
#
# Velocity S-wave (km/s) = 3.20511 3.49785 3.35468
# Velocity P-wave (km/s) = 6.11751 6.80755 6.47174
#
# Compressibility (1/GPa) = 0.02422147
#
# Stress axis : x y z
#
# Youngs Moduli (GPa) = 38.69678 73.14302 106.56540
#
# Poissons Ratio (x) = 0.37357 0.41065
# Poissons Ratio (y) = 0.19764 0.35990
# Poissons Ratio (z) = 0.14912 0.24702
#
# Static dielectric constant tensor:
#      x y z
#    x 3.024220 0.000000 0.000000 
#    y 0.000000 3.550260 0.000000 
#    z 0.000000 0.000000 3.594100 
# 
# 
# High freq. dielectric constant tensor:
#      x y z
#    x 1.654800 0.000000 0.000000 
#    y 0.000000 1.635890 0.000000 
#    z 0.000000 0.000000 1.688490 
# 
# From -- ./inp_files/34351.got.cif
#   From: 2010.03.12/outbox.cif.g09.slc.cpg/sg47_18_cif.got.tgz:34351.got - 2010.04.14 03:12:58.
