data_PCOD8196247
_publ_section_title
;
Structure prediction by ZEFSAII (Michael W. Deem and Ramdas Pophale) SiO2 
 PCOD8196247
Probable space group: P M M M
;
_chemical_formula_sum "Si O2"
_cell_formula_units_Z 48
_cell_length_a 15.033340
_cell_length_b 19.043082
_cell_length_c 9.044463
_cell_angle_alpha 90.000000
_cell_angle_beta 90.000000
_cell_angle_gamma 90.000000
_cell_volume 2589.259055
_symmetry_space_group_name_H-M "P M M M"
_symmetry_group_IT_number 47
_symmetry_cell_setting 'orthorhombic'
loop_
_space_group_symop_operation_xyz
x,y,z
-x,-y,z
x,-y,-z
-x,y,-z
-x,-y,-z
x,y,-z
-x,y,z
x,-y,z
loop_
_atom_site_type_symbol
_atom_site_label
_atom_site_fract_x
_atom_site_fract_y
_atom_site_fract_z
Si Si1 0.346549 0.319367 0.170776
Si Si2 0.500000 0.421688 0.175156
Si Si3 0.000000 0.419552 0.673847
Si Si4 0.098631 0.174375 0.824467
Si Si5 0.855856 0.329753 0.170369
Si Si6 0.260200 0.918771 0.174125
Si Si7 0.397309 0.822540 0.674160
O O1 0.412863 0.379689 0.229235
O O2 0.247410 0.348576 0.190764
O O3 0.358095 0.249726 0.265395
O O4 0.366027 0.300265 0.000000
O O5 0.500000 0.500000 0.245199
O O6 0.500000 0.427991 0.000000
O O7 0.911048 0.385116 0.736595
O O8 0.000000 0.500000 0.722973
O O9 0.000000 0.410166 0.500000
O O10 0.124685 0.251795 0.768290
O O11 0.170912 0.118942 0.764693
O O12 0.000000 0.154426 0.765244
O O13 0.099615 0.173048 0.000000
O O14 0.885272 0.335079 0.000000
O O15 0.346340 0.887955 0.254445
O O16 0.252033 0.000000 0.214683
O O17 0.271406 0.906181 0.000000
O O18 0.383525 0.824138 0.500000
O O19 0.500000 0.829510 0.719019
#
# Coordination Sequence:
#
# PCOD8196247 Si02
#       7
#     8   4   4   8   8   8   8
#     4  10  19  34  60  87 113 146 186 236 284 334
#     4   9  18  32  53  85 118 145 178 227 287 340
#     4  11  25  41  55  79 118 157 192 236 286 336
#     4   9  16  30  55  85 113 139 176 225 275 330
#     4  10  19  34  59  87 110 143 191 239 283 333
#     4  10  21  37  58  85 115 146 184 233 286 337
#     4  11  23  37  56  82 113 151 193 234 279 337
#
# _framework density 18.538122000000001
#
# number of rings (size 3 to 8) (size 9 to 14) (size 15 to 20)
#    0.000    2.000    3.333    0.750    0.000    4.000 
#    0.000    5.000    0.000    1.000    0.000    1.167 
#    0.000    0.000    0.000    0.000    0.000    0.000 
#
# Total GULP energy -595290.856137 kJ/mol
# GULP energy per Si atom -12401.892836 kJ/mol
# Density = 1.849593 g / cm^3
# Si number density = 18.538122 Si / 1000 Ang^3
#
#
#
# Elastic Constant Matrix: (Units=GPa)
#
#
# Indices 1 2 3 4 5 6 
#
# 1 137.5070 67.2574 34.3197 0.0000 0.0000 0.0000
# 2 67.2574 142.9800 42.8497 0.0000 0.0000 0.0000
# 3 34.3197 42.8497 40.8358 0.0000 0.0000 0.0000
# 4 0.0000 0.0000 0.0000 16.8669 0.0000 0.0000
# 5 0.0000 0.0000 0.0000 0.0000 16.7620 0.0000
# 6 0.0000 0.0000 0.0000 0.0000 0.0000 35.4376
#
#
#
# Elastic Compliance Matrix: (Units=1/GPa)
#
#
# Indices 1 2 3 4 5 6 
#
# 1 0.010131 -0.003230 -0.005126 0.000000 0.000000 0.000000
# 2 -0.003230 0.011232 -0.009071 0.000000 0.000000 0.000000
# 3 -0.005126 -0.009071 0.038315 0.000000 0.000000 0.000000
# 4 0.000000 0.000000 0.000000 0.059288 0.000000 0.000000
# 5 0.000000 0.000000 0.000000 0.000000 0.059659 0.000000
# 6 0.000000 0.000000 0.000000 0.000000 0.000000 0.028219
#
#
# Mechanical properties :
#
#
# Convention : Reuss Voigt Hill
#
# Bulk Modulus (GPa) = 40.28290 67.79736 54.04013
# Shear Modulus (GPa) = 20.00223 25.60636 22.80430
#
# Velocity S-wave (km/s) = 3.28834 3.72059 3.51113
# Velocity P-wave (km/s) = 6.01619 7.42350 6.75658
#
# Compressibility (1/GPa) = 0.02482443
#
# Stress axis : x y z
#
# Youngs Moduli (GPa) = 98.70355 89.03287 26.09939
#
# Poissons Ratio (x) = 0.28754 0.13378
# Poissons Ratio (y) = 0.31877 0.23676
# Poissons Ratio (z) = 0.50594 0.80766
#
# Static dielectric constant tensor:
#      x y z
#    x 3.734190 0.000000 0.000000 
#    y 0.000000 3.456810 0.000000 
#    z 0.000000 0.000000 3.111260 
# 
# 
# High freq. dielectric constant tensor:
#      x y z
#    x 1.738800 0.000000 0.000000 
#    y 0.000000 1.718030 0.000000 
#    z 0.000000 0.000000 1.684580 
# 
# From -- ./inp_files/6483.got.cif
#   From: 2010.03.12/outbox.cif.g09.slc.cpg/sg47_4_cif.got.tgz:6483.got - 2010.04.14 03:12:58.
