data_PCOD8196640
_publ_section_title
;
Structure prediction by ZEFSAII (Michael W. Deem and Ramdas Pophale) SiO2 
 PCOD8196640
Probable space group: P M M M
;
_chemical_formula_sum "Si O2"
_cell_formula_units_Z 44
_cell_length_a 28.633748
_cell_length_b 9.420705
_cell_length_c 9.050941
_cell_angle_alpha 90.000000
_cell_angle_beta 90.000000
_cell_angle_gamma 90.000000
_cell_volume 2441.492176
_symmetry_space_group_name_H-M "P M M M"
_symmetry_group_IT_number 47
_symmetry_cell_setting 'orthorhombic'
loop_
_space_group_symop_operation_xyz
x,y,z
-x,-y,z
x,-y,-z
-x,y,-z
-x,-y,-z
x,y,-z
-x,y,z
x,-y,z
loop_
_atom_site_type_symbol
_atom_site_label
_atom_site_fract_x
_atom_site_fract_y
_atom_site_fract_z
Si Si1 0.946254 0.662141 0.670662
Si Si2 0.500000 0.833508 0.327389
Si Si3 0.217564 0.659680 0.823027
Si Si4 0.682535 0.667817 0.161181
Si Si5 0.131078 0.839561 0.175275
Si Si6 0.581173 0.663041 0.823723
O O1 0.933750 0.685562 0.500000
O O2 0.936271 0.500000 0.716722
O O3 0.915576 0.765140 0.769410
O O4 0.000000 0.700496 0.700653
O O5 0.500000 0.799247 0.500000
O O6 0.454315 0.767084 0.254929
O O7 0.500000 0.000000 0.294870
O O8 0.206337 0.500000 0.768777
O O9 0.268509 0.712517 0.759112
O O10 0.177038 0.761163 0.761083
O O11 0.219974 0.663712 0.000000
O O12 0.684549 0.500000 0.140509
O O13 0.633109 0.705506 0.239232
O O14 0.681447 0.740514 0.000000
O O15 0.131990 0.000000 0.234072
O O16 0.130938 0.833351 0.000000
O O17 0.569155 0.500000 0.783284
O O18 0.578836 0.682861 0.000000
#
# Coordination Sequence:
#
# PCOD8196640 Si02
#       6
#     8   4   8   8   8   8
#     4   9  19  36  55  72  90 117 158 205 247 286
#     4  11  24  37  46  62  94 133 166 195 232 280
#     4   8  13  24  44  68  95 127 158 188 227 274
#     4   7  11  22  43  71  97 118 146 189 236 277
#     4  10  20  31  45  71 105 134 159 190 229 276
#     4   9  17  31  53  78  98 117 150 198 244 283
#
# _framework density 18.021767000000001
#
# number of rings (size 3 to 8) (size 9 to 14) (size 15 to 20)
#    0.000    3.182    0.000    3.818    0.000    4.364 
#    0.000    3.636    0.000    4.364    0.000    2.545 
#    0.000    0.000    0.000    0.000    0.000    0.000 
#
# Total GULP energy -545108.300669 kJ/mol
# GULP energy per Si atom -12388.825015 kJ/mol
# Density = 1.798075 g / cm^3
# Si number density = 18.021767 Si / 1000 Ang^3
#
#
#
# Elastic Constant Matrix: (Units=GPa)
#
#
# Indices 1 2 3 4 5 6 
#
# 1 159.2061 77.2346 29.7991 0.0000 0.0000 0.0000
# 2 77.2346 101.0263 27.5510 0.0000 0.0000 0.0000
# 3 29.7991 27.5510 23.6504 0.0000 0.0000 0.0000
# 4 0.0000 0.0000 0.0000 20.1274 0.0000 0.0000
# 5 0.0000 0.0000 0.0000 0.0000 -4.4196 0.0000
# 6 0.0000 0.0000 0.0000 0.0000 0.0000 2.8425
#
#
#
# Elastic Compliance Matrix: (Units=1/GPa)
#
#
# Indices 1 2 3 4 5 6 
#
# 1 0.010479 -0.006464 -0.005673 0.000000 0.000000 0.000000
# 2 -0.006464 0.018494 -0.013400 0.000000 0.000000 0.000000
# 3 -0.005673 -0.013400 0.065041 0.000000 0.000000 0.000000
# 4 0.000000 0.000000 0.000000 0.049683 0.000000 0.000000
# 5 0.000000 0.000000 0.000000 0.000000 -0.226266 0.000000
# 6 0.000000 0.000000 0.000000 0.000000 0.000000 0.351803
#
#
# Mechanical properties :
#
#
# Convention : Reuss Voigt Hill
#
# Bulk Modulus (GPa) = 23.28857 61.45024 42.36940
# Shear Modulus (GPa) = 14.94220 13.66328 14.30274
#
# Velocity S-wave (km/s) = 2.88257 2.75645 2.82021
# Velocity P-wave (km/s) = 4.90198 6.65601 5.84517
#
# Compressibility (1/GPa) = 0.04293952
#
# Stress axis : x y z
#
# Youngs Moduli (GPa) = 95.43043 54.07014 15.37496
#
# Poissons Ratio (x) = 0.34951 0.08722
# Poissons Ratio (y) = 0.61686 0.20603
# Poissons Ratio (z) = 0.54139 0.72455
#
# Static dielectric constant tensor:
#      x y z
#    x 3.839740 0.000000 0.000000 
#    y 0.000000 3.203840 0.000000 
#    z 0.000000 0.000000 2.846750 
# 
# 
# High freq. dielectric constant tensor:
#      x y z
#    x 1.725630 0.000000 0.000000 
#    y 0.000000 1.674830 0.000000 
#    z 0.000000 0.000000 1.645150 
# 
# From -- ./inp_files/2304.got.cif
#   From: 2010.03.12/outbox.cif.g09.slc.cpg/sg47_2_cif.got.tgz:2304.got - 2010.04.14 03:12:58.
