data_PCOD8196014
_publ_section_title
;
Structure prediction by ZEFSAII (Michael W. Deem and Ramdas Pophale) SiO2 
 PCOD8196014
Probable space group: P M M M
;
_chemical_formula_sum "Si O2"
_cell_formula_units_Z 36
_cell_length_a 24.459228
_cell_length_b 9.431365
_cell_length_c 8.054297
_cell_angle_alpha 90.000000
_cell_angle_beta 90.000000
_cell_angle_gamma 90.000000
_cell_volume 1857.996699
_symmetry_space_group_name_H-M "P M M M"
_symmetry_group_IT_number 47
_symmetry_cell_setting 'orthorhombic'
loop_
_space_group_symop_operation_xyz
x,y,z
-x,-y,z
x,-y,-z
-x,y,-z
-x,-y,-z
x,y,-z
-x,y,z
x,-y,z
loop_
_atom_site_type_symbol
_atom_site_label
_atom_site_fract_x
_atom_site_fract_y
_atom_site_fract_z
Si Si1 0.757408 0.658800 0.689551
Si Si2 0.340155 0.839726 0.189819
Si Si3 0.437712 0.661524 0.694011
Si Si4 0.937979 0.669205 0.500000
Si Si5 0.871631 0.331431 0.183753
O O1 0.776818 0.654905 0.500000
O O2 0.741305 0.500000 0.749245
O O3 0.705136 0.758515 0.704599
O O4 0.808848 0.718742 0.793217
O O5 0.398924 0.766176 0.205462
O O6 0.344749 0.000000 0.256635
O O7 0.321546 0.836681 0.000000
O O8 0.426170 0.679808 0.500000
O O9 0.500000 0.702004 0.736826
O O10 0.425798 0.500000 0.747932
O O11 0.935429 0.500000 0.500000
O O12 0.909467 0.730161 0.668002
O O13 0.000000 0.724195 0.500000
O O14 0.873319 0.500000 0.194492
O O15 0.891715 0.280458 0.000000
#
# Coordination Sequence:
#
# PCOD8196014 Si02
#       5
#     8   8   8   4   8
#     4  10  19  33  54  76  99 131 175 223 266 315
#     4  11  24  37  49  73 108 139 170 212 262 317
#     4   9  19  37  59  80 101 129 170 216 259 310
#     4   9  16  26  40  64 101 139 176 217 260 313
#     4   9  16  27  44  67  97 134 175 218 265 315
#
# _framework density 19.375706000000001
#
# number of rings (size 3 to 8) (size 9 to 14) (size 15 to 20)
#    0.000    2.333    1.111    2.667    0.000    7.556 
#    0.000    5.556    0.000    0.000    0.000    0.000 
#    0.000    1.778    0.000    4.667    0.000    4.444 
#
# Total GULP energy -446345.938593 kJ/mol
# GULP energy per Si atom -12398.498294 kJ/mol
# Density = 1.933161 g / cm^3
# Si number density = 19.375706 Si / 1000 Ang^3
#
#
#
# Elastic Constant Matrix: (Units=GPa)
#
#
# Indices 1 2 3 4 5 6 
#
# 1 126.5187 45.9983 51.5429 0.0000 0.0000 0.0000
# 2 45.9983 71.4865 22.8270 0.0000 0.0000 0.0000
# 3 51.5429 22.8270 103.7866 0.0000 0.0000 0.0000
# 4 0.0000 0.0000 0.0000 17.4749 0.0000 0.0000
# 5 0.0000 0.0000 0.0000 0.0000 25.9109 0.0000
# 6 0.0000 0.0000 0.0000 0.0000 0.0000 0.2881
#
#
#
# Elastic Compliance Matrix: (Units=1/GPa)
#
#
# Indices 1 2 3 4 5 6 
#
# 1 0.012071 -0.006295 -0.004610 0.000000 0.000000 0.000000
# 2 -0.006295 0.018328 -0.000905 0.000000 0.000000 0.000000
# 3 -0.004610 -0.000905 0.012124 0.000000 0.000000 0.000000
# 4 0.000000 0.000000 0.000000 0.057225 0.000000 0.000000
# 5 0.000000 0.000000 0.000000 0.000000 0.038594 0.000000
# 6 0.000000 0.000000 0.000000 0.000000 0.000000 3.470887
#
#
# Mechanical properties :
#
#
# Convention : Reuss Voigt Hill
#
# Bulk Modulus (GPa) = 52.90255 60.28091 56.59173
# Shear Modulus (GPa) = 1.37395 20.82970 11.10183
#
# Velocity S-wave (km/s) = 0.84300 3.28234 2.39629
# Velocity P-wave (km/s) = 5.32075 6.74864 6.07678
#
# Compressibility (1/GPa) = 0.01890268
#
# Stress axis : x y z
#
# Youngs Moduli (GPa) = 82.84517 54.56109 82.48326
#
# Poissons Ratio (x) = 0.34345 0.38026
# Poissons Ratio (y) = 0.52150 0.07464
# Poissons Ratio (z) = 0.38192 0.04937
#
# Static dielectric constant tensor:
#      x y z
#    x 3.498000 0.000000 0.000000 
#    y 0.000000 3.134910 0.000000 
#    z 0.000000 0.000000 3.637220 
# 
# 
# High freq. dielectric constant tensor:
#      x y z
#    x 1.755420 0.000000 0.000000 
#    y 0.000000 1.700860 0.000000 
#    z 0.000000 0.000000 1.763070 
# 
# From -- ./inp_files/12064.got.cif
#   From: 2010.03.12/outbox.cif.g09.slc.cpg/sg47_7_cif.got.tgz:12064.got - 2010.04.14 03:12:58.
