data_PCOD8196855
_publ_section_title
;
Structure prediction by ZEFSAII (Michael W. Deem and Ramdas Pophale) SiO2 
 PCOD8196855
Probable space group: P M M M
;
_chemical_formula_sum "Si O2"
_cell_formula_units_Z 44
_cell_length_a 9.761608
_cell_length_b 8.280507
_cell_length_c 30.039806
_cell_angle_alpha 90.000000
_cell_angle_beta 90.000000
_cell_angle_gamma 90.000000
_cell_volume 2428.149463
_symmetry_space_group_name_H-M "P M M M"
_symmetry_group_IT_number 47
_symmetry_cell_setting 'orthorhombic'
loop_
_space_group_symop_operation_xyz
x,y,z
-x,-y,z
x,-y,-z
-x,y,-z
-x,-y,-z
x,y,-z
-x,y,z
x,-y,z
loop_
_atom_site_type_symbol
_atom_site_label
_atom_site_fract_x
_atom_site_fract_y
_atom_site_fract_z
Si Si1 0.653069 0.313457 0.125519
Si Si2 0.662832 0.500000 0.449181
Si Si3 0.843956 0.811824 0.050745
Si Si4 0.663120 0.180486 0.601723
Si Si5 0.661810 0.318347 0.307187
Si Si6 0.657496 0.186377 0.783379
O O1 0.500000 0.242590 0.116650
O O2 0.643763 0.500000 0.136138
O O3 0.744415 0.286947 0.082311
O O4 0.724450 0.232187 0.169051
O O5 0.500000 0.500000 0.444622
O O6 0.711766 0.500000 0.500000
O O7 0.720247 0.667741 0.427370
O O8 0.000000 0.760101 0.060294
O O9 0.824169 0.000000 0.060128
O O10 0.805085 0.770158 0.000000
O O11 0.500000 0.185577 0.599440
O O12 0.714331 0.204988 0.652646
O O13 0.713335 0.000000 0.585796
O O14 0.500000 0.296111 0.302586
O O15 0.701945 0.500000 0.319915
O O16 0.727989 0.273050 0.259264
O O17 0.500000 0.241426 0.787276
O O18 0.674237 0.000000 0.773881
#
# Coordination Sequence:
#
# PCOD8196855 Si02
#       6
#     8   4   8   8   8   8
#     4  10  20  32  46  68  97 123 147 180 225 274
#     4   9  16  24  30  38  54  76 108 154 204 249
#     4   9  19  36  55  72  90 116 152 190 226 267
#     4   9  15  22  31  42  56  78 111 150 196 251
#     4   9  14  21  33  48  68  92 119 154 197 248
#     4   9  16  25  38  57  80 107 136 165 204 256
#
# _framework density 18.120795999999999
#
# number of rings (size 3 to 8) (size 9 to 14) (size 15 to 20)
#    0.000    2.818    0.909    2.182    0.000    6.909 
#    0.000    4.545    0.000    0.000    0.000    0.000 
#    0.000    0.000    0.000    0.000    0.000    0.000 
#
# Total GULP energy -545188.586468 kJ/mol
# GULP energy per Si atom -12390.649692 kJ/mol
# Density = 1.807955 g / cm^3
# Si number density = 18.120796 Si / 1000 Ang^3
#
#
#
# Elastic Constant Matrix: (Units=GPa)
#
#
# Indices 1 2 3 4 5 6 
#
# 1 19.9767 13.1021 23.0056 0.0000 0.0000 0.0000
# 2 13.1021 92.3907 57.8911 0.0000 0.0000 0.0000
# 3 23.0056 57.8911 130.7842 0.0000 0.0000 0.0000
# 4 0.0000 0.0000 0.0000 33.9818 0.0000 0.0000
# 5 0.0000 0.0000 0.0000 0.0000 -0.8330 0.0000
# 6 0.0000 0.0000 0.0000 0.0000 0.0000 10.3624
#
#
#
# Elastic Compliance Matrix: (Units=1/GPa)
#
#
# Indices 1 2 3 4 5 6 
#
# 1 0.063282 -0.002766 -0.009907 0.000000 0.000000 0.000000
# 2 -0.002766 0.015099 -0.006197 0.000000 0.000000 0.000000
# 3 -0.009907 -0.006197 0.012132 0.000000 0.000000 0.000000
# 4 0.000000 0.000000 0.000000 0.029427 0.000000 0.000000
# 5 0.000000 0.000000 0.000000 0.000000 -1.200484 0.000000
# 6 0.000000 0.000000 0.000000 0.000000 0.000000 0.096503
#
#
# Mechanical properties :
#
#
# Convention : Reuss Voigt Hill
#
# Bulk Modulus (GPa) = 18.94948 47.90547 33.42747
# Shear Modulus (GPa) = -5.38381 18.64577 6.63098
#
# Velocity S-wave (km/s) = -1.72555 3.21124 1.91501
# Velocity P-wave (km/s) = 2.55147 6.34378 4.83495
#
# Compressibility (1/GPa) = 0.05277191
#
# Stress axis : x y z
#
# Youngs Moduli (GPa) = 15.80231 66.23063 82.42764
#
# Poissons Ratio (x) = 0.18323 0.81661
# Poissons Ratio (y) = 0.04372 0.51078
# Poissons Ratio (z) = 0.15655 0.41042
#
# Static dielectric constant tensor:
#      x y z
#    x 2.612980 0.000000 0.000000 
#    y 0.000000 3.458350 0.000000 
#    z 0.000000 0.000000 3.556070 
# 
# 
# High freq. dielectric constant tensor:
#      x y z
#    x 1.601960 0.000000 0.000000 
#    y 0.000000 1.715530 0.000000 
#    z 0.000000 0.000000 1.717730 
# 
# From -- ./inp_files/2325.got.cif
#   From: 2010.03.12/outbox.cif.g09.slc.cpg/sg47_2_cif.got.tgz:2325.got - 2010.04.14 03:12:58.
