data_PCOD8196866
_publ_section_title
;
Structure prediction by ZEFSAII (Michael W. Deem and Ramdas Pophale) SiO2 
 PCOD8196866
Probable space group: P M M M
;
_chemical_formula_sum "Si O2"
_cell_formula_units_Z 60
_cell_length_a 24.033369
_cell_length_b 18.427432
_cell_length_c 9.179941
_cell_angle_alpha 90.000000
_cell_angle_beta 90.000000
_cell_angle_gamma 90.000000
_cell_volume 4065.550516
_symmetry_space_group_name_H-M "P M M M"
_symmetry_group_IT_number 47
_symmetry_cell_setting 'orthorhombic'
loop_
_space_group_symop_operation_xyz
x,y,z
-x,-y,z
x,-y,-z
-x,y,-z
-x,-y,-z
x,y,-z
-x,y,z
x,-y,z
loop_
_atom_site_type_symbol
_atom_site_label
_atom_site_fract_x
_atom_site_fract_y
_atom_site_fract_z
Si Si1 0.726055 0.173398 0.829374
Si Si2 0.381450 0.081236 0.829946
Si Si3 0.060837 0.913851 0.336039
Si Si4 0.168014 0.917356 0.828134
Si Si5 0.500000 0.585612 0.336119
Si Si6 0.666427 0.295239 0.328135
Si Si7 0.388700 0.415077 0.830108
Si Si8 0.438294 0.799897 0.333055
O O1 0.677802 0.116506 0.792552
O O2 0.782781 0.135545 0.775946
O O3 0.716702 0.247339 0.737867
O O4 0.727567 0.192912 0.000000
O O5 0.431003 0.126070 0.756494
O O6 0.381262 0.000000 0.766794
O O7 0.392866 0.080983 0.000000
O O8 0.071560 0.886471 0.500000
O O9 0.110498 0.884649 0.234832
O O10 0.000000 0.885509 0.281847
O O11 0.060469 0.000000 0.330899
O O12 0.179130 0.000000 0.773059
O O13 0.163382 0.917149 0.000000
O O14 0.500000 0.500000 0.351672
O O15 0.500000 0.620589 0.500000
O O16 0.445503 0.610152 0.248499
O O17 0.675560 0.305891 0.500000
O O18 0.662828 0.372942 0.246635
O O19 0.607732 0.258177 0.286611
O O20 0.377365 0.500000 0.808475
O O21 0.392869 0.394774 0.000000
O O22 0.430316 0.821161 0.500000
O O23 0.500000 0.767646 0.302579
#
# Coordination Sequence:
#
# PCOD8196866 Si02
#       8
#     8   8   8   8   4   8   8   8
#     4   9  17  30  44  58  80 106 133 167 209 249
#     4   9  17  29  44  59  74  94 123 161 201 241
#     4   8  14  24  36  52  78 110 140 172 212 252
#     4   9  16  25  40  61  81 106 142 181 218 252
#     4   9  17  29  45  65  87 107 126 151 184 225
#     4  10  20  32  47  63  80 104 133 164 199 241
#     4  10  20  33  48  67  88 107 129 157 193 240
#     4   9  19  33  44  56  75  98 123 153 194 242
#
# _framework density 14.758148
#
# number of rings (size 3 to 8) (size 9 to 14) (size 15 to 20)
#    0.000    2.867    0.000    1.800    0.933    5.333 
#    0.000    2.667    0.000    2.400    0.000    0.000 
#    0.000    0.000    0.000    0.000    0.000    0.667 
#
# Total GULP energy -743793.283052 kJ/mol
# GULP energy per Si atom -12396.554718 kJ/mol
# Density = 1.472456 g / cm^3
# Si number density = 14.758148 Si / 1000 Ang^3
#
#
#
# Elastic Constant Matrix: (Units=GPa)
#
#
# Indices 1 2 3 4 5 6 
#
# 1 87.1784 27.2863 31.9123 0.0000 0.0000 0.0000
# 2 27.2863 55.0887 32.1131 0.0000 0.0000 0.0000
# 3 31.9123 32.1131 59.4509 0.0000 0.0000 0.0000
# 4 0.0000 0.0000 0.0000 20.0692 0.0000 0.0000
# 5 0.0000 0.0000 0.0000 0.0000 23.1620 0.0000
# 6 0.0000 0.0000 0.0000 0.0000 0.0000 12.7720
#
#
#
# Elastic Compliance Matrix: (Units=1/GPa)
#
#
# Indices 1 2 3 4 5 6 
#
# 1 0.014843 -0.003952 -0.005833 0.000000 0.000000 0.000000
# 2 -0.003952 0.027548 -0.012759 0.000000 0.000000 0.000000
# 3 -0.005833 -0.012759 0.026843 0.000000 0.000000 0.000000
# 4 0.000000 0.000000 0.000000 0.049828 0.000000 0.000000
# 5 0.000000 0.000000 0.000000 0.000000 0.043174 0.000000
# 6 0.000000 0.000000 0.000000 0.000000 0.000000 0.078296
#
#
# Mechanical properties :
#
#
# Convention : Reuss Voigt Hill
#
# Bulk Modulus (GPa) = 41.41322 42.70459 42.05891
# Shear Modulus (GPa) = 17.02606 18.56105 17.79356
#
# Velocity S-wave (km/s) = 3.40026 3.55023 3.47605
# Velocity P-wave (km/s) = 6.59832 6.76791 6.68365
#
# Compressibility (1/GPa) = 0.02414688
#
# Stress axis : x y z
#
# Youngs Moduli (GPa) = 67.37308 36.30093 37.25305
#
# Poissons Ratio (x) = 0.14345 0.21729
# Poissons Ratio (y) = 0.26624 0.47531
# Poissons Ratio (z) = 0.39297 0.46316
#
# Static dielectric constant tensor:
#      x y z
#    x 2.912960 0.000000 0.000000 
#    y 0.000000 2.754320 0.000000 
#    z 0.000000 0.000000 2.901040 
# 
# 
# High freq. dielectric constant tensor:
#      x y z
#    x 1.537530 0.000000 0.000000 
#    y 0.000000 1.538430 0.000000 
#    z 0.000000 0.000000 1.570340 
# 
# From -- ./inp_files/12904.got.cif
#   From: 2010.03.12/outbox.cif.g09.slc.cpg/sg47_7_cif.got.tgz:12904.got - 2010.04.14 03:12:58.
