data_PCOD8196960
_publ_section_title
;
Structure prediction by ZEFSAII (Michael W. Deem and Ramdas Pophale) SiO2 
 PCOD8196960
Probable space group: P M M M
;
_chemical_formula_sum "Si O2"
_cell_formula_units_Z 44
_cell_length_a 8.054092
_cell_length_b 9.473434
_cell_length_c 30.222662
_cell_angle_alpha 90.000000
_cell_angle_beta 90.000000
_cell_angle_gamma 90.000000
_cell_volume 2305.986360
_symmetry_space_group_name_H-M "P M M M"
_symmetry_group_IT_number 47
_symmetry_cell_setting 'orthorhombic'
loop_
_space_group_symop_operation_xyz
x,y,z
-x,-y,z
x,-y,-z
-x,y,-z
-x,-y,-z
x,y,-z
-x,y,z
x,-y,z
loop_
_atom_site_type_symbol
_atom_site_label
_atom_site_fract_x
_atom_site_fract_y
_atom_site_fract_z
Si Si1 0.000000 0.168295 0.949858
Si Si2 0.307961 0.344347 0.718132
Si Si3 0.314141 0.168157 0.894767
Si Si4 0.304444 0.156254 0.203916
Si Si5 0.312088 0.832755 0.547756
Si Si6 0.810599 0.160895 0.640086
O O1 0.831043 0.226662 0.926869
O O2 0.000000 0.000000 0.947781
O O3 0.000000 0.223671 0.000000
O O4 0.500000 0.363277 0.728627
O O5 0.224896 0.500000 0.714346
O O6 0.224642 0.258847 0.759013
O O7 0.291844 0.260013 0.672517
O O8 0.500000 0.223573 0.908494
O O9 0.268303 0.217821 0.845044
O O10 0.318555 0.000000 0.895780
O O11 0.500000 0.143256 0.211118
O O12 0.224800 0.000000 0.209374
O O13 0.244171 0.775068 0.500000
O O14 0.500000 0.780418 0.554448
O O15 0.206336 0.779882 0.589819
O O16 0.304488 0.000000 0.546076
O O17 0.000000 0.167329 0.654716
O O18 0.742399 0.000000 0.643318
#
# Coordination Sequence:
#
# PCOD8196960 Si02
#       6
#     4   8   8   8   8   8
#     4   9  16  24  36  60  93 125 157 193 236 289
#     4  10  20  33  50  71  95 125 160 200 247 294
#     4   8  14  25  40  59  86 121 158 196 240 287
#     4   8  14  27  47  67  89 120 157 196 238 285
#     4   8  14  26  46  71  95 119 151 193 237 278
#     4  10  20  32  47  70  99 130 162 193 232 285
#
# _framework density 19.080772
#
# number of rings (size 3 to 8) (size 9 to 14) (size 15 to 20)
#    0.000    3.182    0.000    2.727    0.000    2.909 
#    1.636    3.636    0.000    0.545    0.000    3.818 
#    0.000    1.455    0.000    7.091    0.000    7.273 
#
# Total GULP energy -545147.891457 kJ/mol
# GULP energy per Si atom -12389.724806 kJ/mol
# Density = 1.903734 g / cm^3
# Si number density = 19.080772 Si / 1000 Ang^3
#
#
#
# Elastic Constant Matrix: (Units=GPa)
#
#
# Indices 1 2 3 4 5 6 
#
# 1 62.9862 17.6419 46.2677 0.0000 0.0000 0.0000
# 2 17.6419 62.7565 49.8832 0.0000 0.0000 0.0000
# 3 46.2677 49.8832 164.9034 0.0000 0.0000 0.0000
# 4 0.0000 0.0000 0.0000 2.4733 0.0000 0.0000
# 5 0.0000 0.0000 0.0000 0.0000 18.1276 0.0000
# 6 0.0000 0.0000 0.0000 0.0000 0.0000 7.3574
#
#
#
# Elastic Compliance Matrix: (Units=1/GPa)
#
#
# Indices 1 2 3 4 5 6 
#
# 1 0.020110 -0.001538 -0.005177 0.000000 0.000000 0.000000
# 2 -0.001538 0.021097 -0.005950 0.000000 0.000000 0.000000
# 3 -0.005177 -0.005950 0.009317 0.000000 0.000000 0.000000
# 4 0.000000 0.000000 0.000000 0.404320 0.000000 0.000000
# 5 0.000000 0.000000 0.000000 0.000000 0.055165 0.000000
# 6 0.000000 0.000000 0.000000 0.000000 0.000000 0.135918
#
#
# Mechanical properties :
#
#
# Convention : Reuss Voigt Hill
#
# Bulk Modulus (GPa) = 39.69420 57.58129 48.63775
# Shear Modulus (GPa) = 7.35668 17.38186 12.36927
#
# Velocity S-wave (km/s) = 1.96568 3.02149 2.54885
# Velocity P-wave (km/s) = 5.09905 6.51273 5.84876
#
# Compressibility (1/GPa) = 0.02519260
#
# Stress axis : x y z
#
# Youngs Moduli (GPa) = 49.72578 47.40101 107.33486
#
# Poissons Ratio (x) = 0.07291 0.55569
# Poissons Ratio (y) = 0.07649 0.63866
# Poissons Ratio (z) = 0.25744 0.28204
#
# Static dielectric constant tensor:
#      x y z
#    x 3.372910 0.000000 0.000000 
#    y 0.000000 3.192800 0.000000 
#    z 0.000000 0.000000 3.957230 
# 
# 
# High freq. dielectric constant tensor:
#      x y z
#    x 1.722550 0.000000 0.000000 
#    y 0.000000 1.674480 0.000000 
#    z 0.000000 0.000000 1.753850 
# 
# From -- ./inp_files/33901.got.cif
#   From: 2010.03.12/outbox.cif.g09.slc.cpg/sg47_17_cif.got.tgz:33901.got - 2010.04.14 03:12:58.
