data_PCOD8196974
_publ_section_title
;
Structure prediction by ZEFSAII (Michael W. Deem and Ramdas Pophale) SiO2 
 PCOD8196974
Probable space group: P M M M
;
_chemical_formula_sum "Si O2"
_cell_formula_units_Z 40
_cell_length_a 9.200445
_cell_length_b 9.298062
_cell_length_c 25.905750
_cell_angle_alpha 90.000000
_cell_angle_beta 90.000000
_cell_angle_gamma 90.000000
_cell_volume 2216.141269
_symmetry_space_group_name_H-M "P M M M"
_symmetry_group_IT_number 47
_symmetry_cell_setting 'orthorhombic'
loop_
_space_group_symop_operation_xyz
x,y,z
-x,-y,z
x,-y,-z
-x,y,-z
-x,-y,-z
x,y,-z
-x,y,z
x,-y,z
loop_
_atom_site_type_symbol
_atom_site_label
_atom_site_fract_x
_atom_site_fract_y
_atom_site_fract_z
Si Si1 0.828453 0.843386 0.000000
Si Si2 0.672741 0.662532 0.800089
Si Si3 0.327476 0.159106 0.704024
Si Si4 0.668107 0.831707 0.588485
Si Si5 0.829138 0.333443 0.500000
Si Si6 0.166788 0.828753 0.888372
O O1 0.786796 0.767241 0.054415
O O2 0.000000 0.865515 0.000000
O O3 0.753575 0.000000 0.000000
O O4 0.500000 0.667922 0.801441
O O5 0.730830 0.500000 0.803437
O O6 0.732881 0.730379 0.746673
O O7 0.729870 0.753179 0.847854
O O8 0.500000 0.151828 0.705947
O O9 0.281049 0.207859 0.646628
O O10 0.264613 0.000000 0.716167
O O11 0.500000 0.791493 0.579641
O O12 0.765635 0.738646 0.550935
O O13 0.692442 0.000000 0.577546
O O14 0.786072 0.500000 0.500000
O O15 0.000000 0.309573 0.500000
O O16 0.000000 0.789024 0.876124
O O17 0.189152 0.000000 0.886280
#
# Coordination Sequence:
#
# PCOD8196974 Si02
#       6
#     4   8   8   8   4   8
#     4   7  12  26  48  71  92 116 154 205 250 285
#     4  10  20  32  47  71 103 135 163 193 236 290
#     4   8  15  30  52  75  97 123 159 203 245 284
#     4   9  18  34  57  81  99 120 160 209 248 286
#     4  11  24  37  48  70 106 141 168 195 234 286
#     4   9  17  31  52  74  94 121 161 206 248 290
#
# _framework density 18.049391
#
# number of rings (size 3 to 8) (size 9 to 14) (size 15 to 20)
#    0.000    3.000    0.000    3.600    0.000    4.800 
#    0.000    4.000    0.000    6.000    0.000    0.000 
#    0.000    0.000    0.000    0.000    0.000    0.000 
#
# Total GULP energy -495698.826557 kJ/mol
# GULP energy per Si atom -12392.470664 kJ/mol
# Density = 1.800831 g / cm^3
# Si number density = 18.049391 Si / 1000 Ang^3
#
#
#
# Elastic Constant Matrix: (Units=GPa)
#
#
# Indices 1 2 3 4 5 6 
#
# 1 33.0051 31.8339 37.6366 0.0000 0.0000 0.0000
# 2 31.8339 82.9898 71.7813 0.0000 0.0000 0.0000
# 3 37.6366 71.7813 167.9535 0.0000 0.0000 0.0000
# 4 0.0000 0.0000 0.0000 -2.5008 0.0000 0.0000
# 5 0.0000 0.0000 0.0000 0.0000 -52.3503 0.0000
# 6 0.0000 0.0000 0.0000 0.0000 0.0000 22.6056
#
#
#
# Elastic Compliance Matrix: (Units=1/GPa)
#
#
# Indices 1 2 3 4 5 6 
#
# 1 0.050429 -0.015182 -0.004812 0.000000 0.000000 0.000000
# 2 -0.015182 0.023687 -0.006721 0.000000 0.000000 0.000000
# 3 -0.004812 -0.006721 0.009905 0.000000 0.000000 0.000000
# 4 0.000000 0.000000 0.000000 -0.399872 0.000000 0.000000
# 5 0.000000 0.000000 0.000000 0.000000 -0.019102 0.000000
# 6 0.000000 0.000000 0.000000 0.000000 0.000000 0.044237
#
#
# Mechanical properties :
#
#
# Convention : Reuss Voigt Hill
#
# Bulk Modulus (GPa) = 32.69026 62.93911 47.81468
# Shear Modulus (GPa) = -22.01769 3.06400 -9.47685
#
# Velocity S-wave (km/s) = -3.49644 1.30432 -2.29388
# Velocity P-wave (km/s) = 1.36044 6.10037 4.41958
#
# Compressibility (1/GPa) = 0.03059015
#
# Stress axis : x y z
#
# Youngs Moduli (GPa) = 19.83001 42.21757 100.95907
#
# Poissons Ratio (x) = 0.64093 0.48582
# Poissons Ratio (y) = 0.30105 0.67859
# Poissons Ratio (z) = 0.09542 0.28376
#
# Static dielectric constant tensor:
#      x y z
#    x 2.940780 0.000000 0.000000 
#    y 0.000000 3.316900 0.000000 
#    z 0.000000 0.000000 3.734970 
# 
# 
# High freq. dielectric constant tensor:
#      x y z
#    x 1.659510 0.000000 0.000000 
#    y 0.000000 1.683350 0.000000 
#    z 0.000000 0.000000 1.721980 
# 
# From -- ./inp_files/13015.got.cif
#   From: 2010.03.12/outbox.cif.g09.slc.cpg/sg47_7_cif.got.tgz:13015.got - 2010.04.14 03:12:58.
