data_PCOD8196608
_publ_section_title
;
Structure prediction by ZEFSAII (Michael W. Deem and Ramdas Pophale) SiO2 
 PCOD8196608
Probable space group: P M M M
;
_chemical_formula_sum "Si O2"
_cell_formula_units_Z 44
_cell_length_a 9.278211
_cell_length_b 28.312761
_cell_length_c 9.385488
_cell_angle_alpha 90.000000
_cell_angle_beta 90.000000
_cell_angle_gamma 90.000000
_cell_volume 2465.490460
_symmetry_space_group_name_H-M "P M M M"
_symmetry_group_IT_number 47
_symmetry_cell_setting 'orthorhombic'
loop_
_space_group_symop_operation_xyz
x,y,z
-x,-y,z
x,-y,-z
-x,y,-z
-x,-y,-z
x,y,-z
-x,y,z
x,-y,z
loop_
_atom_site_type_symbol
_atom_site_label
_atom_site_fract_x
_atom_site_fract_y
_atom_site_fract_z
Si Si1 0.670975 0.131045 0.337812
Si Si2 0.328304 0.500000 0.838196
Si Si3 0.671987 0.410420 0.338961
Si Si4 0.328716 0.218639 0.159693
Si Si5 0.671455 0.676929 0.160202
Si Si6 0.165736 0.945490 0.163342
O O1 0.722849 0.132181 0.500000
O O2 0.500000 0.128705 0.324776
O O3 0.733288 0.178465 0.263789
O O4 0.733362 0.084815 0.264364
O O5 0.500000 0.500000 0.841078
O O6 0.270307 0.454132 0.754564
O O7 0.268328 0.500000 0.000000
O O8 0.731501 0.414466 0.500000
O O9 0.500000 0.410389 0.340278
O O10 0.732907 0.362214 0.268647
O O11 0.500000 0.217659 0.162222
O O12 0.275683 0.270812 0.208671
O O13 0.273028 0.208100 0.000000
O O14 0.500000 0.675152 0.160867
O O15 0.726546 0.666051 0.000000
O O16 0.000000 0.932308 0.191459
O O17 0.193738 0.000000 0.200090
O O18 0.206833 0.935111 0.000000
#
# Coordination Sequence:
#
# PCOD8196608 Si02
#       6
#     8   4   8   8   8   8
#     4  10  20  31  45  69  98 123 147 179 221 267
#     4   9  15  21  27  33  45  69 103 145 190 235
#     4   9  15  20  26  37  53  74 103 143 192 242
#     4   8  14  25  40  56  76 104 136 169 205 247
#     4   8  13  21  32  45  61  84 116 152 192 239
#     4   9  19  36  55  72  90 116 152 189 222 260
#
# _framework density 17.846347999999999
#
# number of rings (size 3 to 8) (size 9 to 14) (size 15 to 20)
#    0.000    3.182    0.000    3.000    0.000    6.182 
#    0.000    6.364    0.000    0.000    0.000    0.000 
#    0.000    0.000    0.000    0.000    0.000    0.000 
#
# Total GULP energy -545379.262792 kJ/mol
# GULP energy per Si atom -12394.983245 kJ/mol
# Density = 1.780573 g / cm^3
# Si number density = 17.846348 Si / 1000 Ang^3
#
#
#
# Elastic Constant Matrix: (Units=GPa)
#
#
# Indices 1 2 3 4 5 6 
#
# 1 6.7773 17.0023 16.4552 0.0000 0.0000 0.0000
# 2 17.0023 148.8893 97.4038 0.0000 0.0000 0.0000
# 3 16.4552 97.4038 151.6173 0.0000 0.0000 0.0000
# 4 0.0000 0.0000 0.0000 25.4719 0.0000 0.0000
# 5 0.0000 0.0000 0.0000 0.0000 11.5791 0.0000
# 6 0.0000 0.0000 0.0000 0.0000 0.0000 -0.4324
#
#
#
# Elastic Compliance Matrix: (Units=1/GPa)
#
#
# Indices 1 2 3 4 5 6 
#
# 1 0.221620 -0.016512 -0.013445 0.000000 0.000000 0.000000
# 2 -0.016512 0.012816 -0.006441 0.000000 0.000000 0.000000
# 3 -0.013445 -0.006441 0.012193 0.000000 0.000000 0.000000
# 4 0.000000 0.000000 0.000000 0.039259 0.000000 0.000000
# 5 0.000000 0.000000 0.000000 0.000000 0.086363 0.000000
# 6 0.000000 0.000000 0.000000 0.000000 0.000000 -2.312853
#
#
# Mechanical properties :
#
#
# Convention : Reuss Voigt Hill
#
# Bulk Modulus (GPa) = 5.75268 63.22295 34.48781
# Shear Modulus (GPa) = -2.76264 19.08522 8.16129
#
# Velocity S-wave (km/s) = -1.24554 3.27374 2.14080
# Velocity P-wave (km/s) = 1.07794 7.05642 5.04752
#
# Compressibility (1/GPa) = 0.17383213
#
# Stress axis : x y z
#
# Youngs Moduli (GPa) = 4.51224 78.02813 82.01575
#
# Poissons Ratio (x) = 1.28842 1.10267
# Poissons Ratio (y) = 0.07451 0.52828
# Poissons Ratio (z) = 0.06067 0.50260
#
# Static dielectric constant tensor:
#      x y z
#    x 2.530910 0.000000 0.000000 
#    y 0.000000 3.620020 0.000000 
#    z 0.000000 0.000000 3.485120 
# 
# 
# High freq. dielectric constant tensor:
#      x y z
#    x 1.605660 0.000000 0.000000 
#    y 0.000000 1.709400 0.000000 
#    z 0.000000 0.000000 1.696290 
# 
# From -- ./inp_files/2162.got.cif
#   From: 2010.03.12/outbox.cif.g09.slc.cpg/sg47_2_cif.got.tgz:2162.got - 2010.04.14 03:12:58.
