data_PCOD8196982
_publ_section_title
;
Structure prediction by ZEFSAII (Michael W. Deem and Ramdas Pophale) SiO2 
 PCOD8196982
Probable space group: P M M M
;
_chemical_formula_sum "Si O2"
_cell_formula_units_Z 48
_cell_length_a 9.018264
_cell_length_b 18.330877
_cell_length_c 16.155387
_cell_angle_alpha 90.000000
_cell_angle_beta 90.000000
_cell_angle_gamma 90.000000
_cell_volume 2670.690453
_symmetry_space_group_name_H-M "P M M M"
_symmetry_group_IT_number 47
_symmetry_cell_setting 'orthorhombic'
loop_
_space_group_symop_operation_xyz
x,y,z
-x,-y,z
x,-y,-z
-x,y,-z
-x,-y,-z
x,y,-z
-x,y,z
x,-y,z
loop_
_atom_site_type_symbol
_atom_site_label
_atom_site_fract_x
_atom_site_fract_y
_atom_site_fract_z
Si Si1 0.325030 0.652395 0.341183
Si Si2 0.176187 0.584709 0.500000
Si Si3 0.831609 0.583883 0.189655
Si Si4 0.331619 0.304875 0.907883
Si Si5 0.826742 0.916194 0.832827
Si Si6 0.334459 0.913718 0.000000
Si Si7 0.669581 0.205834 0.246227
O O1 0.500000 0.642820 0.355073
O O2 0.237565 0.627818 0.421656
O O3 0.275155 0.600898 0.266505
O O4 0.286348 0.737013 0.318809
O O5 0.228700 0.500000 0.500000
O O6 0.000000 0.588641 0.500000
O O7 0.819349 0.500000 0.166421
O O8 0.777944 0.627714 0.109110
O O9 0.000000 0.605583 0.212940
O O10 0.500000 0.333139 0.898404
O O11 0.299961 0.241915 0.842542
O O12 0.301193 0.274117 0.000000
O O13 0.750002 0.888691 0.917360
O O14 0.769148 0.867434 0.755029
O O15 0.000000 0.905112 0.844348
O O16 0.786993 0.000000 0.812826
O O17 0.500000 0.878860 0.000000
O O18 0.345053 0.000000 0.000000
O O19 0.500000 0.181988 0.257057
#
# Coordination Sequence:
#
# PCOD8196982 Si02
#       7
#     8   4   8   8   8   4   8
#     4  10  21  37  56  79 105 135 171 208 249 303
#     4  11  23  37  57  87 118 143 168 203 249 306
#     4  10  20  33  49  70  98 130 165 209 257 304
#     4   9  19  34  49  67  92 126 171 218 258 302
#     4  10  20  32  47  72 103 133 171 217 263 313
#     4   9  17  29  45  65  93 131 172 215 262 307
#     4   9  19  34  52  73  99 134 173 213 257 305
#
# _framework density 17.97288
#
# number of rings (size 3 to 8) (size 9 to 14) (size 15 to 20)
#    0.000    2.333    0.000    3.500    1.167   10.000 
#    0.000    1.667    0.000    0.000    0.000    0.583 
#    0.000    4.667    0.000    0.000    0.000    0.000 
#
# Total GULP energy -595099.951138 kJ/mol
# GULP energy per Si atom -12397.915649 kJ/mol
# Density = 1.793197 g / cm^3
# Si number density = 17.972880 Si / 1000 Ang^3
#
#
#
# Elastic Constant Matrix: (Units=GPa)
#
#
# Indices 1 2 3 4 5 6 
#
# 1 87.7757 54.0654 28.8918 0.0000 0.0000 0.0000
# 2 54.0654 92.7109 38.2140 0.0000 0.0000 0.0000
# 3 28.8918 38.2140 81.7331 0.0000 0.0000 0.0000
# 4 0.0000 0.0000 0.0000 24.5839 0.0000 0.0000
# 5 0.0000 0.0000 0.0000 0.0000 27.6030 0.0000
# 6 0.0000 0.0000 0.0000 0.0000 0.0000 31.3494
#
#
#
# Elastic Compliance Matrix: (Units=1/GPa)
#
#
# Indices 1 2 3 4 5 6 
#
# 1 0.017990 -0.009749 -0.001801 0.000000 0.000000 0.000000
# 2 -0.009749 0.018644 -0.005271 0.000000 0.000000 0.000000
# 3 -0.001801 -0.005271 0.015336 0.000000 0.000000 0.000000
# 4 0.000000 0.000000 0.000000 0.040677 0.000000 0.000000
# 5 0.000000 0.000000 0.000000 0.000000 0.036228 0.000000
# 6 0.000000 0.000000 0.000000 0.000000 0.000000 0.031899
#
#
# Mechanical properties :
#
#
# Convention : Reuss Voigt Hill
#
# Bulk Modulus (GPa) = 54.56023 56.06247 55.31135
# Shear Modulus (GPa) = 24.93452 26.11049 25.52251
#
# Velocity S-wave (km/s) = 3.72874 3.81566 3.77245
# Velocity P-wave (km/s) = 6.99721 7.11849 7.05811
#
# Compressibility (1/GPa) = 0.01832837
#
# Stress axis : x y z
#
# Youngs Moduli (GPa) = 55.58528 53.63694 65.20582
#
# Poissons Ratio (x) = 0.52289 0.11746
# Poissons Ratio (y) = 0.54189 0.34369
# Poissons Ratio (z) = 0.10013 0.28271
#
# Static dielectric constant tensor:
#      x y z
#    x 3.460810 0.000000 0.000000 
#    y 0.000000 3.349110 0.000000 
#    z 0.000000 0.000000 3.231100 
# 
# 
# High freq. dielectric constant tensor:
#      x y z
#    x 1.706150 0.000000 0.000000 
#    y 0.000000 1.694990 0.000000 
#    z 0.000000 0.000000 1.663070 
# 
# From -- ./inp_files/21074.got.cif
#   From: 2010.03.12/outbox.cif.g09.slc.cpg/sg47_11_cif.got.tgz:21074.got - 2010.04.14 03:12:58.
