data_PCOD8196212
_publ_section_title
;
Structure prediction by ZEFSAII (Michael W. Deem and Ramdas Pophale) SiO2 
 PCOD8196212
Probable space group: P M M M
;
_chemical_formula_sum "Si O2"
_cell_formula_units_Z 44
_cell_length_a 9.484040
_cell_length_b 7.765456
_cell_length_c 31.654465
_cell_angle_alpha 90.000000
_cell_angle_beta 90.000000
_cell_angle_gamma 90.000000
_cell_volume 2331.284725
_symmetry_space_group_name_H-M "P M M M"
_symmetry_group_IT_number 47
_symmetry_cell_setting 'orthorhombic'
loop_
_space_group_symop_operation_xyz
x,y,z
-x,-y,z
x,-y,-z
-x,y,-z
-x,-y,-z
x,y,-z
-x,y,z
x,-y,z
loop_
_atom_site_type_symbol
_atom_site_label
_atom_site_fract_x
_atom_site_fract_y
_atom_site_fract_z
Si Si1 0.342170 0.795739 0.546339
Si Si2 0.657649 0.301213 0.079462
Si Si3 0.836166 0.197293 0.624886
Si Si4 0.835914 0.500000 0.688186
Si Si5 0.839442 0.202921 0.000000
Si Si6 0.333419 0.189378 0.169020
Si Si7 0.668556 0.500000 0.225979
O O1 0.292426 0.728145 0.500000
O O2 0.500000 0.728559 0.555606
O O3 0.240647 0.729094 0.583233
O O4 0.340099 0.000000 0.545958
O O5 0.500000 0.230890 0.068254
O O6 0.646915 0.500000 0.090717
O O7 0.722572 0.210329 0.121059
O O8 0.762199 0.273302 0.041020
O O9 0.797900 0.325794 0.662853
O O10 0.000000 0.204614 0.614352
O O11 0.790483 0.000000 0.636385
O O12 0.737930 0.500000 0.728622
O O13 0.000000 0.500000 0.701032
O O14 0.000000 0.270509 0.000000
O O15 0.833300 0.000000 0.000000
O O16 0.500000 0.212453 0.166670
O O17 0.274017 0.332282 0.200997
O O18 0.289407 0.000000 0.185750
O O19 0.500000 0.500000 0.231030
#
# Coordination Sequence:
#
# PCOD8196212 Si02
#       7
#     8   8   8   4   4   8   4
#     4   8  14  26  46  73 104 135 167 207 254 300
#     4  10  19  34  57  82 106 137 180 222 260 311
#     4   9  18  33  52  72  97 133 174 211 248 297
#     4  10  22  38  53  73 103 134 166 210 263 307
#     4  11  24  37  48  72 112 151 186 222 259 305
#     4   9  17  32  56  83 109 134 164 212 264 304
#     4  10  20  36  56  80 104 128 167 211 254 315
#
# _framework density 18.873712999999999
#
# number of rings (size 3 to 8) (size 9 to 14) (size 15 to 20)
#    0.000    2.636    0.909    1.636    0.000    4.727 
#    0.000    3.182    0.000    3.818    0.000    0.000 
#    0.000    0.000    0.000    0.000    0.000    0.000 
#
# Total GULP energy -545406.395610 kJ/mol
# GULP energy per Si atom -12395.599900 kJ/mol
# Density = 1.883076 g / cm^3
# Si number density = 18.873713 Si / 1000 Ang^3
#
#
#
# Elastic Constant Matrix: (Units=GPa)
#
#
# Indices 1 2 3 4 5 6 
#
# 1 63.5534 31.0474 61.5427 0.0000 0.0000 0.0000
# 2 31.0474 108.4074 64.1809 0.0000 0.0000 0.0000
# 3 61.5427 64.1809 157.2200 0.0000 0.0000 0.0000
# 4 0.0000 0.0000 0.0000 13.8864 0.0000 0.0000
# 5 0.0000 0.0000 0.0000 0.0000 -8.6650 0.0000
# 6 0.0000 0.0000 0.0000 0.0000 0.0000 14.1976
#
#
#
# Elastic Compliance Matrix: (Units=1/GPa)
#
#
# Indices 1 2 3 4 5 6 
#
# 1 0.025617 -0.001846 -0.009274 0.000000 0.000000 0.000000
# 2 -0.001846 0.012297 -0.004297 0.000000 0.000000 0.000000
# 3 -0.009274 -0.004297 0.011745 0.000000 0.000000 0.000000
# 4 0.000000 0.000000 0.000000 0.072013 0.000000 0.000000
# 5 0.000000 0.000000 0.000000 0.000000 -0.115407 0.000000
# 6 0.000000 0.000000 0.000000 0.000000 0.000000 0.070434
#
#
# Mechanical properties :
#
#
# Convention : Reuss Voigt Hill
#
# Bulk Modulus (GPa) = 53.12206 71.41364 62.26785
# Shear Modulus (GPa) = 43.93278 15.37780 29.65529
#
# Velocity S-wave (km/s) = 4.82988 2.85752 3.96820
# Velocity P-wave (km/s) = 7.70135 6.98620 7.35248
#
# Compressibility (1/GPa) = 0.01882457
#
# Stress axis : x y z
#
# Youngs Moduli (GPa) = 39.03596 81.31796 85.14169
#
# Poissons Ratio (x) = 0.15012 0.78962
# Poissons Ratio (y) = 0.07206 0.36589
# Poissons Ratio (z) = 0.36202 0.34946
#
# Static dielectric constant tensor:
#      x y z
#    x 3.310170 0.000000 0.000000 
#    y 0.000000 3.606900 0.000000 
#    z 0.000000 0.000000 3.496850 
# 
# 
# High freq. dielectric constant tensor:
#      x y z
#    x 1.702730 0.000000 0.000000 
#    y 0.000000 1.738250 0.000000 
#    z 0.000000 0.000000 1.732200 
# 
# From -- ./inp_files/33990.got.cif
#   From: 2010.03.12/outbox.cif.g09.slc.cpg/sg47_17_cif.got.tgz:33990.got - 2010.04.14 03:12:58.
