data_PCOD8196746
_publ_section_title
;
Structure prediction by ZEFSAII (Michael W. Deem and Ramdas Pophale) SiO2 
 PCOD8196746
Probable space group: P M M M
;
_chemical_formula_sum "Si O2"
_cell_formula_units_Z 40
_cell_length_a 22.861744
_cell_length_b 12.375585
_cell_length_c 9.014516
_cell_angle_alpha 90.000000
_cell_angle_beta 90.000000
_cell_angle_gamma 90.000000
_cell_volume 2550.454080
_symmetry_space_group_name_H-M "P M M M"
_symmetry_group_IT_number 47
_symmetry_cell_setting 'orthorhombic'
loop_
_space_group_symop_operation_xyz
x,y,z
-x,-y,z
x,-y,-z
-x,y,-z
-x,-y,-z
x,y,-z
-x,y,z
x,-y,z
loop_
_atom_site_type_symbol
_atom_site_label
_atom_site_fract_x
_atom_site_fract_y
_atom_site_fract_z
Si Si1 0.500000 0.628805 0.667502
Si Si2 0.729795 0.628582 0.332610
Si Si3 0.615092 0.628883 0.832405
Si Si4 0.846650 0.372947 0.172000
Si Si5 0.069534 0.000000 0.832405
Si Si6 0.931224 0.215296 0.672187
O O1 0.500000 0.500000 0.668086
O O2 0.500000 0.673135 0.500000
O O3 0.557366 0.673261 0.750690
O O4 0.731983 0.673672 0.500000
O O5 0.727906 0.500000 0.332888
O O6 0.672002 0.674299 0.252263
O O7 0.786513 0.669618 0.244165
O O8 0.615361 0.500000 0.831680
O O9 0.615601 0.673008 0.000000
O O10 0.854206 0.500000 0.196267
O O11 0.901134 0.317484 0.251838
O O12 0.845905 0.341765 0.000000
O O13 0.092657 0.105816 0.747568
O O14 0.000000 0.000000 0.831356
O O15 0.093958 0.000000 0.000000
O O16 0.914885 0.211106 0.500000
O O17 0.000000 0.229011 0.697256
#
# Coordination Sequence:
#
# PCOD8196746 Si02
#       6
#     4   8   8   8   4   8
#     4   9  15  21  29  43  63  87 119 160 203 242
#     4   9  16  26  39  53  71  98 132 168 205 246
#     4   9  15  22  32  46  65  90 122 161 203 243
#     4  10  20  32  45  62  85 113 145 179 214 254
#     4   9  17  31  51  71  89 109 135 168 207 252
#     4  10  20  33  49  68  89 112 139 173 213 256
#
# _framework density 15.683481
#
# number of rings (size 3 to 8) (size 9 to 14) (size 15 to 20)
#    0.000    2.600    0.000    3.000    0.000   10.000 
#    0.000    2.000    0.000    0.000    0.000    0.000 
#    0.000    0.000    0.000    0.000    0.000    1.000 
#
# Total GULP energy -496008.548306 kJ/mol
# GULP energy per Si atom -12400.213708 kJ/mol
# Density = 1.564778 g / cm^3
# Si number density = 15.683481 Si / 1000 Ang^3
#
#
#
# Elastic Constant Matrix: (Units=GPa)
#
#
# Indices 1 2 3 4 5 6 
#
# 1 90.4617 32.5549 71.6077 0.0000 0.0000 0.0000
# 2 32.5549 30.1064 35.9129 0.0000 0.0000 0.0000
# 3 71.6077 35.9129 165.8478 0.0000 0.0000 0.0000
# 4 0.0000 0.0000 0.0000 18.8905 0.0000 0.0000
# 5 0.0000 0.0000 0.0000 0.0000 34.3962 0.0000
# 6 0.0000 0.0000 0.0000 0.0000 0.0000 1.0827
#
#
#
# Elastic Compliance Matrix: (Units=1/GPa)
#
#
# Indices 1 2 3 4 5 6 
#
# 1 0.021493 -0.016410 -0.005727 0.000000 0.000000 0.000000
# 2 -0.016410 0.057312 -0.005325 0.000000 0.000000 0.000000
# 3 -0.005727 -0.005325 0.009655 0.000000 0.000000 0.000000
# 4 0.000000 0.000000 0.000000 0.052937 0.000000 0.000000
# 5 0.000000 0.000000 0.000000 0.000000 0.029073 0.000000
# 6 0.000000 0.000000 0.000000 0.000000 0.000000 0.923624
#
#
# Mechanical properties :
#
#
# Convention : Reuss Voigt Hill
#
# Bulk Modulus (GPa) = 29.81767 62.95187 46.38477
# Shear Modulus (GPa) = 4.30962 20.62992 12.46977
#
# Velocity S-wave (km/s) = 1.65947 3.63077 2.82279
# Velocity P-wave (km/s) = 4.76710 7.60281 6.34539
#
# Compressibility (1/GPa) = 0.03353716
#
# Stress axis : x y z
#
# Youngs Moduli (GPa) = 46.52701 17.44831 103.57028
#
# Poissons Ratio (x) = 0.28632 0.59310
# Poissons Ratio (y) = 0.76350 0.55153
# Poissons Ratio (z) = 0.26644 0.09292
#
# Static dielectric constant tensor:
#      x y z
#    x 3.043590 0.000000 0.000000 
#    y 0.000000 2.459550 0.000000 
#    z 0.000000 0.000000 3.266200 
# 
# 
# High freq. dielectric constant tensor:
#      x y z
#    x 1.602640 0.000000 0.000000 
#    y 0.000000 1.526850 0.000000 
#    z 0.000000 0.000000 1.628100 
# 
# From -- ./inp_files/4052.got.cif
#   From: 2010.03.12/outbox.cif.g09.slc.cpg/sg47_3_cif.got.tgz:4052.got - 2010.04.14 03:12:58.
