data_PCOD8196065
_publ_section_title
;
Structure prediction by ZEFSAII (Michael W. Deem and Ramdas Pophale) SiO2 
 PCOD8196065
Probable space group: P M M M
;
_chemical_formula_sum "Si O2"
_cell_formula_units_Z 48
_cell_length_a 17.964168
_cell_length_b 15.547833
_cell_length_c 8.905118
_cell_angle_alpha 90.000000
_cell_angle_beta 90.000000
_cell_angle_gamma 90.000000
_cell_volume 2487.234045
_symmetry_space_group_name_H-M "P M M M"
_symmetry_group_IT_number 47
_symmetry_cell_setting 'orthorhombic'
loop_
_space_group_symop_operation_xyz
x,y,z
-x,-y,z
x,-y,-z
-x,y,-z
-x,-y,-z
x,y,-z
-x,y,z
x,-y,z
loop_
_atom_site_type_symbol
_atom_site_label
_atom_site_fract_x
_atom_site_fract_y
_atom_site_fract_z
Si Si1 0.856046 0.500000 0.329862
Si Si2 0.416062 0.171149 0.820967
Si Si3 0.168799 0.000000 0.178470
Si Si4 0.146038 0.325447 0.822731
Si Si5 0.320864 0.500000 0.667981
Si Si6 0.913732 0.842174 0.672516
Si Si7 0.318233 0.328700 0.176202
Si Si8 0.661241 0.000000 0.178536
O O1 0.886783 0.500000 0.500000
O O2 0.884805 0.415151 0.244014
O O3 0.767629 0.500000 0.327308
O O4 0.500000 0.180417 0.760214
O O5 0.366768 0.250027 0.760368
O O6 0.380550 0.083610 0.756806
O O7 0.414882 0.169729 0.000000
O O8 0.131540 0.914543 0.240869
O O9 0.253891 0.000000 0.232908
O O10 0.161680 0.000000 0.000000
O O11 0.099346 0.249470 0.748990
O O12 0.232531 0.311757 0.781042
O O13 0.133140 0.325753 0.000000
O O14 0.352084 0.500000 0.500000
O O15 0.350623 0.584910 0.750159
O O16 0.887557 0.838638 0.500000
O O17 0.000000 0.866232 0.684185
O O18 0.327476 0.339677 0.000000
O O19 0.657903 0.000000 0.000000
#
# Coordination Sequence:
#
# PCOD8196065 Si02
#       8
#     4   8   4   8   4   8   8   4
#     4   9  17  31  52  79 110 141 177 221 266 313
#     4   9  16  27  46  73 105 139 171 205 251 306
#     4  11  22  37  59  83 106 135 174 220 266 313
#     4  10  19  33  55  81 108 139 178 223 267 312
#     4   9  17  29  48  73  98 132 177 218 260 309
#     4  11  24  40  56  77 108 142 174 213 263 317
#     4   9  17  30  49  75 105 135 171 217 262 301
#     4   9  17  30  49  77 108 133 164 210 258 301
#
# _framework density 19.298545000000001
#
# number of rings (size 3 to 8) (size 9 to 14) (size 15 to 20)
#    0.000    2.333    0.000    3.250    0.000    8.667 
#    0.000    0.833    0.000    5.500    0.000    0.000 
#    0.000    5.333    0.000    0.000    0.000    0.000 
#
# Total GULP energy -595281.062532 kJ/mol
# GULP energy per Si atom -12401.688803 kJ/mol
# Density = 1.925462 g / cm^3
# Si number density = 19.298545 Si / 1000 Ang^3
#
#
#
# Elastic Constant Matrix: (Units=GPa)
#
#
# Indices 1 2 3 4 5 6 
#
# 1 63.5019 28.0104 24.0850 0.0000 0.0000 0.0000
# 2 28.0104 139.4384 35.0919 0.0000 0.0000 0.0000
# 3 24.0850 35.0919 71.8447 0.0000 0.0000 0.0000
# 4 0.0000 0.0000 0.0000 21.5369 0.0000 0.0000
# 5 0.0000 0.0000 0.0000 0.0000 12.4928 0.0000
# 6 0.0000 0.0000 0.0000 0.0000 0.0000 71.9149
#
#
#
# Elastic Compliance Matrix: (Units=1/GPa)
#
#
# Indices 1 2 3 4 5 6 
#
# 1 0.018772 -0.002494 -0.005075 0.000000 0.000000 0.000000
# 2 -0.002494 0.008508 -0.003320 0.000000 0.000000 0.000000
# 3 -0.005075 -0.003320 0.017242 0.000000 0.000000 0.000000
# 4 0.000000 0.000000 0.000000 0.046432 0.000000 0.000000
# 5 0.000000 0.000000 0.000000 0.000000 0.080046 0.000000
# 6 0.000000 0.000000 0.000000 0.000000 0.000000 0.013905
#
#
# Mechanical properties :
#
#
# Convention : Reuss Voigt Hill
#
# Bulk Modulus (GPa) = 43.96564 49.90663 46.93614
# Shear Modulus (GPa) = 23.33563 33.69542 28.51553
#
# Velocity S-wave (km/s) = 3.48111 4.18306 3.84813
# Velocity P-wave (km/s) = 6.24410 7.01763 6.64214
#
# Compressibility (1/GPa) = 0.02274503
#
# Stress axis : x y z
#
# Youngs Moduli (GPa) = 53.26956 117.53618 57.99880
#
# Poissons Ratio (x) = 0.29311 0.29435
# Poissons Ratio (y) = 0.13284 0.19254
# Poissons Ratio (z) = 0.27035 0.39018
#
# Static dielectric constant tensor:
#      x y z
#    x 3.422470 0.000000 0.000000 
#    y 0.000000 3.898480 0.000000 
#    z 0.000000 0.000000 3.347630 
# 
# 
# High freq. dielectric constant tensor:
#      x y z
#    x 1.733820 0.000000 0.000000 
#    y 0.000000 1.771210 0.000000 
#    z 0.000000 0.000000 1.730080 
# 
# From -- ./inp_files/9285.got.cif
#   From: 2010.03.12/outbox.cif.g09.slc.cpg/sg47_5_cif.got.tgz:9285.got - 2010.04.14 03:12:58.
