data_PCOD8196760
_publ_section_title
;
Structure prediction by ZEFSAII (Michael W. Deem and Ramdas Pophale) SiO2 
 PCOD8196760
Probable space group: P M M M
;
_chemical_formula_sum "Si O2"
_cell_formula_units_Z 36
_cell_length_a 9.266080
_cell_length_b 9.185265
_cell_length_c 23.598639
_cell_angle_alpha 90.000000
_cell_angle_beta 90.000000
_cell_angle_gamma 90.000000
_cell_volume 2008.513211
_symmetry_space_group_name_H-M "P M M M"
_symmetry_group_IT_number 47
_symmetry_cell_setting 'orthorhombic'
loop_
_space_group_symop_operation_xyz
x,y,z
-x,-y,z
x,-y,-z
-x,y,-z
-x,-y,-z
x,y,-z
-x,y,z
x,-y,z
loop_
_atom_site_type_symbol
_atom_site_label
_atom_site_fract_x
_atom_site_fract_y
_atom_site_fract_z
Si Si1 0.333070 0.171252 0.278138
Si Si2 0.662100 0.173167 0.062585
Si Si3 0.162203 0.173480 0.831640
Si Si4 0.831858 0.672482 0.622583
Si Si5 0.166267 0.329921 0.500000
O O1 0.500000 0.213513 0.272816
O O2 0.253223 0.229327 0.221964
O O3 0.265762 0.248267 0.332079
O O4 0.311059 0.000000 0.285340
O O5 0.500000 0.230371 0.073847
O O6 0.767251 0.237289 0.110775
O O7 0.662177 0.000000 0.065554
O O8 0.714859 0.223854 0.000000
O O9 0.000000 0.234426 0.826763
O O10 0.162619 0.000000 0.833448
O O11 0.812280 0.500000 0.628442
O O12 0.773056 0.728447 0.560401
O O13 0.000000 0.714156 0.631014
O O14 0.190840 0.500000 0.500000
O O15 0.000000 0.290895 0.500000
#
# Coordination Sequence:
#
# PCOD8196760 Si02
#       5
#     8   8   8   8   4
#     4  10  20  32  45  63  91 126 158 187 224 271
#     4   8  13  21  33  50  75 108 143 178 219 268
#     4   9  16  25  38  56  79 110 148 188 227 266
#     4   9  17  31  52  74  93 115 147 187 228 270
#     4   7  12  26  48  71  92 114 142 179 224 271
#
# _framework density 17.923705000000002
#
# number of rings (size 3 to 8) (size 9 to 14) (size 15 to 20)
#    0.000    3.222    0.000    3.333    0.000    4.889 
#    0.000    3.333    0.000    5.333    0.000    0.000 
#    0.000    0.889    0.000    9.333    0.000   12.889 
#
# Total GULP energy -446023.842296 kJ/mol
# GULP energy per Si atom -12389.551175 kJ/mol
# Density = 1.788291 g / cm^3
# Si number density = 17.923705 Si / 1000 Ang^3
#
#
#
# Elastic Constant Matrix: (Units=GPa)
#
#
# Indices 1 2 3 4 5 6 
#
# 1 132.5510 25.0490 104.8175 0.0000 0.0000 0.0000
# 2 25.0490 12.8048 27.8699 0.0000 0.0000 0.0000
# 3 104.8175 27.8699 210.1896 0.0000 0.0000 0.0000
# 4 0.0000 0.0000 0.0000 -27.7433 0.0000 0.0000
# 5 0.0000 0.0000 0.0000 0.0000 29.7752 0.0000
# 6 0.0000 0.0000 0.0000 0.0000 0.0000 16.4212
#
#
#
# Elastic Compliance Matrix: (Units=1/GPa)
#
#
# Indices 1 2 3 4 5 6 
#
# 1 0.015008 -0.018371 -0.005048 0.000000 0.000000 0.000000
# 2 -0.018371 0.132266 -0.008376 0.000000 0.000000 0.000000
# 3 -0.005048 -0.008376 0.008386 0.000000 0.000000 0.000000
# 4 0.000000 0.000000 0.000000 -0.036045 0.000000 0.000000
# 5 0.000000 0.000000 0.000000 0.000000 0.033585 0.000000
# 6 0.000000 0.000000 0.000000 0.000000 0.000000 0.060897
#
#
# Mechanical properties :
#
#
# Convention : Reuss Voigt Hill
#
# Bulk Modulus (GPa) = 10.86158 74.55757 42.70958
# Shear Modulus (GPa) = 16.21390 16.87787 16.54588
#
# Velocity S-wave (km/s) = 3.01093 3.07196 3.04160
# Velocity P-wave (km/s) = 4.26153 7.36682 6.01792
#
# Compressibility (1/GPa) = 0.09206760
#
# Stress axis : x y z
#
# Youngs Moduli (GPa) = 66.63084 7.56055 119.25009
#
# Poissons Ratio (x) = 0.13890 0.60201
# Poissons Ratio (y) = 1.22410 0.99886
# Poissons Ratio (z) = 0.33637 0.06333
#
# Static dielectric constant tensor:
#      x y z
#    x 3.339330 0.000000 0.000000 
#    y 0.000000 2.657850 0.000000 
#    z 0.000000 0.000000 3.821520 
# 
# 
# High freq. dielectric constant tensor:
#      x y z
#    x 1.684860 0.000000 0.000000 
#    y 0.000000 1.621380 0.000000 
#    z 0.000000 0.000000 1.721640 
# 
# From -- ./inp_files/1365.got.cif
#   From: 2010.03.12/outbox.cif.g09.slc.cpg/sg47_1_cif.got.tgz:1365.got - 2010.04.14 03:12:58.
