data_PCOD8196211
_publ_section_title
;
Structure prediction by ZEFSAII (Michael W. Deem and Ramdas Pophale) SiO2 
 PCOD8196211
Probable space group: P M M M
;
_chemical_formula_sum "Si O2"
_cell_formula_units_Z 52
_cell_length_a 16.981450
_cell_length_b 17.980363
_cell_length_c 9.258134
_cell_angle_alpha 90.000000
_cell_angle_beta 90.000000
_cell_angle_gamma 90.000000
_cell_volume 2826.810452
_symmetry_space_group_name_H-M "P M M M"
_symmetry_group_IT_number 47
_symmetry_cell_setting 'orthorhombic'
loop_
_space_group_symop_operation_xyz
x,y,z
-x,-y,z
x,-y,-z
-x,y,-z
-x,-y,-z
x,y,-z
-x,y,z
x,-y,z
loop_
_atom_site_type_symbol
_atom_site_label
_atom_site_fract_x
_atom_site_fract_y
_atom_site_fract_z
Si Si1 0.592003 0.500000 0.829439
Si Si2 0.000000 0.848885 0.163113
Si Si3 0.000000 0.328195 0.836874
Si Si4 0.150743 0.848559 0.667929
Si Si5 0.412159 0.218242 0.328347
Si Si6 0.848878 0.324258 0.334063
Si Si7 0.324654 0.366436 0.669392
Si Si8 0.687334 0.917495 0.328068
O O1 0.500000 0.500000 0.789329
O O2 0.632399 0.571892 0.762427
O O3 0.605422 0.500000 0.000000
O O4 0.000000 0.760226 0.171423
O O5 0.076883 0.879809 0.243195
O O6 0.000000 0.878176 0.000000
O O7 0.079313 0.357800 0.759593
O O8 0.000000 0.358019 0.000000
O O9 0.133349 0.861766 0.500000
O O10 0.166748 0.762052 0.699994
O O11 0.225673 0.894600 0.723025
O O12 0.413937 0.214388 0.500000
O O13 0.500000 0.227223 0.265210
O O14 0.359235 0.287478 0.279183
O O15 0.375333 0.141781 0.265781
O O16 0.873000 0.334631 0.500000
O O17 0.768747 0.368607 0.298353
O O18 0.341176 0.380143 0.500000
O O19 0.684810 0.915878 0.500000
O O20 0.666920 0.000000 0.269466
#
# Coordination Sequence:
#
# PCOD8196211 Si02
#       8
#     4   4   4   8   8   8   8   8
#     4  11  25  41  55  78 113 144 171 211 264 317
#     4   9  17  27  42  66  94 125 167 214 257 302
#     4   9  17  27  43  73 107 135 169 210 256 305
#     4   9  15  27  45  67  96 131 169 208 252 300
#     4   9  16  27  46  73 102 131 168 213 257 304
#     4   9  16  28  49  74 102 134 173 215 254 299
#     4  10  19  34  57  82 105 137 178 216 256 307
#     4   9  16  26  42  67 100 135 170 210 256 305
#
# _framework density 18.395291
#
# number of rings (size 3 to 8) (size 9 to 14) (size 15 to 20)
#    0.000    2.692    1.538    1.154    0.000    4.000 
#    0.000    1.923    0.000    3.231    0.000    3.231 
#    0.000    0.000    0.000    4.615    0.000    4.615 
#
# Total GULP energy -644694.918502 kJ/mol
# GULP energy per Si atom -12397.979202 kJ/mol
# Density = 1.835342 g / cm^3
# Si number density = 18.395291 Si / 1000 Ang^3
#
#
#
# Elastic Constant Matrix: (Units=GPa)
#
#
# Indices 1 2 3 4 5 6 
#
# 1 155.1664 60.2948 56.1294 0.0000 0.0000 0.0000
# 2 60.2948 93.2779 35.4488 0.0000 0.0000 0.0000
# 3 56.1294 35.4488 63.5081 0.0000 0.0000 0.0000
# 4 0.0000 0.0000 0.0000 8.7725 0.0000 0.0000
# 5 0.0000 0.0000 0.0000 0.0000 16.4291 0.0000
# 6 0.0000 0.0000 0.0000 0.0000 0.0000 19.0283
#
#
#
# Elastic Compliance Matrix: (Units=1/GPa)
#
#
# Indices 1 2 3 4 5 6 
#
# 1 0.010622 -0.004186 -0.007051 0.000000 0.000000 0.000000
# 2 -0.004186 0.015257 -0.004816 0.000000 0.000000 0.000000
# 3 -0.007051 -0.004816 0.024666 0.000000 0.000000 0.000000
# 4 0.000000 0.000000 0.000000 0.113992 0.000000 0.000000
# 5 0.000000 0.000000 0.000000 0.000000 0.060868 0.000000
# 6 0.000000 0.000000 0.000000 0.000000 0.000000 0.052553
#
#
# Mechanical properties :
#
#
# Convention : Reuss Voigt Hill
#
# Bulk Modulus (GPa) = 54.23617 68.41094 61.32356
# Shear Modulus (GPa) = 15.81218 19.51795 17.66506
#
# Velocity S-wave (km/s) = 2.93504 3.26088 3.10224
# Velocity P-wave (km/s) = 6.40575 7.17272 6.80006
#
# Compressibility (1/GPa) = 0.01843788
#
# Stress axis : x y z
#
# Youngs Moduli (GPa) = 94.14283 65.54347 40.54124
#
# Poissons Ratio (x) = 0.27439 0.28587
# Poissons Ratio (y) = 0.39412 0.19525
# Poissons Ratio (z) = 0.66382 0.31566
#
# Static dielectric constant tensor:
#      x y z
#    x 3.648740 0.000000 0.000000 
#    y 0.000000 3.250070 0.000000 
#    z 0.000000 0.000000 3.055970 
# 
# 
# High freq. dielectric constant tensor:
#      x y z
#    x 1.729880 0.000000 0.000000 
#    y 0.000000 1.689790 0.000000 
#    z 0.000000 0.000000 1.670570 
# 
# From -- ./inp_files/9629.got.cif
#   From: 2010.03.12/outbox.cif.g09.slc.cpg/sg47_5_cif.got.tgz:9629.got - 2010.04.14 03:12:58.
