data_PCOD8196237
_publ_section_title
;
Structure prediction by ZEFSAII (Michael W. Deem and Ramdas Pophale) SiO2 
 PCOD8196237
Probable space group: P M M M
;
_chemical_formula_sum "Si O2"
_cell_formula_units_Z 56
_cell_length_a 20.535607
_cell_length_b 8.875385
_cell_length_c 15.490468
_cell_angle_alpha 90.000000
_cell_angle_beta 90.000000
_cell_angle_gamma 90.000000
_cell_volume 2823.314668
_symmetry_space_group_name_H-M "P M M M"
_symmetry_group_IT_number 47
_symmetry_cell_setting 'orthorhombic'
loop_
_space_group_symop_operation_xyz
x,y,z
-x,-y,z
x,-y,-z
-x,y,-z
-x,-y,-z
x,y,-z
-x,y,z
x,-y,z
loop_
_atom_site_type_symbol
_atom_site_label
_atom_site_fract_x
_atom_site_fract_y
_atom_site_fract_z
Si Si1 0.368561 0.827638 0.905343
Si Si2 0.930161 0.822429 0.275459
Si Si3 0.573082 0.824219 0.274441
Si Si4 0.242780 0.675696 0.852157
Si Si5 0.881447 0.172568 0.093439
Si Si6 0.209546 0.178382 0.676230
Si Si7 0.674501 0.673931 0.596951
O O1 0.416732 0.785229 0.826837
O O2 0.307202 0.716624 0.904443
O O3 0.344878 0.000000 0.894402
O O4 0.402546 0.806881 0.000000
O O5 0.927174 0.780886 0.173438
O O6 0.865980 0.760331 0.325644
O O7 0.000000 0.756400 0.309898
O O8 0.931079 0.000000 0.287646
O O9 0.500000 0.773192 0.298605
O O10 0.623451 0.738893 0.335190
O O11 0.582932 0.000000 0.291734
O O12 0.241340 0.500000 0.829366
O O13 0.181032 0.719724 0.909667
O O14 0.243089 0.773800 0.765188
O O15 0.858262 0.000000 0.107255
O O16 0.917260 0.189915 0.000000
O O17 0.253836 0.249737 0.601522
O O18 0.210507 0.000000 0.666860
O O19 0.647924 0.699618 0.500000
O O20 0.683680 0.500000 0.618648
#
# Coordination Sequence:
#
# PCOD8196237 Si02
#       7
#     8   8   8   8   8   8   8
#     4  10  20  34  54  80 113 153 195 237 280 329
#     4   8  15  28  48  76 107 140 181 231 286 339
#     4  10  22  40  62  88 119 156 195 235 281 334
#     4  11  20  30  48  74 106 145 189 236 286 334
#     4   9  17  28  43  66  99 140 187 237 286 335
#     4  10  19  34  58  84 111 144 184 231 283 336
#     4  11  24  41  63  91 119 149 186 230 285 345
#
# _framework density 19.834841999999998
#
# number of rings (size 3 to 8) (size 9 to 14) (size 15 to 20)
#    0.000    2.143    1.429    3.429    0.000    4.571 
#    0.000    4.286    0.000   11.143    0.000    9.000 
#    0.000    0.000    0.000    0.000    0.000    0.000 
#
# Total GULP energy -693922.571232 kJ/mol
# GULP energy per Si atom -12391.474486 kJ/mol
# Density = 1.978970 g / cm^3
# Si number density = 19.834842 Si / 1000 Ang^3
#
#
#
# Elastic Constant Matrix: (Units=GPa)
#
#
# Indices 1 2 3 4 5 6 
#
# 1 132.6356 46.2908 50.2148 0.0000 0.0000 0.0000
# 2 46.2908 69.9884 31.6698 0.0000 0.0000 0.0000
# 3 50.2148 31.6698 91.6165 0.0000 0.0000 0.0000
# 4 0.0000 0.0000 0.0000 17.6003 0.0000 0.0000
# 5 0.0000 0.0000 0.0000 0.0000 9.4427 0.0000
# 6 0.0000 0.0000 0.0000 0.0000 0.0000 5.6195
#
#
#
# Elastic Compliance Matrix: (Units=1/GPa)
#
#
# Indices 1 2 3 4 5 6 
#
# 1 0.010997 -0.005389 -0.004165 0.000000 0.000000 0.000000
# 2 -0.005389 0.019578 -0.003814 0.000000 0.000000 0.000000
# 3 -0.004165 -0.003814 0.014516 0.000000 0.000000 0.000000
# 4 0.000000 0.000000 0.000000 0.056817 0.000000 0.000000
# 5 0.000000 0.000000 0.000000 0.000000 0.105901 0.000000
# 6 0.000000 0.000000 0.000000 0.000000 0.000000 0.177953
#
#
# Mechanical properties :
#
#
# Convention : Reuss Voigt Hill
#
# Bulk Modulus (GPa) = 54.47790 61.17680 57.82735
# Shear Modulus (GPa) = 11.94411 17.60352 14.77381
#
# Velocity S-wave (km/s) = 2.45659 2.98233 2.73214
# Velocity P-wave (km/s) = 5.96421 6.53981 6.25863
#
# Compressibility (1/GPa) = 0.01835607
#
# Stress axis : x y z
#
# Youngs Moduli (GPa) = 90.93475 51.07708 68.88919
#
# Poissons Ratio (x) = 0.27525 0.28689
# Poissons Ratio (y) = 0.49004 0.26275
# Poissons Ratio (z) = 0.37870 0.19481
#
# Static dielectric constant tensor:
#      x y z
#    x 3.796410 0.000000 0.000000 
#    y 0.000000 3.397990 0.000000 
#    z 0.000000 0.000000 3.557100 
# 
# 
# High freq. dielectric constant tensor:
#      x y z
#    x 1.766280 0.000000 0.000000 
#    y 0.000000 1.749540 0.000000 
#    z 0.000000 0.000000 1.760030 
# 
# From -- ./inp_files/7213.got.cif
#   From: 2010.03.12/outbox.cif.g09.slc.cpg/sg47_4_cif.got.tgz:7213.got - 2010.04.14 03:12:58.
