data_PCOD8196298
_publ_section_title
;
Structure prediction by ZEFSAII (Michael W. Deem and Ramdas Pophale) SiO2 
 PCOD8196298
Probable space group: P M M M
;
_chemical_formula_sum "Si O2"
_cell_formula_units_Z 48
_cell_length_a 9.389776
_cell_length_b 9.777243
_cell_length_c 28.863362
_cell_angle_alpha 90.000000
_cell_angle_beta 90.000000
_cell_angle_gamma 90.000000
_cell_volume 2649.833324
_symmetry_space_group_name_H-M "P M M M"
_symmetry_group_IT_number 47
_symmetry_cell_setting 'orthorhombic'
loop_
_space_group_symop_operation_xyz
x,y,z
-x,-y,z
x,-y,-z
-x,y,-z
-x,-y,-z
x,y,-z
-x,y,z
x,-y,z
loop_
_atom_site_type_symbol
_atom_site_label
_atom_site_fract_x
_atom_site_fract_y
_atom_site_fract_z
Si Si1 0.332091 0.000000 0.050945
Si Si2 0.666141 0.733859 0.896317
Si Si3 0.168824 0.500000 0.946417
Si Si4 0.833127 0.843526 0.708133
Si Si5 0.336148 0.154612 0.554335
Si Si6 0.337025 0.843411 0.202202
Si Si7 0.168096 0.341223 0.622382
O O1 0.281694 0.870991 0.079580
O O2 0.500000 0.000000 0.046047
O O3 0.261018 0.000000 0.000000
O O4 0.500000 0.700038 0.905934
O O5 0.768775 0.626329 0.919117
O O6 0.694338 0.745724 0.841426
O O7 0.000000 0.500000 0.942860
O O8 0.218827 0.500000 0.000000
O O9 0.758945 0.794208 0.755222
O O10 0.782231 0.740865 0.668012
O O11 0.000000 0.832090 0.716331
O O12 0.789287 0.000000 0.695551
O O13 0.315469 0.176126 0.500000
O O14 0.500000 0.176350 0.568505
O O15 0.241484 0.269217 0.578843
O O16 0.288248 0.000000 0.568129
O O17 0.500000 0.829570 0.217827
O O18 0.303081 0.000000 0.188220
O O19 0.215346 0.500000 0.626129
O O20 0.000000 0.329291 0.615326
#
# Coordination Sequence:
#
# PCOD8196298 Si02
#       7
#     4   8   4   8   8   8   8
#     4   9  16  28  53  85 107 129 169 217 262 311
#     4  10  19  35  58  82 107 137 175 218 264 317
#     4  11  25  41  53  73 109 147 181 217 260 313
#     4   9  18  33  53  75 102 141 184 220 260 315
#     4   9  19  36  57  81 109 142 182 227 274 325
#     4   9  17  32  55  83 110 132 165 219 273 318
#     4  10  21  36  53  77 111 147 184 226 268 315
#
# _framework density 18.114346999999999
#
# number of rings (size 3 to 8) (size 9 to 14) (size 15 to 20)
#    0.000    2.500    0.833    1.750    0.000    4.667 
#    1.500    4.583    0.000    1.500    0.000    0.000 
#    0.000    0.000    0.000    0.000    0.000    0.000 
#
# Total GULP energy -595113.448656 kJ/mol
# GULP energy per Si atom -12398.196847 kJ/mol
# Density = 1.807312 g / cm^3
# Si number density = 18.114347 Si / 1000 Ang^3
#
#
#
# Elastic Constant Matrix: (Units=GPa)
#
#
# Indices 1 2 3 4 5 6 
#
# 1 48.5437 46.1926 47.5905 0.0000 0.0000 0.0000
# 2 46.1926 130.9994 69.1632 0.0000 0.0000 0.0000
# 3 47.5905 69.1632 114.2164 0.0000 0.0000 0.0000
# 4 0.0000 0.0000 0.0000 18.5904 0.0000 0.0000
# 5 0.0000 0.0000 0.0000 0.0000 34.7107 0.0000
# 6 0.0000 0.0000 0.0000 0.0000 0.0000 24.7805
#
#
#
# Elastic Compliance Matrix: (Units=1/GPa)
#
#
# Indices 1 2 3 4 5 6 
#
# 1 0.039484 -0.007698 -0.011790 0.000000 0.000000 0.000000
# 2 -0.007698 0.012722 -0.004496 0.000000 0.000000 0.000000
# 3 -0.011790 -0.004496 0.016391 0.000000 0.000000 0.000000
# 4 0.000000 0.000000 0.000000 0.053791 0.000000 0.000000
# 5 0.000000 0.000000 0.000000 0.000000 0.028810 0.000000
# 6 0.000000 0.000000 0.000000 0.000000 0.000000 0.040354
#
#
# Mechanical properties :
#
#
# Convention : Reuss Voigt Hill
#
# Bulk Modulus (GPa) = 48.47875 68.85024 58.66449
# Shear Modulus (GPa) = 20.29254 24.33719 22.31487
#
# Velocity S-wave (km/s) = 3.35064 3.66940 3.51364
# Velocity P-wave (km/s) = 6.46450 7.48624 6.99405
#
# Compressibility (1/GPa) = 0.02062760
#
# Stress axis : x y z
#
# Youngs Moduli (GPa) = 25.32688 78.60510 61.01035
#
# Poissons Ratio (x) = 0.60508 0.71933
# Poissons Ratio (y) = 0.19496 0.27432
# Poissons Ratio (z) = 0.29861 0.35343
#
# Static dielectric constant tensor:
#      x y z
#    x 3.162620 0.000000 0.000000 
#    y 0.000000 3.384750 0.000000 
#    z 0.000000 0.000000 3.428540 
# 
# 
# High freq. dielectric constant tensor:
#      x y z
#    x 1.685510 0.000000 0.000000 
#    y 0.000000 1.698350 0.000000 
#    z 0.000000 0.000000 1.710840 
# 
# From -- ./inp_files/34191.got.cif
#   From: 2010.03.12/outbox.cif.g09.slc.cpg/sg47_18_cif.got.tgz:34191.got - 2010.04.14 03:12:58.
