data_PCOD8196084
_publ_section_title
;
Structure prediction by ZEFSAII (Michael W. Deem and Ramdas Pophale) SiO2 
 PCOD8196084
Probable space group: P M M M
;
_chemical_formula_sum "Si O2"
_cell_formula_units_Z 52
_cell_length_a 14.280827
_cell_length_b 9.475822
_cell_length_c 20.748231
_cell_angle_alpha 90.000000
_cell_angle_beta 90.000000
_cell_angle_gamma 90.000000
_cell_volume 2807.704039
_symmetry_space_group_name_H-M "P M M M"
_symmetry_group_IT_number 47
_symmetry_cell_setting 'orthorhombic'
loop_
_space_group_symop_operation_xyz
x,y,z
-x,-y,z
x,-y,-z
-x,y,-z
-x,-y,-z
x,y,-z
-x,y,z
x,-y,z
loop_
_atom_site_type_symbol
_atom_site_label
_atom_site_fract_x
_atom_site_fract_y
_atom_site_fract_z
Si Si1 0.211268 0.836576 0.428264
Si Si2 0.110151 0.341234 0.319858
Si Si3 0.610352 0.167852 0.000000
Si Si4 0.395591 0.161741 0.638124
Si Si5 0.103280 0.667406 0.176546
Si Si6 0.606071 0.339260 0.757920
Si Si7 0.712130 0.336009 0.888695
O O1 0.185022 0.782995 0.500000
O O2 0.154956 0.753306 0.374797
O O3 0.323274 0.814523 0.420048
O O4 0.184841 0.000000 0.420455
O O5 0.150255 0.500000 0.326319
O O6 0.132606 0.278877 0.248220
O O7 0.000000 0.341216 0.330860
O O8 0.661186 0.234388 0.938534
O O9 0.500000 0.206787 0.000000
O O10 0.624649 0.000000 0.000000
O O11 0.500000 0.214057 0.617733
O O12 0.355790 0.246508 0.699311
O O13 0.399265 0.000000 0.659414
O O14 0.098574 0.500000 0.182357
O O15 0.178794 0.708933 0.121339
O O16 0.000000 0.726203 0.156869
O O17 0.500000 0.297597 0.774827
O O18 0.614771 0.500000 0.735711
O O19 0.666070 0.308952 0.820346
O O20 0.702622 0.500000 0.910612
#
# Coordination Sequence:
#
# PCOD8196084 Si02
#       7
#     8   8   4   8   8   8   8
#     4  10  21  34  47  67  97 133 171 210 253 300
#     4   9  18  34  56  79 102 129 162 203 251 302
#     4  11  25  41  54  73 106 144 175 205 244 287
#     4   9  18  32  49  69  94 127 168 211 254 302
#     4   8  15  30  54  83 108 128 159 206 254 296
#     4   9  17  29  48  75 101 124 158 208 260 303
#     4  10  19  33  56  80 102 134 172 206 242 289
#
# _framework density 18.520471000000001
#
# number of rings (size 3 to 8) (size 9 to 14) (size 15 to 20)
#    0.000    2.692    0.000    2.538    0.000    4.923 
#    0.000    5.769    0.000    3.692    0.000    3.231 
#    0.000    0.000    0.000    0.000    0.000    0.000 
#
# Total GULP energy -644505.755239 kJ/mol
# GULP energy per Si atom -12394.341447 kJ/mol
# Density = 1.847832 g / cm^3
# Si number density = 18.520471 Si / 1000 Ang^3
#
#
#
# Elastic Constant Matrix: (Units=GPa)
#
#
# Indices 1 2 3 4 5 6 
#
# 1 93.8406 40.2571 62.4829 0.0000 0.0000 0.0000
# 2 40.2571 57.5536 44.6354 0.0000 0.0000 0.0000
# 3 62.4829 44.6354 81.8145 0.0000 0.0000 0.0000
# 4 0.0000 0.0000 0.0000 29.0048 0.0000 0.0000
# 5 0.0000 0.0000 0.0000 0.0000 49.8523 0.0000
# 6 0.0000 0.0000 0.0000 0.0000 0.0000 22.3819
#
#
#
# Elastic Compliance Matrix: (Units=1/GPa)
#
#
# Indices 1 2 3 4 5 6 
#
# 1 0.022234 -0.004131 -0.014727 0.000000 0.000000 0.000000
# 2 -0.004131 0.030886 -0.013696 0.000000 0.000000 0.000000
# 3 -0.014727 -0.013696 0.030942 0.000000 0.000000 0.000000
# 4 0.000000 0.000000 0.000000 0.034477 0.000000 0.000000
# 5 0.000000 0.000000 0.000000 0.000000 0.020059 0.000000
# 6 0.000000 0.000000 0.000000 0.000000 0.000000 0.044679
#
#
# Mechanical properties :
#
#
# Convention : Reuss Voigt Hill
#
# Bulk Modulus (GPa) = 52.75571 58.66217 55.70894
# Shear Modulus (GPa) = 19.63067 25.97002 22.80034
#
# Velocity S-wave (km/s) = 3.25921 3.74870 3.51249
# Velocity P-wave (km/s) = 6.53530 7.10493 6.82606
#
# Compressibility (1/GPa) = 0.01895529
#
# Stress axis : x y z
#
# Youngs Moduli (GPa) = 44.97547 32.37693 32.31850
#
# Poissons Ratio (x) = 0.13374 0.47596
# Poissons Ratio (y) = 0.18578 0.44263
# Poissons Ratio (z) = 0.66236 0.44343
#
# Static dielectric constant tensor:
#      x y z
#    x 3.839520 0.000000 0.000000 
#    y 0.000000 3.266060 0.000000 
#    z 0.000000 0.000000 3.569030 
# 
# 
# High freq. dielectric constant tensor:
#      x y z
#    x 1.734600 0.000000 0.000000 
#    y 0.000000 1.691940 0.000000 
#    z 0.000000 0.000000 1.706230 
# 
# From -- ./inp_files/7038.got.cif
#   From: 2010.03.12/outbox.cif.g09.slc.cpg/sg47_4_cif.got.tgz:7038.got - 2010.04.14 03:12:58.
