data_PCOD8196509
_publ_section_title
;
Structure prediction by ZEFSAII (Michael W. Deem and Ramdas Pophale) SiO2 
 PCOD8196509
Probable space group: P M M M
;
_chemical_formula_sum "Si O2"
_cell_formula_units_Z 64
_cell_length_a 9.082856
_cell_length_b 30.241836
_cell_length_c 15.392963
_cell_angle_alpha 90.000000
_cell_angle_beta 90.000000
_cell_angle_gamma 90.000000
_cell_volume 4228.173581
_symmetry_space_group_name_H-M "P M M M"
_symmetry_group_IT_number 47
_symmetry_cell_setting 'orthorhombic'
loop_
_space_group_symop_operation_xyz
x,y,z
-x,-y,z
x,-y,-z
-x,y,-z
-x,-y,-z
x,y,-z
-x,y,z
x,-y,z
loop_
_atom_site_type_symbol
_atom_site_label
_atom_site_fract_x
_atom_site_fract_y
_atom_site_fract_z
Si Si1 0.666247 0.714325 0.103516
Si Si2 0.168227 0.052438 0.235592
Si Si3 0.334084 0.052528 0.595794
Si Si4 0.835893 0.552432 0.408499
Si Si5 0.827570 0.373133 0.100155
Si Si6 0.326946 0.111545 0.899198
Si Si7 0.834106 0.799946 0.896732
Si Si8 0.176214 0.450505 0.777340
O O1 0.500000 0.715590 0.138963
O O2 0.744452 0.669814 0.136962
O O3 0.753181 0.756628 0.141213
O O4 0.668984 0.715596 0.000000
O O5 0.229063 0.070815 0.327916
O O6 0.261901 0.071347 0.155942
O O7 0.000000 0.067815 0.226695
O O8 0.183710 0.000000 0.230846
O O9 0.280515 0.069014 0.500000
O O10 0.500000 0.069427 0.613219
O O11 0.331404 0.000000 0.596891
O O12 0.755158 0.567071 0.500000
O O13 0.846306 0.500000 0.405438
O O14 0.760194 0.566375 0.316981
O O15 0.000000 0.572453 0.411459
O O16 0.768241 0.416320 0.150294
O O17 0.000000 0.365322 0.114800
O O18 0.789933 0.381352 0.000000
O O19 0.500000 0.115174 0.883830
O O20 0.253643 0.156848 0.865784
O O21 0.289682 0.102570 0.000000
O O22 0.000000 0.801721 0.859886
O O23 0.835687 0.797603 0.000000
O O24 0.233785 0.500000 0.800294
O O25 0.000000 0.451322 0.772852
#
# Coordination Sequence:
#
# PCOD8196509 Si02
#       8
#     8   8   8   8   8   8   8   8
#     4   9  16  26  40  56  74  97 126 159 194 232
#     4  10  20  31  43  61  86 116 148 181 214 246
#     4   8  14  26  44  63  82 106 137 174 216 258
#     4   7   9  14  25  41  62  88 116 148 189 230
#     4   9  16  24  34  50  73 100 128 156 186 221
#     4  10  20  32  45  61  83 113 147 178 207 244
#     4   9  16  27  44  63  81 100 125 162 207 248
#     4   8  13  20  30  46  69  97 128 159 188 220
#
# _framework density 15.136559
#
# number of rings (size 3 to 8) (size 9 to 14) (size 15 to 20)
#    0.000    3.250    0.000    3.000    0.000    5.250 
#    0.000    3.750    0.000    0.375    0.000    1.750 
#    0.000    1.500    0.000    8.125    0.000    6.125 
#
# Total GULP energy -792936.078913 kJ/mol
# GULP energy per Si atom -12389.626233 kJ/mol
# Density = 1.510211 g / cm^3
# Si number density = 15.136559 Si / 1000 Ang^3
#
#
#
# Elastic Constant Matrix: (Units=GPa)
#
#
# Indices 1 2 3 4 5 6 
#
# 1 76.3631 35.0164 37.2124 0.0000 0.0000 0.0000
# 2 35.0164 62.1502 38.3701 0.0000 0.0000 0.0000
# 3 37.2124 38.3701 76.3143 0.0000 0.0000 0.0000
# 4 0.0000 0.0000 0.0000 1.6230 0.0000 0.0000
# 5 0.0000 0.0000 0.0000 0.0000 13.6950 0.0000
# 6 0.0000 0.0000 0.0000 0.0000 0.0000 13.3964
#
#
#
# Elastic Compliance Matrix: (Units=1/GPa)
#
#
# Indices 1 2 3 4 5 6 
#
# 1 0.019226 -0.007315 -0.005697 0.000000 0.000000 0.000000
# 2 -0.007315 0.026116 -0.009564 0.000000 0.000000 0.000000
# 3 -0.005697 -0.009564 0.020690 0.000000 0.000000 0.000000
# 4 0.000000 0.000000 0.000000 0.616129 0.000000 0.000000
# 5 0.000000 0.000000 0.000000 0.000000 0.073019 0.000000
# 6 0.000000 0.000000 0.000000 0.000000 0.000000 0.074647
#
#
# Mechanical properties :
#
#
# Convention : Reuss Voigt Hill
#
# Bulk Modulus (GPa) = 47.89195 48.44726 48.16961
# Shear Modulus (GPa) = 5.66932 12.69146 9.18039
#
# Velocity S-wave (km/s) = 1.93742 2.89877 2.46540
# Velocity P-wave (km/s) = 6.05916 6.57876 6.32430
#
# Compressibility (1/GPa) = 0.02088033
#
# Stress axis : x y z
#
# Youngs Moduli (GPa) = 52.01342 38.29081 48.33172
#
# Poissons Ratio (x) = 0.28009 0.27535
# Poissons Ratio (y) = 0.38047 0.46224
# Poissons Ratio (z) = 0.29632 0.36621
#
# Static dielectric constant tensor:
#      x y z
#    x 2.835500 0.000000 0.000000 
#    y 0.000000 2.786130 0.000000 
#    z 0.000000 0.000000 3.073960 
# 
# 
# High freq. dielectric constant tensor:
#      x y z
#    x 1.564940 0.000000 0.000000 
#    y 0.000000 1.551840 0.000000 
#    z 0.000000 0.000000 1.558210 
# 
# From -- ./inp_files/27156.got.cif
#   From: 2010.03.12/outbox.cif.g09.slc.cpg/sg47_14_cif.got.tgz:27156.got - 2010.04.14 03:12:58.
