data_PCOD8196390
_publ_section_title
;
Structure prediction by ZEFSAII (Michael W. Deem and Ramdas Pophale) SiO2 
 PCOD8196390
Probable space group: P M M M
;
_chemical_formula_sum "Si O2"
_cell_formula_units_Z 56
_cell_length_a 15.305444
_cell_length_b 9.221478
_cell_length_c 20.397511
_cell_angle_alpha 90.000000
_cell_angle_beta 90.000000
_cell_angle_gamma 90.000000
_cell_volume 2878.880534
_symmetry_space_group_name_H-M "P M M M"
_symmetry_group_IT_number 47
_symmetry_cell_setting 'orthorhombic'
loop_
_space_group_symop_operation_xyz
x,y,z
-x,-y,z
x,-y,-z
-x,y,-z
-x,-y,-z
x,y,-z
-x,y,z
x,-y,z
loop_
_atom_site_type_symbol
_atom_site_label
_atom_site_fract_x
_atom_site_fract_y
_atom_site_fract_z
Si Si1 0.720088 0.669519 0.573837
Si Si2 0.867405 0.336697 0.239699
Si Si3 0.260688 0.668014 0.928128
Si Si4 0.094020 0.671639 0.384818
Si Si5 0.096808 0.833023 0.113574
Si Si6 0.331142 0.663066 0.207106
Si Si7 0.599927 0.166133 0.676989
O O1 0.686134 0.695426 0.500000
O O2 0.717029 0.500000 0.592848
O O3 0.820136 0.730082 0.577568
O O4 0.658114 0.752600 0.623686
O O5 0.900172 0.500000 0.224952
O O6 0.900860 0.280888 0.309300
O O7 0.906673 0.228509 0.186823
O O8 0.762977 0.333023 0.240779
O O9 0.239210 0.500000 0.914408
O O10 0.168150 0.749547 0.929497
O O11 0.323592 0.721207 0.868726
O O12 0.305042 0.690258 0.000000
O O13 0.094894 0.500000 0.390990
O O14 0.000000 0.729897 0.412985
O O15 0.000000 0.815531 0.082206
O O16 0.124822 0.000000 0.116275
O O17 0.369853 0.500000 0.207665
O O18 0.392740 0.766177 0.250026
O O19 0.500000 0.179128 0.654166
O O20 0.630465 0.000000 0.680679
#
# Coordination Sequence:
#
# PCOD8196390 Si02
#       7
#     8   8   8   8   8   8   8
#     4  10  21  38  59  84 116 151 188 231 278 327
#     4   9  16  29  50  73 101 139 182 228 276 324
#     4   9  19  35  54  76 103 139 181 223 272 330
#     4   9  16  28  50  80 112 145 183 227 273 321
#     4  10  20  30  41  65 103 142 183 232 279 323
#     4   9  17  33  58  84 109 137 176 226 273 322
#     4  11  24  40  60  86 114 145 182 226 279 339
#
# _framework density 19.452006000000001
#
# number of rings (size 3 to 8) (size 9 to 14) (size 15 to 20)
#    0.000    2.429    1.429    2.143    0.000    6.571 
#    0.000    4.286    0.000    0.857    0.000    4.000 
#    0.000    0.000    0.000    0.000    0.000    0.000 
#
# Total GULP energy -694024.927599 kJ/mol
# GULP energy per Si atom -12393.302279 kJ/mol
# Density = 1.940773 g / cm^3
# Si number density = 19.452006 Si / 1000 Ang^3
#
#
#
# Elastic Constant Matrix: (Units=GPa)
#
#
# Indices 1 2 3 4 5 6 
#
# 1 77.6146 32.7830 44.7681 0.0000 0.0000 0.0000
# 2 32.7830 76.0819 46.8658 0.0000 0.0000 0.0000
# 3 44.7681 46.8658 115.2512 0.0000 0.0000 0.0000
# 4 0.0000 0.0000 0.0000 8.2857 0.0000 0.0000
# 5 0.0000 0.0000 0.0000 0.0000 32.1261 0.0000
# 6 0.0000 0.0000 0.0000 0.0000 0.0000 21.7083
#
#
#
# Elastic Compliance Matrix: (Units=1/GPa)
#
#
# Indices 1 2 3 4 5 6 
#
# 1 0.017700 -0.004525 -0.005035 0.000000 0.000000 0.000000
# 2 -0.004525 0.018693 -0.005844 0.000000 0.000000 0.000000
# 3 -0.005035 -0.005844 0.013009 0.000000 0.000000 0.000000
# 4 0.000000 0.000000 0.000000 0.120690 0.000000 0.000000
# 5 0.000000 0.000000 0.000000 0.000000 0.031127 0.000000
# 6 0.000000 0.000000 0.000000 0.000000 0.000000 0.046065
#
#
# Mechanical properties :
#
#
# Convention : Reuss Voigt Hill
#
# Bulk Modulus (GPa) = 53.78101 57.53126 55.65614
# Shear Modulus (GPa) = 17.58765 22.05941 19.82353
#
# Velocity S-wave (km/s) = 3.01018 3.37121 3.19580
# Velocity P-wave (km/s) = 6.30790 6.69280 6.50320
#
# Compressibility (1/GPa) = 0.01859392
#
# Stress axis : x y z
#
# Youngs Moduli (GPa) = 56.49795 53.49538 76.87058
#
# Poissons Ratio (x) = 0.24207 0.38706
# Poissons Ratio (y) = 0.25565 0.44921
# Poissons Ratio (z) = 0.28448 0.31261
#
# Static dielectric constant tensor:
#      x y z
#    x 3.533940 0.000000 0.000000 
#    y 0.000000 3.336360 0.000000 
#    z 0.000000 0.000000 3.619600 
# 
# 
# High freq. dielectric constant tensor:
#      x y z
#    x 1.740490 0.000000 0.000000 
#    y 0.000000 1.728850 0.000000 
#    z 0.000000 0.000000 1.760440 
# 
# From -- ./inp_files/7262.got.cif
#   From: 2010.03.12/outbox.cif.g09.slc.cpg/sg47_4_cif.got.tgz:7262.got - 2010.04.14 03:12:58.
