data_PCOD8196525
_publ_section_title
;
Structure prediction by ZEFSAII (Michael W. Deem and Ramdas Pophale) SiO2 
 PCOD8196525
Probable space group: P M M M
;
_chemical_formula_sum "Si O2"
_cell_formula_units_Z 64
_cell_length_a 14.279814
_cell_length_b 31.265919
_cell_length_c 8.976797
_cell_angle_alpha 90.000000
_cell_angle_beta 90.000000
_cell_angle_gamma 90.000000
_cell_volume 4007.884092
_symmetry_space_group_name_H-M "P M M M"
_symmetry_group_IT_number 47
_symmetry_cell_setting 'orthorhombic'
loop_
_space_group_symop_operation_xyz
x,y,z
-x,-y,z
x,-y,-z
-x,y,-z
-x,-y,-z
x,y,-z
-x,y,z
x,-y,z
loop_
_atom_site_type_symbol
_atom_site_label
_atom_site_fract_x
_atom_site_fract_y
_atom_site_fract_z
Si Si1 0.388924 0.453065 0.332970
Si Si2 0.610163 0.630720 0.828020
Si Si3 0.605873 0.952926 0.677203
Si Si4 0.288611 0.128276 0.675577
Si Si5 0.605300 0.211432 0.322622
Si Si6 0.104397 0.828687 0.672020
Si Si7 0.280989 0.706231 0.676439
Si Si8 0.893701 0.260566 0.825640
O O1 0.352528 0.443077 0.500000
O O2 0.500000 0.453945 0.333400
O O3 0.351740 0.500000 0.281132
O O4 0.353947 0.416364 0.220605
O O5 0.500000 0.636238 0.796839
O O6 0.665045 0.664594 0.729755
O O7 0.634677 0.637434 0.000000
O O8 0.610674 0.952880 0.500000
O O9 0.500000 0.942874 0.728881
O O10 0.674041 0.916358 0.745183
O O11 0.636742 0.000000 0.736183
O O12 0.304364 0.126629 0.500000
O O13 0.347148 0.168293 0.740423
O O14 0.178766 0.134409 0.715187
O O15 0.604813 0.211087 0.500000
O O16 0.500000 0.214348 0.259539
O O17 0.663170 0.252197 0.264694
O O18 0.118143 0.814911 0.500000
O O19 0.124921 0.787383 0.770128
O O20 0.000000 0.846851 0.700702
O O21 0.273789 0.705347 0.500000
O O22 0.176433 0.706887 0.743994
O O23 0.000000 0.274508 0.787660
O O24 0.874200 0.262008 0.000000
#
# Coordination Sequence:
#
# PCOD8196525 Si02
#       8
#     8   8   8   8   8   8   8   8
#     4   8  14  26  44  64  86 116 158 204 241 272
#     4  10  20  31  43  63  94 130 162 192 231 276
#     4   8  13  20  31  50  78 110 139 170 212 260
#     4   9  14  22  36  55  78 106 141 178 214 254
#     4   9  16  24  36  57  81 107 142 180 212 246
#     4   9  16  27  43  62  82 105 139 178 216 262
#     4  11  20  31  46  64  88 119 154 188 222 267
#     4  10  20  33  48  65  86 112 143 183 230 274
#
# _framework density 15.968527
#
# number of rings (size 3 to 8) (size 9 to 14) (size 15 to 20)
#    0.000    2.750    1.250    2.625    0.000    3.750 
#    0.000    1.250    0.000    0.375    0.000    2.625 
#    0.000    1.000    0.000    9.750    0.000    7.000 
#
# Total GULP energy -793274.687619 kJ/mol
# GULP energy per Si atom -12394.916994 kJ/mol
# Density = 1.593218 g / cm^3
# Si number density = 15.968527 Si / 1000 Ang^3
#
#
#
# Elastic Constant Matrix: (Units=GPa)
#
#
# Indices 1 2 3 4 5 6 
#
# 1 96.8873 55.8142 31.7389 0.0000 0.0000 0.0000
# 2 55.8142 117.5635 30.6875 0.0000 0.0000 0.0000
# 3 31.7389 30.6875 44.4503 0.0000 0.0000 0.0000
# 4 0.0000 0.0000 0.0000 6.9556 0.0000 0.0000
# 5 0.0000 0.0000 0.0000 0.0000 15.5072 0.0000
# 6 0.0000 0.0000 0.0000 0.0000 0.0000 10.8811
#
#
#
# Elastic Compliance Matrix: (Units=1/GPa)
#
#
# Indices 1 2 3 4 5 6 
#
# 1 0.016052 -0.005646 -0.007563 0.000000 0.000000 0.000000
# 2 -0.005646 0.012362 -0.004503 0.000000 0.000000 0.000000
# 3 -0.007563 -0.004503 0.031006 0.000000 0.000000 0.000000
# 4 0.000000 0.000000 0.000000 0.143769 0.000000 0.000000
# 5 0.000000 0.000000 0.000000 0.000000 0.064486 0.000000
# 6 0.000000 0.000000 0.000000 0.000000 0.000000 0.091903
#
#
# Mechanical properties :
#
#
# Convention : Reuss Voigt Hill
#
# Bulk Modulus (GPa) = 41.67551 55.04248 48.35899
# Shear Modulus (GPa) = 12.40694 16.04614 14.22654
#
# Velocity S-wave (km/s) = 2.79043 3.17339 2.98805
# Velocity P-wave (km/s) = 6.04460 6.92614 6.50033
#
# Compressibility (1/GPa) = 0.02399491
#
# Stress axis : x y z
#
# Youngs Moduli (GPa) = 62.29906 80.89243 32.25185
#
# Poissons Ratio (x) = 0.45675 0.24393
# Poissons Ratio (y) = 0.35177 0.14522
# Poissons Ratio (z) = 0.47118 0.36424
#
# Static dielectric constant tensor:
#      x y z
#    x 3.077650 0.000000 0.000000 
#    y 0.000000 3.243020 0.000000 
#    z 0.000000 0.000000 2.770740 
# 
# 
# High freq. dielectric constant tensor:
#      x y z
#    x 1.597360 0.000000 0.000000 
#    y 0.000000 1.605090 0.000000 
#    z 0.000000 0.000000 1.583400 
# 
# From -- ./inp_files/8249.got.cif
#   From: 2010.03.12/outbox.cif.g09.slc.cpg/sg47_5_cif.got.tgz:8249.got - 2010.04.14 03:12:58.
