data_PCOD8196649
_publ_section_title
;
Structure prediction by ZEFSAII (Michael W. Deem and Ramdas Pophale) SiO2 
 PCOD8196649
Probable space group: P M M M
;
_chemical_formula_sum "Si O2"
_cell_formula_units_Z 44
_cell_length_a 7.586373
_cell_length_b 32.162654
_cell_length_c 9.435603
_cell_angle_alpha 90.000000
_cell_angle_beta 90.000000
_cell_angle_gamma 90.000000
_cell_volume 2302.267222
_symmetry_space_group_name_H-M "P M M M"
_symmetry_group_IT_number 47
_symmetry_cell_setting 'orthorhombic'
loop_
_space_group_symop_operation_xyz
x,y,z
-x,-y,z
x,-y,-z
-x,y,-z
-x,-y,-z
x,y,-z
-x,y,z
x,-y,z
loop_
_atom_site_type_symbol
_atom_site_label
_atom_site_fract_x
_atom_site_fract_y
_atom_site_fract_z
Si Si1 0.708391 0.000000 0.154311
Si Si2 0.290477 0.621626 0.159002
Si Si3 0.000000 0.850211 0.831669
Si Si4 0.303074 0.089174 0.169431
Si Si5 0.709589 0.546032 0.658913
Si Si6 0.702132 0.299137 0.336414
Si Si7 0.000000 0.234110 0.336651
O O1 0.759256 0.956295 0.231645
O O2 0.500000 0.000000 0.134746
O O3 0.800062 0.000000 0.000000
O O4 0.500000 0.619297 0.157474
O O5 0.211513 0.580682 0.235535
O O6 0.229347 0.662415 0.243269
O O7 0.214269 0.623618 0.000000
O O8 0.171765 0.875126 0.777697
O O9 0.000000 0.805471 0.762632
O O10 0.000000 0.844867 0.000000
O O11 0.500000 0.100486 0.222923
O O12 0.300760 0.085826 0.000000
O O13 0.778996 0.554842 0.500000
O O14 0.500000 0.548321 0.659207
O O15 0.771279 0.500000 0.708557
O O16 0.721234 0.312400 0.500000
O O17 0.500000 0.287230 0.300128
O O18 0.824267 0.259988 0.300734
O O19 0.000000 0.220180 0.500000
#
# Coordination Sequence:
#
# PCOD8196649 Si02
#       7
#     4   8   4   8   8   8   4
#     4   7  10  19  37  61  92 128 160 192 230 270
#     4   9  16  25  40  65  94 121 152 192 237 284
#     4  10  20  31  46  70  96 123 155 192 238 287
#     4   8  14  25  41  65  98 130 159 194 235 276
#     4   8  13  21  34  55  87 127 165 196 227 269
#     4   9  18  34  54  71  89 117 153 194 237 280
#     4  10  22  38  53  71  94 121 158 198 236 286
#
# _framework density 19.111594
#
# number of rings (size 3 to 8) (size 9 to 14) (size 15 to 20)
#    0.000    3.364    0.000    2.182    0.000    4.364 
#    0.000    3.636    0.000    0.000    0.000    1.909 
#    0.000    7.273    0.000    0.545    0.000    0.000 
#
# Total GULP energy -545219.019716 kJ/mol
# GULP energy per Si atom -12391.341357 kJ/mol
# Density = 1.906810 g / cm^3
# Si number density = 19.111594 Si / 1000 Ang^3
#
#
#
# Elastic Constant Matrix: (Units=GPa)
#
#
# Indices 1 2 3 4 5 6 
#
# 1 77.4092 60.4780 27.8671 0.0000 0.0000 0.0000
# 2 60.4780 183.7739 76.2576 0.0000 0.0000 0.0000
# 3 27.8671 76.2576 77.7430 0.0000 0.0000 0.0000
# 4 0.0000 0.0000 0.0000 12.9743 0.0000 0.0000
# 5 0.0000 0.0000 0.0000 0.0000 6.7482 0.0000
# 6 0.0000 0.0000 0.0000 0.0000 0.0000 -37.5974
#
#
#
# Elastic Compliance Matrix: (Units=1/GPa)
#
#
# Indices 1 2 3 4 5 6 
#
# 1 0.017440 -0.005304 -0.001049 0.000000 0.000000 0.000000
# 2 -0.005304 0.010790 -0.008682 0.000000 0.000000 0.000000
# 3 -0.001049 -0.008682 0.021755 0.000000 0.000000 0.000000
# 4 0.000000 0.000000 0.000000 0.077075 0.000000 0.000000
# 5 0.000000 0.000000 0.000000 0.000000 0.148188 0.000000
# 6 0.000000 0.000000 0.000000 0.000000 0.000000 -0.026598
#
#
# Mechanical properties :
#
#
# Convention : Reuss Voigt Hill
#
# Bulk Modulus (GPa) = 50.21401 74.23685 62.22543
# Shear Modulus (GPa) = 17.52181 8.04658 12.78419
#
# Velocity S-wave (km/s) = 3.03118 2.05413 2.58916
# Velocity P-wave (km/s) = 6.21143 6.67489 6.44733
#
# Compressibility (1/GPa) = 0.01991476
#
# Stress axis : x y z
#
# Youngs Moduli (GPa) = 57.33995 92.68034 45.96608
#
# Poissons Ratio (x) = 0.49159 0.04820
# Poissons Ratio (y) = 0.30414 0.39909
# Poissons Ratio (z) = 0.06012 0.80468
#
# Static dielectric constant tensor:
#      x y z
#    x 3.369220 0.000000 0.000000 
#    y 0.000000 3.645480 0.000000 
#    z 0.000000 0.000000 3.248560 
# 
# 
# High freq. dielectric constant tensor:
#      x y z
#    x 1.728460 0.000000 0.000000 
#    y 0.000000 1.748190 0.000000 
#    z 0.000000 0.000000 1.697710 
# 
# From -- ./inp_files/2363.got.cif
#   From: 2010.03.12/outbox.cif.g09.slc.cpg/sg47_2_cif.got.tgz:2363.got - 2010.04.14 03:12:58.
