data_PCOD8196133
_publ_section_title
;
Structure prediction by ZEFSAII (Michael W. Deem and Ramdas Pophale) SiO2 
 PCOD8196133
Probable space group: P M M M
;
_chemical_formula_sum "Si O2"
_cell_formula_units_Z 48
_cell_length_a 15.435275
_cell_length_b 19.919197
_cell_length_c 8.910976
_cell_angle_alpha 90.000000
_cell_angle_beta 90.000000
_cell_angle_gamma 90.000000
_cell_volume 2739.753385
_symmetry_space_group_name_H-M "P M M M"
_symmetry_group_IT_number 47
_symmetry_cell_setting 'orthorhombic'
loop_
_space_group_symop_operation_xyz
x,y,z
-x,-y,z
x,-y,-z
-x,y,-z
-x,-y,-z
x,y,-z
-x,y,z
x,-y,z
loop_
_atom_site_type_symbol
_atom_site_label
_atom_site_fract_x
_atom_site_fract_y
_atom_site_fract_z
Si Si1 0.720855 0.752174 0.177816
Si Si2 0.093823 0.290989 0.175139
Si Si3 0.402365 0.500000 0.837834
Si Si4 0.871386 0.574238 0.330880
Si Si5 0.600045 0.136598 0.322346
Si Si6 0.321580 0.617372 0.670119
Si Si7 0.397846 0.000000 0.167483
O O1 0.822433 0.750754 0.235633
O O2 0.667440 0.810046 0.258443
O O3 0.677520 0.682650 0.225227
O O4 0.714327 0.762495 0.000000
O O5 0.087300 0.366806 0.234296
O O6 0.000000 0.256142 0.213096
O O7 0.107670 0.297477 0.000000
O O8 0.500000 0.500000 0.884323
O O9 0.388897 0.566161 0.739452
O O10 0.350785 0.500000 0.000000
O O11 0.905521 0.582896 0.500000
O O12 0.897990 0.500000 0.270031
O O13 0.768618 0.578884 0.326677
O O14 0.607805 0.134290 0.500000
O O15 0.500000 0.152635 0.274919
O O16 0.632205 0.065613 0.257358
O O17 0.347546 0.637563 0.500000
O O18 0.500000 0.000000 0.155159
O O19 0.356860 0.000000 0.000000
#
# Coordination Sequence:
#
# PCOD8196133 Si02
#       7
#     8   8   4   8   8   8   4
#     4  10  20  34  53  76 101 134 172 212 255 300
#     4   9  19  34  49  69  97 128 165 208 255 307
#     4  11  23  35  47  65  88 117 158 207 257 308
#     4   9  17  30  47  67  89 115 151 197 251 307
#     4  10  20  34  53  79 111 144 174 205 245 295
#     4  10  19  34  51  66  88 121 161 206 254 303
#     4   9  17  31  53  81 112 143 172 205 243 288
#
# _framework density 17.519824
#
# number of rings (size 3 to 8) (size 9 to 14) (size 15 to 20)
#    0.000    2.333    0.833    2.000    0.000    5.667 
#    0.000    1.667    0.000    0.000    0.000    0.583 
#    0.000    4.667    0.000    0.000    0.000    0.000 
#
# Total GULP energy -594786.329099 kJ/mol
# GULP energy per Si atom -12391.381856 kJ/mol
# Density = 1.747995 g / cm^3
# Si number density = 17.519824 Si / 1000 Ang^3
#
#
#
# Elastic Constant Matrix: (Units=GPa)
#
#
# Indices 1 2 3 4 5 6 
#
# 1 93.4849 60.1157 38.4227 0.0000 0.0000 0.0000
# 2 60.1157 112.7539 33.9596 0.0000 0.0000 0.0000
# 3 38.4227 33.9596 67.6360 0.0000 0.0000 0.0000
# 4 0.0000 0.0000 0.0000 49.7240 0.0000 0.0000
# 5 0.0000 0.0000 0.0000 0.0000 13.3589 0.0000
# 6 0.0000 0.0000 0.0000 0.0000 0.0000 3.2346
#
#
#
# Elastic Compliance Matrix: (Units=1/GPa)
#
#
# Indices 1 2 3 4 5 6 
#
# 1 0.018435 -0.007864 -0.006524 0.000000 0.000000 0.000000
# 2 -0.007864 0.013804 -0.002463 0.000000 0.000000 0.000000
# 3 -0.006524 -0.002463 0.019728 0.000000 0.000000 0.000000
# 4 0.000000 0.000000 0.000000 0.020111 0.000000 0.000000
# 5 0.000000 0.000000 0.000000 0.000000 0.074856 0.000000
# 6 0.000000 0.000000 0.000000 0.000000 0.000000 0.309154
#
#
# Mechanical properties :
#
#
# Convention : Reuss Voigt Hill
#
# Bulk Modulus (GPa) = 54.75283 59.87453 57.31368
# Shear Modulus (GPa) = 10.08310 22.68862 16.38586
#
# Velocity S-wave (km/s) = 2.40161 3.60255 3.06155
# Velocity P-wave (km/s) = 6.24581 7.18011 6.72919
#
# Compressibility (1/GPa) = 0.01826389
#
# Stress axis : x y z
#
# Youngs Moduli (GPa) = 54.24356 72.44529 50.68890
#
# Poissons Ratio (x) = 0.56971 0.33071
# Poissons Ratio (y) = 0.42657 0.12486
# Poissons Ratio (z) = 0.35390 0.17846
#
# Static dielectric constant tensor:
#      x y z
#    x 3.388200 0.000000 0.000000 
#    y 0.000000 3.214230 0.000000 
#    z 0.000000 0.000000 3.386130 
# 
# 
# High freq. dielectric constant tensor:
#      x y z
#    x 1.667990 0.000000 0.000000 
#    y 0.000000 1.652960 0.000000 
#    z 0.000000 0.000000 1.688280 
# 
# From -- ./inp_files/6403.got.cif
#   From: 2010.03.12/outbox.cif.g09.slc.cpg/sg47_4_cif.got.tgz:6403.got - 2010.04.14 03:12:58.
