data_PCOD8196635
_publ_section_title
;
Structure prediction by ZEFSAII (Michael W. Deem and Ramdas Pophale) SiO2 
 PCOD8196635
Probable space group: P M M M
;
_chemical_formula_sum "Si O2"
_cell_formula_units_Z 44
_cell_length_a 9.323416
_cell_length_b 7.744351
_cell_length_c 29.600388
_cell_angle_alpha 90.000000
_cell_angle_beta 90.000000
_cell_angle_gamma 90.000000
_cell_volume 2137.260673
_symmetry_space_group_name_H-M "P M M M"
_symmetry_group_IT_number 47
_symmetry_cell_setting 'orthorhombic'
loop_
_space_group_symop_operation_xyz
x,y,z
-x,-y,z
x,-y,-z
-x,y,-z
-x,-y,-z
x,y,-z
-x,y,z
x,-y,z
loop_
_atom_site_type_symbol
_atom_site_label
_atom_site_fract_x
_atom_site_fract_y
_atom_site_fract_z
Si Si1 0.165759 0.000000 0.553395
Si Si2 0.343866 0.301928 0.130566
Si Si3 0.160838 0.797345 0.786776
Si Si4 0.839817 0.294738 0.950309
Si Si5 0.333290 0.695421 0.398826
Si Si6 0.163981 0.797313 0.684646
O O1 0.243281 0.827183 0.570624
O O2 0.174984 0.000000 0.500000
O O3 0.000000 0.000000 0.570000
O O4 0.500000 0.212422 0.134317
O O5 0.363529 0.500000 0.117762
O O6 0.265909 0.293001 0.178476
O O7 0.256563 0.211971 0.089556
O O8 0.208737 0.751558 0.735853
O O9 0.000000 0.728599 0.795282
O O10 0.166546 0.000000 0.794502
O O11 0.844171 0.500000 0.946217
O O12 0.000000 0.221019 0.944141
O O13 0.780313 0.241181 0.000000
O O14 0.500000 0.750815 0.398570
O O15 0.316586 0.500000 0.417801
O O16 0.272247 0.697230 0.347957
O O17 0.000000 0.739008 0.675798
O O18 0.178896 0.000000 0.675033
#
# Coordination Sequence:
#
# PCOD8196635 Si02
#       6
#     4   8   8   8   8   8
#     4  11  25  45  69  95 125 165 213 263 308 353
#     4  10  20  31  45  70 103 135 168 212 267 326
#     4   9  19  35  54  76 103 140 185 227 269 322
#     4   8  14  26  45  67  90 121 164 212 263 321
#     4  11  24  40  62  95 131 166 204 249 306 369
#     4   9  18  35  59  84 111 148 195 243 290 343
#
# _framework density 20.5871
#
# number of rings (size 3 to 8) (size 9 to 14) (size 15 to 20)
#    0.000    2.455    0.909    3.000    0.000    5.818 
#    0.000    9.091    0.000    0.545    0.000    3.818 
#    0.000    0.000    0.000    0.000    0.000    0.000 
#
# Total GULP energy -545433.614817 kJ/mol
# GULP energy per Si atom -12396.218519 kJ/mol
# Density = 2.054024 g / cm^3
# Si number density = 20.587100 Si / 1000 Ang^3
#
#
#
# Elastic Constant Matrix: (Units=GPa)
#
#
# Indices 1 2 3 4 5 6 
#
# 1 149.5570 41.2067 76.0799 0.0000 0.0000 0.0000
# 2 41.2067 60.3262 30.4597 0.0000 0.0000 0.0000
# 3 76.0799 30.4597 123.8666 0.0000 0.0000 0.0000
# 4 0.0000 0.0000 0.0000 58.0365 0.0000 0.0000
# 5 0.0000 0.0000 0.0000 0.0000 13.9649 0.0000
# 6 0.0000 0.0000 0.0000 0.0000 0.0000 20.9655
#
#
#
# Elastic Compliance Matrix: (Units=1/GPa)
#
#
# Indices 1 2 3 4 5 6 
#
# 1 0.010724 -0.004566 -0.005464 0.000000 0.000000 0.000000
# 2 -0.004566 0.020871 -0.002328 0.000000 0.000000 0.000000
# 3 -0.005464 -0.002328 0.012002 0.000000 0.000000 0.000000
# 4 0.000000 0.000000 0.000000 0.017231 0.000000 0.000000
# 5 0.000000 0.000000 0.000000 0.000000 0.071608 0.000000
# 6 0.000000 0.000000 0.000000 0.000000 0.000000 0.047697
#
#
# Mechanical properties :
#
#
# Convention : Reuss Voigt Hill
#
# Bulk Modulus (GPa) = 52.96397 69.91582 61.43990
# Shear Modulus (GPa) = 23.68075 30.99362 27.33718
#
# Velocity S-wave (km/s) = 3.39524 3.88427 3.64796
# Velocity P-wave (km/s) = 6.41505 7.35877 6.90305
#
# Compressibility (1/GPa) = 0.01888076
#
# Stress axis : x y z
#
# Youngs Moduli (GPa) = 93.24816 47.91346 83.32261
#
# Poissons Ratio (x) = 0.21879 0.45527
# Poissons Ratio (y) = 0.42581 0.19394
# Poissons Ratio (z) = 0.50950 0.11152
#
# Static dielectric constant tensor:
#      x y z
#    x 3.975870 0.000000 0.000000 
#    y 0.000000 3.394080 0.000000 
#    z 0.000000 0.000000 3.843910 
# 
# 
# High freq. dielectric constant tensor:
#      x y z
#    x 1.802790 0.000000 0.000000 
#    y 0.000000 1.782390 0.000000 
#    z 0.000000 0.000000 1.811130 
# 
# From -- ./inp_files/33923.got.cif
#   From: 2010.03.12/outbox.cif.g09.slc.cpg/sg47_17_cif.got.tgz:33923.got - 2010.04.14 03:12:58.
