data_PCOD8196177
_publ_section_title
;
Structure prediction by ZEFSAII (Michael W. Deem and Ramdas Pophale) SiO2 
 PCOD8196177
Probable space group: P M M M
;
_chemical_formula_sum "Si O2"
_cell_formula_units_Z 52
_cell_length_a 18.631419
_cell_length_b 18.311828
_cell_length_c 8.000884
_cell_angle_alpha 90.000000
_cell_angle_beta 90.000000
_cell_angle_gamma 90.000000
_cell_volume 2729.704320
_symmetry_space_group_name_H-M "P M M M"
_symmetry_group_IT_number 47
_symmetry_cell_setting 'orthorhombic'
loop_
_space_group_symop_operation_xyz
x,y,z
-x,-y,z
x,-y,-z
-x,y,-z
-x,-y,-z
x,y,-z
-x,y,z
x,-y,z
loop_
_atom_site_type_symbol
_atom_site_label
_atom_site_fract_x
_atom_site_fract_y
_atom_site_fract_z
Si Si1 0.080488 0.586517 0.500000
Si Si2 0.823861 0.415587 0.811968
Si Si3 0.081318 0.917614 0.304943
Si Si4 0.656138 0.080666 0.697827
Si Si5 0.213560 0.835459 0.188138
Si Si6 0.717256 0.695512 0.309887
Si Si7 0.420843 0.776432 0.699009
O O1 0.075815 0.500000 0.500000
O O2 0.120739 0.612900 0.669564
O O3 0.000000 0.619802 0.500000
O O4 0.805048 0.500000 0.780641
O O5 0.749964 0.370302 0.798346
O O6 0.855867 0.404695 0.000000
O O7 0.098610 0.914474 0.500000
O O8 0.132033 0.860921 0.210473
O O9 0.000000 0.893170 0.268395
O O10 0.093702 0.000000 0.238978
O O11 0.662124 0.083420 0.500000
O O12 0.734797 0.096496 0.771114
O O13 0.600311 0.142164 0.762313
O O14 0.631162 0.000000 0.757728
O O15 0.231750 0.766741 0.305512
O O16 0.224841 0.808375 0.000000
O O17 0.711503 0.668493 0.500000
O O18 0.638249 0.717618 0.238146
O O19 0.420968 0.776226 0.500000
O O20 0.500000 0.756715 0.769450
#
# Coordination Sequence:
#
# PCOD8196177 Si02
#       7
#     4   8   8   8   8   8   8
#     4   9  18  34  56  84 117 149 180 215 261 313
#     4  10  20  35  58  87 116 147 185 226 266 315
#     4   9  18  33  51  68  89 122 164 210 261 315
#     4   9  17  29  46  68  95 130 171 214 263 322
#     4  11  21  31  46  69  97 128 167 215 263 315
#     4  10  19  34  56  77 103 139 177 218 266 322
#     4   8  15  28  48  76 104 132 172 222 274 325
#
# _framework density 19.049682000000001
#
# number of rings (size 3 to 8) (size 9 to 14) (size 15 to 20)
#    0.000    2.538    0.769    3.692    0.000    3.385 
#    0.000    4.615    0.000   13.846    0.000    7.538 
#    0.000    0.000    0.000    0.000    0.000    0.000 
#
# Total GULP energy -644577.991180 kJ/mol
# GULP energy per Si atom -12395.730600 kJ/mol
# Density = 1.900632 g / cm^3
# Si number density = 19.049682 Si / 1000 Ang^3
#
#
#
# Elastic Constant Matrix: (Units=GPa)
#
#
# Indices 1 2 3 4 5 6 
#
# 1 139.7284 53.1069 30.9654 0.0000 0.0000 0.0000
# 2 53.1069 68.3009 24.9181 0.0000 0.0000 0.0000
# 3 30.9654 24.9181 69.1015 0.0000 0.0000 0.0000
# 4 0.0000 0.0000 0.0000 16.2048 0.0000 0.0000
# 5 0.0000 0.0000 0.0000 0.0000 6.6129 0.0000
# 6 0.0000 0.0000 0.0000 0.0000 0.0000 22.3100
#
#
#
# Elastic Compliance Matrix: (Units=1/GPa)
#
#
# Indices 1 2 3 4 5 6 
#
# 1 0.010395 -0.007350 -0.002008 0.000000 0.000000 0.000000
# 2 -0.007350 0.022056 -0.004660 0.000000 0.000000 0.000000
# 3 -0.002008 -0.004660 0.017051 0.000000 0.000000 0.000000
# 4 0.000000 0.000000 0.000000 0.061710 0.000000 0.000000
# 5 0.000000 0.000000 0.000000 0.000000 0.151220 0.000000
# 6 0.000000 0.000000 0.000000 0.000000 0.000000 0.044823
#
#
# Mechanical properties :
#
#
# Convention : Reuss Voigt Hill
#
# Bulk Modulus (GPa) = 46.58216 55.01241 50.79728
# Shear Modulus (GPa) = 14.60079 20.23490 17.41785
#
# Velocity S-wave (km/s) = 2.77150 3.26270 3.02708
# Velocity P-wave (km/s) = 5.89472 6.56770 6.24029
#
# Compressibility (1/GPa) = 0.02146745
#
# Stress axis : x y z
#
# Youngs Moduli (GPa) = 96.19686 45.33854 58.64597
#
# Poissons Ratio (x) = 0.33325 0.11775
# Poissons Ratio (y) = 0.70708 0.27327
# Poissons Ratio (z) = 0.19314 0.21126
#
# Static dielectric constant tensor:
#      x y z
#    x 3.649980 0.000000 0.000000 
#    y 0.000000 3.340900 0.000000 
#    z 0.000000 0.000000 3.369610 
# 
# 
# High freq. dielectric constant tensor:
#      x y z
#    x 1.730470 0.000000 0.000000 
#    y 0.000000 1.715990 0.000000 
#    z 0.000000 0.000000 1.730900 
# 
# From -- ./inp_files/9565.got.cif
#   From: 2010.03.12/outbox.cif.g09.slc.cpg/sg47_5_cif.got.tgz:9565.got - 2010.04.14 03:12:58.
