data_PCOD8196508
_publ_section_title
;
Structure prediction by ZEFSAII (Michael W. Deem and Ramdas Pophale) SiO2 
 PCOD8196508
Probable space group: P M M M
;
_chemical_formula_sum "Si O2"
_cell_formula_units_Z 44
_cell_length_a 13.717846
_cell_length_b 21.608586
_cell_length_c 9.201014
_cell_angle_alpha 90.000000
_cell_angle_beta 90.000000
_cell_angle_gamma 90.000000
_cell_volume 2727.394519
_symmetry_space_group_name_H-M "P M M M"
_symmetry_group_IT_number 47
_symmetry_cell_setting 'orthorhombic'
loop_
_space_group_symop_operation_xyz
x,y,z
-x,-y,z
x,-y,-z
-x,y,-z
-x,-y,-z
x,y,-z
-x,y,z
x,-y,z
loop_
_atom_site_type_symbol
_atom_site_label
_atom_site_fract_x
_atom_site_fract_y
_atom_site_fract_z
Si Si1 0.203375 0.248344 0.328568
Si Si2 0.730659 0.569837 0.330571
Si Si3 0.115906 0.000000 0.836093
Si Si4 0.112516 0.119999 0.330861
Si Si5 0.112271 0.640757 0.167098
Si Si6 0.393374 0.684481 0.671032
O O1 0.188381 0.258820 0.500000
O O2 0.177506 0.178538 0.283835
O O3 0.130576 0.294177 0.246648
O O4 0.314982 0.263366 0.280765
O O5 0.755170 0.579015 0.500000
O O6 0.696829 0.500000 0.296518
O O7 0.827705 0.585368 0.240965
O O8 0.644775 0.616517 0.281897
O O9 0.154694 0.061357 0.756188
O O10 0.000000 0.000000 0.829524
O O11 0.155443 0.000000 0.000000
O O12 0.123607 0.104902 0.500000
O O13 0.000000 0.133833 0.291463
O O14 0.000000 0.622716 0.182058
O O15 0.143990 0.647520 0.000000
O O16 0.405443 0.686699 0.500000
O O17 0.500000 0.696501 0.743246
#
# Coordination Sequence:
#
# PCOD8196508 Si02
#       6
#     8   8   4   8   8   8
#     4   9  17  29  46  67  88 113 146 179 212 254
#     4   9  18  31  46  64  84 109 143 178 213 258
#     4   9  17  27  39  59  88 119 148 176 205 241
#     4   9  16  26  41  61  87 118 147 174 205 242
#     4  10  20  31  43  61  86 115 144 176 215 256
#     4   8  14  26  45  68  90 108 132 174 223 263
#
# _framework density 16.132612999999999
#
# number of rings (size 3 to 8) (size 9 to 14) (size 15 to 20)
#    0.000    3.000    0.000    2.455    0.000    5.091 
#    0.000    5.455    0.000    8.727    0.000    5.727 
#    0.000    5.091    0.000    0.000    0.000    0.000 
#
# Total GULP energy -545439.570344 kJ/mol
# GULP energy per Si atom -12396.353871 kJ/mol
# Density = 1.609589 g / cm^3
# Si number density = 16.132613 Si / 1000 Ang^3
#
#
#
# Elastic Constant Matrix: (Units=GPa)
#
#
# Indices 1 2 3 4 5 6 
#
# 1 93.7861 52.6241 26.9408 0.0000 0.0000 0.0000
# 2 52.6241 137.5454 36.9062 0.0000 0.0000 0.0000
# 3 26.9408 36.9062 49.2470 0.0000 0.0000 0.0000
# 4 0.0000 0.0000 0.0000 12.0913 0.0000 0.0000
# 5 0.0000 0.0000 0.0000 0.0000 8.7345 0.0000
# 6 0.0000 0.0000 0.0000 0.0000 0.0000 15.9848
#
#
#
# Elastic Compliance Matrix: (Units=1/GPa)
#
#
# Indices 1 2 3 4 5 6 
#
# 1 0.014394 -0.004248 -0.004690 0.000000 0.000000 0.000000
# 2 -0.004248 0.010354 -0.005435 0.000000 0.000000 0.000000
# 3 -0.004690 -0.005435 0.026945 0.000000 0.000000 0.000000
# 4 0.000000 0.000000 0.000000 0.082704 0.000000 0.000000
# 5 0.000000 0.000000 0.000000 0.000000 0.114488 0.000000
# 6 0.000000 0.000000 0.000000 0.000000 0.000000 0.062559
#
#
# Mechanical properties :
#
#
# Convention : Reuss Voigt Hill
#
# Bulk Modulus (GPa) = 43.58326 57.05786 50.32056
# Shear Modulus (GPa) = 14.37438 18.30262 16.33850
#
# Velocity S-wave (km/s) = 2.98822 3.37190 3.18584
# Velocity P-wave (km/s) = 6.24342 7.11368 6.69271
#
# Compressibility (1/GPa) = 0.02294459
#
# Stress axis : x y z
#
# Youngs Moduli (GPa) = 69.47468 96.57935 37.11256
#
# Poissons Ratio (x) = 0.41031 0.17407
# Poissons Ratio (y) = 0.29516 0.20172
# Poissons Ratio (z) = 0.32586 0.52495
#
# Static dielectric constant tensor:
#      x y z
#    x 3.116240 0.000000 0.000000 
#    y 0.000000 3.111260 0.000000 
#    z 0.000000 0.000000 2.945170 
# 
# 
# High freq. dielectric constant tensor:
#      x y z
#    x 1.596290 0.000000 0.000000 
#    y 0.000000 1.618160 0.000000 
#    z 0.000000 0.000000 1.604840 
# 
# From -- ./inp_files/6743.got.cif
#   From: 2010.03.12/outbox.cif.g09.slc.cpg/sg47_4_cif.got.tgz:6743.got - 2010.04.14 03:12:58.
