data_PCOD8196522
_publ_section_title
;
Structure prediction by ZEFSAII (Michael W. Deem and Ramdas Pophale) SiO2 
 PCOD8196522
Probable space group: P M M M
;
_chemical_formula_sum "Si O2"
_cell_formula_units_Z 52
_cell_length_a 20.641490
_cell_length_b 9.233109
_cell_length_c 14.459070
_cell_angle_alpha 90.000000
_cell_angle_beta 90.000000
_cell_angle_gamma 90.000000
_cell_volume 2755.683694
_symmetry_space_group_name_H-M "P M M M"
_symmetry_group_IT_number 47
_symmetry_cell_setting 'orthorhombic'
loop_
_space_group_symop_operation_xyz
x,y,z
-x,-y,z
x,-y,-z
-x,y,-z
-x,-y,-z
x,y,-z
-x,y,z
x,-y,z
loop_
_atom_site_type_symbol
_atom_site_label
_atom_site_fract_x
_atom_site_fract_y
_atom_site_fract_z
Si Si1 0.250711 0.161401 0.645590
Si Si2 0.000000 0.671533 0.394728
Si Si3 0.572127 0.831076 0.231678
Si Si4 0.700375 0.841677 0.147829
Si Si5 0.819179 0.332635 0.100258
Si Si6 0.130366 0.328038 0.703918
Si Si7 0.372458 0.334710 0.398328
O O1 0.273408 0.146599 0.749571
O O2 0.183306 0.248199 0.640992
O O3 0.303887 0.253395 0.591249
O O4 0.242273 0.000000 0.602501
O O5 0.938241 0.725138 0.335949
O O6 0.000000 0.500000 0.400826
O O7 0.000000 0.734615 0.500000
O O8 0.500000 0.803187 0.191927
O O9 0.625795 0.783376 0.154833
O O10 0.579838 0.742125 0.326275
O O11 0.583197 0.000000 0.255613
O O12 0.747694 0.736773 0.092559
O O13 0.701505 0.000000 0.100117
O O14 0.805806 0.500000 0.114782
O O15 0.862611 0.278807 0.187325
O O16 0.853726 0.302579 0.000000
O O17 0.139010 0.500000 0.693784
O O18 0.405183 0.330810 0.500000
O O19 0.360380 0.500000 0.365970
#
# Coordination Sequence:
#
# PCOD8196522 Si02
#       7
#     8   4   8   8   8   8   8
#     4   9  17  30  48  68  90 118 154 198 246 291
#     4   9  18  32  50  72  98 131 169 203 238 284
#     4   9  18  32  48  65  88 121 159 198 243 294
#     4   8  15  28  46  68  91 116 150 190 232 283
#     4   9  17  29  47  72  99 125 155 194 241 290
#     4   9  17  31  50  71  98 130 162 198 240 287
#     4  10  20  31  43  63  91 121 157 203 250 296
#
# _framework density 18.870090999999999
#
# number of rings (size 3 to 8) (size 9 to 14) (size 15 to 20)
#    0.000    3.000    0.000    1.846    0.000    6.462 
#    0.000    3.846    0.000    3.231    0.000    3.231 
#    0.000    4.923    0.000    0.000    0.000    0.000 
#
# Total GULP energy -644244.330539 kJ/mol
# GULP energy per Si atom -12389.314049 kJ/mol
# Density = 1.882714 g / cm^3
# Si number density = 18.870091 Si / 1000 Ang^3
#
#
#
# Elastic Constant Matrix: (Units=GPa)
#
#
# Indices 1 2 3 4 5 6 
#
# 1 128.6083 23.2112 33.8776 0.0000 0.0000 0.0000
# 2 23.2112 57.6807 16.6115 0.0000 0.0000 0.0000
# 3 33.8776 16.6115 81.7959 0.0000 0.0000 0.0000
# 4 0.0000 0.0000 0.0000 6.8767 0.0000 0.0000
# 5 0.0000 0.0000 0.0000 0.0000 15.5507 0.0000
# 6 0.0000 0.0000 0.0000 0.0000 0.0000 23.6238
#
#
#
# Elastic Compliance Matrix: (Units=1/GPa)
#
#
# Indices 1 2 3 4 5 6 
#
# 1 0.009119 -0.002742 -0.003220 0.000000 0.000000 0.000000
# 2 -0.002742 0.019238 -0.002771 0.000000 0.000000 0.000000
# 3 -0.003220 -0.002771 0.014122 0.000000 0.000000 0.000000
# 4 0.000000 0.000000 0.000000 0.145419 0.000000 0.000000
# 5 0.000000 0.000000 0.000000 0.000000 0.064306 0.000000
# 6 0.000000 0.000000 0.000000 0.000000 0.000000 0.042330
#
#
# Mechanical properties :
#
#
# Convention : Reuss Voigt Hill
#
# Bulk Modulus (GPa) = 39.98010 46.16505 43.07257
# Shear Modulus (GPa) = 15.60851 22.16920 18.88885
#
# Velocity S-wave (km/s) = 2.87915 3.43130 3.16728
# Velocity P-wave (km/s) = 5.68205 6.34163 6.02088
#
# Compressibility (1/GPa) = 0.02501245
#
# Stress axis : x y z
#
# Youngs Moduli (GPa) = 109.66603 51.97941 70.81196
#
# Poissons Ratio (x) = 0.14253 0.22800
# Poissons Ratio (y) = 0.30072 0.19624
# Poissons Ratio (z) = 0.35310 0.14405
#
# Static dielectric constant tensor:
#      x y z
#    x 3.609770 0.000000 0.000000 
#    y 0.000000 3.527830 0.000000 
#    z 0.000000 0.000000 3.462150 
# 
# 
# High freq. dielectric constant tensor:
#      x y z
#    x 1.717510 0.000000 0.000000 
#    y 0.000000 1.722380 0.000000 
#    z 0.000000 0.000000 1.719110 
# 
# From -- ./inp_files/21426.got.cif
#   From: 2010.03.12/outbox.cif.g09.slc.cpg/sg47_11_cif.got.tgz:21426.got - 2010.04.14 03:12:58.
