data_PCOD8196095
_publ_section_title
;
Structure prediction by ZEFSAII (Michael W. Deem and Ramdas Pophale) SiO2 
 PCOD8196095
Probable space group: P M M M
;
_chemical_formula_sum "Si O2"
_cell_formula_units_Z 56
_cell_length_a 9.423936
_cell_length_b 15.062726
_cell_length_c 21.087447
_cell_angle_alpha 90.000000
_cell_angle_beta 90.000000
_cell_angle_gamma 90.000000
_cell_volume 2993.366598
_symmetry_space_group_name_H-M "P M M M"
_symmetry_group_IT_number 47
_symmetry_cell_setting 'orthorhombic'
loop_
_space_group_symop_operation_xyz
x,y,z
-x,-y,z
x,-y,-z
-x,y,-z
-x,-y,-z
x,y,-z
-x,y,z
x,-y,z
loop_
_atom_site_type_symbol
_atom_site_label
_atom_site_fract_x
_atom_site_fract_y
_atom_site_fract_z
Si Si1 0.659722 0.500000 0.925365
Si Si2 0.161068 0.842009 0.071598
Si Si3 0.161003 0.099277 0.425152
Si Si4 0.338105 0.903385 0.815982
Si Si5 0.162348 0.346877 0.865058
Si Si6 0.663742 0.723492 0.754120
Si Si7 0.331493 0.398619 0.500000
Si Si8 0.664453 0.268230 0.610262
O O1 0.500000 0.500000 0.896778
O O2 0.745714 0.584663 0.903652
O O3 0.651216 0.500000 0.000000
O O4 0.251448 0.901975 0.118722
O O5 0.171099 0.741170 0.093850
O O6 0.000000 0.875900 0.074331
O O7 0.220440 0.850160 0.000000
O O8 0.170718 0.108082 0.500000
O O9 0.259008 0.173979 0.394905
O O10 0.000000 0.115088 0.402252
O O11 0.210923 0.000000 0.404476
O O12 0.500000 0.890357 0.836215
O O13 0.294595 0.827049 0.765990
O O14 0.312716 0.000000 0.783797
O O15 0.232370 0.336780 0.795736
O O16 0.000000 0.378706 0.856304
O O17 0.500000 0.706224 0.773212
O O18 0.689241 0.696767 0.681326
O O19 0.269515 0.500000 0.500000
O O20 0.500000 0.404986 0.500000
O O21 0.277852 0.343841 0.438088
O O22 0.500000 0.249826 0.596214
#
# Coordination Sequence:
#
# PCOD8196095 Si02
#       8
#     4   8   8   8   8   8   4   8
#     4  11  23  37  57  85 113 140 173 218 273 331
#     4   9  18  32  50  72  98 130 168 213 263 307
#     4   9  18  32  50  75 109 145 176 216 278 339
#     4   9  18  32  48  67  97 136 173 211 257 310
#     4  10  20  36  56  77 105 140 178 220 265 320
#     4   9  19  35  53  76 106 140 179 222 270 319
#     4   9  18  34  54  79 110 138 173 221 274 327
#     4  10  19  33  56  82 107 141 185 229 273 326
#
# _framework density 18.708033
#
# number of rings (size 3 to 8) (size 9 to 14) (size 15 to 20)
#    0.000    2.571    0.714    1.500    0.000    4.000 
#    1.286    3.571    0.000    0.857    0.000    0.000 
#    0.000    0.000    0.000    0.000    0.000    0.000 
#
# Total GULP energy -694195.632090 kJ/mol
# GULP energy per Si atom -12396.350573 kJ/mol
# Density = 1.866545 g / cm^3
# Si number density = 18.708033 Si / 1000 Ang^3
#
#
#
# Elastic Constant Matrix: (Units=GPa)
#
#
# Indices 1 2 3 4 5 6 
#
# 1 78.3659 37.3384 33.0478 0.0000 0.0000 0.0000
# 2 37.3384 82.9775 30.0408 0.0000 0.0000 0.0000
# 3 33.0478 30.0408 99.8096 0.0000 0.0000 0.0000
# 4 0.0000 0.0000 0.0000 22.0545 0.0000 0.0000
# 5 0.0000 0.0000 0.0000 0.0000 23.4511 0.0000
# 6 0.0000 0.0000 0.0000 0.0000 0.0000 28.8214
#
#
#
# Elastic Compliance Matrix: (Units=1/GPa)
#
#
# Indices 1 2 3 4 5 6 
#
# 1 0.017459 -0.006468 -0.003834 0.000000 0.000000 0.000000
# 2 -0.006468 0.015922 -0.002650 0.000000 0.000000 0.000000
# 3 -0.003834 -0.002650 0.012086 0.000000 0.000000 0.000000
# 4 0.000000 0.000000 0.000000 0.045342 0.000000 0.000000
# 5 0.000000 0.000000 0.000000 0.000000 0.042642 0.000000
# 6 0.000000 0.000000 0.000000 0.000000 0.000000 0.034696
#
#
# Mechanical properties :
#
#
# Convention : Reuss Voigt Hill
#
# Bulk Modulus (GPa) = 51.12036 51.33410 51.22723
# Shear Modulus (GPa) = 24.92845 25.58050 25.25447
#
# Velocity S-wave (km/s) = 3.65430 3.70179 3.67812
# Velocity P-wave (km/s) = 6.72234 6.76536 6.74389
#
# Compressibility (1/GPa) = 0.01956168
#
# Stress axis : x y z
#
# Youngs Moduli (GPa) = 57.27549 62.80764 82.73831
#
# Poissons Ratio (x) = 0.40626 0.31723
# Poissons Ratio (y) = 0.37048 0.21929
# Poissons Ratio (z) = 0.21960 0.16646
#
# Static dielectric constant tensor:
#      x y z
#    x 3.514840 0.000000 0.000000 
#    y 0.000000 3.642980 0.000000 
#    z 0.000000 0.000000 3.364380 
# 
# 
# High freq. dielectric constant tensor:
#      x y z
#    x 1.717270 0.000000 0.000000 
#    y 0.000000 1.723830 0.000000 
#    z 0.000000 0.000000 1.720140 
# 
# From -- ./inp_files/7439.got.cif
#   From: 2010.03.12/outbox.cif.g09.slc.cpg/sg47_4_cif.got.tgz:7439.got - 2010.04.14 03:12:58.
