data_PCOD8196277
_publ_section_title
;
Structure prediction by ZEFSAII (Michael W. Deem and Ramdas Pophale) SiO2 
 PCOD8196277
Probable space group: P M M M
;
_chemical_formula_sum "Si O2"
_cell_formula_units_Z 52
_cell_length_a 14.618622
_cell_length_b 8.807222
_cell_length_c 24.394404
_cell_angle_alpha 90.000000
_cell_angle_beta 90.000000
_cell_angle_gamma 90.000000
_cell_volume 3140.766081
_symmetry_space_group_name_H-M "P M M M"
_symmetry_group_IT_number 47
_symmetry_cell_setting 'orthorhombic'
loop_
_space_group_symop_operation_xyz
x,y,z
-x,-y,z
x,-y,-z
-x,y,-z
-x,-y,-z
x,y,-z
-x,y,z
x,-y,z
loop_
_atom_site_type_symbol
_atom_site_label
_atom_site_fract_x
_atom_site_fract_y
_atom_site_fract_z
Si Si1 0.176189 0.678001 0.500000
Si Si2 0.604524 0.180213 0.778838
Si Si3 0.263755 0.823612 0.683394
Si Si4 0.598917 0.328205 0.390909
Si Si5 0.390739 0.170892 0.000000
Si Si6 0.897578 0.322289 0.619719
Si Si7 0.631221 0.179605 0.500000
Si Si8 0.391687 0.330516 0.891353
O O1 0.203789 0.500000 0.500000
O O2 0.122336 0.719178 0.555996
O O3 0.261362 0.789277 0.500000
O O4 0.500000 0.238531 0.765888
O O5 0.681693 0.243625 0.736533
O O6 0.637579 0.235251 0.838259
O O7 0.604028 0.000000 0.777374
O O8 0.332111 0.792502 0.634019
O O9 0.167510 0.748939 0.666718
O O10 0.245531 0.000000 0.691234
O O11 0.500000 0.328429 0.360815
O O12 0.640237 0.500000 0.390557
O O13 0.582343 0.265024 0.450765
O O14 0.351128 0.253223 0.054014
O O15 0.500000 0.173551 0.000000
O O16 0.353663 0.000000 0.000000
O O17 0.888816 0.500000 0.627557
O O18 0.000000 0.264818 0.632444
O O19 0.611274 0.000000 0.500000
O O20 0.500000 0.335051 0.896339
O O21 0.351549 0.500000 0.886381
#
# Coordination Sequence:
#
# PCOD8196277 Si02
#       8
#     4   8   8   8   4   8   4   8
#     4  10  19  35  57  75  95 119 145 181 231 292
#     4   9  18  32  47  64  91 128 165 197 234 280
#     4  11  22  35  52  73  97 123 154 196 239 279
#     4  11  23  37  52  69  92 124 157 188 227 277
#     4   9  15  23  37  57  85 123 162 199 240 281
#     4  10  21  37  57  77  96 121 151 186 235 294
#     4  12  23  34  51  73  95 118 147 187 233 275
#     4   9  16  25  39  61  88 119 160 206 242 271
#
# _framework density 16.556471999999999
#
# number of rings (size 3 to 8) (size 9 to 14) (size 15 to 20)
#    0.000    1.923    1.538    3.231    0.000    8.000 
#    0.000    1.538    0.000    1.385    0.000    0.000 
#    0.000    0.000    0.000    0.692    0.000   13.000 
#
# Total GULP energy -644326.505390 kJ/mol
# GULP energy per Si atom -12390.894334 kJ/mol
# Density = 1.651879 g / cm^3
# Si number density = 16.556472 Si / 1000 Ang^3
#
#
#
# Elastic Constant Matrix: (Units=GPa)
#
#
# Indices 1 2 3 4 5 6 
#
# 1 96.8536 23.5935 45.3825 0.0000 0.0000 0.0000
# 2 23.5935 42.5553 23.5279 0.0000 0.0000 0.0000
# 3 45.3825 23.5279 114.7031 0.0000 0.0000 0.0000
# 4 0.0000 0.0000 0.0000 24.6517 0.0000 0.0000
# 5 0.0000 0.0000 0.0000 0.0000 8.9490 0.0000
# 6 0.0000 0.0000 0.0000 0.0000 0.0000 8.3915
#
#
#
# Elastic Compliance Matrix: (Units=1/GPa)
#
#
# Indices 1 2 3 4 5 6 
#
# 1 0.013607 -0.005152 -0.004327 0.000000 0.000000 0.000000
# 2 -0.005152 0.028455 -0.003798 0.000000 0.000000 0.000000
# 3 -0.004327 -0.003798 0.011209 0.000000 0.000000 0.000000
# 4 0.000000 0.000000 0.000000 0.040565 0.000000 0.000000
# 5 0.000000 0.000000 0.000000 0.000000 0.111744 0.000000
# 6 0.000000 0.000000 0.000000 0.000000 0.000000 0.119168
#
#
# Mechanical properties :
#
#
# Convention : Reuss Voigt Hill
#
# Bulk Modulus (GPa) = 37.42898 48.79109 43.11004
# Shear Modulus (GPa) = 13.88080 19.17232 16.52656
#
# Velocity S-wave (km/s) = 2.89864 3.40662 3.16285
# Velocity P-wave (km/s) = 5.81883 6.70872 6.27956
#
# Compressibility (1/GPa) = 0.02671726
#
# Stress axis : x y z
#
# Youngs Moduli (GPa) = 73.48963 35.14301 89.21182
#
# Poissons Ratio (x) = 0.18105 0.38602
# Poissons Ratio (y) = 0.37861 0.33886
# Poissons Ratio (z) = 0.31799 0.13349
#
# Static dielectric constant tensor:
#      x y z
#    x 2.945780 0.000000 0.000000 
#    y 0.000000 3.116300 0.000000 
#    z 0.000000 0.000000 3.237170 
# 
# 
# High freq. dielectric constant tensor:
#      x y z
#    x 1.596580 0.000000 0.000000 
#    y 0.000000 1.642040 0.000000 
#    z 0.000000 0.000000 1.629020 
# 
# From -- ./inp_files/12607.got.cif
#   From: 2010.03.12/outbox.cif.g09.slc.cpg/sg47_7_cif.got.tgz:12607.got - 2010.04.14 03:12:58.
