data_PCOD8196753
_publ_section_title
;
Structure prediction by ZEFSAII (Michael W. Deem and Ramdas Pophale) SiO2 
 PCOD8196753
Probable space group: P M M M
;
_chemical_formula_sum "Si O2"
_cell_formula_units_Z 64
_cell_length_a 31.516948
_cell_length_b 14.145760
_cell_length_c 8.955860
_cell_angle_alpha 90.000000
_cell_angle_beta 90.000000
_cell_angle_gamma 90.000000
_cell_volume 3992.801653
_symmetry_space_group_name_H-M "P M M M"
_symmetry_group_IT_number 47
_symmetry_cell_setting 'orthorhombic'
loop_
_space_group_symop_operation_xyz
x,y,z
-x,-y,z
x,-y,-z
-x,y,-z
-x,-y,-z
x,y,-z
-x,y,z
x,-y,z
loop_
_atom_site_type_symbol
_atom_site_label
_atom_site_fract_x
_atom_site_fract_y
_atom_site_fract_z
Si Si1 0.544923 0.105951 0.677480
Si Si2 0.281123 0.887870 0.830507
Si Si3 0.821680 0.606820 0.174955
Si Si4 0.089602 0.606739 0.671505
Si Si5 0.952614 0.769909 0.171123
Si Si6 0.795194 0.786106 0.676324
Si Si7 0.127440 0.108538 0.825654
Si Si8 0.364407 0.887020 0.331895
O O1 0.547221 0.102069 0.500000
O O2 0.500000 0.157125 0.726699
O O3 0.589746 0.153253 0.729553
O O4 0.542955 0.000000 0.741751
O O5 0.245006 0.845887 0.726709
O O6 0.326898 0.850595 0.774787
O O7 0.278390 0.000000 0.816966
O O8 0.274464 0.854092 0.000000
O O9 0.807259 0.500000 0.214027
O O10 0.869386 0.625403 0.227970
O O11 0.790812 0.679902 0.258802
O O12 0.819644 0.626627 0.000000
O O13 0.101711 0.626722 0.500000
O O14 0.072708 0.500000 0.692032
O O15 0.053323 0.677851 0.725698
O O16 0.919236 0.851821 0.212422
O O17 0.000000 0.809775 0.199412
O O18 0.946736 0.738317 0.000000
O O19 0.796278 0.781726 0.500000
O O20 0.838202 0.833589 0.733510
O O21 0.128683 0.000000 0.774798
O O22 0.138357 0.118728 0.000000
O O23 0.355241 0.850855 0.500000
O O24 0.366887 0.000000 0.331326
#
# Coordination Sequence:
#
# PCOD8196753 Si02
#       8
#     8   8   8   8   8   8   8   8
#     4   7   9  14  27  48  72 100 138 185 234 279
#     4  10  20  32  45  62  88 123 160 196 235 277
#     4  10  20  35  56  78  99 122 146 175 214 263
#     4  10  20  34  53  77 102 126 150 178 217 261
#     4  10  21  36  54  75  98 126 157 186 220 265
#     4  12  23  34  52  75  97 120 149 186 226 269
#     4  10  21  37  55  73  95 123 155 190 226 265
#     4   8  13  22  36  54  78 108 146 193 238 277
#
# _framework density 16.028845
#
# number of rings (size 3 to 8) (size 9 to 14) (size 15 to 20)
#    0.000    2.375    1.250    3.750    0.000    4.750 
#    0.000    2.500    0.000    0.375    0.000    4.375 
#    0.000    0.000    0.000    0.000    0.000    0.625 
#
# Total GULP energy -793190.002790 kJ/mol
# GULP energy per Si atom -12393.593794 kJ/mol
# Density = 1.599236 g / cm^3
# Si number density = 16.028845 Si / 1000 Ang^3
#
#
#
# Elastic Constant Matrix: (Units=GPa)
#
#
# Indices 1 2 3 4 5 6 
#
# 1 111.7934 29.1226 43.6995 0.0000 0.0000 0.0000
# 2 29.1226 59.3957 37.2604 0.0000 0.0000 0.0000
# 3 43.6995 37.2604 79.8357 0.0000 0.0000 0.0000
# 4 0.0000 0.0000 0.0000 18.2088 0.0000 0.0000
# 5 0.0000 0.0000 0.0000 0.0000 14.6550 0.0000
# 6 0.0000 0.0000 0.0000 0.0000 0.0000 3.1264
#
#
#
# Elastic Compliance Matrix: (Units=1/GPa)
#
#
# Indices 1 2 3 4 5 6 
#
# 1 0.011620 -0.002414 -0.005234 0.000000 0.000000 0.000000
# 2 -0.002414 0.024308 -0.010023 0.000000 0.000000 0.000000
# 3 -0.005234 -0.010023 0.020068 0.000000 0.000000 0.000000
# 4 0.000000 0.000000 0.000000 0.054919 0.000000 0.000000
# 5 0.000000 0.000000 0.000000 0.000000 0.068236 0.000000
# 6 0.000000 0.000000 0.000000 0.000000 0.000000 0.319854
#
#
# Mechanical properties :
#
#
# Convention : Reuss Voigt Hill
#
# Bulk Modulus (GPa) = 48.41711 52.35442 50.38577
# Shear Modulus (GPa) = 9.23820 16.59421 12.91620
#
# Velocity S-wave (km/s) = 2.40333 3.22105 2.84176
# Velocity P-wave (km/s) = 6.16224 6.82401 6.50155
#
# Compressibility (1/GPa) = 0.02065385
#
# Stress axis : x y z
#
# Youngs Moduli (GPa) = 86.06046 41.13903 49.82959
#
# Poissons Ratio (x) = 0.09932 0.26078
# Poissons Ratio (y) = 0.20777 0.49946
# Poissons Ratio (z) = 0.45040 0.41235
#
# Static dielectric constant tensor:
#      x y z
#    x 3.316340 0.000000 0.000000 
#    y 0.000000 2.875060 0.000000 
#    z 0.000000 0.000000 3.014090 
# 
# 
# High freq. dielectric constant tensor:
#      x y z
#    x 1.615750 0.000000 0.000000 
#    y 0.000000 1.573990 0.000000 
#    z 0.000000 0.000000 1.612360 
# 
# From -- ./inp_files/14358.got.cif
#   From: 2010.03.12/outbox.cif.g09.slc.cpg/sg47_8_cif.got.tgz:14358.got - 2010.04.14 03:12:58.
