data_PCOD8196712
_publ_section_title
;
Structure prediction by ZEFSAII (Michael W. Deem and Ramdas Pophale) SiO2 
 PCOD8196712
Probable space group: P M M M
;
_chemical_formula_sum "Si O2"
_cell_formula_units_Z 64
_cell_length_a 9.155548
_cell_length_b 20.204128
_cell_length_c 30.640723
_cell_angle_alpha 90.000000
_cell_angle_beta 90.000000
_cell_angle_gamma 90.000000
_cell_volume 5667.916764
_symmetry_space_group_name_H-M "P M M M"
_symmetry_group_IT_number 47
_symmetry_cell_setting 'orthorhombic'
loop_
_space_group_symop_operation_xyz
x,y,z
-x,-y,z
x,-y,-z
-x,y,-z
-x,-y,-z
x,y,-z
-x,y,z
x,-y,z
loop_
_atom_site_type_symbol
_atom_site_label
_atom_site_fract_x
_atom_site_fract_y
_atom_site_fract_z
Si Si1 0.164128 0.578979 0.630768
Si Si2 0.165193 0.578752 0.200341
Si Si3 0.665106 0.421082 0.284798
Si Si4 0.663857 0.801975 0.051964
Si Si5 0.835857 0.072986 0.051900
Si Si6 0.669257 0.577977 0.885848
Si Si7 0.168698 0.672120 0.948510
Si Si8 0.664147 0.578692 0.548088
O O1 0.165375 0.500000 0.630396
O O2 0.258197 0.605724 0.671392
O O3 0.231408 0.607545 0.585750
O O4 0.000000 0.606052 0.635270
O O5 0.163622 0.500000 0.201654
O O6 0.246054 0.606529 0.243261
O O7 0.253238 0.603734 0.158138
O O8 0.000000 0.606468 0.198911
O O9 0.500000 0.393853 0.283052
O O10 0.664766 0.500000 0.284367
O O11 0.500000 0.793866 0.070240
O O12 0.730829 0.870162 0.071133
O O13 0.761659 0.740803 0.068190
O O14 0.663044 0.804397 0.000000
O O15 0.000000 0.085366 0.069130
O O16 0.780893 0.000000 0.066929
O O17 0.836054 0.076650 0.000000
O O18 0.500000 0.598073 0.883815
O O19 0.689087 0.500000 0.891594
O O20 0.746038 0.611366 0.927092
O O21 0.000000 0.670904 0.934488
O O22 0.187214 0.664065 0.000000
O O23 0.719170 0.601729 0.500000
O O24 0.500000 0.604710 0.556268
O O25 0.664420 0.500000 0.550280
#
# Coordination Sequence:
#
# PCOD8196712 Si02
#       8
#     8   8   8   8   8   8   8   8
#     4   9  15  20  26  37  51  65  82 103 125 149
#     4   9  16  26  39  52  64  75  87 105 131 164
#     4   9  15  22  32  44  57  71  85 101 124 155
#     4   9  16  25  37  52  69  87 106 127 148 169
#     4   8  13  21  33  49  69  91 111 128 145 165
#     4  10  20  32  44  56  68  80  95 117 146 179
#     4  10  20  32  44  55  67  84 104 124 146 173
#     4   8  13  20  27  33  43  61  83 104 125 148
#
# _framework density 11.291626000000001
#
# number of rings (size 3 to 8) (size 9 to 14) (size 15 to 20)
#    0.000    3.000    0.000    3.000    0.000    8.250 
#    0.000    3.750    0.000    0.000    0.000    0.000 
#    0.000    0.000    0.000    0.000    0.000    0.000 
#
# Total GULP energy -793308.957322 kJ/mol
# GULP energy per Si atom -12395.452458 kJ/mol
# Density = 1.126593 g / cm^3
# Si number density = 11.291626 Si / 1000 Ang^3
#
#
#
# Elastic Constant Matrix: (Units=GPa)
#
#
# Indices 1 2 3 4 5 6 
#
# 1 108.0531 27.5539 42.3232 0.0000 0.0000 0.0000
# 2 27.5539 27.3161 19.6986 0.0000 0.0000 0.0000
# 3 42.3232 19.6986 53.2759 0.0000 0.0000 0.0000
# 4 0.0000 0.0000 0.0000 0.2369 0.0000 0.0000
# 5 0.0000 0.0000 0.0000 0.0000 20.1540 0.0000
# 6 0.0000 0.0000 0.0000 0.0000 0.0000 12.5976
#
#
#
# Elastic Compliance Matrix: (Units=1/GPa)
#
#
# Indices 1 2 3 4 5 6 
#
# 1 0.014846 -0.008823 -0.008532 0.000000 0.000000 0.000000
# 2 -0.008823 0.055162 -0.013387 0.000000 0.000000 0.000000
# 3 -0.008532 -0.013387 0.030498 0.000000 0.000000 0.000000
# 4 0.000000 0.000000 0.000000 4.221219 0.000000 0.000000
# 5 0.000000 0.000000 0.000000 0.000000 0.049618 0.000000
# 6 0.000000 0.000000 0.000000 0.000000 0.000000 0.079380
#
#
# Mechanical properties :
#
#
# Convention : Reuss Voigt Hill
#
# Bulk Modulus (GPa) = 25.62612 40.86626 33.24619
# Shear Modulus (GPa) = 1.10492 13.20235 7.15363
#
# Velocity S-wave (km/s) = 0.99028 3.42309 2.51974
# Velocity P-wave (km/s) = 4.90424 7.20372 6.16219
#
# Compressibility (1/GPa) = 0.03902269
#
# Stress axis : x y z
#
# Youngs Moduli (GPa) = 67.35602 18.12845 32.78912
#
# Poissons Ratio (x) = 0.15995 0.27976
# Poissons Ratio (y) = 0.59428 0.43894
# Poissons Ratio (z) = 0.57468 0.24268
#
# Static dielectric constant tensor:
#      x y z
#    x 2.622810 0.000000 0.000000 
#    y 0.000000 2.053130 0.000000 
#    z 0.000000 0.000000 2.351020 
# 
# 
# High freq. dielectric constant tensor:
#      x y z
#    x 1.446760 0.000000 0.000000 
#    y 0.000000 1.363510 0.000000 
#    z 0.000000 0.000000 1.406550 
# 
# From -- ./inp_files/11976.got.cif
#   From: 2010.03.12/outbox.cif.g09.slc.cpg/sg47_6_cif.got.tgz:11976.got - 2010.04.14 03:12:58.
