data_PCOD8196082
_publ_section_title
;
Structure prediction by ZEFSAII (Michael W. Deem and Ramdas Pophale) SiO2 
 PCOD8196082
Probable space group: P M M M
;
_chemical_formula_sum "Si O2"
_cell_formula_units_Z 56
_cell_length_a 22.410210
_cell_length_b 8.830708
_cell_length_c 15.156180
_cell_angle_alpha 90.000000
_cell_angle_beta 90.000000
_cell_angle_gamma 90.000000
_cell_volume 2999.378024
_symmetry_space_group_name_H-M "P M M M"
_symmetry_group_IT_number 47
_symmetry_cell_setting 'orthorhombic'
loop_
_space_group_symop_operation_xyz
x,y,z
-x,-y,z
x,-y,-z
-x,y,-z
-x,-y,-z
x,y,-z
-x,y,z
x,-y,z
loop_
_atom_site_type_symbol
_atom_site_label
_atom_site_fract_x
_atom_site_fract_y
_atom_site_fract_z
Si Si1 0.835858 0.320919 0.221470
Si Si2 0.068460 0.822007 0.901276
Si Si3 0.215302 0.320333 0.402951
Si Si4 0.347793 0.678036 0.361065
Si Si5 0.623606 0.822316 0.820198
Si Si6 0.567959 0.820982 0.500000
Si Si7 0.728428 0.673023 0.098568
Si Si8 0.500000 0.179156 0.902112
O O1 0.842445 0.500000 0.219191
O O2 0.894604 0.253032 0.177493
O O3 0.826804 0.260953 0.322720
O O4 0.778589 0.268004 0.165774
O O5 0.000000 0.776997 0.885163
O O6 0.077493 0.000000 0.895163
O O7 0.087856 0.766760 0.000000
O O8 0.191503 0.266993 0.500000
O O9 0.216500 0.500000 0.397365
O O10 0.283086 0.261794 0.391953
O O11 0.353466 0.500000 0.376924
O O12 0.355969 0.718644 0.260007
O O13 0.399897 0.760962 0.413254
O O14 0.671015 0.782744 0.896430
O O15 0.558315 0.767262 0.849718
O O16 0.624525 0.000000 0.797152
O O17 0.500000 0.762319 0.500000
O O18 0.570120 0.000000 0.500000
O O19 0.710321 0.500000 0.120915
O O20 0.754603 0.685053 0.000000
O O21 0.500000 0.000000 0.911253
O O22 0.500000 0.251523 0.000000
#
# Coordination Sequence:
#
# PCOD8196082 Si02
#       8
#     8   8   8   8   8   4   8   4
#     4  10  19  33  55  83 113 144 184 231 278 327
#     4   9  19  36  56  80 115 156 192 228 273 326
#     4   9  17  33  57  81 107 141 179 223 274 327
#     4  11  21  38  60  80 105 140 182 224 277 339
#     4  11  22  36  55  77 104 138 179 227 281 335
#     4  11  25  41  57  81 113 141 176 229 288 343
#     4  10  20  34  52  77 110 143 178 227 281 331
#     4   9  20  38  55  70  95 136 181 221 270 333
#
# _framework density 18.670538000000001
#
# number of rings (size 3 to 8) (size 9 to 14) (size 15 to 20)
#    0.000    2.000    2.143    2.357    1.000    3.143 
#    0.000    1.786    0.000    3.000    0.000    3.000 
#    0.000    0.000    0.000    0.000    0.000    0.000 
#
# Total GULP energy -694280.407405 kJ/mol
# GULP energy per Si atom -12397.864418 kJ/mol
# Density = 1.862804 g / cm^3
# Si number density = 18.670538 Si / 1000 Ang^3
#
#
#
# Elastic Constant Matrix: (Units=GPa)
#
#
# Indices 1 2 3 4 5 6 
#
# 1 113.0805 30.0939 67.3486 0.0000 0.0000 0.0000
# 2 30.0939 32.5873 22.0602 0.0000 0.0000 0.0000
# 3 67.3486 22.0602 150.6309 0.0000 0.0000 0.0000
# 4 0.0000 0.0000 0.0000 26.8380 0.0000 0.0000
# 5 0.0000 0.0000 0.0000 0.0000 34.2057 0.0000
# 6 0.0000 0.0000 0.0000 0.0000 0.0000 27.8265
#
#
#
# Elastic Compliance Matrix: (Units=1/GPa)
#
#
# Indices 1 2 3 4 5 6 
#
# 1 0.014487 -0.009984 -0.005015 0.000000 0.000000 0.000000
# 2 -0.009984 0.040944 -0.001533 0.000000 0.000000 0.000000
# 3 -0.005015 -0.001533 0.009106 0.000000 0.000000 0.000000
# 4 0.000000 0.000000 0.000000 0.037261 0.000000 0.000000
# 5 0.000000 0.000000 0.000000 0.000000 0.029235 0.000000
# 6 0.000000 0.000000 0.000000 0.000000 0.000000 0.035937
#
#
# Mechanical properties :
#
#
# Convention : Reuss Voigt Hill
#
# Bulk Modulus (GPa) = 31.77238 59.47823 45.62530
# Shear Modulus (GPa) = 23.75037 29.56044 26.65541
#
# Velocity S-wave (km/s) = 3.57049 3.98335 3.78255
# Velocity P-wave (km/s) = 5.83543 7.28574 6.60054
#
# Compressibility (1/GPa) = 0.03147388
#
# Stress axis : x y z
#
# Youngs Moduli (GPa) = 69.02678 24.42368 109.82310
#
# Poissons Ratio (x) = 0.24383 0.55079
# Poissons Ratio (y) = 0.68913 0.16831
# Poissons Ratio (z) = 0.34619 0.03743
#
# Static dielectric constant tensor:
#      x y z
#    x 3.398760 0.000000 0.000000 
#    y 0.000000 3.142220 0.000000 
#    z 0.000000 0.000000 3.765630 
# 
# 
# High freq. dielectric constant tensor:
#      x y z
#    x 1.711360 0.000000 0.000000 
#    y 0.000000 1.700880 0.000000 
#    z 0.000000 0.000000 1.738200 
# 
# From -- ./inp_files/25235.got.cif
#   From: 2010.03.12/outbox.cif.g09.slc.cpg/sg47_13_cif.got.tgz:25235.got - 2010.04.14 03:12:58.
