data_PCOD8196155
_publ_section_title
;
Structure prediction by ZEFSAII (Michael W. Deem and Ramdas Pophale) SiO2 
 PCOD8196155
Probable space group: P M M M
;
_chemical_formula_sum "Si O2"
_cell_formula_units_Z 52
_cell_length_a 17.194192
_cell_length_b 15.405224
_cell_length_c 11.092708
_cell_angle_alpha 90.000000
_cell_angle_beta 90.000000
_cell_angle_gamma 90.000000
_cell_volume 2938.240702
_symmetry_space_group_name_H-M "P M M M"
_symmetry_group_IT_number 47
_symmetry_cell_setting 'orthorhombic'
loop_
_space_group_symop_operation_xyz
x,y,z
-x,-y,z
x,-y,-z
-x,y,-z
-x,-y,-z
x,y,-z
-x,y,z
x,-y,z
loop_
_atom_site_type_symbol
_atom_site_label
_atom_site_fract_x
_atom_site_fract_y
_atom_site_fract_z
Si Si1 0.203313 0.598676 0.792955
Si Si2 0.090191 0.653822 0.000000
Si Si3 0.752108 0.242506 0.637143
Si Si4 0.000000 0.896619 0.632973
Si Si5 0.909556 0.859452 0.000000
Si Si6 0.584745 0.302195 0.365908
Si Si7 0.154044 0.901964 0.752687
Si Si8 0.625106 0.598777 0.130312
O O1 0.196091 0.500000 0.741297
O O2 0.130305 0.616840 0.879709
O O3 0.208418 0.668090 0.683866
O O4 0.281995 0.609240 0.868389
O O5 0.097932 0.756735 0.000000
O O6 0.000000 0.624843 0.000000
O O7 0.779746 0.230411 0.500000
O O8 0.658300 0.239078 0.647639
O O9 0.775420 0.159788 0.716546
O O10 0.923319 0.859842 0.695179
O O11 0.000000 0.859620 0.500000
O O12 0.000000 0.000000 0.640274
O O13 0.861371 0.902259 0.106735
O O14 0.000000 0.889100 0.000000
O O15 0.592600 0.348208 0.500000
O O16 0.500000 0.254316 0.362153
O O17 0.585190 0.365349 0.250942
O O18 0.171268 0.000000 0.707218
O O19 0.599645 0.500000 0.128809
O O20 0.598182 0.640394 0.000000
#
# Coordination Sequence:
#
# PCOD8196155 Si02
#       8
#     8   4   8   4   4   8   8   8
#     4  10  19  34  54  75 103 140 182 225 268 312
#     4  11  21  33  53  78 105 142 186 230 270 307
#     4  10  21  37  56  79 107 138 178 224 267 323
#     4   9  18  31  49  75 106 138 170 206 256 314
#     4  11  21  35  55  82 113 142 176 222 272 319
#     4   9  19  35  53  73 101 138 175 216 270 327
#     4  11  21  34  55  81 109 143 177 215 266 321
#     4   9  17  29  49  75 103 135 171 218 271 322
#
# _framework density 17.697665000000001
#
# number of rings (size 3 to 8) (size 9 to 14) (size 15 to 20)
#    0.000    2.077    3.077    0.923    0.000    3.077 
#    0.000    4.615    0.000    0.462    0.000    3.231 
#    0.000    1.231    0.000    0.000    0.000    0.000 
#
# Total GULP energy -644206.435985 kJ/mol
# GULP energy per Si atom -12388.585307 kJ/mol
# Density = 1.765738 g / cm^3
# Si number density = 17.697665 Si / 1000 Ang^3
#
#
#
# Elastic Constant Matrix: (Units=GPa)
#
#
# Indices 1 2 3 4 5 6 
#
# 1 115.4505 36.4188 45.9306 0.0000 0.0000 0.0000
# 2 36.4188 82.7589 31.3931 0.0000 0.0000 0.0000
# 3 45.9306 31.3931 136.4658 0.0000 0.0000 0.0000
# 4 0.0000 0.0000 0.0000 49.1230 0.0000 0.0000
# 5 0.0000 0.0000 0.0000 0.0000 19.6535 0.0000
# 6 0.0000 0.0000 0.0000 0.0000 0.0000 4.6749
#
#
#
# Elastic Compliance Matrix: (Units=1/GPa)
#
#
# Indices 1 2 3 4 5 6 
#
# 1 0.010972 -0.003755 -0.002829 0.000000 0.000000 0.000000
# 2 -0.003755 0.014524 -0.002077 0.000000 0.000000 0.000000
# 3 -0.002829 -0.002077 0.008758 0.000000 0.000000 0.000000
# 4 0.000000 0.000000 0.000000 0.020357 0.000000 0.000000
# 5 0.000000 0.000000 0.000000 0.000000 0.050882 0.000000
# 6 0.000000 0.000000 0.000000 0.000000 0.000000 0.213908
#
#
# Mechanical properties :
#
#
# Convention : Reuss Voigt Hill
#
# Bulk Modulus (GPa) = 59.06413 62.46224 60.76319
# Shear Modulus (GPa) = 14.60426 29.41912 22.01169
#
# Velocity S-wave (km/s) = 2.87576 4.08157 3.53053
# Velocity P-wave (km/s) = 6.66881 7.58835 7.14339
#
# Compressibility (1/GPa) = 0.01693075
#
# Stress axis : x y z
#
# Youngs Moduli (GPa) = 91.14345 68.85295 114.18348
#
# Poissons Ratio (x) = 0.25855 0.32302
# Poissons Ratio (y) = 0.34225 0.23718
# Poissons Ratio (z) = 0.25784 0.14302
#
# Static dielectric constant tensor:
#      x y z
#    x 3.368060 0.000000 0.000000 
#    y 0.000000 3.025890 0.000000 
#    z 0.000000 0.000000 3.509240 
# 
# 
# High freq. dielectric constant tensor:
#      x y z
#    x 1.682680 0.000000 0.000000 
#    y 0.000000 1.647640 0.000000 
#    z 0.000000 0.000000 1.700970 
# 
# From -- ./inp_files/18607.got.cif
#   From: 2010.03.12/outbox.cif.g09.slc.cpg/sg47_10_cif.got.tgz:18607.got - 2010.04.14 03:12:58.
