data_PCOD8196788
_publ_section_title
;
Structure prediction by ZEFSAII (Michael W. Deem and Ramdas Pophale) SiO2 
 PCOD8196788
Probable space group: P M M M
;
_chemical_formula_sum "Si O2"
_cell_formula_units_Z 52
_cell_length_a 9.192785
_cell_length_b 9.847000
_cell_length_c 33.712643
_cell_angle_alpha 90.000000
_cell_angle_beta 90.000000
_cell_angle_gamma 90.000000
_cell_volume 3051.714088
_symmetry_space_group_name_H-M "P M M M"
_symmetry_group_IT_number 47
_symmetry_cell_setting 'orthorhombic'
loop_
_space_group_symop_operation_xyz
x,y,z
-x,-y,z
x,-y,-z
-x,y,-z
-x,-y,-z
x,y,-z
-x,y,z
x,-y,z
loop_
_atom_site_type_symbol
_atom_site_label
_atom_site_fract_x
_atom_site_fract_y
_atom_site_fract_z
Si Si1 0.328937 0.342757 0.738152
Si Si2 0.836891 0.338623 0.340014
Si Si3 0.826983 0.348271 0.956026
Si Si4 0.168492 0.841286 0.800297
Si Si5 0.336220 0.337216 0.585027
Si Si6 0.172371 0.149663 0.889891
Si Si7 0.672885 0.351047 0.500000
O O1 0.500000 0.322259 0.733887
O O2 0.289329 0.500000 0.746481
O O3 0.255743 0.290065 0.697652
O O4 0.270197 0.251515 0.773605
O O5 0.836528 0.500000 0.342173
O O6 0.766726 0.279227 0.380345
O O7 0.000000 0.281186 0.336009
O O8 0.767530 0.500000 0.948631
O O9 0.758490 0.251345 0.922319
O O10 0.000000 0.348554 0.952939
O O11 0.779968 0.297878 0.000000
O O12 0.211200 0.803581 0.845424
O O13 0.000000 0.806855 0.791900
O O14 0.198317 0.000000 0.792007
O O15 0.500000 0.288196 0.594253
O O16 0.332153 0.500000 0.583398
O O17 0.282340 0.278674 0.541769
O O18 0.000000 0.144195 0.894377
O O19 0.237041 0.000000 0.898029
O O20 0.745232 0.500000 0.500000
O O21 0.500000 0.366139 0.500000
#
# Coordination Sequence:
#
# PCOD8196788 Si02
#       7
#     8   8   8   8   8   8   4
#     4  10  20  32  46  65  87 112 146 185 222 265
#     4   9  16  25  37  54  77 105 137 175 220 265
#     4   8  13  20  30  48  77 111 144 176 209 246
#     4   9  18  32  48  66  89 116 146 182 225 271
#     4   8  12  19  31  46  67  98 136 175 213 255
#     4   8  14  24  37  54  77 106 140 175 211 254
#     4   7  10  16  27  43  63  93 134 173 208 251
#
# _framework density 17.039601999999999
#
# number of rings (size 3 to 8) (size 9 to 14) (size 15 to 20)
#    0.000    3.462    0.000    3.231    0.000    4.000 
#    0.000    3.462    0.000    2.308    0.000    0.000 
#    0.000    0.615    0.000    7.462    0.000   25.231 
#
# Total GULP energy -644284.422443 kJ/mol
# GULP energy per Si atom -12390.085047 kJ/mol
# Density = 1.700082 g / cm^3
# Si number density = 17.039602 Si / 1000 Ang^3
#
#
#
# Elastic Constant Matrix: (Units=GPa)
#
#
# Indices 1 2 3 4 5 6 
#
# 1 66.0962 27.3199 56.3112 0.0000 0.0000 0.0000
# 2 27.3199 46.3602 60.9782 0.0000 0.0000 0.0000
# 3 56.3112 60.9782 173.3718 0.0000 0.0000 0.0000
# 4 0.0000 0.0000 0.0000 2.3409 0.0000 0.0000
# 5 0.0000 0.0000 0.0000 0.0000 11.2722 0.0000
# 6 0.0000 0.0000 0.0000 0.0000 0.0000 12.4479
#
#
#
# Elastic Compliance Matrix: (Units=1/GPa)
#
#
# Indices 1 2 3 4 5 6 
#
# 1 0.021959 -0.006623 -0.004803 0.000000 0.000000 0.000000
# 2 -0.006623 0.042137 -0.012669 0.000000 0.000000 0.000000
# 3 -0.004803 -0.012669 0.011784 0.000000 0.000000 0.000000
# 4 0.000000 0.000000 0.000000 0.427183 0.000000 0.000000
# 5 0.000000 0.000000 0.000000 0.000000 0.088714 0.000000
# 6 0.000000 0.000000 0.000000 0.000000 0.000000 0.080335
#
#
# Mechanical properties :
#
#
# Convention : Reuss Voigt Hill
#
# Bulk Modulus (GPa) = 36.11453 63.89409 50.00431
# Shear Modulus (GPa) = 6.85371 14.62678 10.74024
#
# Velocity S-wave (km/s) = 2.00772 2.93302 2.51332
# Velocity P-wave (km/s) = 5.15898 7.00350 6.15077
#
# Compressibility (1/GPa) = 0.02768969
#
# Stress axis : x y z
#
# Youngs Moduli (GPa) = 45.53984 23.73186 84.86126
#
# Poissons Ratio (x) = 0.15718 0.40757
# Poissons Ratio (y) = 0.30162 1.07514
# Poissons Ratio (z) = 0.21872 0.30067
#
# Static dielectric constant tensor:
#      x y z
#    x 2.860300 0.000000 0.000000 
#    y 0.000000 2.921240 0.000000 
#    z 0.000000 0.000000 3.592250 
# 
# 
# High freq. dielectric constant tensor:
#      x y z
#    x 1.617580 0.000000 0.000000 
#    y 0.000000 1.605880 0.000000 
#    z 0.000000 0.000000 1.679080 
# 
# From -- ./inp_files/34300.got.cif
#   From: 2010.03.12/outbox.cif.g09.slc.cpg/sg47_18_cif.got.tgz:34300.got - 2010.04.14 03:12:58.
