data_PCOD8196536
_publ_section_title
;
Structure prediction by ZEFSAII (Michael W. Deem and Ramdas Pophale) SiO2 
 PCOD8196536
Probable space group: P M M M
;
_chemical_formula_sum "Si O2"
_cell_formula_units_Z 52
_cell_length_a 18.873285
_cell_length_b 18.844945
_cell_length_c 9.138363
_cell_angle_alpha 90.000000
_cell_angle_beta 90.000000
_cell_angle_gamma 90.000000
_cell_volume 3250.205177
_symmetry_space_group_name_H-M "P M M M"
_symmetry_group_IT_number 47
_symmetry_cell_setting 'orthorhombic'
loop_
_space_group_symop_operation_xyz
x,y,z
-x,-y,z
x,-y,-z
-x,y,-z
-x,-y,-z
x,y,-z
-x,y,z
x,-y,z
loop_
_atom_site_type_symbol
_atom_site_label
_atom_site_fract_x
_atom_site_fract_y
_atom_site_fract_z
Si Si1 0.000000 0.084054 0.836941
Si Si2 0.861468 0.079664 0.668863
Si Si3 0.840196 0.577379 0.829895
Si Si4 0.709118 0.330295 0.173811
Si Si5 0.208168 0.781346 0.669328
Si Si6 0.578875 0.579446 0.173904
Si Si7 0.080496 0.711388 0.830511
O O1 0.928940 0.110006 0.757218
O O2 0.000000 0.000000 0.839939
O O3 0.000000 0.116795 0.000000
O O4 0.884324 0.078934 0.500000
O O5 0.794910 0.133019 0.693478
O O6 0.839668 0.000000 0.720031
O O7 0.850189 0.500000 0.754118
O O8 0.770029 0.616432 0.769425
O O9 0.908492 0.626968 0.801105
O O10 0.828051 0.565259 0.000000
O O11 0.725315 0.253095 0.244594
O O12 0.634764 0.362274 0.232394
O O13 0.709417 0.320674 0.000000
O O14 0.216335 0.761718 0.500000
O O15 0.132723 0.753768 0.726309
O O16 0.500000 0.601074 0.227362
O O17 0.597655 0.500000 0.231179
O O18 0.582001 0.578165 0.000000
O O19 0.000000 0.732407 0.792991
O O20 0.098985 0.727955 0.000000
#
# Coordination Sequence:
#
# PCOD8196536 Si02
#       7
#     4   8   8   8   8   8   8
#     4   9  17  27  41  63  85 103 126 163 214 263
#     4   9  18  32  46  59  78 105 139 176 213 257
#     4   8  13  22  38  58  76  98 133 171 203 236
#     4   9  16  27  43  63  88 114 139 169 207 246
#     4  10  20  31  44  60  79 108 142 173 210 255
#     4   8  13  22  41  71  99 119 144 178 209 238
#     4   9  18  30  42  58  79 103 133 174 220 257
#
# _framework density 15.998989
#
# number of rings (size 3 to 8) (size 9 to 14) (size 15 to 20)
#    0.000    3.154    0.000    2.538    1.077    4.615 
#    0.000    1.538    0.000   12.000    0.000    5.385 
#    0.000    0.615    0.000    7.692    0.000    0.000 
#
# Total GULP energy -644305.274374 kJ/mol
# GULP energy per Si atom -12390.486046 kJ/mol
# Density = 1.596257 g / cm^3
# Si number density = 15.998989 Si / 1000 Ang^3
#
#
#
# Elastic Constant Matrix: (Units=GPa)
#
#
# Indices 1 2 3 4 5 6 
#
# 1 88.2101 40.0348 23.3960 0.0000 0.0000 0.0000
# 2 40.0348 86.5078 26.4854 0.0000 0.0000 0.0000
# 3 23.3960 26.4854 42.0018 0.0000 0.0000 0.0000
# 4 0.0000 0.0000 0.0000 16.1621 0.0000 0.0000
# 5 0.0000 0.0000 0.0000 0.0000 10.6685 0.0000
# 6 0.0000 0.0000 0.0000 0.0000 0.0000 24.3700
#
#
#
# Elastic Compliance Matrix: (Units=1/GPa)
#
#
# Indices 1 2 3 4 5 6 
#
# 1 0.015147 -0.005486 -0.004978 0.000000 0.000000 0.000000
# 2 -0.005486 0.016312 -0.007230 0.000000 0.000000 0.000000
# 3 -0.004978 -0.007230 0.031141 0.000000 0.000000 0.000000
# 4 0.000000 0.000000 0.000000 0.061873 0.000000 0.000000
# 5 0.000000 0.000000 0.000000 0.000000 0.093734 0.000000
# 6 0.000000 0.000000 0.000000 0.000000 0.000000 0.041034
#
#
# Mechanical properties :
#
#
# Convention : Reuss Voigt Hill
#
# Bulk Modulus (GPa) = 36.74926 44.06135 40.40531
# Shear Modulus (GPa) = 16.46371 18.69369 17.57870
#
# Velocity S-wave (km/s) = 3.21136 3.42194 3.31832
# Velocity P-wave (km/s) = 6.06383 6.57364 6.32387
#
# Compressibility (1/GPa) = 0.02721143
#
# Stress axis : x y z
#
# Youngs Moduli (GPa) = 66.02164 61.30464 32.11241
#
# Poissons Ratio (x) = 0.33629 0.15985
# Poissons Ratio (y) = 0.36217 0.23218
# Poissons Ratio (z) = 0.32865 0.44325
#
# Static dielectric constant tensor:
#      x y z
#    x 2.970150 0.000000 0.000000 
#    y 0.000000 3.309300 0.000000 
#    z 0.000000 0.000000 2.789410 
# 
# 
# High freq. dielectric constant tensor:
#      x y z
#    x 1.580170 0.000000 0.000000 
#    y 0.000000 1.617350 0.000000 
#    z 0.000000 0.000000 1.585310 
# 
# From -- ./inp_files/9833.got.cif
#   From: 2010.03.12/outbox.cif.g09.slc.cpg/sg47_5_cif.got.tgz:9833.got - 2010.04.14 03:12:58.
