data_PCOD8196383
_publ_section_title
;
Structure prediction by ZEFSAII (Michael W. Deem and Ramdas Pophale) SiO2 
 PCOD8196383
Probable space group: P M M M
;
_chemical_formula_sum "Si O2"
_cell_formula_units_Z 64
_cell_length_a 9.311790
_cell_length_b 15.272988
_cell_length_c 29.828748
_cell_angle_alpha 90.000000
_cell_angle_beta 90.000000
_cell_angle_gamma 90.000000
_cell_volume 4242.210444
_symmetry_space_group_name_H-M "P M M M"
_symmetry_group_IT_number 47
_symmetry_cell_setting 'orthorhombic'
loop_
_space_group_symop_operation_xyz
x,y,z
-x,-y,z
x,-y,-z
-x,y,-z
-x,-y,-z
x,y,-z
-x,y,z
x,-y,z
loop_
_atom_site_type_symbol
_atom_site_label
_atom_site_fract_x
_atom_site_fract_y
_atom_site_fract_z
Si Si1 0.668117 0.399043 0.609273
Si Si2 0.835619 0.738899 0.446898
Si Si3 0.338721 0.903536 0.553268
Si Si4 0.161490 0.092502 0.053194
Si Si5 0.838532 0.395717 0.792387
Si Si6 0.665567 0.603469 0.878858
Si Si7 0.340504 0.395883 0.290577
Si Si8 0.830440 0.282189 0.947651
O O1 0.500000 0.384724 0.600579
O O2 0.710074 0.500000 0.602310
O O3 0.757534 0.344348 0.573765
O O4 0.709056 0.367749 0.659624
O O5 0.818157 0.732345 0.500000
O O6 0.766274 0.828700 0.427900
O O7 0.000000 0.738490 0.431865
O O8 0.335971 0.902595 0.500000
O O9 0.500000 0.884043 0.570378
O O10 0.288747 0.000000 0.570233
O O11 0.228248 0.185619 0.068803
O O12 0.000000 0.089110 0.071655
O O13 0.238933 0.000000 0.068704
O O14 0.157915 0.095570 0.000000
O O15 0.839719 0.500000 0.791230
O O16 0.744808 0.362299 0.834191
O O17 0.769069 0.358428 0.746505
O O18 0.000000 0.358726 0.796644
O O19 0.500000 0.632211 0.876293
O O20 0.680812 0.500000 0.883801
O O21 0.741185 0.644975 0.921832
O O22 0.500000 0.359110 0.280336
O O23 0.346382 0.500000 0.288375
O O24 0.000000 0.291521 0.937630
O O25 0.800005 0.296543 0.000000
#
# Coordination Sequence:
#
# PCOD8196383 Si02
#       8
#     8   8   8   8   8   8   8   8
#     4   9  18  31  45  60  80 111 148 179 205 239
#     4  10  20  30  40  58  85 115 144 176 213 248
#     4   8  14  26  44  62  78 100 133 172 212 253
#     4   7  10  19  37  59  79  98 123 158 201 245
#     4   9  16  26  42  62  80  99 127 165 208 249
#     4  10  20  31  41  54  77 111 145 173 201 235
#     4   8  14  26  43  61  80 101 128 165 209 251
#     4   9  17  28  42  60  81 106 137 172 205 236
#
# _framework density 15.086475
#
# number of rings (size 3 to 8) (size 9 to 14) (size 15 to 20)
#    0.000    3.250    0.000    3.375    0.000    4.750 
#    0.000    5.000    0.000    0.375    0.000    1.750 
#    0.000    1.000    0.000    6.500    0.000    4.125 
#
# Total GULP energy -792920.140995 kJ/mol
# GULP energy per Si atom -12389.377203 kJ/mol
# Density = 1.505214 g / cm^3
# Si number density = 15.086475 Si / 1000 Ang^3
#
#
#
# Elastic Constant Matrix: (Units=GPa)
#
#
# Indices 1 2 3 4 5 6 
#
# 1 90.4606 46.0663 40.4481 0.0000 0.0000 0.0000
# 2 46.0663 64.3482 31.6144 0.0000 0.0000 0.0000
# 3 40.4481 31.6144 46.9215 0.0000 0.0000 0.0000
# 4 0.0000 0.0000 0.0000 0.8060 0.0000 0.0000
# 5 0.0000 0.0000 0.0000 0.0000 24.3185 0.0000
# 6 0.0000 0.0000 0.0000 0.0000 0.0000 14.5239
#
#
#
# Elastic Compliance Matrix: (Units=1/GPa)
#
#
# Indices 1 2 3 4 5 6 
#
# 1 0.021110 -0.009226 -0.011981 0.000000 0.000000 0.000000
# 2 -0.009226 0.027262 -0.010415 0.000000 0.000000 0.000000
# 3 -0.011981 -0.010415 0.038658 0.000000 0.000000 0.000000
# 4 0.000000 0.000000 0.000000 1.240669 0.000000 0.000000
# 5 0.000000 0.000000 0.000000 0.000000 0.041121 0.000000
# 6 0.000000 0.000000 0.000000 0.000000 0.000000 0.068852
#
#
# Mechanical properties :
#
#
# Convention : Reuss Voigt Hill
#
# Bulk Modulus (GPa) = 42.04347 48.66531 45.35439
# Shear Modulus (GPa) = 3.31379 13.50311 8.40845
#
# Velocity S-wave (km/s) = 1.48368 2.99498 2.36339
# Velocity P-wave (km/s) = 5.55553 6.65488 6.12990
#
# Compressibility (1/GPa) = 0.02378491
#
# Stress axis : x y z
#
# Youngs Moduli (GPa) = 47.37056 36.68048 25.86764
#
# Poissons Ratio (x) = 0.33842 0.30993
# Poissons Ratio (y) = 0.43704 0.26942
# Poissons Ratio (z) = 0.56757 0.38205
#
# Static dielectric constant tensor:
#      x y z
#    x 2.935050 0.000000 0.000000 
#    y 0.000000 2.967830 0.000000 
#    z 0.000000 0.000000 2.740050 
# 
# 
# High freq. dielectric constant tensor:
#      x y z
#    x 1.571860 0.000000 0.000000 
#    y 0.000000 1.555950 0.000000 
#    z 0.000000 0.000000 1.548670 
# 
# From -- ./inp_files/34419.got.cif
#   From: 2010.03.12/outbox.cif.g09.slc.cpg/sg47_18_cif.got.tgz:34419.got - 2010.04.14 03:12:58.
