data_PCOD8196196
_publ_section_title
;
Structure prediction by ZEFSAII (Michael W. Deem and Ramdas Pophale) SiO2 
 PCOD8196196
Probable space group: P M M M
;
_chemical_formula_sum "Si O2"
_cell_formula_units_Z 52
_cell_length_a 21.011362
_cell_length_b 14.556198
_cell_length_c 8.698670
_cell_angle_alpha 90.000000
_cell_angle_beta 90.000000
_cell_angle_gamma 90.000000
_cell_volume 2660.449471
_symmetry_space_group_name_H-M "P M M M"
_symmetry_group_IT_number 47
_symmetry_cell_setting 'orthorhombic'
loop_
_space_group_symop_operation_xyz
x,y,z
-x,-y,z
x,-y,-z
-x,y,-z
-x,-y,-z
x,y,-z
-x,y,z
x,-y,z
loop_
_atom_site_type_symbol
_atom_site_label
_atom_site_fract_x
_atom_site_fract_y
_atom_site_fract_z
Si Si1 0.617026 0.230373 0.677012
Si Si2 0.067837 0.000000 0.319333
Si Si3 0.927018 0.500000 0.181345
Si Si4 0.500000 0.892576 0.316382
Si Si5 0.170896 0.343583 0.817571
Si Si6 0.685770 0.396954 0.181141
Si Si7 0.835600 0.149183 0.679920
Si Si8 0.709571 0.102187 0.173518
O O1 0.603986 0.249914 0.500000
O O2 0.559630 0.167845 0.746085
O O3 0.630913 0.328952 0.754305
O O4 0.679089 0.169272 0.702047
O O5 0.102193 0.093667 0.271368
O O6 0.059502 0.000000 0.500000
O O7 0.000000 0.000000 0.234837
O O8 0.884675 0.413307 0.234112
O O9 0.000000 0.500000 0.250510
O O10 0.933135 0.500000 0.000000
O O11 0.500000 0.896983 0.500000
O O12 0.500000 0.000000 0.255246
O O13 0.241951 0.374582 0.765567
O O14 0.153339 0.253736 0.723817
O O15 0.170010 0.327318 0.000000
O O16 0.669192 0.500000 0.237777
O O17 0.682240 0.390335 0.000000
O O18 0.818769 0.138582 0.500000
O O19 0.782937 0.101303 0.785282
O O20 0.680897 0.000000 0.187771
O O21 0.699379 0.140049 0.000000
#
# Coordination Sequence:
#
# PCOD8196196 Si02
#       8
#     8   4   4   4   8   8   8   8
#     4  11  22  37  61  90 118 151 194 241 288 340
#     4   9  20  38  55  73 107 152 191 230 285 353
#     4   9  18  34  57  83 111 150 197 238 286 350
#     4   9  20  40  62  87 122 160 193 233 288 347
#     4  10  19  34  56  81 111 147 186 238 293 341
#     4  10  20  36  58  84 116 157 196 236 292 345
#     4  11  21  34  55  82 108 143 190 236 286 345
#     4  11  22  35  54  82 116 149 184 234 290 340
#
# _framework density 19.545569
#
# number of rings (size 3 to 8) (size 9 to 14) (size 15 to 20)
#    0.000    1.769    3.077    1.846    0.000    2.462 
#    0.000    2.308    0.000    8.769    0.000    0.000 
#    0.000    0.000    0.000    0.000    0.000    0.000 
#
# Total GULP energy -644411.930314 kJ/mol
# GULP energy per Si atom -12392.537121 kJ/mol
# Density = 1.950108 g / cm^3
# Si number density = 19.545569 Si / 1000 Ang^3
#
#
#
# Elastic Constant Matrix: (Units=GPa)
#
#
# Indices 1 2 3 4 5 6 
#
# 1 114.9960 71.1029 15.9541 0.0000 0.0000 0.0000
# 2 71.1029 175.5382 31.5487 0.0000 0.0000 0.0000
# 3 15.9541 31.5487 30.9537 0.0000 0.0000 0.0000
# 4 0.0000 0.0000 0.0000 30.4459 0.0000 0.0000
# 5 0.0000 0.0000 0.0000 0.0000 18.0015 0.0000
# 6 0.0000 0.0000 0.0000 0.0000 0.0000 37.1616
#
#
#
# Elastic Compliance Matrix: (Units=1/GPa)
#
#
# Indices 1 2 3 4 5 6 
#
# 1 0.011655 -0.004458 -0.001464 0.000000 0.000000 0.000000
# 2 -0.004458 0.008679 -0.006549 0.000000 0.000000 0.000000
# 3 -0.001464 -0.006549 0.039735 0.000000 0.000000 0.000000
# 4 0.000000 0.000000 0.000000 0.032845 0.000000 0.000000
# 5 0.000000 0.000000 0.000000 0.000000 0.055551 0.000000
# 6 0.000000 0.000000 0.000000 0.000000 0.000000 0.026909
#
#
# Mechanical properties :
#
#
# Convention : Reuss Voigt Hill
#
# Bulk Modulus (GPa) = 28.46608 62.07770 45.27189
# Shear Modulus (GPa) = 23.58199 30.64728 27.11463
#
# Velocity S-wave (km/s) = 3.47726 3.96408 3.72862
# Velocity P-wave (km/s) = 5.54232 7.26508 6.46137
#
# Compressibility (1/GPa) = 0.03512953
#
# Stress axis : x y z
#
# Youngs Moduli (GPa) = 85.79660 115.21434 25.16662
#
# Poissons Ratio (x) = 0.51363 0.03684
# Poissons Ratio (y) = 0.38249 0.16480
# Poissons Ratio (z) = 0.12558 0.75449
#
# Static dielectric constant tensor:
#      x y z
#    x 3.816940 0.000000 0.000000 
#    y 0.000000 3.793110 0.000000 
#    z 0.000000 0.000000 3.236930 
# 
# 
# High freq. dielectric constant tensor:
#      x y z
#    x 1.753460 0.000000 0.000000 
#    y 0.000000 1.776940 0.000000 
#    z 0.000000 0.000000 1.734200 
# 
# From -- ./inp_files/11111.got.cif
#   From: 2010.03.12/outbox.cif.g09.slc.cpg/sg47_6_cif.got.tgz:11111.got - 2010.04.14 03:12:58.
