data_PCOD8196019
_publ_section_title
;
Structure prediction by ZEFSAII (Michael W. Deem and Ramdas Pophale) SiO2 
 PCOD8196019
Probable space group: P M M M
;
_chemical_formula_sum "Si O2"
_cell_formula_units_Z 52
_cell_length_a 8.915084
_cell_length_b 23.343296
_cell_length_c 14.119903
_cell_angle_alpha 90.000000
_cell_angle_beta 90.000000
_cell_angle_gamma 90.000000
_cell_volume 2938.456932
_symmetry_space_group_name_H-M "P M M M"
_symmetry_group_IT_number 47
_symmetry_cell_setting 'orthorhombic'
loop_
_space_group_symop_operation_xyz
x,y,z
-x,-y,z
x,-y,-z
-x,y,-z
-x,-y,-z
x,y,-z
-x,y,z
x,-y,z
loop_
_atom_site_type_symbol
_atom_site_label
_atom_site_fract_x
_atom_site_fract_y
_atom_site_fract_z
Si Si1 0.676101 0.110748 0.281062
Si Si2 0.673815 0.226342 0.610228
Si Si3 0.321620 0.000000 0.606391
Si Si4 0.674987 0.720936 0.892697
Si Si5 0.821867 0.436816 0.394041
Si Si6 0.822274 0.671340 0.280292
Si Si7 0.825051 0.157961 0.107391
O O1 0.500000 0.106187 0.261525
O O2 0.717789 0.166636 0.341411
O O3 0.736120 0.056096 0.338764
O O4 0.760522 0.111078 0.179872
O O5 0.711252 0.220861 0.500000
O O6 0.500000 0.241000 0.627809
O O7 0.773916 0.276098 0.654174
O O8 0.500000 0.000000 0.600992
O O9 0.255106 0.000000 0.500000
O O10 0.500000 0.724516 0.870746
O O11 0.751482 0.674902 0.824151
O O12 0.742035 0.782864 0.870744
O O13 0.708095 0.701688 0.000000
O O14 0.759750 0.425683 0.500000
O O15 0.769682 0.500000 0.358773
O O16 0.759395 0.387741 0.324872
O O17 0.000000 0.433947 0.396499
O O18 0.000000 0.671198 0.271474
O O19 0.000000 0.167747 0.124745
O O20 0.792987 0.137296 0.000000
#
# Coordination Sequence:
#
# PCOD8196019 Si02
#       7
#     8   8   4   8   8   8   8
#     4  10  19  33  54  77 102 136 174 213 256 301
#     4  10  20  32  47  71 104 138 169 206 256 308
#     4   9  18  34  56  79 102 134 179 219 248 293
#     4  10  20  34  52  74 102 136 171 207 254 313
#     4   8  15  29  48  71 102 139 175 209 247 294
#     4  11  20  30  50  79 106 132 168 213 260 305
#     4  10  20  34  53  77 104 133 166 209 261 312
#
# _framework density 17.696363999999999
#
# number of rings (size 3 to 8) (size 9 to 14) (size 15 to 20)
#    0.000    2.231    1.538    2.769    0.000    4.615 
#    0.000    0.769    0.000    6.462    0.000    8.615 
#    0.000    0.000    0.000    0.000    0.000    0.000 
#
# Total GULP energy -644821.265384 kJ/mol
# GULP energy per Si atom -12400.408950 kJ/mol
# Density = 1.765609 g / cm^3
# Si number density = 17.696364 Si / 1000 Ang^3
#
#
#
# Elastic Constant Matrix: (Units=GPa)
#
#
# Indices 1 2 3 4 5 6 
#
# 1 57.3841 42.4653 47.1843 0.0000 0.0000 0.0000
# 2 42.4653 136.4131 82.8800 0.0000 0.0000 0.0000
# 3 47.1843 82.8800 151.7391 0.0000 0.0000 0.0000
# 4 0.0000 0.0000 0.0000 32.3505 0.0000 0.0000
# 5 0.0000 0.0000 0.0000 0.0000 28.9483 0.0000
# 6 0.0000 0.0000 0.0000 0.0000 0.0000 13.0624
#
#
#
# Elastic Compliance Matrix: (Units=1/GPa)
#
#
# Indices 1 2 3 4 5 6 
#
# 1 0.025218 -0.004619 -0.005319 0.000000 0.000000 0.000000
# 2 -0.004619 0.011818 -0.005019 0.000000 0.000000 0.000000
# 3 -0.005319 -0.005019 0.010985 0.000000 0.000000 0.000000
# 4 0.000000 0.000000 0.000000 0.030911 0.000000 0.000000
# 5 0.000000 0.000000 0.000000 0.000000 0.034544 0.000000
# 6 0.000000 0.000000 0.000000 0.000000 0.000000 0.076555
#
#
# Mechanical properties :
#
#
# Convention : Reuss Voigt Hill
#
# Bulk Modulus (GPa) = 55.22286 76.73282 65.97784
# Shear Modulus (GPa) = 22.12580 26.40602 24.26591
#
# Velocity S-wave (km/s) = 3.53980 3.86705 3.70704
# Velocity P-wave (km/s) = 6.92679 7.96202 7.46238
#
# Compressibility (1/GPa) = 0.01810844
#
# Stress axis : x y z
#
# Youngs Moduli (GPa) = 39.65439 84.61977 91.03034
#
# Poissons Ratio (x) = 0.39083 0.48418
# Poissons Ratio (y) = 0.18315 0.45684
# Poissons Ratio (z) = 0.21092 0.42467
#
# Static dielectric constant tensor:
#      x y z
#    x 3.080060 0.000000 0.000000 
#    y 0.000000 3.330870 0.000000 
#    z 0.000000 0.000000 3.531760 
# 
# 
# High freq. dielectric constant tensor:
#      x y z
#    x 1.666940 0.000000 0.000000 
#    y 0.000000 1.668610 0.000000 
#    z 0.000000 0.000000 1.696480 
# 
# From -- ./inp_files/10990.got.cif
#   From: 2010.03.12/outbox.cif.g09.slc.cpg/sg47_6_cif.got.tgz:10990.got - 2010.04.14 03:12:58.
