data_PCOD8196695
_publ_section_title
;
Structure prediction by ZEFSAII (Michael W. Deem and Ramdas Pophale) SiO2 
 PCOD8196695
Probable space group: P M M M
;
_chemical_formula_sum "Si O2"
_cell_formula_units_Z 56
_cell_length_a 9.111855
_cell_length_b 21.825180
_cell_length_c 23.282460
_cell_angle_alpha 90.000000
_cell_angle_beta 90.000000
_cell_angle_gamma 90.000000
_cell_volume 4630.133357
_symmetry_space_group_name_H-M "P M M M"
_symmetry_group_IT_number 47
_symmetry_cell_setting 'orthorhombic'
loop_
_space_group_symop_operation_xyz
x,y,z
-x,-y,z
x,-y,-z
-x,y,-z
-x,-y,-z
x,y,-z
-x,y,z
x,-y,z
loop_
_atom_site_type_symbol
_atom_site_label
_atom_site_fract_x
_atom_site_fract_y
_atom_site_fract_z
Si Si1 0.664057 0.572782 0.827951
Si Si2 0.834493 0.881420 0.568441
Si Si3 0.327948 0.630073 0.392527
Si Si4 0.665601 0.000000 0.568528
Si Si5 0.829370 0.572002 0.285806
Si Si6 0.331481 0.237342 0.434288
Si Si7 0.835089 0.427137 0.063325
Si Si8 0.167105 0.427486 0.500000
O O1 0.500000 0.599093 0.819381
O O2 0.659374 0.500000 0.831340
O O3 0.767416 0.593396 0.775627
O O4 0.729867 0.600059 0.887265
O O5 0.828229 0.881876 0.500000
O O6 0.763365 0.818464 0.591254
O O7 0.000000 0.885450 0.591306
O O8 0.746556 0.939760 0.592822
O O9 0.500000 0.614545 0.395373
O O10 0.261292 0.608429 0.332949
O O11 0.299985 0.702648 0.396821
O O12 0.248988 0.595274 0.443777
O O13 0.500000 0.000000 0.591757
O O14 0.668962 0.000000 0.500000
O O15 0.805293 0.500000 0.295740
O O16 0.000000 0.589428 0.289432
O O17 0.287871 0.252463 0.500000
O O18 0.500000 0.216965 0.430853
O O19 0.835984 0.500000 0.066870
O O20 0.000000 0.402698 0.073626
O O21 0.779027 0.406372 0.000000
O O22 0.168848 0.500000 0.500000
O O23 0.000000 0.402844 0.500000
#
# Coordination Sequence:
#
# PCOD8196695 Si02
#       8
#     8   8   8   4   8   8   8   4
#     4   9  16  25  37  52  68  86 108 133 160 192
#     4   9  16  24  36  54  72  89 109 131 152 179
#     4  11  21  33  46  58  69  84 107 137 171 210
#     4   9  15  23  35  51  71  95 113 127 149 177
#     4  10  20  32  43  54  68  86 108 136 172 213
#     4   9  17  30  42  53  69  87 106 128 161 203
#     4   8  13  21  33  49  69  91 110 127 151 185
#     4  11  23  35  45  57  71  84 101 130 171 217
#
# _framework density 12.094683
#
# number of rings (size 3 to 8) (size 9 to 14) (size 15 to 20)
#    0.000    2.571    0.714    3.000    0.000    8.857 
#    0.000    1.429    0.000    0.000    0.000    0.000 
#    0.000    0.000    0.000    0.000    0.000    0.000 
#
# Total GULP energy -694281.264694 kJ/mol
# GULP energy per Si atom -12397.879727 kJ/mol
# Density = 1.206716 g / cm^3
# Si number density = 12.094683 Si / 1000 Ang^3
#
#
#
# Elastic Constant Matrix: (Units=GPa)
#
#
# Indices 1 2 3 4 5 6 
#
# 1 102.4472 42.8004 40.8181 0.0000 0.0000 0.0000
# 2 42.8004 52.4714 25.5528 0.0000 0.0000 0.0000
# 3 40.8181 25.5528 70.9848 0.0000 0.0000 0.0000
# 4 0.0000 0.0000 0.0000 -6.8592 0.0000 0.0000
# 5 0.0000 0.0000 0.0000 0.0000 21.5421 0.0000
# 6 0.0000 0.0000 0.0000 0.0000 0.0000 16.0945
#
#
#
# Elastic Compliance Matrix: (Units=1/GPa)
#
#
# Indices 1 2 3 4 5 6 
#
# 1 0.016469 -0.010697 -0.005619 0.000000 0.000000 0.000000
# 2 -0.010697 0.030057 -0.004669 0.000000 0.000000 0.000000
# 3 -0.005619 -0.004669 0.019000 0.000000 0.000000 0.000000
# 4 0.000000 0.000000 0.000000 -0.145790 0.000000 0.000000
# 5 0.000000 0.000000 0.000000 0.000000 0.046421 0.000000
# 6 0.000000 0.000000 0.000000 0.000000 0.000000 0.062133
#
#
# Mechanical properties :
#
#
# Convention : Reuss Voigt Hill
#
# Bulk Modulus (GPa) = 42.45358 49.36066 45.90712
# Shear Modulus (GPa) = 64.01102 13.93763 38.97433
#
# Velocity S-wave (km/s) = 7.28284 3.39835 5.68281
# Velocity P-wave (km/s) = 10.29063 7.50326 9.00544
#
# Compressibility (1/GPa) = 0.02355514
#
# Stress axis : x y z
#
# Youngs Moduli (GPa) = 60.71968 33.27001 52.63294
#
# Poissons Ratio (x) = 0.35589 0.29577
# Poissons Ratio (y) = 0.64952 0.24573
# Poissons Ratio (z) = 0.34121 0.15533
#
# Static dielectric constant tensor:
#      x y z
#    x 2.726890 0.000000 0.000000 
#    y 0.000000 2.303900 0.000000 
#    z 0.000000 0.000000 2.411460 
# 
# 
# High freq. dielectric constant tensor:
#      x y z
#    x 1.478220 0.000000 0.000000 
#    y 0.000000 1.419660 0.000000 
#    z 0.000000 0.000000 1.426410 
# 
# From -- ./inp_files/30097.got.cif
#   From: 2010.03.12/outbox.cif.g09.slc.cpg/sg47_16_cif.got.tgz:30097.got - 2010.04.14 03:12:58.
