data_PCOD8196948
_publ_section_title
;
Structure prediction by ZEFSAII (Michael W. Deem and Ramdas Pophale) SiO2 
 PCOD8196948
Probable space group: P M M M
;
_chemical_formula_sum "Si O2"
_cell_formula_units_Z 44
_cell_length_a 9.231883
_cell_length_b 28.514337
_cell_length_c 9.454748
_cell_angle_alpha 90.000000
_cell_angle_beta 90.000000
_cell_angle_gamma 90.000000
_cell_volume 2488.877536
_symmetry_space_group_name_H-M "P M M M"
_symmetry_group_IT_number 47
_symmetry_cell_setting 'orthorhombic'
loop_
_space_group_symop_operation_xyz
x,y,z
-x,-y,z
x,-y,-z
-x,y,-z
-x,-y,-z
x,y,-z
-x,y,z
x,-y,z
loop_
_atom_site_type_symbol
_atom_site_label
_atom_site_fract_x
_atom_site_fract_y
_atom_site_fract_z
Si Si1 0.667862 0.370395 0.834465
Si Si2 0.164974 0.554284 0.663485
Si Si3 0.836986 0.899476 0.169387
Si Si4 0.836343 0.720973 0.168405
Si Si5 0.663265 0.810658 0.168765
Si Si6 0.172041 0.000000 0.155009
O O1 0.500000 0.362699 0.799744
O O2 0.724274 0.416439 0.756931
O O3 0.754043 0.325196 0.776801
O O4 0.694570 0.377567 0.000000
O O5 0.190992 0.566301 0.500000
O O6 0.197303 0.500000 0.693058
O O7 0.000000 0.566426 0.706316
O O8 0.732642 0.858791 0.227549
O O9 0.000000 0.888097 0.220513
O O10 0.783976 0.950626 0.230802
O O11 0.833662 0.901762 0.000000
O O12 0.754394 0.766735 0.228019
O O13 0.000000 0.720600 0.227237
O O14 0.835640 0.722157 0.000000
O O15 0.500000 0.806808 0.226068
O O16 0.665943 0.810508 0.000000
O O17 0.000000 0.000000 0.138671
O O18 0.244602 0.000000 0.000000
#
# Coordination Sequence:
#
# PCOD8196948 Si02
#       6
#     8   8   8   8   8   4
#     4  10  20  32  47  70  98 123 148 183 227 271
#     4   9  19  36  55  73  94 122 156 190 221 257
#     4   8  12  18  27  37  50  73 108 148 191 240
#     4   9  16  26  40  56  75 102 135 169 207 253
#     4   9  15  21  29  43  64  88 115 152 200 250
#     4   7  10  16  25  35  47  67 101 147 192 233
#
# _framework density 17.678653000000001
#
# number of rings (size 3 to 8) (size 9 to 14) (size 15 to 20)
#    0.000    3.182    0.000    3.273    0.000    6.545 
#    0.000    3.182    0.000    2.727    0.000    0.000 
#    0.000    0.000    0.000    0.000    0.000    0.000 
#
# Total GULP energy -545296.639497 kJ/mol
# GULP energy per Si atom -12393.105443 kJ/mol
# Density = 1.763842 g / cm^3
# Si number density = 17.678653 Si / 1000 Ang^3
#
#
#
# Elastic Constant Matrix: (Units=GPa)
#
#
# Indices 1 2 3 4 5 6 
#
# 1 138.2219 88.5795 24.2232 0.0000 0.0000 0.0000
# 2 88.5795 155.4912 27.6302 0.0000 0.0000 0.0000
# 3 24.2232 27.6302 14.1719 0.0000 0.0000 0.0000
# 4 0.0000 0.0000 0.0000 -0.7335 0.0000 0.0000
# 5 0.0000 0.0000 0.0000 0.0000 12.8461 0.0000
# 6 0.0000 0.0000 0.0000 0.0000 0.0000 23.5444
#
#
#
# Elastic Compliance Matrix: (Units=1/GPa)
#
#
# Indices 1 2 3 4 5 6 
#
# 1 0.012501 -0.005087 -0.011450 0.000000 0.000000 0.000000
# 2 -0.005087 0.011910 -0.014526 0.000000 0.000000 0.000000
# 3 -0.011450 -0.014526 0.118453 0.000000 0.000000 0.000000
# 4 0.000000 0.000000 0.000000 -1.363391 0.000000 0.000000
# 5 0.000000 0.000000 0.000000 0.000000 0.077845 0.000000
# 6 0.000000 0.000000 0.000000 0.000000 0.000000 0.042473
#
#
# Mechanical properties :
#
#
# Convention : Reuss Voigt Hill
#
# Bulk Modulus (GPa) = 12.38559 65.41677 38.90118
# Shear Modulus (GPa) = -4.94477 18.29487 6.67505
#
# Velocity S-wave (km/s) = -1.67425 3.22041 1.94524
# Velocity P-wave (km/s) = 1.81210 7.13524 5.20554
#
# Compressibility (1/GPa) = 0.08073896
#
# Stress axis : x y z
#
# Youngs Moduli (GPa) = 79.99105 83.95963 8.44217
#
# Poissons Ratio (x) = 0.42712 0.09666
# Poissons Ratio (y) = 0.40693 0.12263
# Poissons Ratio (z) = 0.91588 1.21960
#
# Static dielectric constant tensor:
#      x y z
#    x 3.313220 0.000000 0.000000 
#    y 0.000000 3.632020 0.000000 
#    z 0.000000 0.000000 2.506300 
# 
# 
# High freq. dielectric constant tensor:
#      x y z
#    x 1.682390 0.000000 0.000000 
#    y 0.000000 1.707390 0.000000 
#    z 0.000000 0.000000 1.595360 
# 
# From -- ./inp_files/2017.got.cif
#   From: 2010.03.12/outbox.cif.g09.slc.cpg/sg47_2_cif.got.tgz:2017.got - 2010.04.14 03:12:58.
