data_PCOD8196579
_publ_section_title
;
Structure prediction by ZEFSAII (Michael W. Deem and Ramdas Pophale) SiO2 
 PCOD8196579
Probable space group: P M M M
;
_chemical_formula_sum "Si O2"
_cell_formula_units_Z 40
_cell_length_a 9.423669
_cell_length_b 9.274287
_cell_length_c 25.566256
_cell_angle_alpha 90.000000
_cell_angle_beta 90.000000
_cell_angle_gamma 90.000000
_cell_volume 2234.434807
_symmetry_space_group_name_H-M "P M M M"
_symmetry_group_IT_number 47
_symmetry_cell_setting 'orthorhombic'
loop_
_space_group_symop_operation_xyz
x,y,z
-x,-y,z
x,-y,-z
-x,y,-z
-x,-y,-z
x,y,-z
-x,y,z
x,-y,z
loop_
_atom_site_type_symbol
_atom_site_label
_atom_site_fract_x
_atom_site_fract_y
_atom_site_fract_z
Si Si1 0.159463 0.327482 0.612102
Si Si2 0.162977 0.833974 0.085140
Si Si3 0.662195 0.329324 0.709631
Si Si4 0.335179 0.330484 0.000000
Si Si5 0.161982 0.833664 0.206089
Si Si6 0.831543 0.342121 0.500000
O O1 0.162649 0.500000 0.608947
O O2 0.262306 0.268970 0.657324
O O3 0.211012 0.264440 0.555053
O O4 0.000000 0.274416 0.625033
O O5 0.195959 0.804307 0.145633
O O6 0.000000 0.796215 0.072184
O O7 0.193050 0.000000 0.070999
O O8 0.265134 0.733535 0.051879
O O9 0.500000 0.279500 0.707534
O O10 0.677603 0.500000 0.713090
O O11 0.733476 0.264238 0.760762
O O12 0.310276 0.500000 0.000000
O O13 0.500000 0.289610 0.000000
O O14 0.000000 0.790802 0.218675
O O15 0.188348 0.000000 0.219983
O O16 0.759899 0.500000 0.500000
O O17 0.000000 0.359464 0.500000
#
# Coordination Sequence:
#
# PCOD8196579 Si02
#       6
#     8   8   8   4   8   4
#     4   8  13  23  40  61  87 121 160 200 241 285
#     4   9  19  37  59  79  98 124 163 208 247 285
#     4  10  20  31  44  68 102 134 162 195 239 292
#     4  11  24  37  50  76 112 141 164 193 232 282
#     4   9  19  36  56  76  96 122 162 208 248 287
#     4   7  10  18  35  59  84 113 154 201 242 280
#
# _framework density 17.901620000000001
#
# number of rings (size 3 to 8) (size 9 to 14) (size 15 to 20)
#    0.000    3.000    0.000    3.600    0.000    5.600 
#    0.000    6.500    0.000    3.000    0.000    0.700 
#    0.000    5.600    0.000    0.000    0.000    0.000 
#
# Total GULP energy -495768.787919 kJ/mol
# GULP energy per Si atom -12394.219698 kJ/mol
# Density = 1.786087 g / cm^3
# Si number density = 17.901620 Si / 1000 Ang^3
#
#
#
# Elastic Constant Matrix: (Units=GPa)
#
#
# Indices 1 2 3 4 5 6 
#
# 1 125.5013 45.1846 84.5929 0.0000 0.0000 0.0000
# 2 45.1846 37.3729 41.9226 0.0000 0.0000 0.0000
# 3 84.5929 41.9226 136.1483 0.0000 0.0000 0.0000
# 4 0.0000 0.0000 0.0000 -3.5090 0.0000 0.0000
# 5 0.0000 0.0000 0.0000 0.0000 6.7946 0.0000
# 6 0.0000 0.0000 0.0000 0.0000 0.0000 23.7912
#
#
#
# Elastic Compliance Matrix: (Units=1/GPa)
#
#
# Indices 1 2 3 4 5 6 
#
# 1 0.017250 -0.013493 -0.006563 0.000000 0.000000 0.000000
# 2 -0.013493 0.051431 -0.007453 0.000000 0.000000 0.000000
# 3 -0.006563 -0.007453 0.013718 0.000000 0.000000 0.000000
# 4 0.000000 0.000000 0.000000 -0.284981 0.000000 0.000000
# 5 0.000000 0.000000 0.000000 0.000000 0.147175 0.000000
# 6 0.000000 0.000000 0.000000 0.000000 0.000000 0.042032
#
#
# Mechanical properties :
#
#
# Convention : Reuss Voigt Hill
#
# Bulk Modulus (GPa) = 36.52266 71.38029 53.95148
# Shear Modulus (GPa) = 98.48476 13.90353 56.19415
#
# Velocity S-wave (km/s) = 7.42522 2.78989 5.60880
# Velocity P-wave (km/s) = 9.69319 7.09494 8.49400
#
# Compressibility (1/GPa) = 0.02738026
#
# Stress axis : x y z
#
# Youngs Moduli (GPa) = 57.97166 19.44344 72.89955
#
# Poissons Ratio (x) = 0.26236 0.47843
# Poissons Ratio (y) = 0.78224 0.54330
# Poissons Ratio (z) = 0.38046 0.14491
#
# Static dielectric constant tensor:
#      x y z
#    x 3.245680 0.000000 0.000000 
#    y 0.000000 2.900630 0.000000 
#    z 0.000000 0.000000 3.605620 
# 
# 
# High freq. dielectric constant tensor:
#      x y z
#    x 1.680440 0.000000 0.000000 
#    y 0.000000 1.649640 0.000000 
#    z 0.000000 0.000000 1.714740 
# 
# From -- ./inp_files/13001.got.cif
#   From: 2010.03.12/outbox.cif.g09.slc.cpg/sg47_7_cif.got.tgz:13001.got - 2010.04.14 03:12:58.
