data_PCOD8196070
_publ_section_title
;
Structure prediction by ZEFSAII (Michael W. Deem and Ramdas Pophale) SiO2 
 PCOD8196070
Probable space group: P M M M
;
_chemical_formula_sum "Si O2"
_cell_formula_units_Z 52
_cell_length_a 22.525961
_cell_length_b 9.426827
_cell_length_c 13.523610
_cell_angle_alpha 90.000000
_cell_angle_beta 90.000000
_cell_angle_gamma 90.000000
_cell_volume 2871.716099
_symmetry_space_group_name_H-M "P M M M"
_symmetry_group_IT_number 47
_symmetry_cell_setting 'orthorhombic'
loop_
_space_group_symop_operation_xyz
x,y,z
-x,-y,z
x,-y,-z
-x,y,-z
-x,-y,-z
x,y,-z
-x,y,z
x,-y,z
loop_
_atom_site_type_symbol
_atom_site_label
_atom_site_fract_x
_atom_site_fract_y
_atom_site_fract_z
Si Si1 0.619978 0.832846 0.000000
Si Si2 0.754035 0.168192 0.000000
Si Si3 0.932261 0.335601 0.886594
Si Si4 0.172244 0.166076 0.191726
Si Si5 0.756202 0.162947 0.387484
Si Si6 0.361136 0.340062 0.644499
Si Si7 0.566510 0.344224 0.834881
Si Si8 0.569321 0.842292 0.500000
O O1 0.582306 0.781626 0.092473
O O2 0.687020 0.770526 0.000000
O O3 0.622014 0.000000 0.000000
O O4 0.785973 0.221402 0.101194
O O5 0.752047 0.000000 0.000000
O O6 0.916466 0.500000 0.873404
O O7 0.890696 0.244236 0.815167
O O8 0.000000 0.306288 0.855371
O O9 0.922134 0.289063 0.000000
O O10 0.197147 0.202018 0.301154
O O11 0.161255 0.000000 0.179585
O O12 0.781864 0.183657 0.500000
O O13 0.701716 0.267461 0.372288
O O14 0.735477 0.000000 0.373222
O O15 0.358481 0.500000 0.601231
O O16 0.380502 0.343011 0.756879
O O17 0.411329 0.245851 0.594515
O O18 0.500000 0.317146 0.791352
O O19 0.567422 0.500000 0.886304
O O20 0.500000 0.858302 0.500000
O O21 0.598458 0.000000 0.500000
#
# Coordination Sequence:
#
# PCOD8196070 Si02
#       8
#     4   4   8   8   8   8   8   4
#     4  11  22  36  55  77 103 138 180 221 262 321
#     4   9  18  32  49  76 110 137 168 219 276 317
#     4   9  18  33  53  81 118 152 180 220 276 328
#     4  10  19  33  55  81 111 147 186 225 266 322
#     4  10  21  37  56  79 112 150 184 224 279 334
#     4  11  22  37  58  81 104 134 178 228 277 334
#     4  10  22  39  55  73 102 137 171 216 276 333
#     4  11  23  37  55  79 107 137 170 219 284 343
#
# _framework density 18.10764
#
# number of rings (size 3 to 8) (size 9 to 14) (size 15 to 20)
#    0.000    1.923    1.538    3.000    0.000    5.846 
#    0.000    2.308    0.000    0.462    0.000    3.231 
#    0.000    0.000    0.000    0.000    0.000    0.000 
#
# Total GULP energy -644499.816823 kJ/mol
# GULP energy per Si atom -12394.227247 kJ/mol
# Density = 1.806643 g / cm^3
# Si number density = 18.107640 Si / 1000 Ang^3
#
#
#
# Elastic Constant Matrix: (Units=GPa)
#
#
# Indices 1 2 3 4 5 6 
#
# 1 98.6004 48.9936 52.9978 0.0000 0.0000 0.0000
# 2 48.9936 94.3337 44.4949 0.0000 0.0000 0.0000
# 3 52.9978 44.4949 116.7330 0.0000 0.0000 0.0000
# 4 0.0000 0.0000 0.0000 30.8940 0.0000 0.0000
# 5 0.0000 0.0000 0.0000 0.0000 34.2395 0.0000
# 6 0.0000 0.0000 0.0000 0.0000 0.0000 30.7904
#
#
#
# Elastic Compliance Matrix: (Units=1/GPa)
#
#
# Indices 1 2 3 4 5 6 
#
# 1 0.015668 -0.005830 -0.004891 0.000000 0.000000 0.000000
# 2 -0.005830 0.015094 -0.003106 0.000000 0.000000 0.000000
# 3 -0.004891 -0.003106 0.011971 0.000000 0.000000 0.000000
# 4 0.000000 0.000000 0.000000 0.032369 0.000000 0.000000
# 5 0.000000 0.000000 0.000000 0.000000 0.029206 0.000000
# 6 0.000000 0.000000 0.000000 0.000000 0.000000 0.032478
#
#
# Mechanical properties :
#
#
# Convention : Reuss Voigt Hill
#
# Bulk Modulus (GPa) = 66.32346 66.95995 66.64171
# Shear Modulus (GPa) = 29.50432 30.06350 29.78391
#
# Velocity S-wave (km/s) = 4.04094 4.07906 4.06005
# Velocity P-wave (km/s) = 7.64717 7.69702 7.67213
#
# Compressibility (1/GPa) = 0.01507762
#
# Stress axis : x y z
#
# Youngs Moduli (GPa) = 63.82455 66.25188 83.53429
#
# Poissons Ratio (x) = 0.38628 0.40857
# Poissons Ratio (y) = 0.37212 0.25948
# Poissons Ratio (z) = 0.31217 0.20580
#
# Static dielectric constant tensor:
#      x y z
#    x 3.263610 0.000000 0.000000 
#    y 0.000000 3.396070 0.000000 
#    z 0.000000 0.000000 3.269930 
# 
# 
# High freq. dielectric constant tensor:
#      x y z
#    x 1.691150 0.000000 0.000000 
#    y 0.000000 1.702530 0.000000 
#    z 0.000000 0.000000 1.696000 
# 
# From -- ./inp_files/25072.got.cif
#   From: 2010.03.12/outbox.cif.g09.slc.cpg/sg47_13_cif.got.tgz:25072.got - 2010.04.14 03:12:58.
