data_PCOD8196520
_publ_section_title
;
Structure prediction by ZEFSAII (Michael W. Deem and Ramdas Pophale) SiO2 
 PCOD8196520
Probable space group: P M M M
;
_chemical_formula_sum "Si O2"
_cell_formula_units_Z 64
_cell_length_a 30.810577
_cell_length_b 14.089059
_cell_length_c 8.961873
_cell_angle_alpha 90.000000
_cell_angle_beta 90.000000
_cell_angle_gamma 90.000000
_cell_volume 3890.277707
_symmetry_space_group_name_H-M "P M M M"
_symmetry_group_IT_number 47
_symmetry_cell_setting 'orthorhombic'
loop_
_space_group_symop_operation_xyz
x,y,z
-x,-y,z
x,-y,-z
-x,y,-z
-x,-y,-z
x,y,-z
-x,y,z
x,-y,z
loop_
_atom_site_type_symbol
_atom_site_label
_atom_site_fract_x
_atom_site_fract_y
_atom_site_fract_z
Si Si1 0.755075 0.605698 0.329737
Si Si2 0.950311 0.110210 0.170394
Si Si3 0.875506 0.216488 0.324607
Si Si4 0.204313 0.888741 0.827142
Si Si5 0.632873 0.889068 0.173382
Si Si6 0.844481 0.392290 0.173616
Si Si7 0.713549 0.798691 0.673427
Si Si8 0.547568 0.887437 0.332645
O O1 0.772044 0.613275 0.500000
O O2 0.735838 0.500000 0.298970
O O3 0.795061 0.627054 0.221378
O O4 0.718760 0.685385 0.299256
O O5 0.921051 0.169529 0.282801
O O6 0.000000 0.140314 0.196393
O O7 0.943874 0.000000 0.206520
O O8 0.936420 0.131052 0.000000
O O9 0.869125 0.214362 0.500000
O O10 0.835687 0.161988 0.250794
O O11 0.876500 0.324567 0.266019
O O12 0.249448 0.857484 0.756167
O O13 0.198335 0.000000 0.804053
O O14 0.204600 0.860489 0.000000
O O15 0.667174 0.827849 0.264212
O O16 0.585131 0.852222 0.221217
O O17 0.639175 0.000000 0.211504
O O18 0.639315 0.869296 0.000000
O O19 0.858078 0.500000 0.209649
O O20 0.848675 0.368943 0.000000
O O21 0.716091 0.824410 0.500000
O O22 0.557578 0.850728 0.500000
O O23 0.500000 0.849511 0.280253
O O24 0.546481 0.000000 0.332395
#
# Coordination Sequence:
#
# PCOD8196520 Si02
#       8
#     8   8   8   8   8   8   8   8
#     4   9  18  33  51  71  95 122 156 201 251 296
#     4   9  19  37  59  80 103 133 167 203 244 288
#     4  12  23  34  52  78 105 133 163 200 245 290
#     4  11  23  36  49  67  96 133 169 205 240 279
#     4  10  20  31  43  62  92 131 168 201 239 284
#     4  10  20  34  54  77  99 127 164 204 245 290
#     4  11  21  32  48  69  94 128 163 199 244 292
#     4   8  14  26  44  64  86 115 155 203 248 287
#
# _framework density 16.451267999999999
#
# number of rings (size 3 to 8) (size 9 to 14) (size 15 to 20)
#    0.000    2.000    1.250    4.125    0.000    6.750 
#    0.000    1.875    0.000    0.375    0.000    2.625 
#    0.000    0.500    0.000    5.750    0.000    1.875 
#
# Total GULP energy -793602.349647 kJ/mol
# GULP energy per Si atom -12400.036713 kJ/mol
# Density = 1.641382 g / cm^3
# Si number density = 16.451268 Si / 1000 Ang^3
#
#
#
# Elastic Constant Matrix: (Units=GPa)
#
#
# Indices 1 2 3 4 5 6 
#
# 1 94.9503 45.6407 51.0184 0.0000 0.0000 0.0000
# 2 45.6407 77.8349 53.5321 0.0000 0.0000 0.0000
# 3 51.0184 53.5321 107.9912 0.0000 0.0000 0.0000
# 4 0.0000 0.0000 0.0000 22.4022 0.0000 0.0000
# 5 0.0000 0.0000 0.0000 0.0000 30.9623 0.0000
# 6 0.0000 0.0000 0.0000 0.0000 0.0000 8.9145
#
#
#
# Elastic Compliance Matrix: (Units=1/GPa)
#
#
# Indices 1 2 3 4 5 6 
#
# 1 0.015930 -0.006320 -0.004393 0.000000 0.000000 0.000000
# 2 -0.006320 0.022001 -0.007920 0.000000 0.000000 0.000000
# 3 -0.004393 -0.007920 0.015262 0.000000 0.000000 0.000000
# 4 0.000000 0.000000 0.000000 0.044638 0.000000 0.000000
# 5 0.000000 0.000000 0.000000 0.000000 0.032297 0.000000
# 6 0.000000 0.000000 0.000000 0.000000 0.000000 0.112177
#
#
# Mechanical properties :
#
#
# Convention : Reuss Voigt Hill
#
# Bulk Modulus (GPa) = 62.78960 64.57320 63.68140
# Shear Modulus (GPa) = 17.55124 21.16149 19.35636
#
# Velocity S-wave (km/s) = 3.26983 3.59041 3.43386
# Velocity P-wave (km/s) = 7.24607 7.51828 7.38343
#
# Compressibility (1/GPa) = 0.01592620
#
# Stress axis : x y z
#
# Youngs Moduli (GPa) = 62.77448 45.45308 65.52350
#
# Poissons Ratio (x) = 0.28724 0.28786
# Poissons Ratio (y) = 0.39671 0.51897
# Poissons Ratio (z) = 0.27578 0.36001
#
# Static dielectric constant tensor:
#      x y z
#    x 3.156750 0.000000 0.000000 
#    y 0.000000 3.152500 0.000000 
#    z 0.000000 0.000000 3.223990 
# 
# 
# High freq. dielectric constant tensor:
#      x y z
#    x 1.620010 0.000000 0.000000 
#    y 0.000000 1.615790 0.000000 
#    z 0.000000 0.000000 1.645170 
# 
# From -- ./inp_files/14348.got.cif
#   From: 2010.03.12/outbox.cif.g09.slc.cpg/sg47_8_cif.got.tgz:14348.got - 2010.04.14 03:12:58.
