data_PCOD8196661
_publ_section_title
;
Structure prediction by ZEFSAII (Michael W. Deem and Ramdas Pophale) SiO2 
 PCOD8196661
Probable space group: P M M M
;
_chemical_formula_sum "Si O2"
_cell_formula_units_Z 64
_cell_length_a 9.396234
_cell_length_b 9.250702
_cell_length_c 40.772369
_cell_angle_alpha 90.000000
_cell_angle_beta 90.000000
_cell_angle_gamma 90.000000
_cell_volume 3544.006100
_symmetry_space_group_name_H-M "P M M M"
_symmetry_group_IT_number 47
_symmetry_cell_setting 'orthorhombic'
loop_
_space_group_symop_operation_xyz
x,y,z
-x,-y,z
x,-y,-z
-x,y,-z
-x,-y,-z
x,y,-z
-x,y,z
x,-y,z
loop_
_atom_site_type_symbol
_atom_site_label
_atom_site_fract_x
_atom_site_fract_y
_atom_site_fract_z
Si Si1 0.168778 0.166155 0.401465
Si Si2 0.162733 0.666819 0.151482
Si Si3 0.331766 0.834743 0.098019
Si Si4 0.834436 0.336141 0.227039
Si Si5 0.665775 0.166497 0.720019
Si Si6 0.168921 0.661842 0.463815
Si Si7 0.334345 0.330823 0.654598
Si Si8 0.330824 0.662555 0.036034
O O1 0.223919 0.225911 0.436553
O O2 0.242206 0.259921 0.373707
O O3 0.000000 0.183550 0.397879
O O4 0.216066 0.000000 0.398476
O O5 0.192685 0.500000 0.143597
O O6 0.266023 0.763116 0.129965
O O7 0.196460 0.700421 0.189274
O O8 0.000000 0.706111 0.143393
O O9 0.500000 0.814548 0.100195
O O10 0.269309 0.763518 0.064750
O O11 0.285523 0.000000 0.097191
O O12 0.785470 0.500000 0.234951
O O13 0.747896 0.222556 0.248338
O O14 0.000000 0.318498 0.235032
O O15 0.500000 0.186533 0.727108
O O16 0.713459 0.258756 0.688614
O O17 0.705435 0.000000 0.713549
O O18 0.224839 0.708799 0.500000
O O19 0.224120 0.500000 0.455449
O O20 0.000000 0.661344 0.464127
O O21 0.500000 0.301177 0.647507
O O22 0.300031 0.500000 0.656471
O O23 0.500000 0.666000 0.036759
O O24 0.276010 0.500000 0.042320
O O25 0.278343 0.716229 0.000000
#
# Coordination Sequence:
#
# PCOD8196661 Si02
#       8
#     8   8   8   8   8   8   8   8
#     4  10  20  32  49  76 106 134 166 205 250 299
#     4   9  19  36  55  73  96 130 170 207 244 289
#     4  10  20  31  46  73 105 133 163 201 246 296
#     4   9  19  36  56  77 100 128 165 206 246 290
#     4  10  21  36  54  77 104 132 162 199 245 296
#     4   8  14  26  45  69  98 132 168 206 248 292
#     4  10  21  37  56  75  97 131 172 208 246 294
#     4   8  14  26  45  68  94 126 164 204 245 289
#
# _framework density 18.05866
#
# number of rings (size 3 to 8) (size 9 to 14) (size 15 to 20)
#    0.000    2.750    0.000    3.000    0.000    5.500 
#    0.000    6.250    0.000    0.750    0.000    5.250 
#    0.000    0.000    0.000    0.000    0.000    0.000 
#
# Total GULP energy -793512.116371 kJ/mol
# GULP energy per Si atom -12398.626818 kJ/mol
# Density = 1.801756 g / cm^3
# Si number density = 18.058660 Si / 1000 Ang^3
#
#
#
# Elastic Constant Matrix: (Units=GPa)
#
#
# Indices 1 2 3 4 5 6 
#
# 1 27.0552 37.6107 40.8108 0.0000 0.0000 0.0000
# 2 37.6107 129.9319 86.0366 0.0000 0.0000 0.0000
# 3 40.8108 86.0366 136.2272 0.0000 0.0000 0.0000
# 4 0.0000 0.0000 0.0000 17.7886 0.0000 0.0000
# 5 0.0000 0.0000 0.0000 0.0000 23.3037 0.0000
# 6 0.0000 0.0000 0.0000 0.0000 0.0000 26.0079
#
#
#
# Elastic Compliance Matrix: (Units=1/GPa)
#
#
# Indices 1 2 3 4 5 6 
#
# 1 0.077066 -0.012066 -0.015467 0.000000 0.000000 0.000000
# 2 -0.012066 0.015118 -0.005933 0.000000 0.000000 0.000000
# 3 -0.015467 -0.005933 0.015721 0.000000 0.000000 0.000000
# 4 0.000000 0.000000 0.000000 0.056216 0.000000 0.000000
# 5 0.000000 0.000000 0.000000 0.000000 0.042912 0.000000
# 6 0.000000 0.000000 0.000000 0.000000 0.000000 0.038450
#
#
# Mechanical properties :
#
#
# Convention : Reuss Voigt Hill
#
# Bulk Modulus (GPa) = 24.40646 69.12562 46.76604
# Shear Modulus (GPa) = 15.33405 22.00377 18.66891
#
# Velocity S-wave (km/s) = 2.91714 3.49443 3.21875
# Velocity P-wave (km/s) = 4.98906 7.39208 6.30609
#
# Compressibility (1/GPa) = 0.04097276
#
# Stress axis : x y z
#
# Youngs Moduli (GPa) = 12.97596 66.14704 63.60811
#
# Poissons Ratio (x) = 0.79815 0.98380
# Poissons Ratio (y) = 0.15657 0.37739
# Poissons Ratio (z) = 0.20069 0.39246
#
# Static dielectric constant tensor:
#      x y z
#    x 2.979900 0.000000 0.000000 
#    y 0.000000 3.446390 0.000000 
#    z 0.000000 0.000000 3.564330 
# 
# 
# High freq. dielectric constant tensor:
#      x y z
#    x 1.662980 0.000000 0.000000 
#    y 0.000000 1.704730 0.000000 
#    z 0.000000 0.000000 1.713650 
# 
# From -- ./inp_files/34589.got.cif
#   From: 2010.03.12/outbox.cif.g09.slc.cpg/sg47_18_cif.got.tgz:34589.got - 2010.04.14 03:12:58.
