data_PCOD8196397
_publ_section_title
;
Structure prediction by ZEFSAII (Michael W. Deem and Ramdas Pophale) SiO2 
 PCOD8196397
Probable space group: P M M M
;
_chemical_formula_sum "Si O2"
_cell_formula_units_Z 36
_cell_length_a 24.866240
_cell_length_b 9.558857
_cell_length_c 7.916535
_cell_angle_alpha 90.000000
_cell_angle_beta 90.000000
_cell_angle_gamma 90.000000
_cell_volume 1881.703626
_symmetry_space_group_name_H-M "P M M M"
_symmetry_group_IT_number 47
_symmetry_cell_setting 'orthorhombic'
loop_
_space_group_symop_operation_xyz
x,y,z
-x,-y,z
x,-y,-z
-x,y,-z
-x,-y,-z
x,y,-z
-x,y,z
x,-y,z
loop_
_atom_site_type_symbol
_atom_site_label
_atom_site_fract_x
_atom_site_fract_y
_atom_site_fract_z
Si Si1 0.060898 0.167042 0.500000
Si Si2 0.440323 0.156545 0.701000
Si Si3 0.653824 0.654310 0.695206
Si Si4 0.870367 0.166163 0.812749
Si Si5 0.749057 0.157330 0.802585
O O1 0.089879 0.226058 0.331122
O O2 0.000000 0.222466 0.500000
O O3 0.063009 0.000000 0.500000
O O4 0.436401 0.154695 0.500000
O O5 0.500000 0.206337 0.757263
O O6 0.395455 0.259729 0.780229
O O7 0.429269 0.000000 0.769800
O O8 0.640766 0.636029 0.500000
O O9 0.658036 0.500000 0.779715
O O10 0.709561 0.736051 0.711818
O O11 0.809603 0.209760 0.765670
O O12 0.873671 0.000000 0.818991
O O13 0.886173 0.224459 0.000000
O O14 0.740544 0.000000 0.730769
O O15 0.737175 0.158202 0.000000
#
# Coordination Sequence:
#
# PCOD8196397 Si02
#       5
#     4   8   8   8   8
#     4   9  16  24  38  64  95 129 164 195 240 295
#     4   8  14  26  44  65  90 122 160 198 236 283
#     4  10  20  30  43  69  99 124 154 194 244 298
#     4   8  15  27  41  61  90 123 162 204 243 290
#     4   9  18  32  49  67  88 121 164 203 241 287
#
# _framework density 19.131598
#
# number of rings (size 3 to 8) (size 9 to 14) (size 15 to 20)
#    0.000    3.222    0.000    2.667    1.556    2.667 
#    0.000    4.444    0.000    0.667    0.000    4.667 
#    0.000    1.778    0.000    4.889    0.000    4.889 
#
# Total GULP energy -446145.377768 kJ/mol
# GULP energy per Si atom -12392.927160 kJ/mol
# Density = 1.908805 g / cm^3
# Si number density = 19.131598 Si / 1000 Ang^3
#
#
#
# Elastic Constant Matrix: (Units=GPa)
#
#
# Indices 1 2 3 4 5 6 
#
# 1 159.9059 62.0627 54.4951 0.0000 0.0000 0.0000
# 2 62.0627 84.1167 23.6935 0.0000 0.0000 0.0000
# 3 54.4951 23.6935 62.5649 0.0000 0.0000 0.0000
# 4 0.0000 0.0000 0.0000 7.3938 0.0000 0.0000
# 5 0.0000 0.0000 0.0000 0.0000 -0.3408 0.0000
# 6 0.0000 0.0000 0.0000 0.0000 0.0000 3.5356
#
#
#
# Elastic Compliance Matrix: (Units=1/GPa)
#
#
# Indices 1 2 3 4 5 6 
#
# 1 0.011160 -0.006152 -0.007391 0.000000 0.000000 0.000000
# 2 -0.006152 0.016700 -0.000965 0.000000 0.000000 0.000000
# 3 -0.007391 -0.000965 0.022787 0.000000 0.000000 0.000000
# 4 0.000000 0.000000 0.000000 0.135248 0.000000 0.000000
# 5 0.000000 0.000000 0.000000 0.000000 -2.934193 0.000000
# 6 0.000000 0.000000 0.000000 0.000000 0.000000 0.282840
#
#
# Mechanical properties :
#
#
# Convention : Reuss Voigt Hill
#
# Bulk Modulus (GPa) = 46.23386 65.23222 55.73304
# Shear Modulus (GPa) = -2.05826 13.20680 5.57427
#
# Velocity S-wave (km/s) = -1.03835 2.63023 1.70879
# Velocity P-wave (km/s) = 4.77296 6.58747 5.75221
#
# Compressibility (1/GPa) = 0.02162917
#
# Stress axis : x y z
#
# Youngs Moduli (GPa) = 89.60296 59.88197 43.88554
#
# Poissons Ratio (x) = 0.36842 0.32435
# Poissons Ratio (y) = 0.55128 0.04236
# Poissons Ratio (z) = 0.66225 0.05780
#
# Static dielectric constant tensor:
#      x y z
#    x 3.660870 0.000000 0.000000 
#    y 0.000000 3.348440 0.000000 
#    z 0.000000 0.000000 3.393960 
# 
# 
# High freq. dielectric constant tensor:
#      x y z
#    x 1.748320 0.000000 0.000000 
#    y 0.000000 1.695170 0.000000 
#    z 0.000000 0.000000 1.724820 
# 
# From -- ./inp_files/12072.got.cif
#   From: 2010.03.12/outbox.cif.g09.slc.cpg/sg47_7_cif.got.tgz:12072.got - 2010.04.14 03:12:58.
