data_PCOD8196433
_publ_section_title
;
Structure prediction by ZEFSAII (Michael W. Deem and Ramdas Pophale) SiO2 
 PCOD8196433
Probable space group: P M M M
;
_chemical_formula_sum "Si O2"
_cell_formula_units_Z 64
_cell_length_a 15.380424
_cell_length_b 29.997049
_cell_length_c 9.235812
_cell_angle_alpha 90.000000
_cell_angle_beta 90.000000
_cell_angle_gamma 90.000000
_cell_volume 4261.101945
_symmetry_space_group_name_H-M "P M M M"
_symmetry_group_IT_number 47
_symmetry_cell_setting 'orthorhombic'
loop_
_space_group_symop_operation_xyz
x,y,z
-x,-y,z
x,-y,-z
-x,y,-z
-x,-y,-z
x,y,-z
-x,y,z
x,-y,z
loop_
_atom_site_type_symbol
_atom_site_label
_atom_site_fract_x
_atom_site_fract_y
_atom_site_fract_z
Si Si1 0.398108 0.117934 0.332132
Si Si2 0.279666 0.946927 0.166578
Si Si3 0.396579 0.290312 0.663516
Si Si4 0.904912 0.552959 0.663309
Si Si5 0.739213 0.550499 0.169588
Si Si6 0.908126 0.950176 0.828326
Si Si7 0.396491 0.794789 0.836173
Si Si8 0.599795 0.622416 0.831277
O O1 0.375303 0.124230 0.500000
O O2 0.500000 0.110820 0.308249
O O3 0.351419 0.074459 0.269550
O O4 0.363861 0.161259 0.246721
O O5 0.183978 0.928351 0.219193
O O6 0.283724 0.000000 0.184663
O O7 0.298320 0.933591 0.000000
O O8 0.359967 0.289167 0.500000
O O9 0.500000 0.288092 0.662569
O O10 0.358983 0.248227 0.752080
O O11 0.365586 0.335421 0.741350
O O12 0.889566 0.569528 0.500000
O O13 0.904287 0.500000 0.670474
O O14 0.826442 0.571576 0.760819
O O15 0.000000 0.570045 0.718228
O O16 0.721718 0.500000 0.223915
O O17 0.656217 0.579714 0.215130
O O18 0.754355 0.551484 0.000000
O O19 0.000000 0.925913 0.779816
O O20 0.911185 0.000000 0.764722
O O21 0.904929 0.952908 0.000000
O O22 0.500000 0.793112 0.837045
O O23 0.360126 0.795064 0.000000
O O24 0.500000 0.611085 0.793750
O O25 0.610557 0.633956 0.000000
#
# Coordination Sequence:
#
# PCOD8196433 Si02
#       8
#     8   8   8   8   8   8   8   8
#     4  10  20  31  41  55  79 111 143 172 202 237
#     4   9  17  28  42  60  81 107 140 174 204 236
#     4   9  16  26  41  60  80 101 128 164 205 245
#     4   8  14  25  40  56  74  98 128 163 206 252
#     4   9  17  27  39  57  80 107 140 175 206 234
#     4   7  10  19  37  59  79  98 124 162 206 245
#     4   9  16  27  44  62  78  98 127 165 208 248
#     4   9  17  28  40  55  79 111 143 171 199 234
#
# _framework density 15.019590000000001
#
# number of rings (size 3 to 8) (size 9 to 14) (size 15 to 20)
#    0.000    3.250    0.000    2.625    0.000    5.250 
#    0.000    3.750    0.000    0.375    0.000    5.250 
#    0.000    1.000    0.000    5.250    0.000    4.500 
#
# Total GULP energy -792967.380347 kJ/mol
# GULP energy per Si atom -12390.115318 kJ/mol
# Density = 1.498540 g / cm^3
# Si number density = 15.019590 Si / 1000 Ang^3
#
#
#
# Elastic Constant Matrix: (Units=GPa)
#
#
# Indices 1 2 3 4 5 6 
#
# 1 73.3612 41.7091 41.3174 0.0000 0.0000 0.0000
# 2 41.7091 68.7281 43.1604 0.0000 0.0000 0.0000
# 3 41.3174 43.1604 77.9494 0.0000 0.0000 0.0000
# 4 0.0000 0.0000 0.0000 19.1709 0.0000 0.0000
# 5 0.0000 0.0000 0.0000 0.0000 14.9801 0.0000
# 6 0.0000 0.0000 0.0000 0.0000 0.0000 1.5165
#
#
#
# Elastic Compliance Matrix: (Units=1/GPa)
#
#
# Indices 1 2 3 4 5 6 
#
# 1 0.022962 -0.009646 -0.006830 0.000000 0.000000 0.000000
# 2 -0.009646 0.026358 -0.009482 0.000000 0.000000 0.000000
# 3 -0.006830 -0.009482 0.021699 0.000000 0.000000 0.000000
# 4 0.000000 0.000000 0.000000 0.052163 0.000000 0.000000
# 5 0.000000 0.000000 0.000000 0.000000 0.066755 0.000000
# 6 0.000000 0.000000 0.000000 0.000000 0.000000 0.659422
#
#
# Mechanical properties :
#
#
# Convention : Reuss Voigt Hill
#
# Bulk Modulus (GPa) = 52.34492 52.49028 52.41760
# Shear Modulus (GPa) = 5.50878 13.39026 9.44952
#
# Velocity S-wave (km/s) = 1.91721 2.98907 2.51100
# Velocity P-wave (km/s) = 6.31092 6.85102 6.58651
#
# Compressibility (1/GPa) = 0.01910405
#
# Stress axis : x y z
#
# Youngs Moduli (GPa) = 43.55016 37.93887 46.08430
#
# Poissons Ratio (x) = 0.36594 0.31477
# Poissons Ratio (y) = 0.42007 0.43696
# Poissons Ratio (z) = 0.29746 0.35973
#
# Static dielectric constant tensor:
#      x y z
#    x 3.027600 0.000000 0.000000 
#    y 0.000000 2.729540 0.000000 
#    z 0.000000 0.000000 2.902550 
# 
# 
# High freq. dielectric constant tensor:
#      x y z
#    x 1.552710 0.000000 0.000000 
#    y 0.000000 1.544350 0.000000 
#    z 0.000000 0.000000 1.571280 
# 
# From -- ./inp_files/8229.got.cif
#   From: 2010.03.12/outbox.cif.g09.slc.cpg/sg47_5_cif.got.tgz:8229.got - 2010.04.14 03:12:58.
