data_PCOD8196094
_publ_section_title
;
Structure prediction by ZEFSAII (Michael W. Deem and Ramdas Pophale) SiO2 
 PCOD8196094
Probable space group: P M M M
;
_chemical_formula_sum "Si O2"
_cell_formula_units_Z 52
_cell_length_a 28.139611
_cell_length_b 12.819041
_cell_length_c 7.877223
_cell_angle_alpha 90.000000
_cell_angle_beta 90.000000
_cell_angle_gamma 90.000000
_cell_volume 2841.494151
_symmetry_space_group_name_H-M "P M M M"
_symmetry_group_IT_number 47
_symmetry_cell_setting 'orthorhombic'
loop_
_space_group_symop_operation_xyz
x,y,z
-x,-y,z
x,-y,-z
-x,y,-z
-x,-y,-z
x,y,-z
-x,y,z
x,-y,z
loop_
_atom_site_type_symbol
_atom_site_label
_atom_site_fract_x
_atom_site_fract_y
_atom_site_fract_z
Si Si1 0.732297 0.879109 0.698180
Si Si2 0.088372 0.121796 0.193049
Si Si3 0.553311 0.721020 0.194643
Si Si4 0.372161 0.887158 0.304194
Si Si5 0.819095 0.248009 0.810307
Si Si6 0.947460 0.750019 0.500000
Si Si7 0.556303 0.500000 0.309425
Si Si8 0.853202 0.623412 0.500000
O O1 0.738076 0.854221 0.500000
O O2 0.679135 0.852169 0.768906
O O3 0.767586 0.804300 0.799077
O O4 0.743761 0.000000 0.735719
O O5 0.142644 0.156842 0.219974
O O6 0.055949 0.180519 0.329748
O O7 0.085208 0.000000 0.231078
O O8 0.071236 0.146918 0.000000
O O9 0.500000 0.728493 0.273476
O O10 0.587004 0.802731 0.284472
O O11 0.574674 0.604619 0.217566
O O12 0.551641 0.750675 0.000000
O O13 0.362619 0.905005 0.500000
O O14 0.387662 0.000000 0.225336
O O15 0.826273 0.337172 0.669075
O O16 0.824582 0.296576 0.000000
O O17 0.908045 0.659659 0.500000
O O18 0.000000 0.698863 0.500000
O O19 0.500000 0.500000 0.301069
O O20 0.575847 0.500000 0.500000
O O21 0.851780 0.500000 0.500000
#
# Coordination Sequence:
#
# PCOD8196094 Si02
#       8
#     8   8   8   8   8   4   4   4
#     4   9  17  31  53  80 110 140 167 204 256 313
#     4   9  18  31  48  76 112 144 175 212 257 315
#     4  10  20  33  50  72 100 133 171 219 268 313
#     4   9  19  34  51  74 105 140 175 210 254 311
#     4  10  19  33  56  82 106 137 177 219 265 320
#     4  10  21  35  52  77 105 140 185 224 262 313
#     4   9  17  31  53  75  91 117 163 213 261 311
#     4  10  22  40  59  78 104 139 178 230 282 313
#
# _framework density 18.300231
#
# number of rings (size 3 to 8) (size 9 to 14) (size 15 to 20)
#    0.000    2.538    0.769    2.308    0.000    5.385 
#    0.000    3.846    1.692    0.000    0.000    4.308 
#    0.000    0.000    0.000    0.000    0.000    0.000 
#
# Total GULP energy -644526.767803 kJ/mol
# GULP energy per Si atom -12394.745535 kJ/mol
# Density = 1.825858 g / cm^3
# Si number density = 18.300231 Si / 1000 Ang^3
#
#
#
# Elastic Constant Matrix: (Units=GPa)
#
#
# Indices 1 2 3 4 5 6 
#
# 1 103.0591 56.7131 26.8221 0.0000 0.0000 0.0000
# 2 56.7131 108.6358 35.9496 0.0000 0.0000 0.0000
# 3 26.8221 35.9496 87.4421 0.0000 0.0000 0.0000
# 4 0.0000 0.0000 0.0000 0.3753 0.0000 0.0000
# 5 0.0000 0.0000 0.0000 0.0000 18.0609 0.0000
# 6 0.0000 0.0000 0.0000 0.0000 0.0000 16.2505
#
#
#
# Elastic Compliance Matrix: (Units=1/GPa)
#
#
# Indices 1 2 3 4 5 6 
#
# 1 0.013775 -0.006705 -0.001469 0.000000 0.000000 0.000000
# 2 -0.006705 0.013919 -0.003665 0.000000 0.000000 0.000000
# 3 -0.001469 -0.003665 0.013394 0.000000 0.000000 0.000000
# 4 0.000000 0.000000 0.000000 2.664604 0.000000 0.000000
# 5 0.000000 0.000000 0.000000 0.000000 0.055368 0.000000
# 6 0.000000 0.000000 0.000000 0.000000 0.000000 0.061537
#
#
# Mechanical properties :
#
#
# Convention : Reuss Voigt Hill
#
# Bulk Modulus (GPa) = 57.44340 59.78962 58.61651
# Shear Modulus (GPa) = 1.75311 18.91415 10.33363
#
# Velocity S-wave (km/s) = 0.97982 3.21837 2.37886
# Velocity P-wave (km/s) = 5.72168 6.82298 6.29645
#
# Compressibility (1/GPa) = 0.01740844
#
# Stress axis : x y z
#
# Youngs Moduli (GPa) = 72.59330 71.84642 74.66248
#
# Poissons Ratio (x) = 0.48176 0.10966
# Poissons Ratio (y) = 0.48677 0.27367
# Poissons Ratio (z) = 0.10662 0.26335
#
# Static dielectric constant tensor:
#      x y z
#    x 3.327270 0.000000 0.000000 
#    y 0.000000 3.171280 0.000000 
#    z 0.000000 0.000000 3.471060 
# 
# 
# High freq. dielectric constant tensor:
#      x y z
#    x 1.697710 0.000000 0.000000 
#    y 0.000000 1.686670 0.000000 
#    z 0.000000 0.000000 1.716220 
# 
# From -- ./inp_files/13353.got.cif
#   From: 2010.03.12/outbox.cif.g09.slc.cpg/sg47_7_cif.got.tgz:13353.got - 2010.04.14 03:12:58.
