data_PCOD8196165
_publ_section_title
;
Structure prediction by ZEFSAII (Michael W. Deem and Ramdas Pophale) SiO2 
 PCOD8196165
Probable space group: P M M M
;
_chemical_formula_sum "Si O2"
_cell_formula_units_Z 52
_cell_length_a 8.817452
_cell_length_b 28.002946
_cell_length_c 11.592884
_cell_angle_alpha 90.000000
_cell_angle_beta 90.000000
_cell_angle_gamma 90.000000
_cell_volume 2862.452689
_symmetry_space_group_name_H-M "P M M M"
_symmetry_group_IT_number 47
_symmetry_cell_setting 'orthorhombic'
loop_
_space_group_symop_operation_xyz
x,y,z
-x,-y,z
x,-y,-z
-x,y,-z
-x,-y,-z
x,y,-z
-x,y,z
x,-y,z
loop_
_atom_site_type_symbol
_atom_site_label
_atom_site_fract_x
_atom_site_fract_y
_atom_site_fract_z
Si Si1 0.824638 0.183115 0.630605
Si Si2 0.822569 0.000000 0.870086
Si Si3 0.329366 0.552327 0.362874
Si Si4 0.675289 0.843250 0.000000
Si Si5 0.169763 0.645894 0.636919
Si Si6 0.825136 0.897714 0.199993
Si Si7 0.178162 0.742620 0.000000
Si Si8 0.678142 0.730298 0.762524
O O1 0.761963 0.184807 0.500000
O O2 0.804445 0.128884 0.677298
O O3 0.734512 0.219522 0.711333
O O4 0.000000 0.198625 0.633880
O O5 0.776070 0.953405 0.795100
O O6 0.000000 0.000000 0.888376
O O7 0.749195 0.000000 0.000000
O O8 0.328808 0.553973 0.500000
O O9 0.500000 0.560357 0.317218
O O10 0.269703 0.500000 0.321692
O O11 0.224118 0.594587 0.313402
O O12 0.710127 0.873946 0.111762
O O13 0.785179 0.798282 0.000000
O O14 0.500000 0.827009 0.000000
O O15 0.174453 0.645509 0.500000
O O16 0.280932 0.687475 0.677312
O O17 0.000000 0.655485 0.682377
O O18 0.000000 0.892659 0.157779
O O19 0.247838 0.718713 0.885948
O O20 0.000000 0.734297 0.000000
O O21 0.500000 0.733909 0.778094
#
# Coordination Sequence:
#
# PCOD8196165 Si02
#       8
#     8   4   8   4   8   8   4   8
#     4  10  21  36  54  76 104 142 183 217 257 314
#     4   9  16  28  51  81 103 132 179 220 262 316
#     4   8  14  26  45  70 102 140 181 226 275 321
#     4  12  22  33  53  82 109 131 167 214 259 316
#     4  10  20  33  50  75 109 148 187 224 265 316
#     4  10  19  34  55  76 105 141 175 216 264 313
#     4  12  24  40  59  79 105 137 169 212 267 318
#     4  12  24  37  55  80 107 137 176 220 265 316
#
# _framework density 18.166239000000001
#
# number of rings (size 3 to 8) (size 9 to 14) (size 15 to 20)
#    0.000    1.769    2.308    4.154    0.000    3.385 
#    0.000    2.692    0.000    2.308    0.000    0.538 
#    0.000    6.769    0.000    0.000    0.000    0.000 
#
# Total GULP energy -644660.421026 kJ/mol
# GULP energy per Si atom -12397.315789 kJ/mol
# Density = 1.812489 g / cm^3
# Si number density = 18.166239 Si / 1000 Ang^3
#
#
#
# Elastic Constant Matrix: (Units=GPa)
#
#
# Indices 1 2 3 4 5 6 
#
# 1 94.6545 32.5901 32.9657 0.0000 0.0000 0.0000
# 2 32.5901 117.4986 23.3128 0.0000 0.0000 0.0000
# 3 32.9657 23.3128 66.4138 0.0000 0.0000 0.0000
# 4 0.0000 0.0000 0.0000 14.7516 0.0000 0.0000
# 5 0.0000 0.0000 0.0000 0.0000 17.9748 0.0000
# 6 0.0000 0.0000 0.0000 0.0000 0.0000 15.6994
#
#
#
# Elastic Compliance Matrix: (Units=1/GPa)
#
#
# Indices 1 2 3 4 5 6 
#
# 1 0.013468 -0.002590 -0.005776 0.000000 0.000000 0.000000
# 2 -0.002590 0.009646 -0.002101 0.000000 0.000000 0.000000
# 3 -0.005776 -0.002101 0.018662 0.000000 0.000000 0.000000
# 4 0.000000 0.000000 0.000000 0.067789 0.000000 0.000000
# 5 0.000000 0.000000 0.000000 0.000000 0.055633 0.000000
# 6 0.000000 0.000000 0.000000 0.000000 0.000000 0.063697
#
#
# Mechanical properties :
#
#
# Convention : Reuss Voigt Hill
#
# Bulk Modulus (GPa) = 47.97785 50.70046 49.33916
# Shear Modulus (GPa) = 19.47235 22.33173 20.90204
#
# Velocity S-wave (km/s) = 3.27754 3.50994 3.39573
# Velocity P-wave (km/s) = 6.38677 6.66303 6.52636
#
# Compressibility (1/GPa) = 0.02084295
#
# Stress axis : x y z
#
# Youngs Moduli (GPa) = 74.25008 103.67261 53.58621
#
# Poissons Ratio (x) = 0.26846 0.30952
# Poissons Ratio (y) = 0.19227 0.11256
# Poissons Ratio (z) = 0.42888 0.21777
#
# Static dielectric constant tensor:
#      x y z
#    x 3.334450 0.000000 0.000000 
#    y 0.000000 3.635010 0.000000 
#    z 0.000000 0.000000 3.200700 
# 
# 
# High freq. dielectric constant tensor:
#      x y z
#    x 1.697020 0.000000 0.000000 
#    y 0.000000 1.710050 0.000000 
#    z 0.000000 0.000000 1.670600 
# 
# From -- ./inp_files/15517.got.cif
#   From: 2010.03.12/outbox.cif.g09.slc.cpg/sg47_8_cif.got.tgz:15517.got - 2010.04.14 03:12:58.
