data_PCOD8196267
_publ_section_title
;
Structure prediction by ZEFSAII (Michael W. Deem and Ramdas Pophale) SiO2 
 PCOD8196267
Probable space group: P M M M
;
_chemical_formula_sum "Si O2"
_cell_formula_units_Z 40
_cell_length_a 9.326434
_cell_length_b 24.084763
_cell_length_c 10.206778
_cell_angle_alpha 90.000000
_cell_angle_beta 90.000000
_cell_angle_gamma 90.000000
_cell_volume 2292.697024
_symmetry_space_group_name_H-M "P M M M"
_symmetry_group_IT_number 47
_symmetry_cell_setting 'orthorhombic'
loop_
_space_group_symop_operation_xyz
x,y,z
-x,-y,z
x,-y,-z
-x,y,-z
-x,-y,-z
x,y,-z
-x,y,z
x,-y,z
loop_
_atom_site_type_symbol
_atom_site_label
_atom_site_fract_x
_atom_site_fract_y
_atom_site_fract_z
Si Si1 0.663188 0.760389 0.349169
Si Si2 0.668116 0.880497 0.735775
Si Si3 0.835318 0.065593 0.500000
Si Si4 0.169417 0.652288 0.649759
Si Si5 0.829642 0.562003 0.146471
Si Si6 0.330221 0.937762 0.000000
O O1 0.692101 0.776176 0.500000
O O2 0.500000 0.741178 0.328182
O O3 0.699204 0.814642 0.263907
O O4 0.764042 0.710323 0.302948
O O5 0.500000 0.891925 0.710062
O O6 0.758514 0.911330 0.627175
O O7 0.722888 0.904386 0.873429
O O8 0.000000 0.085123 0.500000
O O9 0.821569 0.000000 0.500000
O O10 0.214726 0.638596 0.500000
O O11 0.231443 0.604212 0.744504
O O12 0.000000 0.657643 0.662726
O O13 0.772469 0.500000 0.178255
O O14 0.000000 0.561899 0.152573
O O15 0.779530 0.579824 0.000000
O O16 0.500000 0.941170 0.000000
O O17 0.265003 0.000000 0.000000
#
# Coordination Sequence:
#
# PCOD8196267 Si02
#       6
#     8   8   4   8   8   4
#     4   9  17  31  49  70  96 127 161 197 240 289
#     4  10  19  35  56  76  99 132 172 210 249 297
#     4  11  23  35  51  79 107 131 164 207 254 303
#     4   9  17  28  45  70  95 121 155 197 240 280
#     4   8  14  26  44  66  94 126 158 195 237 280
#     4   9  18  32  53  79 101 123 160 211 256 294
#
# _framework density 17.446701000000001
#
# number of rings (size 3 to 8) (size 9 to 14) (size 15 to 20)
#    0.000    2.800    1.000    1.500    0.000    2.800 
#    1.800    2.500    0.000    2.400    0.000    4.200 
#    0.000    0.000    0.000    0.000    0.000    0.000 
#
# Total GULP energy -495923.297949 kJ/mol
# GULP energy per Si atom -12398.082449 kJ/mol
# Density = 1.740699 g / cm^3
# Si number density = 17.446701 Si / 1000 Ang^3
#
#
#
# Elastic Constant Matrix: (Units=GPa)
#
#
# Indices 1 2 3 4 5 6 
#
# 1 40.4848 39.1879 39.9743 0.0000 0.0000 0.0000
# 2 39.1879 146.7898 93.8545 0.0000 0.0000 0.0000
# 3 39.9743 93.8545 140.5493 0.0000 0.0000 0.0000
# 4 0.0000 0.0000 0.0000 37.6155 0.0000 0.0000
# 5 0.0000 0.0000 0.0000 0.0000 7.9806 0.0000
# 6 0.0000 0.0000 0.0000 0.0000 0.0000 22.3229
#
#
#
# Elastic Compliance Matrix: (Units=1/GPa)
#
#
# Indices 1 2 3 4 5 6 
#
# 1 0.036684 -0.005449 -0.006795 0.000000 0.000000 0.000000
# 2 -0.005449 0.012698 -0.006929 0.000000 0.000000 0.000000
# 3 -0.006795 -0.006929 0.013675 0.000000 0.000000 0.000000
# 4 0.000000 0.000000 0.000000 0.026585 0.000000 0.000000
# 5 0.000000 0.000000 0.000000 0.000000 0.125304 0.000000
# 6 0.000000 0.000000 0.000000 0.000000 0.000000 0.044797
#
#
# Mechanical properties :
#
#
# Convention : Reuss Voigt Hill
#
# Bulk Modulus (GPa) = 40.46910 74.87303 57.67107
# Shear Modulus (GPa) = 16.32254 23.90430 20.11342
#
# Velocity S-wave (km/s) = 3.06202 3.70555 3.39905
# Velocity P-wave (km/s) = 5.97892 7.83049 6.96649
#
# Compressibility (1/GPa) = 0.02471021
#
# Stress axis : x y z
#
# Youngs Moduli (GPa) = 27.25973 78.75509 73.12781
#
# Poissons Ratio (x) = 0.42913 0.49690
# Poissons Ratio (y) = 0.14854 0.50673
# Poissons Ratio (z) = 0.18523 0.54572
#
# Static dielectric constant tensor:
#      x y z
#    x 2.949090 0.000000 0.000000 
#    y 0.000000 3.459160 0.000000 
#    z 0.000000 0.000000 3.447720 
# 
# 
# High freq. dielectric constant tensor:
#      x y z
#    x 1.637730 0.000000 0.000000 
#    y 0.000000 1.683330 0.000000 
#    z 0.000000 0.000000 1.671140 
# 
# From -- ./inp_files/1824.got.cif
#   From: 2010.03.12/outbox.cif.g09.slc.cpg/sg47_1_cif.got.tgz:1824.got - 2010.04.14 03:12:58.
