data_PCOD8196735
_publ_section_title
;
Structure prediction by ZEFSAII (Michael W. Deem and Ramdas Pophale) SiO2 
 PCOD8196735
Probable space group: P M M M
;
_chemical_formula_sum "Si O2"
_cell_formula_units_Z 40
_cell_length_a 12.314461
_cell_length_b 23.074268
_cell_length_c 9.100132
_cell_angle_alpha 90.000000
_cell_angle_beta 90.000000
_cell_angle_gamma 90.000000
_cell_volume 2585.776785
_symmetry_space_group_name_H-M "P M M M"
_symmetry_group_IT_number 47
_symmetry_cell_setting 'orthorhombic'
loop_
_space_group_symop_operation_xyz
x,y,z
-x,-y,z
x,-y,-z
-x,y,-z
-x,-y,-z
x,y,-z
-x,y,z
x,-y,z
loop_
_atom_site_type_symbol
_atom_site_label
_atom_site_fract_x
_atom_site_fract_y
_atom_site_fract_z
Si Si1 0.619165 0.000000 0.674702
Si Si2 0.630098 0.124178 0.665455
Si Si3 0.628067 0.349103 0.669730
Si Si4 0.000000 0.431111 0.333793
Si Si5 0.785178 0.431788 0.829504
Si Si6 0.629223 0.764991 0.835021
O O1 0.677014 0.938969 0.720174
O O2 0.500000 0.000000 0.747561
O O3 0.607312 0.000000 0.500000
O O4 0.669217 0.137613 0.500000
O O5 0.500000 0.121595 0.669586
O O6 0.675906 0.175016 0.769049
O O7 0.662090 0.350906 0.500000
O O8 0.500000 0.355837 0.690338
O O9 0.681620 0.402146 0.755682
O O10 0.670356 0.288647 0.737460
O O11 0.893904 0.408313 0.248943
O O12 0.000000 0.500000 0.333572
O O13 0.000000 0.406843 0.500000
O O14 0.771096 0.500000 0.806787
O O15 0.791694 0.415172 0.000000
O O16 0.500000 0.767042 0.832978
O O17 0.673809 0.757664 0.000000
#
# Coordination Sequence:
#
# PCOD8196735 Si02
#       6
#     4   8   8   4   8   8
#     4   7  10  16  27  43  61  83 115 156 197 234
#     4   8  12  19  31  45  62  87 121 159 197 236
#     4  10  20  32  45  61  82 110 144 178 210 248
#     4   9  17  31  51  71  89 109 135 166 199 240
#     4  10  20  33  49  68  89 111 135 167 209 253
#     4   9  16  25  36  50  70  97 129 165 204 244
#
# _framework density 15.469239
#
# number of rings (size 3 to 8) (size 9 to 14) (size 15 to 20)
#    0.000    3.000    0.000    3.300    0.000    6.400 
#    0.000    2.500    0.000    3.000    0.000    0.000 
#    0.000    0.000    0.000    0.000    0.000    1.000 
#
# Total GULP energy -495709.212852 kJ/mol
# GULP energy per Si atom -12392.730321 kJ/mol
# Density = 1.543403 g / cm^3
# Si number density = 15.469239 Si / 1000 Ang^3
#
#
#
# Elastic Constant Matrix: (Units=GPa)
#
#
# Indices 1 2 3 4 5 6 
#
# 1 28.3983 29.8786 30.8200 0.0000 0.0000 0.0000
# 2 29.8786 90.0081 61.9530 0.0000 0.0000 0.0000
# 3 30.8200 61.9530 124.1306 0.0000 0.0000 0.0000
# 4 0.0000 0.0000 0.0000 23.1767 0.0000 0.0000
# 5 0.0000 0.0000 0.0000 0.0000 18.6746 0.0000
# 6 0.0000 0.0000 0.0000 0.0000 0.0000 1.0606
#
#
#
# Elastic Compliance Matrix: (Units=1/GPa)
#
#
# Indices 1 2 3 4 5 6 
#
# 1 0.058175 -0.014273 -0.007321 0.000000 0.000000 0.000000
# 2 -0.014273 0.020426 -0.006651 0.000000 0.000000 0.000000
# 3 -0.007321 -0.006651 0.013193 0.000000 0.000000 0.000000
# 4 0.000000 0.000000 0.000000 0.043147 0.000000 0.000000
# 5 0.000000 0.000000 0.000000 0.000000 0.053549 0.000000
# 6 0.000000 0.000000 0.000000 0.000000 0.000000 0.942832
#
#
# Mechanical properties :
#
#
# Convention : Reuss Voigt Hill
#
# Bulk Modulus (GPa) = 28.32408 54.20446 41.26427
# Shear Modulus (GPa) = 4.16814 16.57475 10.37144
#
# Velocity S-wave (km/s) = 1.64326 3.27688 2.59213
# Velocity P-wave (km/s) = 4.68509 7.03089 5.97426
#
# Compressibility (1/GPa) = 0.03530565
#
# Stress axis : x y z
#
# Youngs Moduli (GPa) = 17.18957 48.95817 75.79793
#
# Poissons Ratio (x) = 0.69876 0.55490
# Poissons Ratio (y) = 0.24534 0.50410
# Poissons Ratio (z) = 0.12584 0.32560
#
# Static dielectric constant tensor:
#      x y z
#    x 2.443030 0.000000 0.000000 
#    y 0.000000 3.200520 0.000000 
#    z 0.000000 0.000000 3.085080 
# 
# 
# High freq. dielectric constant tensor:
#      x y z
#    x 1.518670 0.000000 0.000000 
#    y 0.000000 1.599360 0.000000 
#    z 0.000000 0.000000 1.600830 
# 
# From -- ./inp_files/4068.got.cif
#   From: 2010.03.12/outbox.cif.g09.slc.cpg/sg47_3_cif.got.tgz:4068.got - 2010.04.14 03:12:58.
