data_PCOD8196907
_publ_section_title
;
Structure prediction by ZEFSAII (Michael W. Deem and Ramdas Pophale) SiO2 
 PCOD8196907
Probable space group: P M M M
;
_chemical_formula_sum "Si O2"
_cell_formula_units_Z 48
_cell_length_a 30.390302
_cell_length_b 9.345411
_cell_length_c 9.725495
_cell_angle_alpha 90.000000
_cell_angle_beta 90.000000
_cell_angle_gamma 90.000000
_cell_volume 2762.136499
_symmetry_space_group_name_H-M "P M M M"
_symmetry_group_IT_number 47
_symmetry_cell_setting 'orthorhombic'
loop_
_space_group_symop_operation_xyz
x,y,z
-x,-y,z
x,-y,-z
-x,y,-z
-x,-y,-z
x,y,-z
-x,y,z
x,-y,z
loop_
_atom_site_type_symbol
_atom_site_label
_atom_site_fract_x
_atom_site_fract_y
_atom_site_fract_z
Si Si1 0.549264 0.667828 0.156354
Si Si2 0.615689 0.164647 0.344028
Si Si3 0.870062 0.839206 0.836464
Si Si4 0.784574 0.667469 0.839555
Si Si5 0.048720 0.339357 0.163553
Si Si6 0.717154 0.163900 0.340350
O O1 0.500000 0.709145 0.205456
O O2 0.556441 0.500000 0.169318
O O3 0.585208 0.742957 0.247932
O O4 0.556030 0.718013 0.000000
O O5 0.607354 0.213086 0.500000
O O6 0.666305 0.190300 0.304677
O O7 0.603095 0.000000 0.324477
O O8 0.828451 0.746955 0.787468
O O9 0.914447 0.767241 0.775761
O O10 0.866172 0.000000 0.777512
O O11 0.872218 0.841760 0.000000
O O12 0.790263 0.500000 0.810258
O O13 0.743908 0.727710 0.754091
O O14 0.775811 0.697504 0.000000
O O15 0.057978 0.500000 0.217576
O O16 0.000000 0.288594 0.211267
O O17 0.051162 0.339611 0.000000
O O18 0.726547 0.196836 0.500000
O O19 0.730154 0.000000 0.306572
#
# Coordination Sequence:
#
# PCOD8196907 Si02
#       6
#     8   8   8   8   8   8
#     4   9  19  35  52  72 101 134 165 198 236 278
#     4   9  19  35  53  74  99 126 158 197 240 285
#     4   9  16  25  38  57  83 116 153 193 235 279
#     4  10  20  32  47  69  96 125 158 196 238 285
#     4   8  13  21  33  50  76 112 150 187 231 282
#     4   9  19  36  54  71  95 126 158 195 240 287
#
# _framework density 17.377852000000001
#
# number of rings (size 3 to 8) (size 9 to 14) (size 15 to 20)
#    0.000    3.000    0.000    3.000    0.000    6.333 
#    0.000    9.167    0.000    0.000    0.000    0.000 
#    0.000    0.667    0.000    7.000    0.000    9.667 
#
# Total GULP energy -595069.654520 kJ/mol
# GULP energy per Si atom -12397.284469 kJ/mol
# Density = 1.733830 g / cm^3
# Si number density = 17.377852 Si / 1000 Ang^3
#
#
#
# Elastic Constant Matrix: (Units=GPa)
#
#
# Indices 1 2 3 4 5 6 
#
# 1 120.2702 72.0983 50.7481 0.0000 0.0000 0.0000
# 2 72.0983 105.7303 41.7934 0.0000 0.0000 0.0000
# 3 50.7481 41.7934 45.6117 0.0000 0.0000 0.0000
# 4 0.0000 0.0000 0.0000 22.6511 0.0000 0.0000
# 5 0.0000 0.0000 0.0000 0.0000 -37.1497 0.0000
# 6 0.0000 0.0000 0.0000 0.0000 0.0000 38.5963
#
#
#
# Elastic Compliance Matrix: (Units=1/GPa)
#
#
# Indices 1 2 3 4 5 6 
#
# 1 0.018488 -0.007018 -0.014139 0.000000 0.000000 0.000000
# 2 -0.007018 0.017493 -0.008220 0.000000 0.000000 0.000000
# 3 -0.014139 -0.008220 0.045188 0.000000 0.000000 0.000000
# 4 0.000000 0.000000 0.000000 0.044148 0.000000 0.000000
# 5 0.000000 0.000000 0.000000 0.000000 -0.026918 0.000000
# 6 0.000000 0.000000 0.000000 0.000000 0.000000 0.025909
#
#
# Mechanical properties :
#
#
# Convention : Reuss Voigt Hill
#
# Bulk Modulus (GPa) = 44.61586 66.76576 55.69081
# Shear Modulus (GPa) = 26.24208 11.95103 19.09655
#
# Velocity S-wave (km/s) = 3.89020 2.62528 3.31857
# Velocity P-wave (km/s) = 6.77554 6.90600 6.84108
#
# Compressibility (1/GPa) = 0.02241355
#
# Stress axis : x y z
#
# Youngs Moduli (GPa) = 54.09009 57.16584 22.12984
#
# Poissons Ratio (x) = 0.40118 0.31290
# Poissons Ratio (y) = 0.37960 0.18192
# Poissons Ratio (z) = 0.76479 0.46993
#
# Static dielectric constant tensor:
#      x y z
#    x 3.192840 0.000000 0.000000 
#    y 0.000000 3.288280 0.000000 
#    z 0.000000 0.000000 2.848240 
# 
# 
# High freq. dielectric constant tensor:
#      x y z
#    x 1.683700 0.000000 0.000000 
#    y 0.000000 1.675080 0.000000 
#    z 0.000000 0.000000 1.627100 
# 
# From -- ./inp_files/2438.got.cif
#   From: 2010.03.12/outbox.cif.g09.slc.cpg/sg47_2_cif.got.tgz:2438.got - 2010.04.14 03:12:58.
