data_PCOD8196916
_publ_section_title
;
Structure prediction by ZEFSAII (Michael W. Deem and Ramdas Pophale) SiO2 
 PCOD8196916
Probable space group: P M M M
;
_chemical_formula_sum "Si O2"
_cell_formula_units_Z 48
_cell_length_a 9.406482
_cell_length_b 31.180798
_cell_length_c 9.040378
_cell_angle_alpha 90.000000
_cell_angle_beta 90.000000
_cell_angle_gamma 90.000000
_cell_volume 2651.557469
_symmetry_space_group_name_H-M "P M M M"
_symmetry_group_IT_number 47
_symmetry_cell_setting 'orthorhombic'
loop_
_space_group_symop_operation_xyz
x,y,z
-x,-y,z
x,-y,-z
-x,y,-z
-x,-y,-z
x,y,-z
-x,y,z
x,-y,z
loop_
_atom_site_type_symbol
_atom_site_label
_atom_site_fract_x
_atom_site_fract_y
_atom_site_fract_z
Si Si1 0.664222 0.379889 0.670549
Si Si2 0.165113 0.781699 0.673948
Si Si3 0.834360 0.450900 0.832033
Si Si4 0.660067 0.862840 0.676705
Si Si5 0.331129 0.045398 0.334437
Si Si6 0.663405 0.293138 0.825708
O O1 0.695457 0.370017 0.500000
O O2 0.500000 0.389781 0.700130
O O3 0.750161 0.421472 0.718952
O O4 0.714514 0.338856 0.763943
O O5 0.190919 0.776038 0.500000
O O6 0.235623 0.825666 0.733107
O O7 0.236826 0.742544 0.756726
O O8 0.000000 0.783092 0.714507
O O9 0.800011 0.500000 0.791900
O O10 0.000000 0.441444 0.813170
O O11 0.786649 0.441068 0.000000
O O12 0.660258 0.865621 0.500000
O O13 0.500000 0.852787 0.733242
O O14 0.716702 0.909288 0.740435
O O15 0.268978 0.043592 0.500000
O O16 0.500000 0.047455 0.341641
O O17 0.284359 0.000000 0.254219
O O18 0.500000 0.284169 0.779939
O O19 0.683410 0.293347 0.000000
#
# Coordination Sequence:
#
# PCOD8196916 Si02
#       6
#     8   8   8   8   8   8
#     4  10  21  36  55  80 107 133 163 202 248 296
#     4  10  20  32  47  69  97 128 161 197 239 289
#     4   9  19  36  56  78 106 141 178 211 243 282
#     4   8  13  22  38  59  84 118 157 195 236 280
#     4   7   9  14  27  50  79 110 147 190 232 274
#     4  10  21  37  56  75  95 123 161 203 247 295
#
# _framework density 18.102567000000001
#
# number of rings (size 3 to 8) (size 9 to 14) (size 15 to 20)
#    0.000    3.000    0.000    3.500    0.000    4.667 
#    0.000    2.500    0.000    0.500    0.000    3.500 
#    0.000    0.667    0.000    7.667    0.000    8.833 
#
# Total GULP energy -594791.006283 kJ/mol
# GULP energy per Si atom -12391.479298 kJ/mol
# Density = 1.806136 g / cm^3
# Si number density = 18.102567 Si / 1000 Ang^3
#
#
#
# Elastic Constant Matrix: (Units=GPa)
#
#
# Indices 1 2 3 4 5 6 
#
# 1 75.5512 75.7776 36.7495 0.0000 0.0000 0.0000
# 2 75.7776 164.9552 44.6656 0.0000 0.0000 0.0000
# 3 36.7495 44.6656 40.7187 0.0000 0.0000 0.0000
# 4 0.0000 0.0000 0.0000 -3.8214 0.0000 0.0000
# 5 0.0000 0.0000 0.0000 0.0000 22.0667 0.0000
# 6 0.0000 0.0000 0.0000 0.0000 0.0000 -3.9144
#
#
#
# Elastic Compliance Matrix: (Units=1/GPa)
#
#
# Indices 1 2 3 4 5 6 
#
# 1 0.031709 -0.009698 -0.017980 0.000000 0.000000 0.000000
# 2 -0.009698 0.011590 -0.003960 0.000000 0.000000 0.000000
# 3 -0.017980 -0.003960 0.045130 0.000000 0.000000 0.000000
# 4 0.000000 0.000000 0.000000 -0.261687 0.000000 0.000000
# 5 0.000000 0.000000 0.000000 0.000000 0.045317 0.000000
# 6 0.000000 0.000000 0.000000 0.000000 0.000000 -0.255469
#
#
# Mechanical properties :
#
#
# Convention : Reuss Voigt Hill
#
# Bulk Modulus (GPa) = 39.75793 66.17893 52.96843
# Shear Modulus (GPa) = -16.03859 11.13501 -2.45179
#
# Velocity S-wave (km/s) = -2.97978 2.48283 -1.16504
# Velocity P-wave (km/s) = 3.18928 6.69749 5.24537
#
# Compressibility (1/GPa) = 0.02515221
#
# Stress axis : x y z
#
# Youngs Moduli (GPa) = 31.53683 86.28317 22.15797
#
# Poissons Ratio (x) = 0.83678 0.39840
# Poissons Ratio (y) = 0.30585 0.08776
# Poissons Ratio (z) = 0.56703 0.34172
#
# Static dielectric constant tensor:
#      x y z
#    x 3.142860 0.000000 0.000000 
#    y 0.000000 3.820630 0.000000 
#    z 0.000000 0.000000 2.974390 
# 
# 
# High freq. dielectric constant tensor:
#      x y z
#    x 1.675550 0.000000 0.000000 
#    y 0.000000 1.727110 0.000000 
#    z 0.000000 0.000000 1.659410 
# 
# From -- ./inp_files/2445.got.cif
#   From: 2010.03.12/outbox.cif.g09.slc.cpg/sg47_2_cif.got.tgz:2445.got - 2010.04.14 03:12:58.
