data_PCOD8196296
_publ_section_title
;
Structure prediction by ZEFSAII (Michael W. Deem and Ramdas Pophale) SiO2 
 PCOD8196296
Probable space group: P M M M
;
_chemical_formula_sum "Si O2"
_cell_formula_units_Z 40
_cell_length_a 13.785055
_cell_length_b 7.412190
_cell_length_c 20.447028
_cell_angle_alpha 90.000000
_cell_angle_beta 90.000000
_cell_angle_gamma 90.000000
_cell_volume 2089.225116
_symmetry_space_group_name_H-M "P M M M"
_symmetry_group_IT_number 47
_symmetry_cell_setting 'orthorhombic'
loop_
_space_group_symop_operation_xyz
x,y,z
-x,-y,z
x,-y,-z
-x,y,-z
-x,-y,-z
x,y,-z
-x,y,z
x,-y,z
loop_
_atom_site_type_symbol
_atom_site_label
_atom_site_fract_x
_atom_site_fract_y
_atom_site_fract_z
Si Si1 0.607903 0.213664 0.572620
Si Si2 0.607438 0.212913 0.187490
Si Si3 0.889293 0.500000 0.119350
Si Si4 0.111552 0.500000 0.274250
Si Si5 0.261882 0.214133 0.691297
Si Si6 0.253458 0.207646 0.074452
O O1 0.639393 0.278700 0.500000
O O2 0.500000 0.288535 0.588997
O O3 0.685664 0.282120 0.625188
O O4 0.603716 0.000000 0.575556
O O5 0.500000 0.300024 0.190297
O O6 0.669822 0.277714 0.249212
O O7 0.659440 0.276367 0.120768
O O8 0.597809 0.000000 0.189305
O O9 0.877979 0.500000 0.196737
O O10 0.842395 0.678942 0.089019
O O11 0.000000 0.500000 0.097112
O O12 0.160528 0.680848 0.303184
O O13 0.000000 0.500000 0.296586
O O14 0.241326 0.000000 0.692131
O O15 0.227457 0.000000 0.089339
O O16 0.287841 0.235194 0.000000
#
# Coordination Sequence:
#
# PCOD8196296 Si02
#       6
#     8   8   4   4   8   8
#     4   8  14  27  52  87 121 150 180 215 261 319
#     4   9  17  31  53  80 108 141 178 211 252 311
#     4  11  23  40  59  77 103 137 177 232 286 324
#     4  11  24  39  57  81 105 135 184 237 279 321
#     4  10  19  35  58  81 110 145 179 221 270 318
#     4  10  21  37  56  80 110 141 175 217 267 325
#
# _framework density 19.145854
#
# number of rings (size 3 to 8) (size 9 to 14) (size 15 to 20)
#    0.000    2.400    2.000    1.500    0.000    4.400 
#    0.000    9.000    0.000    3.600    0.000    2.800 
#    0.000    0.000    0.000    0.000    0.000    0.000 
#
# Total GULP energy -495924.422569 kJ/mol
# GULP energy per Si atom -12398.110564 kJ/mol
# Density = 1.910228 g / cm^3
# Si number density = 19.145854 Si / 1000 Ang^3
#
#
#
# Elastic Constant Matrix: (Units=GPa)
#
#
# Indices 1 2 3 4 5 6 
#
# 1 159.9265 49.9683 79.0746 0.0000 0.0000 0.0000
# 2 49.9683 73.3396 30.9260 0.0000 0.0000 0.0000
# 3 79.0746 30.9260 145.5233 0.0000 0.0000 0.0000
# 4 0.0000 0.0000 0.0000 8.0579 0.0000 0.0000
# 5 0.0000 0.0000 0.0000 0.0000 29.4794 0.0000
# 6 0.0000 0.0000 0.0000 0.0000 0.0000 145.0182
#
#
#
# Elastic Compliance Matrix: (Units=1/GPa)
#
#
# Indices 1 2 3 4 5 6 
#
# 1 0.009952 -0.004943 -0.004357 0.000000 0.000000 0.000000
# 2 -0.004943 0.017433 -0.001019 0.000000 0.000000 0.000000
# 3 -0.004357 -0.001019 0.009456 0.000000 0.000000 0.000000
# 4 0.000000 0.000000 0.000000 0.124103 0.000000 0.000000
# 5 0.000000 0.000000 0.000000 0.000000 0.033922 0.000000
# 6 0.000000 0.000000 0.000000 0.000000 0.000000 0.006896
#
#
# Mechanical properties :
#
#
# Convention : Reuss Voigt Hill
#
# Bulk Modulus (GPa) = 61.71942 77.63637 69.67790
# Shear Modulus (GPa) = 21.94920 51.09912 36.52416
#
# Velocity S-wave (km/s) = 3.38956 5.17178 4.37244
# Velocity P-wave (km/s) = 6.90110 8.73505 7.87167
#
# Compressibility (1/GPa) = 0.01620236
#
# Stress axis : x y z
#
# Youngs Moduli (GPa) = 100.48621 57.36375 105.75532
#
# Poissons Ratio (x) = 0.28355 0.46078
# Poissons Ratio (y) = 0.49671 0.10774
# Poissons Ratio (z) = 0.43782 0.05844
#
# Static dielectric constant tensor:
#      x y z
#    x 3.512730 0.000000 0.000000 
#    y 0.000000 3.305060 0.000000 
#    z 0.000000 0.000000 3.774180 
# 
# 
# High freq. dielectric constant tensor:
#      x y z
#    x 1.724780 0.000000 0.000000 
#    y 0.000000 1.739510 0.000000 
#    z 0.000000 0.000000 1.750600 
# 
# From -- ./inp_files/18974.got.cif
#   From: 2010.03.12/outbox.cif.g09.slc.cpg/sg47_10_cif.got.tgz:18974.got - 2010.04.14 03:12:58.
