data_PCOD8196515
_publ_section_title
;
Structure prediction by ZEFSAII (Michael W. Deem and Ramdas Pophale) SiO2 
 PCOD8196515
Probable space group: P M M M
;
_chemical_formula_sum "Si O2"
_cell_formula_units_Z 40
_cell_length_a 12.625202
_cell_length_b 24.474687
_cell_length_c 8.213595
_cell_angle_alpha 90.000000
_cell_angle_beta 90.000000
_cell_angle_gamma 90.000000
_cell_volume 2537.983338
_symmetry_space_group_name_H-M "P M M M"
_symmetry_group_IT_number 47
_symmetry_cell_setting 'orthorhombic'
loop_
_space_group_symop_operation_xyz
x,y,z
-x,-y,z
x,-y,-z
-x,y,-z
-x,-y,-z
x,y,-z
-x,y,z
x,-y,z
loop_
_atom_site_type_symbol
_atom_site_label
_atom_site_fract_x
_atom_site_fract_y
_atom_site_fract_z
Si Si1 0.000000 0.935169 0.816648
Si Si2 0.777708 0.062589 0.688957
Si Si3 0.626059 0.562222 0.500000
Si Si4 0.381693 0.149111 0.811870
Si Si5 0.375049 0.738200 0.316693
Si Si6 0.626153 0.626045 0.818702
O O1 0.105275 0.913695 0.726530
O O2 0.000000 0.000000 0.810833
O O3 0.000000 0.912740 0.000000
O O4 0.754198 0.067978 0.500000
O O5 0.689905 0.096400 0.784030
O O6 0.768740 0.000000 0.748595
O O7 0.665214 0.500000 0.500000
O O8 0.500000 0.566708 0.500000
O O9 0.670410 0.589637 0.667763
O O10 0.500000 0.137633 0.741437
O O11 0.327428 0.202725 0.730894
O O12 0.389494 0.162073 0.000000
O O13 0.342855 0.723489 0.500000
O O14 0.500000 0.743427 0.294972
O O15 0.333334 0.688449 0.204960
O O16 0.500000 0.624135 0.811508
O O17 0.664192 0.606005 0.000000
#
# Coordination Sequence:
#
# PCOD8196515 Si02
#       6
#     4   8   4   8   8   8
#     4   9  17  31  51  69  83 103 133 169 207 248
#     4  10  20  33  48  65  85 109 138 172 212 259
#     4   9  16  24  32  46  68  92 123 164 207 246
#     4  10  20  31  43  62  86 111 140 175 216 260
#     4   9  15  25  40  55  73  98 130 167 206 248
#     4   9  15  23  35  49  66  92 126 163 204 247
#
# _framework density 15.760543999999999
#
# number of rings (size 3 to 8) (size 9 to 14) (size 15 to 20)
#    0.000    2.600    1.000    2.100    0.000    6.800 
#    0.000    4.000    0.000    0.000    0.000    0.000 
#    0.000    0.000    0.000    0.000    0.000    0.000 
#
# Total GULP energy -495707.255739 kJ/mol
# GULP energy per Si atom -12392.681393 kJ/mol
# Density = 1.572467 g / cm^3
# Si number density = 15.760544 Si / 1000 Ang^3
#
#
#
# Elastic Constant Matrix: (Units=GPa)
#
#
# Indices 1 2 3 4 5 6 
#
# 1 41.1515 26.4524 12.2890 0.0000 0.0000 0.0000
# 2 26.4524 89.3213 40.9613 0.0000 0.0000 0.0000
# 3 12.2890 40.9613 89.6203 0.0000 0.0000 0.0000
# 4 0.0000 0.0000 0.0000 23.5186 0.0000 0.0000
# 5 0.0000 0.0000 0.0000 0.0000 15.0137 0.0000
# 6 0.0000 0.0000 0.0000 0.0000 0.0000 0.2036
#
#
#
# Elastic Compliance Matrix: (Units=1/GPa)
#
#
# Indices 1 2 3 4 5 6 
#
# 1 0.030014 -0.008858 -0.000067 0.000000 0.000000 0.000000
# 2 -0.008858 0.016779 -0.006454 0.000000 0.000000 0.000000
# 3 -0.000067 -0.006454 0.014117 0.000000 0.000000 0.000000
# 4 0.000000 0.000000 0.000000 0.042519 0.000000 0.000000
# 5 0.000000 0.000000 0.000000 0.000000 0.066606 0.000000
# 6 0.000000 0.000000 0.000000 0.000000 0.000000 4.911843
#
#
# Mechanical properties :
#
#
# Convention : Reuss Voigt Hill
#
# Bulk Modulus (GPa) = 33.16537 42.16653 37.66595
# Shear Modulus (GPa) = 0.97605 17.10653 9.04129
#
# Velocity S-wave (km/s) = 0.78781 3.29812 2.39773
# Velocity P-wave (km/s) = 4.68151 6.42775 5.62283
#
# Compressibility (1/GPa) = 0.03015193
#
# Stress axis : x y z
#
# Youngs Moduli (GPa) = 33.31728 59.59981 70.83531
#
# Poissons Ratio (x) = 0.52793 0.00475
# Poissons Ratio (y) = 0.29512 0.45718
# Poissons Ratio (z) = 0.00224 0.38466
#
# Static dielectric constant tensor:
#      x y z
#    x 2.524590 0.000000 0.000000 
#    y 0.000000 3.016340 0.000000 
#    z 0.000000 0.000000 3.219020 
# 
# 
# High freq. dielectric constant tensor:
#      x y z
#    x 1.526750 0.000000 0.000000 
#    y 0.000000 1.596860 0.000000 
#    z 0.000000 0.000000 1.626340 
# 
# From -- ./inp_files/4140.got.cif
#   From: 2010.03.12/outbox.cif.g09.slc.cpg/sg47_3_cif.got.tgz:4140.got - 2010.04.14 03:12:58.
