data_PCOD8196700
_publ_section_title
;
Structure prediction by ZEFSAII (Michael W. Deem and Ramdas Pophale) SiO2 
 PCOD8196700
Probable space group: P M M M
;
_chemical_formula_sum "Si O2"
_cell_formula_units_Z 48
_cell_length_a 9.108165
_cell_length_b 16.635528
_cell_length_c 23.279704
_cell_angle_alpha 90.000000
_cell_angle_beta 90.000000
_cell_angle_gamma 90.000000
_cell_volume 3527.320587
_symmetry_space_group_name_H-M "P M M M"
_symmetry_group_IT_number 47
_symmetry_cell_setting 'orthorhombic'
loop_
_space_group_symop_operation_xyz
x,y,z
-x,-y,z
x,-y,-z
-x,y,-z
-x,-y,-z
x,y,-z
-x,y,z
x,-y,z
loop_
_atom_site_type_symbol
_atom_site_label
_atom_site_fract_x
_atom_site_fract_y
_atom_site_fract_z
Si Si1 0.664106 0.904517 0.327898
Si Si2 0.829284 0.094456 0.785909
Si Si3 0.165920 0.500000 0.068346
Si Si4 0.835021 0.904407 0.436673
Si Si5 0.832907 0.095124 0.000000
Si Si6 0.330732 0.655279 0.065533
Si Si7 0.327522 0.171043 0.892601
O O1 0.500000 0.869988 0.319278
O O2 0.767637 0.877516 0.275596
O O3 0.729833 0.868715 0.387235
O O4 0.659364 0.000000 0.331321
O O5 0.738318 0.142338 0.832938
O O6 0.000000 0.117247 0.789662
O O7 0.805019 0.000000 0.795854
O O8 0.241817 0.580605 0.092413
O O9 0.000000 0.500000 0.089917
O O10 0.180815 0.500000 0.000000
O O11 0.778866 0.877175 0.500000
O O12 0.000000 0.872329 0.426406
O O13 0.835935 0.000000 0.433120
O O14 0.750605 0.124749 0.943780
O O15 0.000000 0.127647 0.000000
O O16 0.831765 0.000000 0.000000
O O17 0.500000 0.631073 0.067763
O O18 0.297247 0.733952 0.102878
O O19 0.282489 0.673698 0.000000
O O20 0.500000 0.151760 0.895523
#
# Coordination Sequence:
#
# PCOD8196700 Si02
#       7
#     8   8   4   8   4   8   8
#     4   9  16  25  37  52  69  91 121 157 193 228
#     4  10  20  32  43  55  73  99 130 163 201 239
#     4   9  17  27  43  67  85  99 119 141 172 217
#     4   8  13  21  33  49  69  92 116 145 186 232
#     4  11  23  35  45  58  77 100 125 157 200 241
#     4   9  17  31  46  61  81 102 120 143 183 230
#     4  11  21  33  47  62  77  97 127 160 194 232
#
# _framework density 13.608064000000001
#
# number of rings (size 3 to 8) (size 9 to 14) (size 15 to 20)
#    0.000    2.500    0.833    3.000    0.000    8.333 
#    0.000    1.667    0.000    0.000    0.000    0.000 
#    0.000    0.000    0.000    0.000    0.000    0.000 
#
# Total GULP energy -595100.008906 kJ/mol
# GULP energy per Si atom -12397.916852 kJ/mol
# Density = 1.357709 g / cm^3
# Si number density = 13.608064 Si / 1000 Ang^3
#
#
#
# Elastic Constant Matrix: (Units=GPa)
#
#
# Indices 1 2 3 4 5 6 
#
# 1 103.4236 41.4413 51.4752 0.0000 0.0000 0.0000
# 2 41.4413 49.5010 30.8244 0.0000 0.0000 0.0000
# 3 51.4752 30.8244 95.8123 0.0000 0.0000 0.0000
# 4 0.0000 0.0000 0.0000 -6.3737 0.0000 0.0000
# 5 0.0000 0.0000 0.0000 0.0000 29.2339 0.0000
# 6 0.0000 0.0000 0.0000 0.0000 0.0000 14.2659
#
#
#
# Elastic Compliance Matrix: (Units=1/GPa)
#
#
# Indices 1 2 3 4 5 6 
#
# 1 0.016631 -0.010453 -0.005572 0.000000 0.000000 0.000000
# 2 -0.010453 0.031833 -0.004625 0.000000 0.000000 0.000000
# 3 -0.005572 -0.004625 0.014919 0.000000 0.000000 0.000000
# 4 0.000000 0.000000 0.000000 -0.156896 0.000000 0.000000
# 5 0.000000 0.000000 0.000000 0.000000 0.034207 0.000000
# 6 0.000000 0.000000 0.000000 0.000000 0.000000 0.070097
#
#
# Mechanical properties :
#
#
# Convention : Reuss Voigt Hill
#
# Bulk Modulus (GPa) = 45.28651 55.13541 50.21096
# Shear Modulus (GPa) = 84.10113 15.75829 49.92971
#
# Velocity S-wave (km/s) = 7.86998 3.40665 6.06390
# Velocity P-wave (km/s) = 10.76724 7.48855 9.27394
#
# Compressibility (1/GPa) = 0.02208163
#
# Stress axis : x y z
#
# Youngs Moduli (GPa) = 60.12951 31.41385 67.03058
#
# Poissons Ratio (x) = 0.32838 0.37349
# Poissons Ratio (y) = 0.62855 0.31003
# Poissons Ratio (z) = 0.33503 0.14529
#
# Static dielectric constant tensor:
#      x y z
#    x 2.925850 0.000000 0.000000 
#    y 0.000000 2.412160 0.000000 
#    z 0.000000 0.000000 2.744740 
# 
# 
# High freq. dielectric constant tensor:
#      x y z
#    x 1.536460 0.000000 0.000000 
#    y 0.000000 1.466810 0.000000 
#    z 0.000000 0.000000 1.505870 
# 
# From -- ./inp_files/9743.got.cif
#   From: 2010.03.12/outbox.cif.g09.slc.cpg/sg47_5_cif.got.tgz:9743.got - 2010.04.14 03:12:58.
