data_PCOD8196611
_publ_section_title
;
Structure prediction by ZEFSAII (Michael W. Deem and Ramdas Pophale) SiO2 
 PCOD8196611
Probable space group: P M M M
;
_chemical_formula_sum "Si O2"
_cell_formula_units_Z 36
_cell_length_a 23.012373
_cell_length_b 9.180041
_cell_length_c 9.531732
_cell_angle_alpha 90.000000
_cell_angle_beta 90.000000
_cell_angle_gamma 90.000000
_cell_volume 2013.621541
_symmetry_space_group_name_H-M "P M M M"
_symmetry_group_IT_number 47
_symmetry_cell_setting 'orthorhombic'
loop_
_space_group_symop_operation_xyz
x,y,z
-x,-y,z
x,-y,-z
-x,y,-z
-x,-y,-z
x,y,-z
-x,y,z
x,-y,z
loop_
_atom_site_type_symbol
_atom_site_label
_atom_site_fract_x
_atom_site_fract_y
_atom_site_fract_z
Si Si1 0.000000 0.325875 0.658035
Si Si2 0.894743 0.673233 0.157454
Si Si3 0.432639 0.832016 0.159898
Si Si4 0.765984 0.673147 0.842745
Si Si5 0.339822 0.673060 0.340360
O O1 0.942774 0.263849 0.736080
O O2 0.000000 0.500000 0.659586
O O3 0.000000 0.265603 0.500000
O O4 0.896759 0.500000 0.159352
O O5 0.830342 0.726922 0.203598
O O6 0.908658 0.728432 0.000000
O O7 0.500000 0.803954 0.191683
O O8 0.396872 0.732883 0.265627
O O9 0.416754 0.000000 0.185219
O O10 0.418046 0.787641 0.000000
O O11 0.764684 0.500000 0.841135
O O12 0.717790 0.735478 0.736468
O O13 0.752044 0.729347 0.000000
O O14 0.338372 0.728332 0.500000
O O15 0.341902 0.500000 0.332391
#
# Coordination Sequence:
#
# PCOD8196611 Si02
#       5
#     4   8   8   8   8
#     4   9  15  19  25  41  65  95 132 173 216 261
#     4   8  13  21  32  45  64  95 136 178 216 255
#     4   9  19  36  55  72  90 116 152 190 226 266
#     4   8  14  25  40  56  76 107 146 184 221 261
#     4  10  20  31  45  69  98 124 150 183 225 273
#
# _framework density 17.878236999999999
#
# number of rings (size 3 to 8) (size 9 to 14) (size 15 to 20)
#    0.000    3.222    0.000    3.000    0.000    4.889 
#    0.000    7.778    0.000    0.000    0.000    0.000 
#    0.000    0.000    0.000    1.000    0.000   20.444 
#
# Total GULP energy -446216.126444 kJ/mol
# GULP energy per Si atom -12394.892401 kJ/mol
# Density = 1.783755 g / cm^3
# Si number density = 17.878237 Si / 1000 Ang^3
#
#
#
# Elastic Constant Matrix: (Units=GPa)
#
#
# Indices 1 2 3 4 5 6 
#
# 1 136.8891 18.6250 95.8932 0.0000 0.0000 0.0000
# 2 18.6250 8.9083 19.4926 0.0000 0.0000 0.0000
# 3 95.8932 19.4926 148.8098 0.0000 0.0000 0.0000
# 4 0.0000 0.0000 0.0000 14.4000 0.0000 0.0000
# 5 0.0000 0.0000 0.0000 0.0000 20.9789 0.0000
# 6 0.0000 0.0000 0.0000 0.0000 0.0000 -0.3186
#
#
#
# Elastic Compliance Matrix: (Units=1/GPa)
#
#
# Indices 1 2 3 4 5 6 
#
# 1 0.014428 -0.013767 -0.007494 0.000000 0.000000 0.000000
# 2 -0.013767 0.170494 -0.013461 0.000000 0.000000 0.000000
# 3 -0.007494 -0.013461 0.013312 0.000000 0.000000 0.000000
# 4 0.000000 0.000000 0.000000 0.069444 0.000000 0.000000
# 5 0.000000 0.000000 0.000000 0.000000 0.047667 0.000000
# 6 0.000000 0.000000 0.000000 0.000000 0.000000 -3.138716
#
#
# Mechanical properties :
#
#
# Convention : Reuss Voigt Hill
#
# Bulk Modulus (GPa) = 7.76464 62.51430 35.13947
# Shear Modulus (GPa) = -1.84434 17.71850 7.93708
#
# Velocity S-wave (km/s) = -1.01679 3.15153 2.10930
# Velocity P-wave (km/s) = 1.72454 6.94878 5.06258
#
# Compressibility (1/GPa) = 0.12878905
#
# Stress axis : x y z
#
# Youngs Moduli (GPa) = 69.30929 5.86531 75.11741
#
# Poissons Ratio (x) = 0.08075 0.56294
# Poissons Ratio (y) = 0.95420 1.01118
# Poissons Ratio (z) = 0.51941 0.07896
#
# Static dielectric constant tensor:
#      x y z
#    x 3.609720 0.000000 0.000000 
#    y 0.000000 2.621100 0.000000 
#    z 0.000000 0.000000 3.483310 
# 
# 
# High freq. dielectric constant tensor:
#      x y z
#    x 1.708490 0.000000 0.000000 
#    y 0.000000 1.618750 0.000000 
#    z 0.000000 0.000000 1.693860 
# 
# From -- ./inp_files/10566.got.cif
#   From: 2010.03.12/outbox.cif.g09.slc.cpg/sg47_6_cif.got.tgz:10566.got - 2010.04.14 03:12:58.
