data_PCOD8196506
_publ_section_title
;
Structure prediction by ZEFSAII (Michael W. Deem and Ramdas Pophale) SiO2 
 PCOD8196506
Probable space group: P M M M
;
_chemical_formula_sum "Si O2"
_cell_formula_units_Z 64
_cell_length_a 19.563722
_cell_length_b 9.186519
_cell_length_c 19.925304
_cell_angle_alpha 90.000000
_cell_angle_beta 90.000000
_cell_angle_gamma 90.000000
_cell_volume 3581.025525
_symmetry_space_group_name_H-M "P M M M"
_symmetry_group_IT_number 47
_symmetry_cell_setting 'orthorhombic'
loop_
_space_group_symop_operation_xyz
x,y,z
-x,-y,z
x,-y,-z
-x,y,-z
-x,-y,-z
x,y,-z
-x,y,z
x,-y,z
loop_
_atom_site_type_symbol
_atom_site_label
_atom_site_fract_x
_atom_site_fract_y
_atom_site_fract_z
Si Si1 0.420516 0.169697 0.821042
Si Si2 0.706441 0.663990 0.573075
Si Si3 0.333000 0.669910 0.076474
Si Si4 0.211608 0.667709 0.825320
Si Si5 0.160677 0.839274 0.574385
Si Si6 0.076538 0.828429 0.806946
Si Si7 0.923763 0.338964 0.672639
Si Si8 0.674575 0.667358 0.277525
O O1 0.500000 0.202237 0.812610
O O2 0.395027 0.243501 0.889646
O O3 0.382807 0.234226 0.756194
O O4 0.404223 0.000000 0.825139
O O5 0.666323 0.675730 0.500000
O O6 0.737552 0.500000 0.577993
O O7 0.761445 0.790599 0.571801
O O8 0.665151 0.691535 0.642245
O O9 0.349951 0.500000 0.081674
O O10 0.262788 0.707099 0.114537
O O11 0.325481 0.721593 0.000000
O O12 0.190626 0.500000 0.825952
O O13 0.141692 0.754821 0.842681
O O14 0.249715 0.707375 0.753850
O O15 0.129849 0.847686 0.500000
O O16 0.121550 0.713405 0.612094
O O17 0.155428 0.000000 0.608022
O O18 0.082338 0.778315 0.730739
O O19 0.000000 0.783490 0.834802
O O20 0.085154 0.000000 0.811844
O O21 0.899369 0.500000 0.697005
O O22 0.000000 0.347791 0.644992
O O23 0.660400 0.500000 0.257636
#
# Coordination Sequence:
#
# PCOD8196506 Si02
#       8
#     8   8   8   8   8   8   8   8
#     4  10  21  35  52  78 110 141 173 207 243 287
#     4   9  17  30  49  72  97 124 158 205 256 301
#     4   9  19  36  57  81 108 138 171 204 241 290
#     4   9  17  30  50  75 101 130 167 209 249 294
#     4  10  20  31  43  61  85 114 149 190 240 299
#     4  10  20  32  47  69  96 125 160 204 252 300
#     4  10  20  32  45  60  80 111 152 196 244 298
#     4   9  18  32  51  75 101 132 171 212 254 302
#
# _framework density 17.871974999999999
#
# number of rings (size 3 to 8) (size 9 to 14) (size 15 to 20)
#    0.000    2.500    0.000    3.000    0.000    7.500 
#    0.000    2.500    0.000    0.750    0.000    5.250 
#    0.000    0.000    0.000    0.000    0.000    0.000 
#
# Total GULP energy -792891.652022 kJ/mol
# GULP energy per Si atom -12388.932063 kJ/mol
# Density = 1.783130 g / cm^3
# Si number density = 17.871975 Si / 1000 Ang^3
#
#
#
# Elastic Constant Matrix: (Units=GPa)
#
#
# Indices 1 2 3 4 5 6 
#
# 1 96.1946 52.6701 40.5943 0.0000 0.0000 0.0000
# 2 52.6701 72.7643 32.4063 0.0000 0.0000 0.0000
# 3 40.5943 32.4063 116.3658 0.0000 0.0000 0.0000
# 4 0.0000 0.0000 0.0000 17.1852 0.0000 0.0000
# 5 0.0000 0.0000 0.0000 0.0000 15.4096 0.0000
# 6 0.0000 0.0000 0.0000 0.0000 0.0000 30.6954
#
#
#
# Elastic Compliance Matrix: (Units=1/GPa)
#
#
# Indices 1 2 3 4 5 6 
#
# 1 0.018120 -0.011759 -0.003046 0.000000 0.000000 0.000000
# 2 -0.011759 0.023320 -0.002392 0.000000 0.000000 0.000000
# 3 -0.003046 -0.002392 0.010322 0.000000 0.000000 0.000000
# 4 0.000000 0.000000 0.000000 0.058190 0.000000 0.000000
# 5 0.000000 0.000000 0.000000 0.000000 0.064894 0.000000
# 6 0.000000 0.000000 0.000000 0.000000 0.000000 0.032578
#
#
# Mechanical properties :
#
#
# Convention : Reuss Voigt Hill
#
# Bulk Modulus (GPa) = 57.58008 59.62957 58.60483
# Shear Modulus (GPa) = 20.19313 23.30165 21.74739
#
# Velocity S-wave (km/s) = 3.36501 3.61475 3.49211
# Velocity P-wave (km/s) = 6.88373 7.13156 7.00874
#
# Compressibility (1/GPa) = 0.01736712
#
# Stress axis : x y z
#
# Youngs Moduli (GPa) = 55.18850 42.88130 96.87592
#
# Poissons Ratio (x) = 0.50425 0.29512
# Poissons Ratio (y) = 0.64897 0.23174
# Poissons Ratio (z) = 0.16812 0.10258
#
# Static dielectric constant tensor:
#      x y z
#    x 3.197530 0.000000 0.000000 
#    y 0.000000 3.352990 0.000000 
#    z 0.000000 0.000000 3.349180 
# 
# 
# High freq. dielectric constant tensor:
#      x y z
#    x 1.668870 0.000000 0.000000 
#    y 0.000000 1.699410 0.000000 
#    z 0.000000 0.000000 1.679200 
# 
# From -- ./inp_files/9989.got.cif
#   From: 2010.03.12/outbox.cif.g09.slc.cpg/sg47_5_cif.got.tgz:9989.got - 2010.04.14 03:12:58.
