data_PCOD8196513
_publ_section_title
;
Structure prediction by ZEFSAII (Michael W. Deem and Ramdas Pophale) SiO2 
 PCOD8196513
Probable space group: P M M M
;
_chemical_formula_sum "Si O2"
_cell_formula_units_Z 56
_cell_length_a 9.375293
_cell_length_b 15.075425
_cell_length_c 24.270668
_cell_angle_alpha 90.000000
_cell_angle_beta 90.000000
_cell_angle_gamma 90.000000
_cell_volume 3430.331910
_symmetry_space_group_name_H-M "P M M M"
_symmetry_group_IT_number 47
_symmetry_cell_setting 'orthorhombic'
loop_
_space_group_symop_operation_xyz
x,y,z
-x,-y,z
x,-y,-z
-x,y,-z
-x,-y,-z
x,y,-z
-x,y,z
x,-y,z
loop_
_atom_site_type_symbol
_atom_site_label
_atom_site_fract_x
_atom_site_fract_y
_atom_site_fract_z
Si Si1 0.664435 0.765104 0.737837
Si Si2 0.340151 0.894734 0.560824
Si Si3 0.834574 0.895196 0.335430
Si Si4 0.337040 0.762279 0.868301
Si Si5 0.160393 0.598208 0.263094
Si Si6 0.837087 0.896635 0.937382
Si Si7 0.159849 0.597532 0.132173
O O1 0.500000 0.769046 0.719453
O O2 0.749912 0.848333 0.713726
O O3 0.680806 0.771228 0.803139
O O4 0.731540 0.673149 0.714613
O O5 0.295091 0.859461 0.500000
O O6 0.500000 0.861251 0.575330
O O7 0.228957 0.860199 0.606421
O O8 0.338745 0.000000 0.560088
O O9 0.000000 0.868925 0.333048
O O10 0.812366 0.000000 0.328279
O O11 0.500000 0.758556 0.886418
O O12 0.265863 0.846979 0.895755
O O13 0.264539 0.672465 0.891339
O O14 0.207555 0.500000 0.284167
O O15 0.162708 0.598630 0.197649
O O16 0.000000 0.619480 0.283912
O O17 0.000000 0.874351 0.922072
O O18 0.806754 0.000000 0.930045
O O19 0.804991 0.867445 0.000000
O O20 0.209108 0.500000 0.111255
O O21 0.000000 0.617699 0.111079
#
# Coordination Sequence:
#
# PCOD8196513 Si02
#       7
#     8   8   8   8   8   8   8
#     4  10  20  31  43  63  93 125 153 181 217 267
#     4   8  14  26  44  63  83 111 147 185 226 270
#     4  10  20  31  43  61  87 121 158 193 227 261
#     4  10  20  31  46  70  95 119 146 179 223 269
#     4   8  14  26  44  64  86 113 146 184 222 259
#     4   9  19  36  55  71  86 109 145 187 227 266
#     4   8  14  26  45  67  90 118 149 177 209 255
#
# _framework density 16.324952
#
# number of rings (size 3 to 8) (size 9 to 14) (size 15 to 20)
#    0.000    3.000    0.000    3.000    0.000    4.571 
#    0.000    7.857    0.000    0.429    0.000    3.000 
#    0.000    0.571    0.000    6.000    0.000    3.143 
#
# Total GULP energy -694137.627215 kJ/mol
# GULP energy per Si atom -12395.314772 kJ/mol
# Density = 1.628780 g / cm^3
# Si number density = 16.324952 Si / 1000 Ang^3
#
#
#
# Elastic Constant Matrix: (Units=GPa)
#
#
# Indices 1 2 3 4 5 6 
#
# 1 131.0881 65.0351 41.7051 0.0000 0.0000 0.0000
# 2 65.0351 79.4254 31.9085 0.0000 0.0000 0.0000
# 3 41.7051 31.9085 35.2429 0.0000 0.0000 0.0000
# 4 0.0000 0.0000 0.0000 1.5825 0.0000 0.0000
# 5 0.0000 0.0000 0.0000 0.0000 24.3224 0.0000
# 6 0.0000 0.0000 0.0000 0.0000 0.0000 22.0495
#
#
#
# Elastic Compliance Matrix: (Units=1/GPa)
#
#
# Indices 1 2 3 4 5 6 
#
# 1 0.014922 -0.008054 -0.010366 0.000000 0.000000 0.000000
# 2 -0.008054 0.024135 -0.012321 0.000000 0.000000 0.000000
# 3 -0.010366 -0.012321 0.051797 0.000000 0.000000 0.000000
# 4 0.000000 0.000000 0.000000 0.631923 0.000000 0.000000
# 5 0.000000 0.000000 0.000000 0.000000 0.041114 0.000000
# 6 0.000000 0.000000 0.000000 0.000000 0.000000 0.045352
#
#
# Mechanical properties :
#
#
# Convention : Reuss Voigt Hill
#
# Bulk Modulus (GPa) = 34.04635 58.11707 46.08171
# Shear Modulus (GPa) = 5.67849 16.73139 11.20494
#
# Velocity S-wave (km/s) = 1.86707 3.20487 2.62271
# Velocity P-wave (km/s) = 5.05457 7.02655 6.12050
#
# Compressibility (1/GPa) = 0.02937172
#
# Stress axis : x y z
#
# Youngs Moduli (GPa) = 67.01426 41.43372 19.30625
#
# Poissons Ratio (x) = 0.33371 0.20014
# Poissons Ratio (y) = 0.53973 0.23787
# Poissons Ratio (z) = 0.69470 0.51049
#
# Static dielectric constant tensor:
#      x y z
#    x 3.239510 0.000000 0.000000 
#    y 0.000000 3.136620 0.000000 
#    z 0.000000 0.000000 2.874980 
# 
# 
# High freq. dielectric constant tensor:
#      x y z
#    x 1.635400 0.000000 0.000000 
#    y 0.000000 1.617290 0.000000 
#    z 0.000000 0.000000 1.591360 
# 
# From -- ./inp_files/29690.got.cif
#   From: 2010.03.12/outbox.cif.g09.slc.cpg/sg47_15_cif.got.tgz:29690.got - 2010.04.14 03:12:58.
