data_PCOD8196175
_publ_section_title
;
Structure prediction by ZEFSAII (Michael W. Deem and Ramdas Pophale) SiO2 
 PCOD8196175
Probable space group: P M M M
;
_chemical_formula_sum "Si O2"
_cell_formula_units_Z 40
_cell_length_a 18.892855
_cell_length_b 12.398084
_cell_length_c 9.164763
_cell_angle_alpha 90.000000
_cell_angle_beta 90.000000
_cell_angle_gamma 90.000000
_cell_volume 2146.710124
_symmetry_space_group_name_H-M "P M M M"
_symmetry_group_IT_number 47
_symmetry_cell_setting 'orthorhombic'
loop_
_space_group_symop_operation_xyz
x,y,z
-x,-y,z
x,-y,-z
-x,y,-z
-x,-y,-z
x,y,-z
-x,y,z
x,-y,z
loop_
_atom_site_type_symbol
_atom_site_label
_atom_site_fract_x
_atom_site_fract_y
_atom_site_fract_z
Si Si1 0.920471 0.625056 0.830921
Si Si2 0.416501 0.287703 0.168530
Si Si3 0.920525 0.000000 0.673965
Si Si4 0.584173 0.500000 0.334576
Si Si5 0.833680 0.202614 0.671835
Si Si6 0.320789 0.125751 0.329529
O O1 0.907320 0.500000 0.800673
O O2 0.860786 0.687310 0.741644
O O3 0.000000 0.657067 0.779723
O O4 0.911396 0.652415 0.000000
O O5 0.500000 0.275812 0.187802
O O6 0.387657 0.393694 0.252104
O O7 0.382516 0.180911 0.236903
O O8 0.395056 0.298665 0.000000
O O9 0.880851 0.894955 0.734637
O O10 0.918525 0.000000 0.500000
O O11 0.000000 0.000000 0.735062
O O12 0.500000 0.500000 0.332951
O O13 0.613467 0.500000 0.500000
O O14 0.842498 0.211388 0.500000
O O15 0.752667 0.181972 0.714920
O O16 0.336984 0.141225 0.500000
O O17 0.317462 0.000000 0.288846
#
# Coordination Sequence:
#
# PCOD8196175 Si02
#       6
#     8   8   4   4   8   8
#     4   9  19  36  55  76 107 145 181 221 272 327
#     4  10  21  37  58  85 115 146 184 228 274 329
#     4   9  16  28  51  81 108 135 170 218 273 317
#     4   9  17  33  59  87 113 141 176 221 272 323
#     4  10  19  34  55  80 108 140 181 226 271 323
#     4  10  21  38  57  78 110 149 188 231 279 331
#
# _framework density 18.633163
#
# number of rings (size 3 to 8) (size 9 to 14) (size 15 to 20)
#    0.000    2.400    1.000    2.100    0.000    5.600 
#    1.800    3.500    0.000    1.800    0.000    0.000 
#    0.000    0.000    0.000    0.000    0.000    0.000 
#
# Total GULP energy -496072.644476 kJ/mol
# GULP energy per Si atom -12401.816112 kJ/mol
# Density = 1.859075 g / cm^3
# Si number density = 18.633163 Si / 1000 Ang^3
#
#
#
# Elastic Constant Matrix: (Units=GPa)
#
#
# Indices 1 2 3 4 5 6 
#
# 1 67.4790 52.6381 47.7244 0.0000 0.0000 0.0000
# 2 52.6381 109.7182 58.5400 0.0000 0.0000 0.0000
# 3 47.7244 58.5400 81.1258 0.0000 0.0000 0.0000
# 4 0.0000 0.0000 0.0000 15.8194 0.0000 0.0000
# 5 0.0000 0.0000 0.0000 0.0000 26.0270 0.0000
# 6 0.0000 0.0000 0.0000 0.0000 0.0000 35.2893
#
#
#
# Elastic Compliance Matrix: (Units=1/GPa)
#
#
# Indices 1 2 3 4 5 6 
#
# 1 0.028990 -0.007820 -0.011412 0.000000 0.000000 0.000000
# 2 -0.007820 0.016929 -0.007616 0.000000 0.000000 0.000000
# 3 -0.011412 -0.007616 0.024535 0.000000 0.000000 0.000000
# 4 0.000000 0.000000 0.000000 0.063213 0.000000 0.000000
# 5 0.000000 0.000000 0.000000 0.000000 0.038422 0.000000
# 6 0.000000 0.000000 0.000000 0.000000 0.000000 0.028337
#
#
# Mechanical properties :
#
#
# Convention : Reuss Voigt Hill
#
# Bulk Modulus (GPa) = 59.66464 64.01423 61.83944
# Shear Modulus (GPa) = 19.25239 22.05518 20.65378
#
# Velocity S-wave (km/s) = 3.21788 3.44416 3.33294
# Velocity P-wave (km/s) = 6.77470 7.08843 6.93334
#
# Compressibility (1/GPa) = 0.01676035
#
# Stress axis : x y z
#
# Youngs Moduli (GPa) = 34.49467 59.06936 40.75740
#
# Poissons Ratio (x) = 0.46189 0.46511
# Poissons Ratio (y) = 0.26973 0.31041
# Poissons Ratio (z) = 0.39364 0.44987
#
# Static dielectric constant tensor:
#      x y z
#    x 3.316100 0.000000 0.000000 
#    y 0.000000 3.456450 0.000000 
#    z 0.000000 0.000000 3.262770 
# 
# 
# High freq. dielectric constant tensor:
#      x y z
#    x 1.714780 0.000000 0.000000 
#    y 0.000000 1.732040 0.000000 
#    z 0.000000 0.000000 1.709950 
# 
# From -- ./inp_files/10700.got.cif
#   From: 2010.03.12/outbox.cif.g09.slc.cpg/sg47_6_cif.got.tgz:10700.got - 2010.04.14 03:12:58.
