data_PCOD8196646
_publ_section_title
;
Structure prediction by ZEFSAII (Michael W. Deem and Ramdas Pophale) SiO2 
 PCOD8196646
Probable space group: P M M M
;
_chemical_formula_sum "Si O2"
_cell_formula_units_Z 52
_cell_length_a 8.067985
_cell_length_b 18.825202
_cell_length_c 19.294594
_cell_angle_alpha 90.000000
_cell_angle_beta 90.000000
_cell_angle_gamma 90.000000
_cell_volume 2930.490863
_symmetry_space_group_name_H-M "P M M M"
_symmetry_group_IT_number 47
_symmetry_cell_setting 'orthorhombic'
loop_
_space_group_symop_operation_xyz
x,y,z
-x,-y,z
x,-y,-z
-x,y,-z
-x,-y,-z
x,y,-z
-x,y,z
x,-y,z
loop_
_atom_site_type_symbol
_atom_site_label
_atom_site_fract_x
_atom_site_fract_y
_atom_site_fract_z
Si Si1 0.697223 0.580765 0.288566
Si Si2 0.191609 0.715311 0.789417
Si Si3 0.691732 0.345711 0.424638
Si Si4 0.686703 0.671718 0.921864
Si Si5 0.304761 0.080074 0.578450
Si Si6 0.000000 0.423175 0.080763
Si Si7 0.191237 0.214492 0.348589
O O1 0.500000 0.589908 0.284650
O O2 0.751653 0.500000 0.272967
O O3 0.779820 0.633335 0.233296
O O4 0.764799 0.602669 0.365248
O O5 0.293224 0.731151 0.861224
O O6 0.256471 0.768757 0.729435
O O7 0.000000 0.728040 0.805557
O O8 0.776938 0.359304 0.500000
O O9 0.500000 0.362005 0.432451
O O10 0.713600 0.263265 0.403699
O O11 0.500000 0.638989 0.918575
O O12 0.828722 0.615897 0.899621
O O13 0.718517 0.701751 0.000000
O O14 0.246408 0.096994 0.500000
O O15 0.500000 0.089386 0.584323
O O16 0.217312 0.132326 0.632768
O O17 0.252263 0.000000 0.598298
O O18 0.000000 0.500000 0.118042
O O19 0.000000 0.434728 0.000000
O O20 0.000000 0.235595 0.351886
#
# Coordination Sequence:
#
# PCOD8196646 Si02
#       7
#     8   8   8   8   8   4   8
#     4   9  18  31  45  62  84 112 151 198 245 292
#     4  10  20  34  49  66  93 126 158 196 245 295
#     4   9  17  29  45  63  84 114 152 194 241 289
#     4  10  20  34  53  74  95 123 160 201 246 298
#     4   9  18  32  49  70  98 132 166 198 237 286
#     4   9  18  32  48  68  96 126 154 193 246 298
#     4  10  20  31  46  69  95 124 159 196 234 283
#
# _framework density 17.744468999999999
#
# number of rings (size 3 to 8) (size 9 to 14) (size 15 to 20)
#    0.000    2.538    0.769    1.846    0.000    6.154 
#    0.000    3.846    0.000    0.000    0.000    4.308 
#    0.000    0.615    0.000    6.769    0.000    4.923 
#
# Total GULP energy -644312.149067 kJ/mol
# GULP energy per Si atom -12390.618251 kJ/mol
# Density = 1.770408 g / cm^3
# Si number density = 17.744469 Si / 1000 Ang^3
#
#
#
# Elastic Constant Matrix: (Units=GPa)
#
#
# Indices 1 2 3 4 5 6 
#
# 1 56.3357 9.7821 23.3294 0.0000 0.0000 0.0000
# 2 9.7821 79.0560 38.8982 0.0000 0.0000 0.0000
# 3 23.3294 38.8982 136.9748 0.0000 0.0000 0.0000
# 4 0.0000 0.0000 0.0000 15.8909 0.0000 0.0000
# 5 0.0000 0.0000 0.0000 0.0000 22.1546 0.0000
# 6 0.0000 0.0000 0.0000 0.0000 0.0000 15.3473
#
#
#
# Elastic Compliance Matrix: (Units=1/GPa)
#
#
# Indices 1 2 3 4 5 6 
#
# 1 0.019151 -0.000889 -0.003009 0.000000 0.000000 0.000000
# 2 -0.000889 0.014745 -0.004036 0.000000 0.000000 0.000000
# 3 -0.003009 -0.004036 0.008959 0.000000 0.000000 0.000000
# 4 0.000000 0.000000 0.000000 0.062929 0.000000 0.000000
# 5 0.000000 0.000000 0.000000 0.000000 0.045137 0.000000
# 6 0.000000 0.000000 0.000000 0.000000 0.000000 0.065158
#
#
# Mechanical properties :
#
#
# Convention : Reuss Voigt Hill
#
# Bulk Modulus (GPa) = 37.05475 46.26513 41.65994
# Shear Modulus (GPa) = 20.75167 24.03567 22.39367
#
# Velocity S-wave (km/s) = 3.42347 3.68441 3.55633
# Velocity P-wave (km/s) = 6.04604 6.65052 6.35547
#
# Compressibility (1/GPa) = 0.02698709
#
# Stress axis : x y z
#
# Youngs Moduli (GPa) = 52.21572 67.81930 111.61604
#
# Poissons Ratio (x) = 0.06029 0.33589
# Poissons Ratio (y) = 0.04642 0.45047
# Poissons Ratio (z) = 0.15714 0.27371
#
# Static dielectric constant tensor:
#      x y z
#    x 3.230350 0.000000 0.000000 
#    y 0.000000 3.070220 0.000000 
#    z 0.000000 0.000000 3.699140 
# 
# 
# High freq. dielectric constant tensor:
#      x y z
#    x 1.687030 0.000000 0.000000 
#    y 0.000000 1.635150 0.000000 
#    z 0.000000 0.000000 1.695950 
# 
# From -- ./inp_files/29902.got.cif
#   From: 2010.03.12/outbox.cif.g09.slc.cpg/sg47_15_cif.got.tgz:29902.got - 2010.04.14 03:12:58.
