data_PCOD8196354
_publ_section_title
;
Structure prediction by ZEFSAII (Michael W. Deem and Ramdas Pophale) SiO2 
 PCOD8196354
Probable space group: P M M M
;
_chemical_formula_sum "Si O2"
_cell_formula_units_Z 52
_cell_length_a 14.836638
_cell_length_b 19.772527
_cell_length_c 8.826235
_cell_angle_alpha 90.000000
_cell_angle_beta 90.000000
_cell_angle_gamma 90.000000
_cell_volume 2589.245106
_symmetry_space_group_name_H-M "P M M M"
_symmetry_group_IT_number 47
_symmetry_cell_setting 'orthorhombic'
loop_
_space_group_symop_operation_xyz
x,y,z
-x,-y,z
x,-y,-z
-x,y,-z
-x,-y,-z
x,y,-z
-x,y,z
x,-y,z
loop_
_atom_site_type_symbol
_atom_site_label
_atom_site_fract_x
_atom_site_fract_y
_atom_site_fract_z
Si Si1 0.394447 0.000000 0.180087
Si Si2 0.336770 0.634541 0.823797
Si Si3 0.897985 0.831360 0.178702
Si Si4 0.598310 0.757996 0.671516
Si Si5 0.142021 0.318144 0.821769
Si Si6 0.601196 0.500000 0.321397
Si Si7 0.000000 0.423988 0.180723
Si Si8 0.720938 0.880103 0.320405
O O1 0.340760 0.935974 0.242771
O O2 0.500000 0.000000 0.232985
O O3 0.389603 0.000000 0.000000
O O4 0.408492 0.690912 0.774598
O O5 0.243396 0.668145 0.774417
O O6 0.346794 0.565298 0.735379
O O7 0.344375 0.618237 0.000000
O O8 0.889068 0.754640 0.242734
O O9 0.824209 0.879586 0.260150
O O10 0.000000 0.857009 0.214491
O O11 0.878625 0.834057 0.000000
O O12 0.618199 0.735097 0.500000
O O13 0.500000 0.793542 0.683185
O O14 0.675159 0.809277 0.727000
O O15 0.085245 0.381452 0.757874
O O16 0.127357 0.315496 0.000000
O O17 0.500000 0.500000 0.254889
O O18 0.599667 0.500000 0.500000
O O19 0.000000 0.500000 0.250086
O O20 0.000000 0.429671 0.000000
O O21 0.720808 0.892157 0.500000
#
# Coordination Sequence:
#
# PCOD8196354 Si02
#       8
#     4   8   8   8   8   4   4   8
#     4  11  25  45  70  99 132 169 209 254 306 367
#     4  11  22  35  56  84 112 142 190 251 303 354
#     4  10  19  36  62  90 124 165 209 257 309 363
#     4  10  21  37  57  83 117 157 198 239 292 360
#     4   9  17  30  49  80 116 148 187 242 301 354
#     4  11  25  43  57  70 101 150 196 241 303 379
#     4   9  16  26  46  76 112 151 190 235 296 364
#     4  11  23  40  64  94 130 168 208 252 304 369
#
# _framework density 20.083072999999999
#
# number of rings (size 3 to 8) (size 9 to 14) (size 15 to 20)
#    0.000    1.769    2.308    2.308    1.077    4.923 
#    0.000    0.385    0.000    2.308    0.000    0.538 
#    0.000    0.000    0.000    0.000    0.000    0.000 
#
# Total GULP energy -644643.339425 kJ/mol
# GULP energy per Si atom -12396.987297 kJ/mol
# Density = 2.003736 g / cm^3
# Si number density = 20.083073 Si / 1000 Ang^3
#
#
#
# Elastic Constant Matrix: (Units=GPa)
#
#
# Indices 1 2 3 4 5 6 
#
# 1 132.9620 54.3311 43.7348 0.0000 0.0000 0.0000
# 2 54.3311 109.7727 38.0230 0.0000 0.0000 0.0000
# 3 43.7348 38.0230 60.7525 0.0000 0.0000 0.0000
# 4 0.0000 0.0000 0.0000 28.5703 0.0000 0.0000
# 5 0.0000 0.0000 0.0000 0.0000 23.6969 0.0000
# 6 0.0000 0.0000 0.0000 0.0000 0.0000 16.8026
#
#
#
# Elastic Compliance Matrix: (Units=1/GPa)
#
#
# Indices 1 2 3 4 5 6 
#
# 1 0.010750 -0.003371 -0.005629 0.000000 0.000000 0.000000
# 2 -0.003371 0.012688 -0.005515 0.000000 0.000000 0.000000
# 3 -0.005629 -0.005515 0.023964 0.000000 0.000000 0.000000
# 4 0.000000 0.000000 0.000000 0.035001 0.000000 0.000000
# 5 0.000000 0.000000 0.000000 0.000000 0.042200 0.000000
# 6 0.000000 0.000000 0.000000 0.000000 0.000000 0.059515
#
#
# Mechanical properties :
#
#
# Convention : Reuss Voigt Hill
#
# Bulk Modulus (GPa) = 54.42703 63.96279 59.19491
# Shear Modulus (GPa) = 22.80287 24.97384 23.88836
#
# Velocity S-wave (km/s) = 3.37327 3.53019 3.45262
# Velocity P-wave (km/s) = 6.50628 6.96668 6.74041
#
# Compressibility (1/GPa) = 0.01837322
#
# Stress axis : x y z
#
# Youngs Moduli (GPa) = 93.02462 78.81335 41.72955
#
# Poissons Ratio (x) = 0.26566 0.23490
# Poissons Ratio (y) = 0.31357 0.23012
# Poissons Ratio (z) = 0.52363 0.43462
#
# Static dielectric constant tensor:
#      x y z
#    x 3.861790 0.000000 0.000000 
#    y 0.000000 3.643070 0.000000 
#    z 0.000000 0.000000 3.343990 
# 
# 
# High freq. dielectric constant tensor:
#      x y z
#    x 1.799890 0.000000 0.000000 
#    y 0.000000 1.778690 0.000000 
#    z 0.000000 0.000000 1.757080 
# 
# From -- ./inp_files/7113.got.cif
#   From: 2010.03.12/outbox.cif.g09.slc.cpg/sg47_4_cif.got.tgz:7113.got - 2010.04.14 03:12:58.
