data_PCOD8196073
_publ_section_title
;
Structure prediction by ZEFSAII (Michael W. Deem and Ramdas Pophale) SiO2 
 PCOD8196073
Probable space group: P M M M
;
_chemical_formula_sum "Si O2"
_cell_formula_units_Z 48
_cell_length_a 9.170099
_cell_length_b 13.966017
_cell_length_c 20.581545
_cell_angle_alpha 90.000000
_cell_angle_beta 90.000000
_cell_angle_gamma 90.000000
_cell_volume 2635.873498
_symmetry_space_group_name_H-M "P M M M"
_symmetry_group_IT_number 47
_symmetry_cell_setting 'orthorhombic'
loop_
_space_group_symop_operation_xyz
x,y,z
-x,-y,z
x,-y,-z
-x,y,-z
-x,-y,-z
x,y,-z
-x,y,z
x,-y,z
loop_
_atom_site_type_symbol
_atom_site_label
_atom_site_fract_x
_atom_site_fract_y
_atom_site_fract_z
Si Si1 0.830017 0.111956 0.756900
Si Si2 0.329473 0.391378 0.574062
Si Si3 0.326794 0.216979 0.872914
Si Si4 0.171376 0.781361 0.625340
Si Si5 0.830649 0.609337 0.074646
Si Si6 0.673043 0.106693 0.000000
Si Si7 0.173613 0.106559 0.500000
O O1 0.733457 0.161832 0.811158
O O2 0.785145 0.160500 0.689299
O O3 0.000000 0.127699 0.772388
O O4 0.791583 0.000000 0.753188
O O5 0.277339 0.372492 0.500000
O O6 0.500000 0.371786 0.580015
O O7 0.292325 0.500000 0.594061
O O8 0.245934 0.322744 0.624319
O O9 0.500000 0.221847 0.868388
O O10 0.263744 0.324339 0.877480
O O11 0.270304 0.160605 0.936270
O O12 0.231824 0.840447 0.563965
O O13 0.000000 0.765707 0.620915
O O14 0.800368 0.500000 0.095011
O O15 0.000000 0.634498 0.083259
O O16 0.782571 0.625503 0.000000
O O17 0.500000 0.102767 0.000000
O O18 0.739294 0.000000 0.000000
O O19 0.000000 0.102810 0.500000
O O20 0.238858 0.000000 0.500000
#
# Coordination Sequence:
#
# PCOD8196073 Si02
#       7
#     8   8   8   8   8   4   4
#     4  10  22  39  56  77 110 150 187 224 271 328
#     4   9  18  33  53  78 110 145 176 214 271 330
#     4  11  21  35  56  82 111 145 183 227 276 324
#     4  10  19  33  55  82 107 137 180 227 271 316
#     4   9  18  34  57  84 114 146 178 219 274 331
#     4   9  18  32  50  75 106 136 173 223 272 317
#     4   9  16  28  50  79 106 132 169 219 270 317
#
# _framework density 18.210281999999999
#
# number of rings (size 3 to 8) (size 9 to 14) (size 15 to 20)
#    0.000    2.333    1.667    2.500    0.000    4.333 
#    0.000    2.500    0.000    5.000    0.000    0.000 
#    0.000    0.000    0.000    0.000    0.000    0.000 
#
# Total GULP energy -595263.305444 kJ/mol
# GULP energy per Si atom -12401.318863 kJ/mol
# Density = 1.816883 g / cm^3
# Si number density = 18.210282 Si / 1000 Ang^3
#
#
#
# Elastic Constant Matrix: (Units=GPa)
#
#
# Indices 1 2 3 4 5 6 
#
# 1 56.5515 59.6469 52.4423 0.0000 0.0000 0.0000
# 2 59.6469 154.6011 75.3669 0.0000 0.0000 0.0000
# 3 52.4423 75.3669 125.6573 0.0000 0.0000 0.0000
# 4 0.0000 0.0000 0.0000 36.5605 0.0000 0.0000
# 5 0.0000 0.0000 0.0000 0.0000 24.8795 0.0000
# 6 0.0000 0.0000 0.0000 0.0000 0.0000 22.4279
#
#
#
# Elastic Compliance Matrix: (Units=1/GPa)
#
#
# Indices 1 2 3 4 5 6 
#
# 1 0.036497 -0.009406 -0.009590 0.000000 0.000000 0.000000
# 2 -0.009406 0.011565 -0.003011 0.000000 0.000000 0.000000
# 3 -0.009590 -0.003011 0.013767 0.000000 0.000000 0.000000
# 4 0.000000 0.000000 0.000000 0.027352 0.000000 0.000000
# 5 0.000000 0.000000 0.000000 0.000000 0.040194 0.000000
# 6 0.000000 0.000000 0.000000 0.000000 0.000000 0.044587
#
#
# Mechanical properties :
#
#
# Convention : Reuss Voigt Hill
#
# Bulk Modulus (GPa) = 56.13473 79.08024 67.60749
# Shear Modulus (GPa) = 22.32997 26.73050 24.53024
#
# Velocity S-wave (km/s) = 3.50555 3.83545 3.67421
# Velocity P-wave (km/s) = 6.87590 7.94573 7.43009
#
# Compressibility (1/GPa) = 0.01781428
#
# Stress axis : x y z
#
# Youngs Moduli (GPa) = 27.39936 86.46812 72.63947
#
# Poissons Ratio (x) = 0.81330 0.69665
# Poissons Ratio (y) = 0.25771 0.21872
# Poissons Ratio (z) = 0.26277 0.26036
#
# Static dielectric constant tensor:
#      x y z
#    x 3.075240 0.000000 0.000000 
#    y 0.000000 3.499450 0.000000 
#    z 0.000000 0.000000 3.304290 
# 
# 
# High freq. dielectric constant tensor:
#      x y z
#    x 1.685400 0.000000 0.000000 
#    y 0.000000 1.721210 0.000000 
#    z 0.000000 0.000000 1.693140 
# 
# From -- ./inp_files/26500.got.cif
#   From: 2010.03.12/outbox.cif.g09.slc.cpg/sg47_14_cif.got.tgz:26500.got - 2010.04.14 03:12:58.
