data_PCOD8196339
_publ_section_title
;
Structure prediction by ZEFSAII (Michael W. Deem and Ramdas Pophale) SiO2 
 PCOD8196339
Probable space group: P M M M
;
_chemical_formula_sum "Si O2"
_cell_formula_units_Z 56
_cell_length_a 15.218782
_cell_length_b 21.299489
_cell_length_c 8.795931
_cell_angle_alpha 90.000000
_cell_angle_beta 90.000000
_cell_angle_gamma 90.000000
_cell_volume 2851.221087
_symmetry_space_group_name_H-M "P M M M"
_symmetry_group_IT_number 47
_symmetry_cell_setting 'orthorhombic'
loop_
_space_group_symop_operation_xyz
x,y,z
-x,-y,z
x,-y,-z
-x,y,-z
-x,-y,-z
x,y,-z
-x,y,z
x,-y,z
loop_
_atom_site_type_symbol
_atom_site_label
_atom_site_fract_x
_atom_site_fract_y
_atom_site_fract_z
Si Si1 0.665654 0.000000 0.828070
Si Si2 0.599006 0.864917 0.825805
Si Si3 0.255138 0.344905 0.821031
Si Si4 0.398550 0.427593 0.674735
Si Si5 0.752205 0.790204 0.678163
Si Si6 0.151219 0.000000 0.677922
Si Si7 0.902467 0.570080 0.180504
Si Si8 0.900511 0.128032 0.174010
O O1 0.605961 0.060628 0.799136
O O2 0.745667 0.000000 0.711332
O O3 0.703501 0.000000 0.000000
O O4 0.500000 0.844154 0.785415
O O5 0.665172 0.829226 0.716058
O O6 0.621681 0.847687 0.000000
O O7 0.341834 0.384892 0.786517
O O8 0.260835 0.279772 0.735208
O O9 0.169944 0.381827 0.756403
O O10 0.248545 0.332713 0.000000
O O11 0.374216 0.413230 0.500000
O O12 0.500000 0.411622 0.705091
O O13 0.379415 0.500000 0.713214
O O14 0.766790 0.790711 0.500000
O O15 0.837824 0.820373 0.753016
O O16 0.105746 0.938761 0.745362
O O17 0.135452 0.000000 0.500000
O O18 0.882876 0.500000 0.243522
O O19 0.000000 0.591755 0.233130
O O20 0.897569 0.568420 0.000000
O O21 0.000000 0.153106 0.187782
O O22 0.871849 0.119027 0.000000
#
# Coordination Sequence:
#
# PCOD8196339 Si02
#       8
#     4   8   8   8   8   4   8   8
#     4  10  19  35  63  91 121 153 187 237 295 352
#     4  10  21  39  64  91 118 152 195 242 295 355
#     4  11  22  36  58  86 116 153 199 243 288 345
#     4   9  19  37  60  86 118 155 193 238 297 358
#     4  12  26  42  59  83 119 160 200 247 300 352
#     4  12  23  36  61  95 127 156 189 239 299 355
#     4   8  15  30  54  85 117 145 178 226 282 337
#     4  11  24  43  66  89 116 155 201 248 299 354
#
# _framework density 19.640706000000002
#
# number of rings (size 3 to 8) (size 9 to 14) (size 15 to 20)
#    0.000    1.714    1.429    4.500    0.000    5.429 
#    0.000    2.143    0.000    2.571    0.000    5.000 
#    0.000    0.000    0.000    0.000    0.000    0.000 
#
# Total GULP energy -694551.092812 kJ/mol
# GULP energy per Si atom -12402.698086 kJ/mol
# Density = 1.959600 g / cm^3
# Si number density = 19.640706 Si / 1000 Ang^3
#
#
#
# Elastic Constant Matrix: (Units=GPa)
#
#
# Indices 1 2 3 4 5 6 
#
# 1 118.4129 52.6395 45.5443 0.0000 0.0000 0.0000
# 2 52.6395 107.0192 39.3393 0.0000 0.0000 0.0000
# 3 45.5443 39.3393 108.3713 0.0000 0.0000 0.0000
# 4 0.0000 0.0000 0.0000 27.4881 0.0000 0.0000
# 5 0.0000 0.0000 0.0000 0.0000 5.7400 0.0000
# 6 0.0000 0.0000 0.0000 0.0000 0.0000 55.6277
#
#
#
# Elastic Compliance Matrix: (Units=1/GPa)
#
#
# Indices 1 2 3 4 5 6 
#
# 1 0.011735 -0.004569 -0.003273 0.000000 0.000000 0.000000
# 2 -0.004569 0.012562 -0.002640 0.000000 0.000000 0.000000
# 3 -0.003273 -0.002640 0.011561 0.000000 0.000000 0.000000
# 4 0.000000 0.000000 0.000000 0.036379 0.000000 0.000000
# 5 0.000000 0.000000 0.000000 0.000000 0.174216 0.000000
# 6 0.000000 0.000000 0.000000 0.000000 0.000000 0.017977
#
#
# Mechanical properties :
#
#
# Convention : Reuss Voigt Hill
#
# Bulk Modulus (GPa) = 67.13994 67.64996 67.39495
# Shear Modulus (GPa) = 17.22003 30.85652 24.03828
#
# Velocity S-wave (km/s) = 2.96421 3.96795 3.50222
# Velocity P-wave (km/s) = 6.78039 7.45059 7.12338
#
# Compressibility (1/GPa) = 0.01489426
#
# Stress axis : x y z
#
# Youngs Moduli (GPa) = 85.21464 79.60639 86.49441
#
# Poissons Ratio (x) = 0.36371 0.28312
# Poissons Ratio (y) = 0.38934 0.22833
# Poissons Ratio (z) = 0.27893 0.21015
#
# Static dielectric constant tensor:
#      x y z
#    x 3.716670 0.000000 0.000000 
#    y 0.000000 3.615680 0.000000 
#    z 0.000000 0.000000 3.446540 
# 
# 
# High freq. dielectric constant tensor:
#      x y z
#    x 1.777830 0.000000 0.000000 
#    y 0.000000 1.765600 0.000000 
#    z 0.000000 0.000000 1.751180 
# 
# From -- ./inp_files/7426.got.cif
#   From: 2010.03.12/outbox.cif.g09.slc.cpg/sg47_4_cif.got.tgz:7426.got - 2010.04.14 03:12:58.
