data_PCOD8196603
_publ_section_title
;
Structure prediction by ZEFSAII (Michael W. Deem and Ramdas Pophale) SiO2 
 PCOD8196603
Probable space group: P M M M
;
_chemical_formula_sum "Si O2"
_cell_formula_units_Z 40
_cell_length_a 25.746400
_cell_length_b 9.684742
_cell_length_c 8.820361
_cell_angle_alpha 90.000000
_cell_angle_beta 90.000000
_cell_angle_gamma 90.000000
_cell_volume 2199.332684
_symmetry_space_group_name_H-M "P M M M"
_symmetry_group_IT_number 47
_symmetry_cell_setting 'orthorhombic'
loop_
_space_group_symop_operation_xyz
x,y,z
-x,-y,z
x,-y,-z
-x,y,-z
-x,-y,-z
x,y,-z
-x,y,z
x,-y,z
loop_
_atom_site_type_symbol
_atom_site_label
_atom_site_fract_x
_atom_site_fract_y
_atom_site_fract_z
Si Si1 0.263218 0.659569 0.322549
Si Si2 0.146467 0.347602 0.320012
Si Si3 0.557805 0.345303 0.819700
Si Si4 0.649809 0.843564 0.820060
Si Si5 0.057279 0.154376 0.319700
O O1 0.272775 0.681803 0.500000
O O2 0.274297 0.500000 0.278654
O O3 0.204437 0.700915 0.276591
O O4 0.299256 0.762286 0.229886
O O5 0.141630 0.351354 0.500000
O O6 0.136267 0.500000 0.254037
O O7 0.102776 0.248065 0.248011
O O8 0.500000 0.304184 0.762949
O O9 0.571853 0.500000 0.762268
O O10 0.599208 0.235921 0.753867
O O11 0.559156 0.343572 0.000000
O O12 0.650374 0.000000 0.755818
O O13 0.648029 0.845942 0.000000
O O14 0.061543 0.153955 0.500000
O O15 0.000000 0.209545 0.271636
O O16 0.065161 0.000000 0.257057
#
# Coordination Sequence:
#
# PCOD8196603 Si02
#       5
#     8   8   8   8   8
#     4   9  18  32  48  65  87 118 155 190 223 263
#     4   8  14  24  37  54  76 103 138 178 216 254
#     4   8  14  26  45  67  89 115 147 180 216 260
#     4  10  20  31  45  69  97 121 147 181 221 264
#     4   8  13  20  30  47  73 104 136 169 207 253
#
# _framework density 18.187335000000001
#
# number of rings (size 3 to 8) (size 9 to 14) (size 15 to 20)
#    0.000    3.400    0.000    3.000    0.000    3.200 
#    0.000    6.000    0.000    0.600    0.000    4.200 
#    0.000    0.800    0.000    8.800    0.000   14.400 
#
# Total GULP energy -495685.864547 kJ/mol
# GULP energy per Si atom -12392.146614 kJ/mol
# Density = 1.814594 g / cm^3
# Si number density = 18.187335 Si / 1000 Ang^3
#
#
#
# Elastic Constant Matrix: (Units=GPa)
#
#
# Indices 1 2 3 4 5 6 
#
# 1 167.9145 102.9317 9.8741 0.0000 0.0000 0.0000
# 2 102.9317 130.7514 11.1296 0.0000 0.0000 0.0000
# 3 9.8741 11.1296 5.1973 0.0000 0.0000 0.0000
# 4 0.0000 0.0000 0.0000 15.2881 0.0000 0.0000
# 5 0.0000 0.0000 0.0000 0.0000 37.4887 0.0000
# 6 0.0000 0.0000 0.0000 0.0000 0.0000 30.4460
#
#
#
# Elastic Compliance Matrix: (Units=1/GPa)
#
#
# Indices 1 2 3 4 5 6 
#
# 1 0.011548 -0.008834 -0.003023 0.000000 0.000000 0.000000
# 2 -0.008834 0.016110 -0.017716 0.000000 0.000000 0.000000
# 3 -0.003023 -0.017716 0.236089 0.000000 0.000000 0.000000
# 4 0.000000 0.000000 0.000000 0.065410 0.000000 0.000000
# 5 0.000000 0.000000 0.000000 0.000000 0.026675 0.000000
# 6 0.000000 0.000000 0.000000 0.000000 0.000000 0.032845
#
#
# Mechanical properties :
#
#
# Convention : Reuss Voigt Hill
#
# Bulk Modulus (GPa) = 4.88754 61.30379 33.09567
# Shear Modulus (GPa) = 9.68945 28.63974 19.16460
#
# Velocity S-wave (km/s) = 2.31066 3.97256 3.24965
# Velocity P-wave (km/s) = 3.13242 7.40417 5.68479
#
# Compressibility (1/GPa) = 0.20460175
#
# Stress axis : x y z
#
# Youngs Moduli (GPa) = 86.59215 62.07152 4.23569
#
# Poissons Ratio (x) = 0.54834 0.01281
# Poissons Ratio (y) = 0.76495 0.07504
# Poissons Ratio (z) = 0.26178 1.09966
#
# Static dielectric constant tensor:
#      x y z
#    x 3.704540 0.000000 0.000000 
#    y 0.000000 3.694870 0.000000 
#    z 0.000000 0.000000 2.653120 
# 
# 
# High freq. dielectric constant tensor:
#      x y z
#    x 1.720950 0.000000 0.000000 
#    y 0.000000 1.705190 0.000000 
#    z 0.000000 0.000000 1.631750 
# 
# From -- ./inp_files/1667.got.cif
#   From: 2010.03.12/outbox.cif.g09.slc.cpg/sg47_1_cif.got.tgz:1667.got - 2010.04.14 03:12:58.
