data_PCOD8196853
_publ_section_title
;
Structure prediction by ZEFSAII (Michael W. Deem and Ramdas Pophale) SiO2 
 PCOD8196853
Probable space group: P M M M
;
_chemical_formula_sum "Si O2"
_cell_formula_units_Z 64
_cell_length_a 14.492058
_cell_length_b 8.849443
_cell_length_c 28.748312
_cell_angle_alpha 90.000000
_cell_angle_beta 90.000000
_cell_angle_gamma 90.000000
_cell_volume 3686.874455
_symmetry_space_group_name_H-M "P M M M"
_symmetry_group_IT_number 47
_symmetry_cell_setting 'orthorhombic'
loop_
_space_group_symop_operation_xyz
x,y,z
-x,-y,z
x,-y,-z
-x,y,-z
-x,-y,-z
x,y,-z
-x,y,z
x,-y,z
loop_
_atom_site_type_symbol
_atom_site_label
_atom_site_fract_x
_atom_site_fract_y
_atom_site_fract_z
Si Si1 0.280591 0.323112 0.949257
Si Si2 0.893100 0.173365 0.198374
Si Si3 0.890720 0.669309 0.449140
Si Si4 0.775393 0.322370 0.723788
Si Si5 0.107018 0.176423 0.356583
Si Si6 0.102868 0.327021 0.897302
Si Si7 0.394611 0.178379 0.765750
Si Si8 0.607177 0.325923 0.862365
O O1 0.301527 0.500000 0.951647
O O2 0.172896 0.291474 0.939027
O O3 0.341806 0.254735 0.907421
O O4 0.304110 0.251054 0.000000
O O5 0.833751 0.279864 0.231069
O O6 0.873176 0.218837 0.145543
O O7 0.000000 0.197225 0.211030
O O8 0.863500 0.000000 0.206055
O O9 0.852968 0.722610 0.500000
O O10 0.854648 0.500000 0.438229
O O11 0.858297 0.782542 0.408591
O O12 0.000000 0.668128 0.451128
O O13 0.764527 0.500000 0.720208
O O14 0.827593 0.264040 0.678482
O O15 0.672844 0.250895 0.727316
O O16 0.000000 0.224639 0.349037
O O17 0.119286 0.000000 0.348076
O O18 0.113202 0.500000 0.880168
O O19 0.000000 0.295353 0.916143
O O20 0.500000 0.230026 0.755497
O O21 0.363255 0.233261 0.816867
O O22 0.385070 0.000000 0.763712
O O23 0.500000 0.309295 0.872647
O O24 0.636027 0.500000 0.854054
#
# Coordination Sequence:
#
# PCOD8196853 Si02
#       8
#     8   8   8   8   8   8   8   8
#     4   9  17  28  43  65  90 114 143 181 224 267
#     4  10  20  33  49  69  94 124 158 195 234 279
#     4   8  14  26  44  65  92 130 175 218 256 293
#     4  12  23  33  49  71  98 130 161 197 241 289
#     4  10  20  32  46  68 101 138 175 213 250 290
#     4   9  17  29  45  64  85 112 149 189 226 266
#     4  10  21  37  56  75  95 121 154 193 237 286
#     4   9  17  30  49  71  92 114 143 180 222 271
#
# _framework density 17.358878000000001
#
# number of rings (size 3 to 8) (size 9 to 14) (size 15 to 20)
#    0.000    2.375    0.000    3.750    0.000    5.500 
#    0.000    3.750    0.000    1.500    0.000    3.500 
#    0.000    0.500    0.000    5.250    0.000    2.500 
#
# Total GULP energy -793435.616463 kJ/mol
# GULP energy per Si atom -12397.431507 kJ/mol
# Density = 1.731937 g / cm^3
# Si number density = 17.358878 Si / 1000 Ang^3
#
#
#
# Elastic Constant Matrix: (Units=GPa)
#
#
# Indices 1 2 3 4 5 6 
#
# 1 71.2871 33.4727 52.3949 0.0000 0.0000 0.0000
# 2 33.4727 72.9685 40.2972 0.0000 0.0000 0.0000
# 3 52.3949 40.2972 97.4766 0.0000 0.0000 0.0000
# 4 0.0000 0.0000 0.0000 8.3911 0.0000 0.0000
# 5 0.0000 0.0000 0.0000 0.0000 15.4882 0.0000
# 6 0.0000 0.0000 0.0000 0.0000 0.0000 19.9475
#
#
#
# Elastic Compliance Matrix: (Units=1/GPa)
#
#
# Indices 1 2 3 4 5 6 
#
# 1 0.024603 -0.005161 -0.011091 0.000000 0.000000 0.000000
# 2 -0.005161 0.018842 -0.005015 0.000000 0.000000 0.000000
# 3 -0.011091 -0.005015 0.018293 0.000000 0.000000 0.000000
# 4 0.000000 0.000000 0.000000 0.119173 0.000000 0.000000
# 5 0.000000 0.000000 0.000000 0.000000 0.064565 0.000000
# 6 0.000000 0.000000 0.000000 0.000000 0.000000 0.050132
#
#
# Mechanical properties :
#
#
# Convention : Reuss Voigt Hill
#
# Bulk Modulus (GPa) = 52.07184 54.89575 53.48379
# Shear Modulus (GPa) = 14.51198 16.46986 15.49092
#
# Velocity S-wave (km/s) = 2.89450 3.08358 2.99053
# Velocity P-wave (km/s) = 6.42131 6.66113 6.54232
#
# Compressibility (1/GPa) = 0.01920424
#
# Stress axis : x y z
#
# Youngs Moduli (GPa) = 40.64616 53.07381 54.66436
#
# Poissons Ratio (x) = 0.27392 0.60626
# Poissons Ratio (y) = 0.20978 0.27415
# Poissons Ratio (z) = 0.45079 0.26617
#
# Static dielectric constant tensor:
#      x y z
#    x 3.260180 0.000000 0.000000 
#    y 0.000000 3.191770 0.000000 
#    z 0.000000 0.000000 3.435320 
# 
# 
# High freq. dielectric constant tensor:
#      x y z
#    x 1.654010 0.000000 0.000000 
#    y 0.000000 1.660820 0.000000 
#    z 0.000000 0.000000 1.660030 
# 
# From -- ./inp_files/8294.got.cif
#   From: 2010.03.12/outbox.cif.g09.slc.cpg/sg47_5_cif.got.tgz:8294.got - 2010.04.14 03:12:58.
