data_PCOD8196245
_publ_section_title
;
Structure prediction by ZEFSAII (Michael W. Deem and Ramdas Pophale) SiO2 
 PCOD8196245
Probable space group: P M M M
;
_chemical_formula_sum "Si O2"
_cell_formula_units_Z 40
_cell_length_a 9.730348
_cell_length_b 9.027672
_cell_length_c 24.121117
_cell_angle_alpha 90.000000
_cell_angle_beta 90.000000
_cell_angle_gamma 90.000000
_cell_volume 2118.856571
_symmetry_space_group_name_H-M "P M M M"
_symmetry_group_IT_number 47
_symmetry_cell_setting 'orthorhombic'
loop_
_space_group_symop_operation_xyz
x,y,z
-x,-y,z
x,-y,-z
-x,y,-z
-x,-y,-z
x,y,-z
-x,y,z
x,-y,z
loop_
_atom_site_type_symbol
_atom_site_label
_atom_site_fract_x
_atom_site_fract_y
_atom_site_fract_z
Si Si1 0.740615 0.325199 0.871633
Si Si2 0.843679 0.324218 0.752497
Si Si3 0.844816 0.828420 0.564684
Si Si4 0.342149 0.675921 0.348752
Si Si5 0.000000 0.674541 0.939596
Si Si6 0.500000 0.175110 0.063558
O O1 0.708905 0.500000 0.875603
O O2 0.765727 0.275339 0.808397
O O3 0.871079 0.272874 0.905509
O O4 0.624925 0.232243 0.900689
O O5 0.854421 0.500000 0.750974
O O6 0.749026 0.263703 0.702564
O O7 0.000000 0.259453 0.749025
O O8 0.822800 0.799418 0.500000
O O9 0.729340 0.733896 0.595650
O O10 0.000000 0.779370 0.581798
O O11 0.823689 0.000000 0.579163
O O12 0.500000 0.733536 0.344386
O O13 0.341270 0.500000 0.349887
O O14 0.000000 0.500000 0.946063
O O15 0.000000 0.750594 0.000000
O O16 0.500000 0.000000 0.061660
O O17 0.500000 0.237428 0.000000
#
# Coordination Sequence:
#
# PCOD8196245 Si02
#       6
#     8   8   8   8   4   4
#     4  10  19  34  59  85 106 136 179 225 271 321
#     4   9  17  32  55  83 111 139 175 223 276 323
#     4   9  19  37  59  81 107 143 188 233 274 317
#     4  10  21  34  52  82 117 149 181 219 267 325
#     4   9  16  28  51  85 113 127 162 227 278 314
#     4  11  25  41  53  73 111 151 182 217 266 325
#
# _framework density 18.878107
#
# number of rings (size 3 to 8) (size 9 to 14) (size 15 to 20)
#    0.000    2.400    1.000    2.100    1.400    4.000 
#    0.000    4.500    0.000    3.000    0.000    0.000 
#    0.000    0.000    0.000    0.000    0.000    0.000 
#
# Total GULP energy -495804.861022 kJ/mol
# GULP energy per Si atom -12395.121526 kJ/mol
# Density = 1.883514 g / cm^3
# Si number density = 18.878107 Si / 1000 Ang^3
#
#
#
# Elastic Constant Matrix: (Units=GPa)
#
#
# Indices 1 2 3 4 5 6 
#
# 1 169.7561 34.8474 80.3476 0.0000 0.0000 0.0000
# 2 34.8474 25.7011 26.3605 0.0000 0.0000 0.0000
# 3 80.3476 26.3605 128.4880 0.0000 0.0000 0.0000
# 4 0.0000 0.0000 0.0000 17.6871 0.0000 0.0000
# 5 0.0000 0.0000 0.0000 0.0000 34.2875 0.0000
# 6 0.0000 0.0000 0.0000 0.0000 0.0000 10.4511
#
#
#
# Elastic Compliance Matrix: (Units=1/GPa)
#
#
# Indices 1 2 3 4 5 6 
#
# 1 0.009719 -0.008795 -0.004273 0.000000 0.000000 0.000000
# 2 -0.008795 0.057236 -0.006243 0.000000 0.000000 0.000000
# 3 -0.004273 -0.006243 0.011736 0.000000 0.000000 0.000000
# 4 0.000000 0.000000 0.000000 0.056538 0.000000 0.000000
# 5 0.000000 0.000000 0.000000 0.000000 0.029165 0.000000
# 6 0.000000 0.000000 0.000000 0.000000 0.000000 0.095684
#
#
# Mechanical properties :
#
#
# Convention : Reuss Voigt Hill
#
# Bulk Modulus (GPa) = 24.95673 67.45069 46.20371
# Shear Modulus (GPa) = 16.02277 24.64445 20.33361
#
# Velocity S-wave (km/s) = 2.91649 3.61702 3.28548
# Velocity P-wave (km/s) = 4.95882 7.29733 6.23862
#
# Compressibility (1/GPa) = 0.04006935
#
# Stress axis : x y z
#
# Youngs Moduli (GPa) = 102.89490 17.47144 85.20971
#
# Poissons Ratio (x) = 0.15365 0.36411
# Poissons Ratio (y) = 0.90491 0.53197
# Poissons Ratio (z) = 0.43968 0.10907
#
# Static dielectric constant tensor:
#      x y z
#    x 3.544850 0.000000 0.000000 
#    y 0.000000 3.000050 0.000000 
#    z 0.000000 0.000000 3.717250 
# 
# 
# High freq. dielectric constant tensor:
#      x y z
#    x 1.747900 0.000000 0.000000 
#    y 0.000000 1.687500 0.000000 
#    z 0.000000 0.000000 1.749530 
# 
# From -- ./inp_files/33025.got.cif
#   From: 2010.03.12/outbox.cif.g09.slc.cpg/sg47_17_cif.got.tgz:33025.got - 2010.04.14 03:12:58.
