data_PCOD8196462
_publ_section_title
;
Structure prediction by ZEFSAII (Michael W. Deem and Ramdas Pophale) SiO2 
 PCOD8196462
Probable space group: P M M M
;
_chemical_formula_sum "Si O2"
_cell_formula_units_Z 56
_cell_length_a 9.096815
_cell_length_b 29.540457
_cell_length_c 13.723735
_cell_angle_alpha 90.000000
_cell_angle_beta 90.000000
_cell_angle_gamma 90.000000
_cell_volume 3687.897957
_symmetry_space_group_name_H-M "P M M M"
_symmetry_group_IT_number 47
_symmetry_cell_setting 'orthorhombic'
loop_
_space_group_symop_operation_xyz
x,y,z
-x,-y,z
x,-y,-z
-x,y,-z
-x,-y,-z
x,y,-z
-x,y,z
x,-y,z
loop_
_atom_site_type_symbol
_atom_site_label
_atom_site_fract_x
_atom_site_fract_y
_atom_site_fract_z
Si Si1 0.825435 0.549471 0.109533
Si Si2 0.670775 0.275990 0.112596
Si Si3 0.824991 0.640090 0.204395
Si Si4 0.173890 0.774649 0.275905
Si Si5 0.665800 0.049419 0.615705
Si Si6 0.826973 0.312424 0.393738
Si Si7 0.826514 0.137193 0.389224
O O1 0.770687 0.500000 0.147509
O O2 0.766741 0.589881 0.177935
O O3 0.000000 0.550154 0.108969
O O4 0.766847 0.557479 0.000000
O O5 0.500000 0.280600 0.139881
O O6 0.750163 0.323565 0.133783
O O7 0.742914 0.235288 0.174812
O O8 0.693029 0.263513 0.000000
O O9 0.777488 0.649258 0.316405
O O10 0.000000 0.645019 0.190717
O O11 0.220196 0.736592 0.354093
O O12 0.227774 0.822273 0.319916
O O13 0.000000 0.773808 0.256022
O O14 0.672598 0.049330 0.500000
O O15 0.500000 0.057513 0.651937
O O16 0.765471 0.090278 0.655803
O O17 0.721731 0.000000 0.653571
O O18 0.753357 0.320989 0.500000
O O19 0.000000 0.313790 0.405894
O O20 0.769651 0.145333 0.500000
O O21 0.000000 0.134336 0.389096
#
# Coordination Sequence:
#
# PCOD8196462 Si02
#       7
#     8   8   8   8   8   8   8
#     4   8  13  21  35  57  81 100 123 161 202 235
#     4  10  20  31  42  58  81 105 127 158 200 238
#     4   9  16  26  43  62  77 101 135 163 189 230
#     4   9  17  28  42  59  78 104 136 164 192 233
#     4   8  14  24  36  51  75 109 145 174 200 234
#     4   8  13  22  37  56  77 101 129 160 192 225
#     4   9  16  25  39  60  84 108 135 169 205 236
#
# _framework density 15.184803
#
# number of rings (size 3 to 8) (size 9 to 14) (size 15 to 20)
#    0.000    3.286    0.000    3.000    0.000    4.286 
#    0.000    1.429    0.000   11.143    0.000    5.000 
#    0.000    0.571    0.000   11.429    0.000   11.143 
#
# Total GULP energy -693919.498093 kJ/mol
# GULP energy per Si atom -12391.419609 kJ/mol
# Density = 1.515024 g / cm^3
# Si number density = 15.184803 Si / 1000 Ang^3
#
#
#
# Elastic Constant Matrix: (Units=GPa)
#
#
# Indices 1 2 3 4 5 6 
#
# 1 31.2139 30.6881 25.4608 0.0000 0.0000 0.0000
# 2 30.6881 152.6284 63.1354 0.0000 0.0000 0.0000
# 3 25.4608 63.1354 91.1133 0.0000 0.0000 0.0000
# 4 0.0000 0.0000 0.0000 22.8036 0.0000 0.0000
# 5 0.0000 0.0000 0.0000 0.0000 13.1438 0.0000
# 6 0.0000 0.0000 0.0000 0.0000 0.0000 10.1250
#
#
#
# Elastic Compliance Matrix: (Units=1/GPa)
#
#
# Indices 1 2 3 4 5 6 
#
# 1 0.044373 -0.005317 -0.008716 0.000000 0.000000 0.000000
# 2 -0.005317 0.009821 -0.005320 0.000000 0.000000 0.000000
# 3 -0.008716 -0.005320 0.017097 0.000000 0.000000 0.000000
# 4 0.000000 0.000000 0.000000 0.043853 0.000000 0.000000
# 5 0.000000 0.000000 0.000000 0.000000 0.076082 0.000000
# 6 0.000000 0.000000 0.000000 0.000000 0.000000 0.098765
#
#
# Mechanical properties :
#
#
# Convention : Reuss Voigt Hill
#
# Bulk Modulus (GPa) = 30.68652 57.05825 43.87239
# Shear Modulus (GPa) = 14.72500 19.59255 17.15878
#
# Velocity S-wave (km/s) = 3.11741 3.59594 3.36519
# Velocity P-wave (km/s) = 5.76283 7.40935 6.63735
#
# Compressibility (1/GPa) = 0.03258759
#
# Stress axis : x y z
#
# Youngs Moduli (GPa) = 22.53606 101.81782 58.48912
#
# Poissons Ratio (x) = 0.54133 0.50977
# Poissons Ratio (y) = 0.11982 0.31116
# Poissons Ratio (z) = 0.19642 0.54166
#
# Static dielectric constant tensor:
#      x y z
#    x 2.680820 0.000000 0.000000 
#    y 0.000000 3.263920 0.000000 
#    z 0.000000 0.000000 2.916090 
# 
# 
# High freq. dielectric constant tensor:
#      x y z
#    x 1.554510 0.000000 0.000000 
#    y 0.000000 1.582950 0.000000 
#    z 0.000000 0.000000 1.553550 
# 
# From -- ./inp_files/8130.got.cif
#   From: 2010.03.12/outbox.cif.g09.slc.cpg/sg47_5_cif.got.tgz:8130.got - 2010.04.14 03:12:58.
