data_PCOD8196222
_publ_section_title
;
Structure prediction by ZEFSAII (Michael W. Deem and Ramdas Pophale) SiO2 
 PCOD8196222
Probable space group: P M M M
;
_chemical_formula_sum "Si O2"
_cell_formula_units_Z 56
_cell_length_a 9.448805
_cell_length_b 21.162914
_cell_length_c 15.021082
_cell_angle_alpha 90.000000
_cell_angle_beta 90.000000
_cell_angle_gamma 90.000000
_cell_volume 3003.679361
_symmetry_space_group_name_H-M "P M M M"
_symmetry_group_IT_number 47
_symmetry_cell_setting 'orthorhombic'
loop_
_space_group_symop_operation_xyz
x,y,z
-x,-y,z
x,-y,-z
-x,y,-z
-x,-y,-z
x,y,-z
-x,y,z
x,-y,z
loop_
_atom_site_type_symbol
_atom_site_label
_atom_site_fract_x
_atom_site_fract_y
_atom_site_fract_z
Si Si1 0.161685 0.071474 0.653145
Si Si2 0.831712 0.500000 0.101236
Si Si3 0.161282 0.748930 0.253182
Si Si4 0.661739 0.188426 0.600409
Si Si5 0.836361 0.391393 0.767460
Si Si6 0.666880 0.928162 0.000000
Si Si7 0.341450 0.574676 0.599076
Si Si8 0.841698 0.874863 0.156135
O O1 0.263548 0.120041 0.603235
O O2 0.175542 0.080502 0.758690
O O3 0.000000 0.084497 0.623351
O O4 0.206630 0.000000 0.628661
O O5 0.776781 0.562163 0.155101
O O6 0.000000 0.500000 0.095010
O O7 0.769517 0.500000 0.000000
O O8 0.262401 0.759710 0.337821
O O9 0.188481 0.681586 0.205281
O O10 0.189836 0.802136 0.179834
O O11 0.000000 0.753811 0.288323
O O12 0.668805 0.214242 0.500000
O O13 0.500000 0.180323 0.632185
O O14 0.763430 0.398908 0.672484
O O15 0.000000 0.407653 0.753003
O O16 0.724414 0.893923 0.086477
O O17 0.500000 0.922719 0.000000
O O18 0.719554 0.000000 0.000000
O O19 0.292605 0.596352 0.500000
O O20 0.500000 0.600110 0.617851
O O21 0.340989 0.500000 0.604589
O O22 0.000000 0.882027 0.116358
#
# Coordination Sequence:
#
# PCOD8196222 Si02
#       8
#     8   4   8   8   8   4   8   8
#     4   9  18  33  54  78 103 135 176 220 267 316
#     4   9  18  34  56  85 114 138 169 217 274 327
#     4   9  20  37  55  77 104 137 179 221 265 314
#     4  10  21  35  51  74 105 142 182 221 262 312
#     4  10  19  34  57  84 110 139 179 225 272 320
#     4  11  23  35  51  79 109 134 165 210 264 318
#     4   9  18  32  50  75 109 147 180 212 261 322
#     4   9  18  35  54  73 100 135 173 213 258 311
#
# _framework density 18.643801
#
# number of rings (size 3 to 8) (size 9 to 14) (size 15 to 20)
#    0.000    2.571    0.714    2.357    0.000    6.571 
#    1.286    5.000    0.000    0.857    0.000    0.000 
#    0.000    0.000    0.000    0.000    0.000    0.000 
#
# Total GULP energy -694266.546230 kJ/mol
# GULP energy per Si atom -12397.616897 kJ/mol
# Density = 1.860137 g / cm^3
# Si number density = 18.643801 Si / 1000 Ang^3
#
#
#
# Elastic Constant Matrix: (Units=GPa)
#
#
# Indices 1 2 3 4 5 6 
#
# 1 78.1994 42.3744 46.7520 0.0000 0.0000 0.0000
# 2 42.3744 119.2133 47.2199 0.0000 0.0000 0.0000
# 3 46.7520 47.2199 100.3770 0.0000 0.0000 0.0000
# 4 0.0000 0.0000 0.0000 13.0387 0.0000 0.0000
# 5 0.0000 0.0000 0.0000 0.0000 -149.0023 0.0000
# 6 0.0000 0.0000 0.0000 0.0000 0.0000 18.1624
#
#
#
# Elastic Compliance Matrix: (Units=1/GPa)
#
#
# Indices 1 2 3 4 5 6 
#
# 1 0.019179 -0.004030 -0.007037 0.000000 0.000000 0.000000
# 2 -0.004030 0.011156 -0.003371 0.000000 0.000000 0.000000
# 3 -0.007037 -0.003371 0.014826 0.000000 0.000000 0.000000
# 4 0.000000 0.000000 0.000000 0.076695 0.000000 0.000000
# 5 0.000000 0.000000 0.000000 0.000000 -0.006711 0.000000
# 6 0.000000 0.000000 0.000000 0.000000 0.000000 0.055059
#
#
# Mechanical properties :
#
#
# Convention : Reuss Voigt Hill
#
# Bulk Modulus (GPa) = 61.40735 63.38692 62.39713
# Shear Modulus (GPa) = 24.44908 -12.79734 5.82587
#
# Velocity S-wave (km/s) = 3.62522 -2.62279 1.76964
# Velocity P-wave (km/s) = 7.10856 4.99006 6.14135
#
# Compressibility (1/GPa) = 0.01628470
#
# Stress axis : x y z
#
# Youngs Moduli (GPa) = 52.14157 89.63794 67.44944
#
# Poissons Ratio (x) = 0.36121 0.47464
# Poissons Ratio (y) = 0.21011 0.22738
# Poissons Ratio (z) = 0.36692 0.30218
#
# Static dielectric constant tensor:
#      x y z
#    x 3.433570 0.000000 0.000000 
#    y 0.000000 3.640480 0.000000 
#    z 0.000000 0.000000 3.447880 
# 
# 
# High freq. dielectric constant tensor:
#      x y z
#    x 1.712010 0.000000 0.000000 
#    y 0.000000 1.728690 0.000000 
#    z 0.000000 0.000000 1.710760 
# 
# From -- ./inp_files/21611.got.cif
#   From: 2010.03.12/outbox.cif.g09.slc.cpg/sg47_11_cif.got.tgz:21611.got - 2010.04.14 03:12:58.
