data_PCOD8196210
_publ_section_title
;
Structure prediction by ZEFSAII (Michael W. Deem and Ramdas Pophale) SiO2 
 PCOD8196210
Probable space group: P M M M
;
_chemical_formula_sum "Si O2"
_cell_formula_units_Z 48
_cell_length_a 9.130757
_cell_length_b 10.080241
_cell_length_c 29.048332
_cell_angle_alpha 90.000000
_cell_angle_beta 90.000000
_cell_angle_gamma 90.000000
_cell_volume 2673.615190
_symmetry_space_group_name_H-M "P M M M"
_symmetry_group_IT_number 47
_symmetry_cell_setting 'orthorhombic'
loop_
_space_group_symop_operation_xyz
x,y,z
-x,-y,z
x,-y,-z
-x,y,-z
-x,-y,-z
x,y,-z
-x,y,z
x,-y,z
loop_
_atom_site_type_symbol
_atom_site_label
_atom_site_fract_x
_atom_site_fract_y
_atom_site_fract_z
Si Si1 0.828716 0.739618 0.101718
Si Si2 0.335377 0.157534 0.711064
Si Si3 0.667983 0.349219 0.553977
Si Si4 0.326473 0.500000 0.946971
Si Si5 0.168893 0.847571 0.800266
Si Si6 0.827656 0.846684 0.620040
Si Si7 0.826109 0.000000 0.948874
O O1 0.733410 0.624821 0.080296
O O2 0.799267 0.754016 0.156101
O O3 0.769694 0.871614 0.077515
O O4 0.000000 0.713667 0.091891
O O5 0.500000 0.213167 0.707824
O O6 0.262175 0.210838 0.757915
O O7 0.245821 0.207155 0.666838
O O8 0.332316 0.000000 0.712427
O O9 0.692455 0.330854 0.500000
O O10 0.500000 0.319044 0.567192
O O11 0.708492 0.500000 0.568431
O O12 0.772519 0.244160 0.578552
O O13 0.500000 0.500000 0.945021
O O14 0.271395 0.500000 0.000000
O O15 0.000000 0.840537 0.785802
O O16 0.210606 0.000000 0.812240
O O17 0.000000 0.830898 0.625371
O O18 0.784614 0.000000 0.610204
O O19 0.000000 0.000000 0.949648
O O20 0.759795 0.000000 0.000000
#
# Coordination Sequence:
#
# PCOD8196210 Si02
#       7
#     8   8   8   4   8   8   4
#     4  10  19  34  57  82 104 134 173 214 260 311
#     4   9  17  29  48  75 106 141 178 212 255 312
#     4   9  19  36  56  77 104 141 182 222 267 320
#     4  11  25  41  53  71 105 145 179 213 258 311
#     4   9  16  29  51  80 110 133 162 210 266 315
#     4  10  20  33  51  78 110 142 178 222 268 310
#     4   9  16  28  51  83 109 127 163 217 260 301
#
# _framework density 17.953219000000001
#
# number of rings (size 3 to 8) (size 9 to 14) (size 15 to 20)
#    0.000    2.500    0.833    2.250    0.000    6.000 
#    0.000    2.917    1.833    1.500    0.000    0.000 
#    0.000    0.000    0.000    0.000    0.000    0.000 
#
# Total GULP energy -595177.091434 kJ/mol
# GULP energy per Si atom -12399.522738 kJ/mol
# Density = 1.791236 g / cm^3
# Si number density = 17.953219 Si / 1000 Ang^3
#
#
#
# Elastic Constant Matrix: (Units=GPa)
#
#
# Indices 1 2 3 4 5 6 
#
# 1 89.8887 46.3143 60.6376 0.0000 0.0000 0.0000
# 2 46.3143 92.2192 54.5172 0.0000 0.0000 0.0000
# 3 60.6376 54.5172 115.2579 0.0000 0.0000 0.0000
# 4 0.0000 0.0000 0.0000 19.4374 0.0000 0.0000
# 5 0.0000 0.0000 0.0000 0.0000 33.8415 0.0000
# 6 0.0000 0.0000 0.0000 0.0000 0.0000 28.2608
#
#
#
# Elastic Compliance Matrix: (Units=1/GPa)
#
#
# Indices 1 2 3 4 5 6 
#
# 1 0.018759 -0.004979 -0.007514 0.000000 0.000000 0.000000
# 2 -0.004979 0.016374 -0.005126 0.000000 0.000000 0.000000
# 3 -0.007514 -0.005126 0.015054 0.000000 0.000000 0.000000
# 4 0.000000 0.000000 0.000000 0.051447 0.000000 0.000000
# 5 0.000000 0.000000 0.000000 0.000000 0.029549 0.000000
# 6 0.000000 0.000000 0.000000 0.000000 0.000000 0.035385
#
#
# Mechanical properties :
#
#
# Convention : Reuss Voigt Hill
#
# Bulk Modulus (GPa) = 66.89078 68.92267 67.90673
# Shear Modulus (GPa) = 24.17910 25.36772 24.77341
#
# Velocity S-wave (km/s) = 3.67384 3.76305 3.71871
# Velocity P-wave (km/s) = 7.43877 7.57326 7.50632
#
# Compressibility (1/GPa) = 0.01494974
#
# Stress axis : x y z
#
# Youngs Moduli (GPa) = 53.30694 61.07077 66.42807
#
# Poissons Ratio (x) = 0.30408 0.49915
# Poissons Ratio (y) = 0.26542 0.34048
# Poissons Ratio (z) = 0.40056 0.31303
#
# Static dielectric constant tensor:
#      x y z
#    x 3.245340 0.000000 0.000000 
#    y 0.000000 2.970930 0.000000 
#    z 0.000000 0.000000 3.442220 
# 
# 
# High freq. dielectric constant tensor:
#      x y z
#    x 1.686970 0.000000 0.000000 
#    y 0.000000 1.669180 0.000000 
#    z 0.000000 0.000000 1.706920 
# 
# From -- ./inp_files/2689.got.cif
#   From: 2010.03.12/outbox.cif.g09.slc.cpg/sg47_2_cif.got.tgz:2689.got - 2010.04.14 03:12:58.
