data_PCOD8196851
_publ_section_title
;
Structure prediction by ZEFSAII (Michael W. Deem and Ramdas Pophale) SiO2 
 PCOD8196851
Probable space group: P M M M
;
_chemical_formula_sum "Si O2"
_cell_formula_units_Z 52
_cell_length_a 27.936209
_cell_length_b 11.751088
_cell_length_c 9.261728
_cell_angle_alpha 90.000000
_cell_angle_beta 90.000000
_cell_angle_gamma 90.000000
_cell_volume 3040.447944
_symmetry_space_group_name_H-M "P M M M"
_symmetry_group_IT_number 47
_symmetry_cell_setting 'orthorhombic'
loop_
_space_group_symop_operation_xyz
x,y,z
-x,-y,z
x,-y,-z
-x,y,-z
-x,-y,-z
x,y,-z
-x,y,z
x,-y,z
loop_
_atom_site_type_symbol
_atom_site_label
_atom_site_fract_x
_atom_site_fract_y
_atom_site_fract_z
Si Si1 0.335740 0.500000 0.159714
Si Si2 0.242664 0.500000 0.330576
Si Si3 0.104073 0.365131 0.831194
Si Si4 0.266854 0.867393 0.167717
Si Si5 0.364281 0.251577 0.836051
Si Si6 0.000000 0.376541 0.830172
Si Si7 0.553696 0.871094 0.669507
Si Si8 0.808629 0.274218 0.672351
O O1 0.296888 0.500000 0.283228
O O2 0.367577 0.612295 0.177793
O O3 0.311467 0.500000 0.000000
O O4 0.240487 0.500000 0.500000
O O5 0.217118 0.388151 0.270766
O O6 0.109092 0.500000 0.793348
O O7 0.138092 0.284155 0.736127
O O8 0.050609 0.317724 0.789066
O O9 0.115122 0.346177 0.000000
O O10 0.313512 0.797255 0.221698
O O11 0.220571 0.831352 0.260896
O O12 0.276765 0.000000 0.194989
O O13 0.256337 0.841518 0.000000
O O14 0.408366 0.208813 0.744423
O O15 0.370745 0.210004 0.000000
O O16 0.000000 0.500000 0.754986
O O17 0.000000 0.395169 0.000000
O O18 0.561091 0.861104 0.500000
O O19 0.500000 0.832551 0.712224
O O20 0.562331 0.000000 0.720869
O O21 0.810534 0.261594 0.500000
#
# Coordination Sequence:
#
# PCOD8196851 Si02
#       8
#     4   4   8   8   8   4   8   8
#     4  10  20  34  53  75 101 132 166 202 242 294
#     4  10  20  32  46  68 100 134 169 205 235 282
#     4   9  16  27  46  69  96 131 168 205 246 291
#     4  10  21  36  53  74  99 128 167 210 248 293
#     4  10  20  34  54  79 103 129 162 202 248 294
#     4   7  12  24  41  65  94 125 164 205 243 289
#     4   9  19  36  56  77 101 131 168 207 246 290
#     4  11  21  32  47  71 103 134 167 204 246 296
#
# _framework density 17.102743
#
# number of rings (size 3 to 8) (size 9 to 14) (size 15 to 20)
#    0.000    2.385    2.308    2.308    0.000    3.385 
#    0.000    1.538    0.000    3.692    0.000    0.538 
#    0.000    4.308    0.000    0.000    0.000    0.000 
#
# Total GULP energy -644533.533938 kJ/mol
# GULP energy per Si atom -12394.875653 kJ/mol
# Density = 1.706382 g / cm^3
# Si number density = 17.102743 Si / 1000 Ang^3
#
#
#
# Elastic Constant Matrix: (Units=GPa)
#
#
# Indices 1 2 3 4 5 6 
#
# 1 132.0446 49.3497 45.7517 0.0000 0.0000 0.0000
# 2 49.3497 82.8299 31.1763 0.0000 0.0000 0.0000
# 3 45.7517 31.1763 44.7978 0.0000 0.0000 0.0000
# 4 0.0000 0.0000 0.0000 23.1914 0.0000 0.0000
# 5 0.0000 0.0000 0.0000 0.0000 25.9819 0.0000
# 6 0.0000 0.0000 0.0000 0.0000 0.0000 18.5982
#
#
#
# Elastic Compliance Matrix: (Units=1/GPa)
#
#
# Indices 1 2 3 4 5 6 
#
# 1 0.012453 -0.003567 -0.010236 0.000000 0.000000 0.000000
# 2 -0.003567 0.017379 -0.008452 0.000000 0.000000 0.000000
# 3 -0.010236 -0.008452 0.038658 0.000000 0.000000 0.000000
# 4 0.000000 0.000000 0.000000 0.043119 0.000000 0.000000
# 5 0.000000 0.000000 0.000000 0.000000 0.038488 0.000000
# 6 0.000000 0.000000 0.000000 0.000000 0.000000 0.053769
#
#
# Mechanical properties :
#
#
# Convention : Reuss Voigt Hill
#
# Bulk Modulus (GPa) = 41.69939 56.91421 49.30680
# Shear Modulus (GPa) = 19.50309 22.44727 20.97518
#
# Velocity S-wave (km/s) = 3.38057 3.62677 3.50583
# Velocity P-wave (km/s) = 6.29859 7.13358 6.72905
#
# Compressibility (1/GPa) = 0.02398116
#
# Stress axis : x y z
#
# Youngs Moduli (GPa) = 80.30369 57.53990 25.86765
#
# Poissons Ratio (x) = 0.20523 0.26477
# Poissons Ratio (y) = 0.28642 0.21864
# Poissons Ratio (z) = 0.82197 0.48634
#
# Static dielectric constant tensor:
#      x y z
#    x 3.292120 0.000000 0.000000 
#    y 0.000000 3.068960 0.000000 
#    z 0.000000 0.000000 3.024620 
# 
# 
# High freq. dielectric constant tensor:
#      x y z
#    x 1.662800 0.000000 0.000000 
#    y 0.000000 1.635200 0.000000 
#    z 0.000000 0.000000 1.649510 
# 
# From -- ./inp_files/13302.got.cif
#   From: 2010.03.12/outbox.cif.g09.slc.cpg/sg47_7_cif.got.tgz:13302.got - 2010.04.14 03:12:58.
