data_PCOD8196840
_publ_section_title
;
Structure prediction by ZEFSAII (Michael W. Deem and Ramdas Pophale) SiO2 
 PCOD8196840
Probable space group: P M M M
;
_chemical_formula_sum "Si O2"
_cell_formula_units_Z 52
_cell_length_a 30.228320
_cell_length_b 10.353935
_cell_length_c 9.055117
_cell_angle_alpha 90.000000
_cell_angle_beta 90.000000
_cell_angle_gamma 90.000000
_cell_volume 2834.089176
_symmetry_space_group_name_H-M "P M M M"
_symmetry_group_IT_number 47
_symmetry_cell_setting 'orthorhombic'
loop_
_space_group_symop_operation_xyz
x,y,z
-x,-y,z
x,-y,-z
-x,y,-z
-x,-y,-z
x,y,-z
-x,y,z
x,-y,z
loop_
_atom_site_type_symbol
_atom_site_label
_atom_site_fract_x
_atom_site_fract_y
_atom_site_fract_z
Si Si1 0.787137 0.845522 0.833928
Si Si2 0.611912 0.148785 0.825778
Si Si3 0.949318 0.243473 0.825503
Si Si4 0.947748 0.500000 0.335263
Si Si5 0.447954 0.353768 0.330457
Si Si6 0.701119 0.846949 0.665657
Si Si7 0.129343 0.145822 0.338150
O O1 0.744154 0.791661 0.748868
O O2 0.830885 0.787927 0.753548
O O3 0.787510 0.000000 0.837124
O O4 0.786469 0.790856 0.000000
O O5 0.573977 0.245531 0.772064
O O6 0.657446 0.196180 0.752486
O O7 0.600574 0.000000 0.781124
O O8 0.617234 0.160348 0.000000
O O9 0.932060 0.377346 0.757389
O O10 0.916583 0.140246 0.753403
O O11 0.000000 0.211522 0.781525
O O12 0.944022 0.246613 0.000000
O O13 0.927050 0.500000 0.500000
O O14 0.000000 0.500000 0.346504
O O15 0.434756 0.327205 0.500000
O O16 0.500000 0.339647 0.308557
O O17 0.433341 0.500000 0.285870
O O18 0.699617 0.789903 0.500000
O O19 0.704142 0.000000 0.660822
O O20 0.123302 0.212271 0.500000
O O21 0.143981 0.000000 0.364194
#
# Coordination Sequence:
#
# PCOD8196840 Si02
#       7
#     8   8   8   4   8   8   8
#     4   9  16  27  44  66  94 126 159 197 241 288
#     4  10  20  32  48  75 108 137 169 212 261 309
#     4  10  20  33  49  69  93 121 155 196 241 287
#     4   9  17  31  51  71  89 111 145 189 233 277
#     4   9  19  36  55  74  99 135 179 221 260 307
#     4   9  16  27  45  69  97 128 162 201 245 291
#     4  10  20  32  46  67  96 129 164 198 235 285
#
# _framework density 18.348044999999999
#
# number of rings (size 3 to 8) (size 9 to 14) (size 15 to 20)
#    0.000    2.538    0.000    3.000    0.000    8.615 
#    0.000    3.846    0.000    0.000    2.000    0.000 
#    0.000    0.000    0.000    0.000    0.000    0.000 
#
# Total GULP energy -644577.164391 kJ/mol
# GULP energy per Si atom -12395.714700 kJ/mol
# Density = 1.830628 g / cm^3
# Si number density = 18.348045 Si / 1000 Ang^3
#
#
#
# Elastic Constant Matrix: (Units=GPa)
#
#
# Indices 1 2 3 4 5 6 
#
# 1 107.1977 32.0373 65.3497 0.0000 0.0000 0.0000
# 2 32.0373 44.8114 31.4676 0.0000 0.0000 0.0000
# 3 65.3497 31.4676 143.9682 0.0000 0.0000 0.0000
# 4 0.0000 0.0000 0.0000 23.4865 0.0000 0.0000
# 5 0.0000 0.0000 0.0000 0.0000 38.1898 0.0000
# 6 0.0000 0.0000 0.0000 0.0000 0.0000 4.2162
#
#
#
# Elastic Compliance Matrix: (Units=1/GPa)
#
#
# Indices 1 2 3 4 5 6 
#
# 1 0.014446 -0.006761 -0.005079 0.000000 0.000000 0.000000
# 2 -0.006761 0.029526 -0.003385 0.000000 0.000000 0.000000
# 3 -0.005079 -0.003385 0.009991 0.000000 0.000000 0.000000
# 4 0.000000 0.000000 0.000000 0.042578 0.000000 0.000000
# 5 0.000000 0.000000 0.000000 0.000000 0.026185 0.000000
# 6 0.000000 0.000000 0.000000 0.000000 0.000000 0.237181
#
#
# Mechanical properties :
#
#
# Convention : Reuss Voigt Hill
#
# Bulk Modulus (GPa) = 42.52920 61.52071 52.02496
# Shear Modulus (GPa) = 12.55669 24.32002 18.43835
#
# Velocity S-wave (km/s) = 2.61887 3.64467 3.17349
# Velocity P-wave (km/s) = 5.68982 7.16339 6.46870
#
# Compressibility (1/GPa) = 0.02351325
#
# Stress axis : x y z
#
# Youngs Moduli (GPa) = 69.22525 33.86821 100.08595
#
# Poissons Ratio (x) = 0.22898 0.50837
# Poissons Ratio (y) = 0.46802 0.33877
# Poissons Ratio (z) = 0.35162 0.11464
#
# Static dielectric constant tensor:
#      x y z
#    x 3.358510 0.000000 0.000000 
#    y 0.000000 3.036960 0.000000 
#    z 0.000000 0.000000 3.620540 
# 
# 
# High freq. dielectric constant tensor:
#      x y z
#    x 1.711190 0.000000 0.000000 
#    y 0.000000 1.658570 0.000000 
#    z 0.000000 0.000000 1.729780 
# 
# From -- ./inp_files/13236.got.cif
#   From: 2010.03.12/outbox.cif.g09.slc.cpg/sg47_7_cif.got.tgz:13236.got - 2010.04.14 03:12:58.
