data_PCOD8196935
_publ_section_title
;
Structure prediction by ZEFSAII (Michael W. Deem and Ramdas Pophale) SiO2 
 PCOD8196935
Probable space group: P M M M
;
_chemical_formula_sum "Si O2"
_cell_formula_units_Z 56
_cell_length_a 13.961343
_cell_length_b 9.245643
_cell_length_c 23.657185
_cell_angle_alpha 90.000000
_cell_angle_beta 90.000000
_cell_angle_gamma 90.000000
_cell_volume 3053.707130
_symmetry_space_group_name_H-M "P M M M"
_symmetry_group_IT_number 47
_symmetry_cell_setting 'orthorhombic'
loop_
_space_group_symop_operation_xyz
x,y,z
-x,-y,z
x,-y,-z
-x,y,-z
-x,-y,-z
x,y,-z
-x,y,z
x,-y,z
loop_
_atom_site_type_symbol
_atom_site_label
_atom_site_fract_x
_atom_site_fract_y
_atom_site_fract_z
Si Si1 0.109327 0.166985 0.565617
Si Si2 0.386623 0.163194 0.161684
Si Si3 0.892144 0.335096 0.867086
Si Si4 0.712588 0.666664 0.936192
Si Si5 0.789591 0.668597 0.660153
Si Si6 0.113473 0.162498 0.240707
Si Si7 0.391637 0.333130 0.271470
O O1 0.130832 0.192402 0.500000
O O2 0.185539 0.263085 0.599609
O O3 0.000000 0.212827 0.579835
O O4 0.124099 0.000000 0.582084
O O5 0.500000 0.167788 0.161115
O O6 0.352363 0.240165 0.105040
O O7 0.350321 0.243152 0.218414
O O8 0.347313 0.000000 0.162906
O O9 0.889344 0.500000 0.845084
O O10 0.824825 0.314033 0.921376
O O11 0.849749 0.234964 0.817286
O O12 0.000000 0.290511 0.884516
O O13 0.681628 0.500000 0.930146
O O14 0.697007 0.721866 0.000000
O O15 0.814308 0.500000 0.658691
O O16 0.855298 0.743690 0.706409
O O17 0.677383 0.695104 0.674856
O O18 0.000000 0.160972 0.240057
O O19 0.154891 0.000000 0.245021
O O20 0.500000 0.286602 0.288144
O O21 0.388571 0.500000 0.252992
#
# Coordination Sequence:
#
# PCOD8196935 Si02
#       7
#     8   8   8   8   8   8   8
#     4   9  19  36  55  75 104 143 180 209 242 288
#     4  10  21  36  54  76 100 126 159 202 252 301
#     4   9  18  33  51  70  95 126 160 202 248 291
#     4  10  21  35  51  72  96 125 163 202 243 297
#     4  11  21  31  50  79 105 131 167 210 251 290
#     4  10  20  32  47  70 101 134 164 196 242 301
#     4   9  19  36  55  75 102 134 165 200 247 302
#
# _framework density 18.338366000000001
#
# number of rings (size 3 to 8) (size 9 to 14) (size 15 to 20)
#    0.000    2.286    0.000    3.000    0.000   10.000 
#    0.000    3.571    0.000    0.429    0.000    6.000 
#    0.000    0.000    0.000    0.000    0.000    0.000 
#
# Total GULP energy -694455.583631 kJ/mol
# GULP energy per Si atom -12400.992565 kJ/mol
# Density = 1.829663 g / cm^3
# Si number density = 18.338366 Si / 1000 Ang^3
#
#
#
# Elastic Constant Matrix: (Units=GPa)
#
#
# Indices 1 2 3 4 5 6 
#
# 1 49.3632 40.5907 46.3257 0.0000 0.0000 0.0000
# 2 40.5907 105.7157 63.0571 0.0000 0.0000 0.0000
# 3 46.3257 63.0571 110.4172 0.0000 0.0000 0.0000
# 4 0.0000 0.0000 0.0000 19.0577 0.0000 0.0000
# 5 0.0000 0.0000 0.0000 0.0000 28.8800 0.0000
# 6 0.0000 0.0000 0.0000 0.0000 0.0000 23.2815
#
#
#
# Elastic Compliance Matrix: (Units=1/GPa)
#
#
# Indices 1 2 3 4 5 6 
#
# 1 0.036954 -0.007494 -0.011225 0.000000 0.000000 0.000000
# 2 -0.007494 0.015866 -0.005917 0.000000 0.000000 0.000000
# 3 -0.011225 -0.005917 0.017145 0.000000 0.000000 0.000000
# 4 0.000000 0.000000 0.000000 0.052472 0.000000 0.000000
# 5 0.000000 0.000000 0.000000 0.000000 0.034626 0.000000
# 6 0.000000 0.000000 0.000000 0.000000 0.000000 0.042953
#
#
# Mechanical properties :
#
#
# Convention : Reuss Voigt Hill
#
# Bulk Modulus (GPa) = 48.32178 62.82699 55.57438
# Shear Modulus (GPa) = 19.51731 21.94535 20.73133
#
# Velocity S-wave (km/s) = 3.26588 3.46307 3.36592
# Velocity P-wave (km/s) = 6.37406 7.09399 6.74364
#
# Compressibility (1/GPa) = 0.02069460
#
# Stress axis : x y z
#
# Youngs Moduli (GPa) = 27.06087 63.02897 58.32706
#
# Poissons Ratio (x) = 0.47231 0.65469
# Poissons Ratio (y) = 0.20278 0.34510
# Poissons Ratio (z) = 0.30375 0.37292
#
# Static dielectric constant tensor:
#      x y z
#    x 3.430680 0.000000 0.000000 
#    y 0.000000 3.594190 0.000000 
#    z 0.000000 0.000000 3.252120 
# 
# 
# High freq. dielectric constant tensor:
#      x y z
#    x 1.712430 0.000000 0.000000 
#    y 0.000000 1.715080 0.000000 
#    z 0.000000 0.000000 1.694380 
# 
# From -- ./inp_files/7259.got.cif
#   From: 2010.03.12/outbox.cif.g09.slc.cpg/sg47_4_cif.got.tgz:7259.got - 2010.04.14 03:12:58.
