data_PCOD8196918
_publ_section_title
;
Structure prediction by ZEFSAII (Michael W. Deem and Ramdas Pophale) SiO2 
 PCOD8196918
Probable space group: P M M M
;
_chemical_formula_sum "Si O2"
_cell_formula_units_Z 64
_cell_length_a 23.058281
_cell_length_b 17.646957
_cell_length_c 9.303248
_cell_angle_alpha 90.000000
_cell_angle_beta 90.000000
_cell_angle_gamma 90.000000
_cell_volume 3785.570626
_symmetry_space_group_name_H-M "P M M M"
_symmetry_group_IT_number 47
_symmetry_cell_setting 'orthorhombic'
loop_
_space_group_symop_operation_xyz
x,y,z
-x,-y,z
x,-y,-z
-x,y,-z
-x,-y,-z
x,y,-z
-x,y,z
x,-y,z
loop_
_atom_site_type_symbol
_atom_site_label
_atom_site_fract_x
_atom_site_fract_y
_atom_site_fract_z
Si Si1 0.144686 0.681182 0.661824
Si Si2 0.068491 0.788629 0.165861
Si Si3 0.239131 0.812010 0.657921
Si Si4 0.682140 0.713053 0.832969
Si Si5 0.431318 0.082693 0.660018
Si Si6 0.861890 0.087406 0.669072
Si Si7 0.435656 0.226845 0.167984
Si Si8 0.769974 0.413497 0.167996
O O1 0.125341 0.657840 0.500000
O O2 0.090418 0.713095 0.752240
O O3 0.192094 0.746033 0.655183
O O4 0.172645 0.609124 0.743195
O O5 0.092233 0.865048 0.238876
O O6 0.000000 0.790258 0.178072
O O7 0.089095 0.785650 0.000000
O O8 0.266263 0.823856 0.500000
O O9 0.290889 0.788793 0.762932
O O10 0.204297 0.887337 0.707499
O O11 0.613006 0.709134 0.795863
O O12 0.714171 0.636330 0.781609
O O13 0.691772 0.724417 0.000000
O O14 0.407640 0.100076 0.500000
O O15 0.500000 0.080090 0.657136
O O16 0.411326 0.148787 0.766156
O O17 0.407816 0.000000 0.711522
O O18 0.873526 0.102446 0.500000
O O19 0.869571 0.000000 0.710138
O O20 0.500000 0.250192 0.227710
O O21 0.440238 0.213174 0.000000
O O22 0.754072 0.500000 0.202357
O O23 0.783199 0.401015 0.000000
#
# Coordination Sequence:
#
# PCOD8196918 Si02
#       8
#     8   8   8   8   8   8   8   8
#     4   9  17  30  49  71  94 120 151 188 228 271
#     4  10  20  32  47  69  97 129 164 198 231 270
#     4   8  15  28  45  64  85 112 148 189 233 275
#     4   9  17  29  45  65  89 116 148 185 224 272
#     4   8  14  25  40  57  77 102 136 179 221 258
#     4   9  18  32  48  66  91 124 161 201 243 283
#     4   9  17  28  42  61  87 120 154 187 224 267
#     4   9  17  30  50  74  97 120 146 181 228 278
#
# _framework density 16.906302
#
# number of rings (size 3 to 8) (size 9 to 14) (size 15 to 20)
#    0.000    3.125    0.000    1.875    0.000    5.500 
#    0.000    3.125    0.000    3.000    0.000    5.250 
#    0.000    0.000    0.000    9.375    0.000    9.750 
#
# Total GULP energy -793028.432314 kJ/mol
# GULP energy per Si atom -12391.069255 kJ/mol
# Density = 1.686782 g / cm^3
# Si number density = 16.906302 Si / 1000 Ang^3
#
#
#
# Elastic Constant Matrix: (Units=GPa)
#
#
# Indices 1 2 3 4 5 6 
#
# 1 87.6360 50.7263 44.3480 0.0000 0.0000 0.0000
# 2 50.7263 89.7442 41.9050 0.0000 0.0000 0.0000
# 3 44.3480 41.9050 68.4121 0.0000 0.0000 0.0000
# 4 0.0000 0.0000 0.0000 21.2632 0.0000 0.0000
# 5 0.0000 0.0000 0.0000 0.0000 16.3037 0.0000
# 6 0.0000 0.0000 0.0000 0.0000 0.0000 18.3872
#
#
#
# Elastic Compliance Matrix: (Units=1/GPa)
#
#
# Indices 1 2 3 4 5 6 
#
# 1 0.019911 -0.007322 -0.008423 0.000000 0.000000 0.000000
# 2 -0.007322 0.018299 -0.006462 0.000000 0.000000 0.000000
# 3 -0.008423 -0.006462 0.024036 0.000000 0.000000 0.000000
# 4 0.000000 0.000000 0.000000 0.047030 0.000000 0.000000
# 5 0.000000 0.000000 0.000000 0.000000 0.061336 0.000000
# 6 0.000000 0.000000 0.000000 0.000000 0.000000 0.054386
#
#
# Mechanical properties :
#
#
# Convention : Reuss Voigt Hill
#
# Bulk Modulus (GPa) = 56.07803 57.75011 56.91407
# Shear Modulus (GPa) = 18.15847 18.44501 18.30174
#
# Velocity S-wave (km/s) = 3.28085 3.30663 3.29377
# Velocity P-wave (km/s) = 6.89883 6.98652 6.94282
#
# Compressibility (1/GPa) = 0.01783229
#
# Stress axis : x y z
#
# Youngs Moduli (GPa) = 50.22362 54.64861 41.60473
#
# Poissons Ratio (x) = 0.40011 0.35042
# Poissons Ratio (y) = 0.36771 0.26887
# Poissons Ratio (z) = 0.42301 0.35317
#
# Static dielectric constant tensor:
#      x y z
#    x 3.198860 0.000000 0.000000 
#    y 0.000000 3.211110 0.000000 
#    z 0.000000 0.000000 3.338970 
# 
# 
# High freq. dielectric constant tensor:
#      x y z
#    x 1.637520 0.000000 0.000000 
#    y 0.000000 1.627540 0.000000 
#    z 0.000000 0.000000 1.653080 
# 
# From -- ./inp_files/12907.got.cif
#   From: 2010.03.12/outbox.cif.g09.slc.cpg/sg47_7_cif.got.tgz:12907.got - 2010.04.14 03:12:58.
