data_PCOD8196718
_publ_section_title
;
Structure prediction by ZEFSAII (Michael W. Deem and Ramdas Pophale) SiO2 
 PCOD8196718
Probable space group: P M M M
;
_chemical_formula_sum "Si O2"
_cell_formula_units_Z 52
_cell_length_a 25.509481
_cell_length_b 17.539105
_cell_length_c 9.094337
_cell_angle_alpha 90.000000
_cell_angle_beta 90.000000
_cell_angle_gamma 90.000000
_cell_volume 4068.928836
_symmetry_space_group_name_H-M "P M M M"
_symmetry_group_IT_number 47
_symmetry_cell_setting 'orthorhombic'
loop_
_space_group_symop_operation_xyz
x,y,z
-x,-y,z
x,-y,-z
-x,y,-z
-x,-y,-z
x,y,-z
-x,y,z
x,-y,z
loop_
_atom_site_type_symbol
_atom_site_label
_atom_site_fract_x
_atom_site_fract_y
_atom_site_fract_z
Si Si1 0.657674 0.591033 0.334865
Si Si2 0.061695 0.699749 0.170509
Si Si3 0.557666 0.590643 0.834699
Si Si4 0.062542 0.000000 0.833438
Si Si5 0.759190 0.590706 0.834297
Si Si6 0.137051 0.589882 0.670117
Si Si7 0.937630 0.851202 0.333722
O O1 0.663314 0.621923 0.500000
O O2 0.657422 0.500000 0.332548
O O3 0.603363 0.623945 0.268719
O O4 0.706374 0.622699 0.240472
O O5 0.088466 0.627799 0.247142
O O6 0.082240 0.776829 0.247307
O O7 0.000000 0.689547 0.192294
O O8 0.077146 0.703134 0.000000
O O9 0.500000 0.617070 0.778021
O O10 0.560332 0.500000 0.834328
O O11 0.566940 0.620700 0.000000
O O12 0.084298 0.074366 0.749497
O O13 0.000000 0.000000 0.833925
O O14 0.083959 0.000000 0.000000
O O15 0.757738 0.500000 0.835092
O O16 0.808945 0.619588 0.741677
O O17 0.762902 0.622665 0.000000
O O18 0.136979 0.613472 0.500000
O O19 0.130660 0.500000 0.690533
O O20 0.915706 0.849755 0.500000
O O21 0.000000 0.853445 0.334907
#
# Coordination Sequence:
#
# PCOD8196718 Si02
#       7
#     8   8   8   4   8   8   8
#     4   9  15  21  30  44  60  76  95 121 153 188
#     4  10  20  32  44  57  73  92 113 137 167 205
#     4   8  13  20  28  38  54  76  99 120 144 179
#     4   9  15  23  37  57  79  99 117 135 155 183
#     4   9  16  26  39  51  62  77  99 128 162 199
#     4  10  20  32  44  56  69  85 108 140 176 212
#     4   9  16  26  40  57  76  96 116 136 159 189
#
# _framework density 12.779776
#
# number of rings (size 3 to 8) (size 9 to 14) (size 15 to 20)
#    0.000    2.846    0.000    3.000    0.000    8.923 
#    0.000    3.077    0.000    0.000    0.000    0.000 
#    0.000    0.000    0.000    0.000    0.000    0.000 
#
# Total GULP energy -644651.435493 kJ/mol
# GULP energy per Si atom -12397.142990 kJ/mol
# Density = 1.275069 g / cm^3
# Si number density = 12.779776 Si / 1000 Ang^3
#
#
#
# Elastic Constant Matrix: (Units=GPa)
#
#
# Indices 1 2 3 4 5 6 
#
# 1 59.8958 24.2146 48.5560 0.0000 0.0000 0.0000
# 2 24.2146 31.1911 31.9308 0.0000 0.0000 0.0000
# 3 48.5560 31.9308 125.9340 0.0000 0.0000 0.0000
# 4 0.0000 0.0000 0.0000 16.9569 0.0000 0.0000
# 5 0.0000 0.0000 0.0000 0.0000 22.3397 0.0000
# 6 0.0000 0.0000 0.0000 0.0000 0.0000 0.4145
#
#
#
# Elastic Compliance Matrix: (Units=1/GPa)
#
#
# Indices 1 2 3 4 5 6 
#
# 1 0.028539 -0.014709 -0.007274 0.000000 0.000000 0.000000
# 2 -0.014709 0.050881 -0.007229 0.000000 0.000000 0.000000
# 3 -0.007274 -0.007229 0.012578 0.000000 0.000000 0.000000
# 4 0.000000 0.000000 0.000000 0.058973 0.000000 0.000000
# 5 0.000000 0.000000 0.000000 0.000000 0.044763 0.000000
# 6 0.000000 0.000000 0.000000 0.000000 0.000000 2.412514
#
#
# Mechanical properties :
#
#
# Convention : Reuss Voigt Hill
#
# Bulk Modulus (GPa) = 29.78629 47.38039 38.58334
# Shear Modulus (GPa) = 1.86716 15.43019 8.64867
#
# Velocity S-wave (km/s) = 1.21004 3.47852 2.60426
# Velocity P-wave (km/s) = 5.03093 7.29990 6.26892
#
# Compressibility (1/GPa) = 0.03357249
#
# Stress axis : x y z
#
# Youngs Moduli (GPa) = 35.03934 19.65386 79.50102
#
# Poissons Ratio (x) = 0.28909 0.57832
# Poissons Ratio (y) = 0.51540 0.57475
# Poissons Ratio (z) = 0.25489 0.14209
#
# Static dielectric constant tensor:
#      x y z
#    x 2.561930 0.000000 0.000000 
#    y 0.000000 2.210790 0.000000 
#    z 0.000000 0.000000 2.836710 
# 
# 
# High freq. dielectric constant tensor:
#      x y z
#    x 1.465780 0.000000 0.000000 
#    y 0.000000 1.422850 0.000000 
#    z 0.000000 0.000000 1.507890 
# 
# From -- ./inp_files/7622.got.cif
#   From: 2010.03.12/outbox.cif.g09.slc.cpg/sg47_4_cif.got.tgz:7622.got - 2010.04.14 03:12:58.
