data_PCOD8196803
_publ_section_title
;
Structure prediction by ZEFSAII (Michael W. Deem and Ramdas Pophale) SiO2 
 PCOD8196803
Probable space group: P M M M
;
_chemical_formula_sum "Si O2"
_cell_formula_units_Z 36
_cell_length_a 13.667176
_cell_length_b 9.069946
_cell_length_c 16.398810
_cell_angle_alpha 90.000000
_cell_angle_beta 90.000000
_cell_angle_gamma 90.000000
_cell_volume 2032.805479
_symmetry_space_group_name_H-M "P M M M"
_symmetry_group_IT_number 47
_symmetry_cell_setting 'orthorhombic'
loop_
_space_group_symop_operation_xyz
x,y,z
-x,-y,z
x,-y,-z
-x,y,-z
-x,-y,-z
x,y,-z
-x,y,z
x,-y,z
loop_
_atom_site_type_symbol
_atom_site_label
_atom_site_fract_x
_atom_site_fract_y
_atom_site_fract_z
Si Si1 0.611967 0.169319 0.681914
Si Si2 0.610863 0.675196 0.000000
Si Si3 0.107094 0.326073 0.745845
Si Si4 0.774246 0.671743 0.591591
Si Si5 0.700858 0.675192 0.168042
O O1 0.500000 0.185862 0.655512
O O2 0.675462 0.238769 0.609239
O O3 0.628336 0.254062 0.766626
O O4 0.642001 0.000000 0.694343
O O5 0.669586 0.732826 0.078999
O O6 0.607511 0.500000 0.000000
O O7 0.500000 0.737893 0.000000
O O8 0.097020 0.500000 0.749717
O O9 0.142032 0.278255 0.655282
O O10 0.187160 0.274328 0.812847
O O11 0.000000 0.254645 0.763454
O O12 0.810791 0.705740 0.500000
O O13 0.749914 0.500000 0.603564
O O14 0.690384 0.500000 0.175192
#
# Coordination Sequence:
#
# PCOD8196803 Si02
#       5
#     8   4   8   8   8
#     4  10  20  32  46  65  91 123 154 186 229 274
#     4   9  16  26  44  70  96 121 151 189 228 263
#     4   8  14  26  45  68  93 119 147 184 229 271
#     4   9  18  31  47  68  91 117 152 190 226 269
#     4   9  17  30  48  69  92 120 155 189 223 269
#
# _framework density 17.709515
#
# number of rings (size 3 to 8) (size 9 to 14) (size 15 to 20)
#    0.000    3.000    0.000    2.667    0.000    4.000 
#    0.000    5.556    0.000   16.000    0.000    6.222 
#    0.000    7.111    0.000    0.000    0.000    0.000 
#
# Total GULP energy -446221.596643 kJ/mol
# GULP energy per Si atom -12395.044351 kJ/mol
# Density = 1.766921 g / cm^3
# Si number density = 17.709515 Si / 1000 Ang^3
#
#
#
# Elastic Constant Matrix: (Units=GPa)
#
#
# Indices 1 2 3 4 5 6 
#
# 1 139.8878 21.5091 62.1399 0.0000 0.0000 0.0000
# 2 21.5091 33.0451 12.5795 0.0000 0.0000 0.0000
# 3 62.1399 12.5795 126.1780 0.0000 0.0000 0.0000
# 4 0.0000 0.0000 0.0000 7.5317 0.0000 0.0000
# 5 0.0000 0.0000 0.0000 0.0000 18.2380 0.0000
# 6 0.0000 0.0000 0.0000 0.0000 0.0000 9.5244
#
#
#
# Elastic Compliance Matrix: (Units=1/GPa)
#
#
# Indices 1 2 3 4 5 6 
#
# 1 0.009813 -0.004727 -0.004361 0.000000 0.000000 0.000000
# 2 -0.004727 0.033732 -0.001035 0.000000 0.000000 0.000000
# 3 -0.004361 -0.001035 0.010176 0.000000 0.000000 0.000000
# 4 0.000000 0.000000 0.000000 0.132773 0.000000 0.000000
# 5 0.000000 0.000000 0.000000 0.000000 0.054831 0.000000
# 6 0.000000 0.000000 0.000000 0.000000 0.000000 0.104993
#
#
# Mechanical properties :
#
#
# Convention : Reuss Voigt Hill
#
# Bulk Modulus (GPa) = 29.87307 54.61865 42.24586
# Shear Modulus (GPa) = 13.23721 20.58431 16.91076
#
# Velocity S-wave (km/s) = 2.73694 3.41300 3.09349
# Velocity P-wave (km/s) = 5.18583 6.81467 6.05527
#
# Compressibility (1/GPa) = 0.03347497
#
# Stress axis : x y z
#
# Youngs Moduli (GPa) = 101.90831 29.64501 98.26695
#
# Poissons Ratio (x) = 0.14013 0.42857
# Poissons Ratio (y) = 0.48171 0.10172
# Poissons Ratio (z) = 0.44445 0.03069
#
# Static dielectric constant tensor:
#      x y z
#    x 3.568550 0.000000 0.000000 
#    y 0.000000 2.963230 0.000000 
#    z 0.000000 0.000000 3.394830 
# 
# 
# High freq. dielectric constant tensor:
#      x y z
#    x 1.686220 0.000000 0.000000 
#    y 0.000000 1.646650 0.000000 
#    z 0.000000 0.000000 1.680710 
# 
# From -- ./inp_files/5480.got.cif
#   From: 2010.03.12/outbox.cif.g09.slc.cpg/sg47_3_cif.got.tgz:5480.got - 2010.04.14 03:12:58.
