data_PCOD8196521
_publ_section_title
;
Structure prediction by ZEFSAII (Michael W. Deem and Ramdas Pophale) SiO2 
 PCOD8196521
Probable space group: P M M M
;
_chemical_formula_sum "Si O2"
_cell_formula_units_Z 64
_cell_length_a 15.142594
_cell_length_b 29.484478
_cell_length_c 9.306197
_cell_angle_alpha 90.000000
_cell_angle_beta 90.000000
_cell_angle_gamma 90.000000
_cell_volume 4154.951545
_symmetry_space_group_name_H-M "P M M M"
_symmetry_group_IT_number 47
_symmetry_cell_setting 'orthorhombic'
loop_
_space_group_symop_operation_xyz
x,y,z
-x,-y,z
x,-y,-z
-x,y,-z
-x,-y,-z
x,y,-z
-x,y,z
x,-y,z
loop_
_atom_site_type_symbol
_atom_site_label
_atom_site_fract_x
_atom_site_fract_y
_atom_site_fract_z
Si Si1 0.394968 0.050212 0.161359
Si Si2 0.734857 0.716247 0.334412
Si Si3 0.096916 0.390795 0.838903
Si Si4 0.902266 0.716977 0.161622
Si Si5 0.605005 0.134359 0.338473
Si Si6 0.602614 0.551467 0.835197
Si Si7 0.396282 0.777099 0.832172
Si Si8 0.262226 0.608844 0.663891
O O1 0.500000 0.052678 0.161012
O O2 0.356209 0.088161 0.268726
O O3 0.364240 0.000000 0.212274
O O4 0.360341 0.059813 0.000000
O O5 0.728319 0.731458 0.500000
O O6 0.827419 0.735276 0.270227
O O7 0.653476 0.735835 0.244157
O O8 0.729094 0.662488 0.317947
O O9 0.098286 0.336893 0.836315
O O10 0.172504 0.410219 0.735554
O O11 0.000000 0.407817 0.787343
O O12 0.115673 0.408329 0.000000
O O13 0.000000 0.734276 0.209616
O O14 0.881391 0.734178 0.000000
O O15 0.642709 0.139367 0.500000
O O16 0.500000 0.132247 0.341882
O O17 0.636182 0.176424 0.241644
O O18 0.500000 0.557744 0.801813
O O19 0.631733 0.500000 0.801336
O O20 0.653445 0.586275 0.735374
O O21 0.623218 0.563370 0.000000
O O22 0.500000 0.769203 0.808646
O O23 0.372253 0.779029 0.000000
O O24 0.258937 0.593887 0.500000
#
# Coordination Sequence:
#
# PCOD8196521 Si02
#       8
#     8   8   8   8   8   8   8   8
#     4   8  13  21  33  49  69  93 124 165 209 250
#     4  10  20  31  43  63  90 115 140 171 207 248
#     4   8  14  26  45  67  90 117 145 169 195 232
#     4   8  14  26  44  64  85 109 138 171 204 240
#     4   9  16  25  37  52  71  97 130 170 215 258
#     4   9  19  36  55  71  86 108 140 175 209 247
#     4  10  20  32  44  56  74 107 149 185 215 250
#     4  10  20  31  46  70  95 116 136 165 208 251
#
# _framework density 15.403308000000001
#
# number of rings (size 3 to 8) (size 9 to 14) (size 15 to 20)
#    0.000    3.000    0.000    3.000    0.000    5.500 
#    0.000    6.875    0.000    0.375    0.000    2.625 
#    0.000    0.000    0.000    0.000    0.000    0.625 
#
# Total GULP energy -793303.682976 kJ/mol
# GULP energy per Si atom -12395.370046 kJ/mol
# Density = 1.536825 g / cm^3
# Si number density = 15.403308 Si / 1000 Ang^3
#
#
#
# Elastic Constant Matrix: (Units=GPa)
#
#
# Indices 1 2 3 4 5 6 
#
# 1 67.4429 30.8947 55.8450 0.0000 0.0000 0.0000
# 2 30.8947 39.3353 42.3095 0.0000 0.0000 0.0000
# 3 55.8450 42.3095 124.3025 0.0000 0.0000 0.0000
# 4 0.0000 0.0000 0.0000 24.2210 0.0000 0.0000
# 5 0.0000 0.0000 0.0000 0.0000 17.3635 0.0000
# 6 0.0000 0.0000 0.0000 0.0000 0.0000 0.8670
#
#
#
# Elastic Compliance Matrix: (Units=1/GPa)
#
#
# Indices 1 2 3 4 5 6 
#
# 1 0.027258 -0.012994 -0.007823 0.000000 0.000000 0.000000
# 2 -0.012994 0.046300 -0.009922 0.000000 0.000000 0.000000
# 3 -0.007823 -0.009922 0.014937 0.000000 0.000000 0.000000
# 4 0.000000 0.000000 0.000000 0.041287 0.000000 0.000000
# 5 0.000000 0.000000 0.000000 0.000000 0.057592 0.000000
# 6 0.000000 0.000000 0.000000 0.000000 0.000000 1.153376
#
#
# Mechanical properties :
#
#
# Convention : Reuss Voigt Hill
#
# Bulk Modulus (GPa) = 37.01404 54.35324 45.68364
# Shear Modulus (GPa) = 3.54301 15.29241 9.41771
#
# Velocity S-wave (km/s) = 1.51827 3.15429 2.47535
# Velocity P-wave (km/s) = 5.21111 6.97348 6.15569
#
# Compressibility (1/GPa) = 0.02701678
#
# Stress axis : x y z
#
# Youngs Moduli (GPa) = 36.68713 21.59823 66.94973
#
# Poissons Ratio (x) = 0.28065 0.52375
# Poissons Ratio (y) = 0.47672 0.66425
# Poissons Ratio (z) = 0.28700 0.21429
#
# Static dielectric constant tensor:
#      x y z
#    x 2.864760 0.000000 0.000000 
#    y 0.000000 2.790940 0.000000 
#    z 0.000000 0.000000 3.143220 
# 
# 
# High freq. dielectric constant tensor:
#      x y z
#    x 1.560110 0.000000 0.000000 
#    y 0.000000 1.561970 0.000000 
#    z 0.000000 0.000000 1.601590 
# 
# From -- ./inp_files/8318.got.cif
#   From: 2010.03.12/outbox.cif.g09.slc.cpg/sg47_5_cif.got.tgz:8318.got - 2010.04.14 03:12:58.
