data_PCOD8196444
_publ_section_title
;
Structure prediction by ZEFSAII (Michael W. Deem and Ramdas Pophale) SiO2 
 PCOD8196444
Probable space group: P M M M
;
_chemical_formula_sum "Si O2"
_cell_formula_units_Z 40
_cell_length_a 14.096792
_cell_length_b 20.931183
_cell_length_c 9.064733
_cell_angle_alpha 90.000000
_cell_angle_beta 90.000000
_cell_angle_gamma 90.000000
_cell_volume 2674.663081
_symmetry_space_group_name_H-M "P M M M"
_symmetry_group_IT_number 47
_symmetry_cell_setting 'orthorhombic'
loop_
_space_group_symop_operation_xyz
x,y,z
-x,-y,z
x,-y,-z
-x,y,-z
-x,-y,-z
x,y,-z
-x,y,z
x,-y,z
loop_
_atom_site_type_symbol
_atom_site_label
_atom_site_fract_x
_atom_site_fract_y
_atom_site_fract_z
Si Si1 0.392122 0.573428 0.671067
Si Si2 0.886937 0.136595 0.834775
Si Si3 0.889000 0.738218 0.328636
Si Si4 0.896115 0.000000 0.175206
Si Si5 0.782574 0.624172 0.174916
Si Si6 0.106329 0.500000 0.824668
O O1 0.366378 0.581735 0.500000
O O2 0.500000 0.594837 0.701049
O O3 0.378220 0.500000 0.719610
O O4 0.324999 0.618718 0.767944
O O5 0.854059 0.191906 0.723516
O O6 0.000000 0.130439 0.836348
O O7 0.844556 0.067236 0.780511
O O8 0.850810 0.153236 0.000000
O O9 0.866203 0.730729 0.500000
O O10 0.830689 0.686915 0.237739
O O11 0.000000 0.728599 0.294365
O O12 0.000000 0.000000 0.249768
O O13 0.906972 0.000000 0.000000
O O14 0.840500 0.562815 0.234047
O O15 0.782707 0.628228 0.000000
O O16 0.000000 0.500000 0.759920
O O17 0.104337 0.500000 0.000000
#
# Coordination Sequence:
#
# PCOD8196444 Si02
#       6
#     8   8   8   4   8   4
#     4   9  18  33  51  68  87 109 131 163 212 267
#     4   8  13  23  39  57  77 105 141 178 213 249
#     4  10  20  31  41  57  84 117 150 181 214 256
#     4   7  10  18  35  57  77  99 134 177 214 247
#     4  11  20  31  47  65  84 109 141 181 220 254
#     4   9  18  30  42  59  82 106 137 177 216 249
#
# _framework density 14.955155
#
# number of rings (size 3 to 8) (size 9 to 14) (size 15 to 20)
#    0.000    2.800    1.000    3.600    0.000    2.400 
#    0.000    1.500    0.000    5.400    0.000    0.000 
#    0.000    0.000    0.000    0.900    0.000   17.500 
#
# Total GULP energy -495738.720456 kJ/mol
# GULP energy per Si atom -12393.468011 kJ/mol
# Density = 1.492112 g / cm^3
# Si number density = 14.955155 Si / 1000 Ang^3
#
#
#
# Elastic Constant Matrix: (Units=GPa)
#
#
# Indices 1 2 3 4 5 6 
#
# 1 61.4828 42.3254 34.3299 0.0000 0.0000 0.0000
# 2 42.3254 124.6348 44.8282 0.0000 0.0000 0.0000
# 3 34.3299 44.8282 63.5943 0.0000 0.0000 0.0000
# 4 0.0000 0.0000 0.0000 18.5657 0.0000 0.0000
# 5 0.0000 0.0000 0.0000 0.0000 19.4439 0.0000
# 6 0.0000 0.0000 0.0000 0.0000 0.0000 3.1664
#
#
#
# Elastic Compliance Matrix: (Units=1/GPa)
#
#
# Indices 1 2 3 4 5 6 
#
# 1 0.025368 -0.004943 -0.010211 0.000000 0.000000 0.000000
# 2 -0.004943 0.011712 -0.005588 0.000000 0.000000 0.000000
# 3 -0.010211 -0.005588 0.025175 0.000000 0.000000 0.000000
# 4 0.000000 0.000000 0.000000 0.053863 0.000000 0.000000
# 5 0.000000 0.000000 0.000000 0.000000 0.051430 0.000000
# 6 0.000000 0.000000 0.000000 0.000000 0.000000 0.315815
#
#
# Mechanical properties :
#
#
# Convention : Reuss Voigt Hill
#
# Bulk Modulus (GPa) = 48.13667 54.74212 51.43940
# Shear Modulus (GPa) = 9.40258 16.78376 13.09317
#
# Velocity S-wave (km/s) = 2.51015 3.35367 2.96209
# Velocity P-wave (km/s) = 6.37639 7.18886 6.79478
#
# Compressibility (1/GPa) = 0.02077418
#
# Stress axis : x y z
#
# Youngs Moduli (GPa) = 39.41915 85.38550 39.72152
#
# Poissons Ratio (x) = 0.42202 0.40558
# Poissons Ratio (y) = 0.19483 0.22194
# Poissons Ratio (z) = 0.40249 0.47709
#
# Static dielectric constant tensor:
#      x y z
#    x 2.583440 0.000000 0.000000 
#    y 0.000000 3.163450 0.000000 
#    z 0.000000 0.000000 2.761350 
# 
# 
# High freq. dielectric constant tensor:
#      x y z
#    x 1.523890 0.000000 0.000000 
#    y 0.000000 1.576070 0.000000 
#    z 0.000000 0.000000 1.564610 
# 
# From -- ./inp_files/6692.got.cif
#   From: 2010.03.12/outbox.cif.g09.slc.cpg/sg47_4_cif.got.tgz:6692.got - 2010.04.14 03:12:58.
