data_PCOD8196983
_publ_section_title
;
Structure prediction by ZEFSAII (Michael W. Deem and Ramdas Pophale) SiO2 
 PCOD8196983
Probable space group: P M M M
;
_chemical_formula_sum "Si O2"
_cell_formula_units_Z 44
_cell_length_a 9.099828
_cell_length_b 29.969344
_cell_length_c 8.205270
_cell_angle_alpha 90.000000
_cell_angle_beta 90.000000
_cell_angle_gamma 90.000000
_cell_volume 2237.707393
_symmetry_space_group_name_H-M "P M M M"
_symmetry_group_IT_number 47
_symmetry_cell_setting 'orthorhombic'
loop_
_space_group_symop_operation_xyz
x,y,z
-x,-y,z
x,-y,-z
-x,y,-z
-x,-y,-z
x,y,-z
-x,y,z
x,-y,z
loop_
_atom_site_type_symbol
_atom_site_label
_atom_site_fract_x
_atom_site_fract_y
_atom_site_fract_z
Si Si1 0.674114 0.094623 0.685563
Si Si2 0.673342 0.813111 0.181183
Si Si3 0.662698 0.631741 0.186575
Si Si4 0.831089 0.052713 0.000000
Si Si5 0.827728 0.549545 0.686417
Si Si6 0.668274 0.722407 0.312479
O O1 0.717162 0.078828 0.500000
O O2 0.500000 0.088564 0.712748
O O3 0.720546 0.146752 0.699533
O O4 0.754516 0.068180 0.830921
O O5 0.500000 0.806569 0.194061
O O6 0.745385 0.765142 0.226273
O O7 0.723038 0.826919 0.000000
O O8 0.500000 0.623553 0.261281
O O9 0.753690 0.586627 0.203180
O O10 0.742632 0.674494 0.271668
O O11 0.651893 0.644540 0.000000
O O12 0.000000 0.069374 0.000000
O O13 0.822160 0.000000 0.000000
O O14 0.785642 0.558981 0.500000
O O15 0.772758 0.500000 0.737447
O O16 0.000000 0.552530 0.713196
O O17 0.680838 0.733167 0.500000
O O18 0.500000 0.717714 0.253363
#
# Coordination Sequence:
#
# PCOD8196983 Si02
#       6
#     8   8   8   4   8   8
#     4  10  20  36  61  92 121 151 194 247 298 346
#     4   9  15  26  48  79 114 146 177 220 274 328
#     4  10  20  32  47  72 105 136 167 206 254 308
#     4  11  25  43  61  83 117 161 203 243 292 353
#     4   9  19  36  55  72  91 121 164 211 259 313
#     4   9  16  26  43  71 106 141 175 211 256 313
#
# _framework density 19.662982
#
# number of rings (size 3 to 8) (size 9 to 14) (size 15 to 20)
#    0.000    2.455    0.909    2.455    0.000    8.000 
#    0.000    4.545    0.000    1.091    0.000    0.000 
#    0.000    0.000    0.000    0.000    0.000    0.000 
#
# Total GULP energy -545193.661648 kJ/mol
# GULP energy per Si atom -12390.765037 kJ/mol
# Density = 1.961823 g / cm^3
# Si number density = 19.662982 Si / 1000 Ang^3
#
#
#
# Elastic Constant Matrix: (Units=GPa)
#
#
# Indices 1 2 3 4 5 6 
#
# 1 37.0627 31.7700 32.3307 0.0000 0.0000 0.0000
# 2 31.7700 117.6635 48.2593 0.0000 0.0000 0.0000
# 3 32.3307 48.2593 103.5602 0.0000 0.0000 0.0000
# 4 0.0000 0.0000 0.0000 35.1159 0.0000 0.0000
# 5 0.0000 0.0000 0.0000 0.0000 17.9025 0.0000
# 6 0.0000 0.0000 0.0000 0.0000 0.0000 -10.8665
#
#
#
# Elastic Compliance Matrix: (Units=1/GPa)
#
#
# Indices 1 2 3 4 5 6 
#
# 1 0.041601 -0.007301 -0.009585 0.000000 0.000000 0.000000
# 2 -0.007301 0.011788 -0.003214 0.000000 0.000000 0.000000
# 3 -0.009585 -0.003214 0.014146 0.000000 0.000000 0.000000
# 4 0.000000 0.000000 0.000000 0.028477 0.000000 0.000000
# 5 0.000000 0.000000 0.000000 0.000000 0.055858 0.000000
# 6 0.000000 0.000000 0.000000 0.000000 0.000000 -0.092026
#
#
# Mechanical properties :
#
#
# Convention : Reuss Voigt Hill
#
# Bulk Modulus (GPa) = 36.58302 53.66739 45.12521
# Shear Modulus (GPa) = 45.80507 18.15881 31.98194
#
# Velocity S-wave (km/s) = 4.83173 3.04221 4.03737
# Velocity P-wave (km/s) = 7.05499 6.30024 6.68827
#
# Compressibility (1/GPa) = 0.02733509
#
# Stress axis : x y z
#
# Youngs Moduli (GPa) = 24.03768 84.82884 70.68942
#
# Poissons Ratio (x) = 0.61936 0.67757
# Poissons Ratio (y) = 0.17551 0.22720
# Poissons Ratio (z) = 0.23041 0.27264
#
# Static dielectric constant tensor:
#      x y z
#    x 3.128660 0.000000 0.000000 
#    y 0.000000 3.825860 0.000000 
#    z 0.000000 0.000000 3.598910 
# 
# 
# High freq. dielectric constant tensor:
#      x y z
#    x 1.701920 0.000000 0.000000 
#    y 0.000000 1.784630 0.000000 
#    z 0.000000 0.000000 1.773670 
# 
# From -- ./inp_files/2191.got.cif
#   From: 2010.03.12/outbox.cif.g09.slc.cpg/sg47_2_cif.got.tgz:2191.got - 2010.04.14 03:12:58.
