data_PCOD8196625
_publ_section_title
;
Structure prediction by ZEFSAII (Michael W. Deem and Ramdas Pophale) SiO2 
 PCOD8196625
Probable space group: P M M M
;
_chemical_formula_sum "Si O2"
_cell_formula_units_Z 52
_cell_length_a 24.287970
_cell_length_b 9.263267
_cell_length_c 13.177255
_cell_angle_alpha 90.000000
_cell_angle_beta 90.000000
_cell_angle_gamma 90.000000
_cell_volume 2964.697248
_symmetry_space_group_name_H-M "P M M M"
_symmetry_group_IT_number 47
_symmetry_cell_setting 'orthorhombic'
loop_
_space_group_symop_operation_xyz
x,y,z
-x,-y,z
x,-y,-z
-x,y,-z
-x,-y,-z
x,y,-z
-x,y,z
x,-y,z
loop_
_atom_site_type_symbol
_atom_site_label
_atom_site_fract_x
_atom_site_fract_y
_atom_site_fract_z
Si Si1 0.565210 0.339788 0.890005
Si Si2 0.935663 0.332738 0.116444
Si Si3 0.655440 0.655336 0.384319
Si Si4 0.938515 0.828857 0.500000
Si Si5 0.775768 0.329770 0.382771
Si Si6 0.562419 0.169535 0.699713
Si Si7 0.875978 0.827493 0.702294
O O1 0.500000 0.338788 0.895007
O O2 0.586046 0.500000 0.860929
O O3 0.585329 0.224463 0.807889
O O4 0.589112 0.294651 0.000000
O O5 0.922154 0.500000 0.138493
O O6 0.902441 0.232853 0.194491
O O7 0.000000 0.302190 0.132657
O O8 0.919181 0.294384 0.000000
O O9 0.669647 0.628162 0.500000
O O10 0.637637 0.500000 0.336005
O O11 0.714148 0.708118 0.339985
O O12 0.605316 0.768327 0.380511
O O13 0.909399 0.773851 0.602806
O O14 0.000000 0.764945 0.500000
O O15 0.939280 0.000000 0.500000
O O16 0.784049 0.281265 0.500000
O O17 0.787481 0.500000 0.370938
O O18 0.815086 0.237359 0.309928
O O19 0.500000 0.224450 0.677236
O O20 0.564040 0.000000 0.696758
O O21 0.873588 0.000000 0.709733
#
# Coordination Sequence:
#
# PCOD8196625 Si02
#       7
#     8   8   8   4   8   8   8
#     4   8  14  26  45  67  90 119 155 191 227 276
#     4   9  19  36  55  75 103 141 184 225 262 303
#     4   9  19  35  53  71  92 126 170 211 249 292
#     4   9  18  30  43  69 111 145 164 193 242 297
#     4   9  18  34  54  74  98 128 167 212 254 302
#     4  10  20  31  45  70 102 131 158 195 248 305
#     4  11  20  31  51  78 108 140 172 210 258 310
#
# _framework density 17.539733999999999
#
# number of rings (size 3 to 8) (size 9 to 14) (size 15 to 20)
#    0.000    2.692    0.769    3.231    0.000    3.692 
#    0.000    5.385    0.000    2.769    0.000    6.462 
#    0.000    0.000    0.000    0.000    0.000    0.000 
#
# Total GULP energy -644357.072955 kJ/mol
# GULP energy per Si atom -12391.482172 kJ/mol
# Density = 1.749981 g / cm^3
# Si number density = 17.539734 Si / 1000 Ang^3
#
#
#
# Elastic Constant Matrix: (Units=GPa)
#
#
# Indices 1 2 3 4 5 6 
#
# 1 107.5506 54.0596 45.9857 0.0000 0.0000 0.0000
# 2 54.0596 74.5412 37.7501 0.0000 0.0000 0.0000
# 3 45.9857 37.7501 83.7962 0.0000 0.0000 0.0000
# 4 0.0000 0.0000 0.0000 85.4597 0.0000 0.0000
# 5 0.0000 0.0000 0.0000 0.0000 20.9731 0.0000
# 6 0.0000 0.0000 0.0000 0.0000 0.0000 24.5274
#
#
#
# Elastic Compliance Matrix: (Units=1/GPa)
#
#
# Indices 1 2 3 4 5 6 
#
# 1 0.015875 -0.009200 -0.004567 0.000000 0.000000 0.000000
# 2 -0.009200 0.022712 -0.005183 0.000000 0.000000 0.000000
# 3 -0.004567 -0.005183 0.016775 0.000000 0.000000 0.000000
# 4 0.000000 0.000000 0.000000 0.011701 0.000000 0.000000
# 5 0.000000 0.000000 0.000000 0.000000 0.047680 0.000000
# 6 0.000000 0.000000 0.000000 0.000000 0.000000 0.040771
#
#
# Mechanical properties :
#
#
# Convention : Reuss Voigt Hill
#
# Bulk Modulus (GPa) = 57.26820 60.16432 58.71626
# Shear Modulus (GPa) = 25.09575 34.73156 29.91365
#
# Velocity S-wave (km/s) = 3.78669 4.45473 4.13423
# Velocity P-wave (km/s) = 7.20001 7.79972 7.50586
#
# Compressibility (1/GPa) = 0.01746170
#
# Stress axis : x y z
#
# Youngs Moduli (GPa) = 62.99133 44.02862 59.61184
#
# Poissons Ratio (x) = 0.40507 0.27227
# Poissons Ratio (y) = 0.57953 0.30898
# Poissons Ratio (z) = 0.28770 0.22821
#
# Static dielectric constant tensor:
#      x y z
#    x 3.192210 0.000000 0.000000 
#    y 0.000000 3.109910 0.000000 
#    z 0.000000 0.000000 3.379940 
# 
# 
# High freq. dielectric constant tensor:
#      x y z
#    x 1.664400 0.000000 0.000000 
#    y 0.000000 1.669330 0.000000 
#    z 0.000000 0.000000 1.667130 
# 
# From -- ./inp_files/19814.got.cif
#   From: 2010.03.12/outbox.cif.g09.slc.cpg/sg47_10_cif.got.tgz:19814.got - 2010.04.14 03:12:58.
