data_PCOD8196310
_publ_section_title
;
Structure prediction by ZEFSAII (Michael W. Deem and Ramdas Pophale) SiO2 
 PCOD8196310
Probable space group: P M M M
;
_chemical_formula_sum "Si O2"
_cell_formula_units_Z 48
_cell_length_a 15.720963
_cell_length_b 19.090013
_cell_length_c 7.700502
_cell_angle_alpha 90.000000
_cell_angle_beta 90.000000
_cell_angle_gamma 90.000000
_cell_volume 2311.023745
_symmetry_space_group_name_H-M "P M M M"
_symmetry_group_IT_number 47
_symmetry_cell_setting 'orthorhombic'
loop_
_space_group_symop_operation_xyz
x,y,z
-x,-y,z
x,-y,-z
-x,y,-z
-x,-y,-z
x,y,-z
-x,y,z
x,-y,z
loop_
_atom_site_type_symbol
_atom_site_label
_atom_site_fract_x
_atom_site_fract_y
_atom_site_fract_z
Si Si1 0.358353 0.813933 0.298255
Si Si2 0.500000 0.078390 0.203275
Si Si3 0.905302 0.676372 0.295257
Si Si4 0.099182 0.923252 0.000000
Si Si5 0.755180 0.420904 0.707319
Si Si6 0.406707 0.336482 0.706805
Si Si7 0.832797 0.172350 0.294664
O O1 0.351681 0.800391 0.500000
O O2 0.416077 0.880962 0.261679
O O3 0.395571 0.742272 0.216690
O O4 0.264169 0.827160 0.228202
O O5 0.500000 0.000000 0.285523
O O6 0.500000 0.072026 0.000000
O O7 0.908515 0.667350 0.500000
O O8 0.837177 0.620925 0.218847
O O9 0.875536 0.753960 0.247052
O O10 0.000000 0.662775 0.217323
O O11 0.122784 0.885944 0.820277
O O12 0.000000 0.931698 0.000000
O O13 0.142713 0.000000 0.000000
O O14 0.754882 0.418642 0.500000
O O15 0.760076 0.500000 0.777309
O O16 0.668149 0.386122 0.779873
O O17 0.401972 0.335353 0.500000
O O18 0.500000 0.364102 0.766841
O O19 0.842105 0.155051 0.500000
#
# Coordination Sequence:
#
# PCOD8196310 Si02
#       7
#     8   4   8   4   8   8   8
#     4  10  19  35  59  81 107 150 195 237 285 344
#     4  11  25  39  53  81 118 147 178 234 301 359
#     4   9  16  28  49  76 107 147 193 239 289 348
#     4  11  26  44  62  89 122 152 191 247 304 362
#     4   9  16  25  39  68 111 150 187 236 291 346
#     4   9  15  26  46  70 100 140 187 235 282 334
#     4  10  21  39  64  89 117 156 202 248 297 354
#
# _framework density 20.770016999999999
#
# number of rings (size 3 to 8) (size 9 to 14) (size 15 to 20)
#    0.000    2.333    2.500    0.750    1.167    3.333 
#    0.000    5.833    0.000    0.000    0.000    0.583 
#    0.000    2.667    0.000    0.167    0.000    0.000 
#
# Total GULP energy -594959.804506 kJ/mol
# GULP energy per Si atom -12394.995927 kJ/mol
# Density = 2.072274 g / cm^3
# Si number density = 20.770017 Si / 1000 Ang^3
#
#
#
# Elastic Constant Matrix: (Units=GPa)
#
#
# Indices 1 2 3 4 5 6 
#
# 1 199.3818 96.6617 12.4343 0.0000 0.0000 0.0000
# 2 96.6617 176.4844 16.7140 0.0000 0.0000 0.0000
# 3 12.4343 16.7140 32.4850 0.0000 0.0000 0.0000
# 4 0.0000 0.0000 0.0000 -37.2857 0.0000 0.0000
# 5 0.0000 0.0000 0.0000 0.0000 6.9221 0.0000
# 6 0.0000 0.0000 0.0000 0.0000 0.0000 30.0450
#
#
#
# Elastic Compliance Matrix: (Units=1/GPa)
#
#
# Indices 1 2 3 4 5 6 
#
# 1 0.006845 -0.003680 -0.000727 0.000000 0.000000 0.000000
# 2 -0.003680 0.007935 -0.002674 0.000000 0.000000 0.000000
# 3 -0.000727 -0.002674 0.032437 0.000000 0.000000 0.000000
# 4 0.000000 0.000000 0.000000 -0.026820 0.000000 0.000000
# 5 0.000000 0.000000 0.000000 0.000000 0.144465 0.000000
# 6 0.000000 0.000000 0.000000 0.000000 0.000000 0.033283
#
#
# Mechanical properties :
#
#
# Convention : Reuss Voigt Hill
#
# Bulk Modulus (GPa) = 30.25185 73.33016 51.79100
# Shear Modulus (GPa) = 22.38878 18.77236 20.58057
#
# Velocity S-wave (km/s) = 3.28676 3.00962 3.15124
# Velocity P-wave (km/s) = 5.38521 6.88909 6.18304
#
# Compressibility (1/GPa) = 0.03305583
#
# Stress axis : x y z
#
# Youngs Moduli (GPa) = 146.09141 126.02112 30.82867
#
# Poissons Ratio (x) = 0.46379 0.02240
# Poissons Ratio (y) = 0.53765 0.08244
# Poissons Ratio (z) = 0.10614 0.33699
#
# Static dielectric constant tensor:
#      x y z
#    x 4.135460 0.000000 0.000000 
#    y 0.000000 3.986530 0.000000 
#    z 0.000000 0.000000 3.247510 
# 
# 
# High freq. dielectric constant tensor:
#      x y z
#    x 1.830520 0.000000 0.000000 
#    y 0.000000 1.807390 0.000000 
#    z 0.000000 0.000000 1.775580 
# 
# From -- ./inp_files/6465.got.cif
#   From: 2010.03.12/outbox.cif.g09.slc.cpg/sg47_4_cif.got.tgz:6465.got - 2010.04.14 03:12:58.
