data_PCOD8196975
_publ_section_title
;
Structure prediction by ZEFSAII (Michael W. Deem and Ramdas Pophale) SiO2 
 PCOD8196975
Probable space group: P M M M
;
_chemical_formula_sum "Si O2"
_cell_formula_units_Z 40
_cell_length_a 9.441585
_cell_length_b 9.143298
_cell_length_c 25.370241
_cell_angle_alpha 90.000000
_cell_angle_beta 90.000000
_cell_angle_gamma 90.000000
_cell_volume 2190.142509
_symmetry_space_group_name_H-M "P M M M"
_symmetry_group_IT_number 47
_symmetry_cell_setting 'orthorhombic'
loop_
_space_group_symop_operation_xyz
x,y,z
-x,-y,z
x,-y,-z
-x,y,-z
-x,-y,-z
x,y,-z
-x,y,z
x,-y,z
loop_
_atom_site_type_symbol
_atom_site_label
_atom_site_fract_x
_atom_site_fract_y
_atom_site_fract_z
Si Si1 0.837204 0.327637 0.000000
Si Si2 0.662079 0.169100 0.913076
Si Si3 0.831342 0.834744 0.397871
Si Si4 0.164950 0.330268 0.705600
Si Si5 0.664371 0.833576 0.208451
Si Si6 0.830984 0.334517 0.500000
O O1 0.764982 0.266981 0.947570
O O2 0.820497 0.500000 0.000000
O O3 0.000000 0.278449 0.000000
O O4 0.500000 0.211082 0.925678
O O5 0.697129 0.200526 0.852309
O O6 0.687935 0.000000 0.926801
O O7 0.775990 0.756431 0.345073
O O8 0.771907 0.748219 0.448472
O O9 0.000000 0.833205 0.399103
O O10 0.772878 0.000000 0.399177
O O11 0.194917 0.500000 0.695926
O O12 0.245086 0.278035 0.757449
O O13 0.000000 0.298505 0.714186
O O14 0.500000 0.808827 0.220753
O O15 0.707851 0.000000 0.221953
O O16 0.773163 0.500000 0.500000
O O17 0.000000 0.334107 0.500000
#
# Coordination Sequence:
#
# PCOD8196975 Si02
#       6
#     4   8   8   8   8   4
#     4  11  24  37  50  76 112 141 166 201 246 296
#     4   9  19  37  59  79  99 128 169 212 250 293
#     4   9  16  26  41  62  90 126 167 207 248 297
#     4  10  20  32  47  71 103 135 166 204 252 302
#     4   9  19  36  56  77 100 128 166 210 252 296
#     4   9  15  23  37  59  90 125 160 203 254 303
#
# _framework density 18.263652
#
# number of rings (size 3 to 8) (size 9 to 14) (size 15 to 20)
#    0.000    2.600    0.000    3.300    0.000    9.200 
#    0.000    6.000    0.000    0.000    0.000    0.700 
#    0.000    5.600    0.000    0.000    0.000    0.000 
#
# Total GULP energy -496059.414054 kJ/mol
# GULP energy per Si atom -12401.485351 kJ/mol
# Density = 1.822208 g / cm^3
# Si number density = 18.263652 Si / 1000 Ang^3
#
#
#
# Elastic Constant Matrix: (Units=GPa)
#
#
# Indices 1 2 3 4 5 6 
#
# 1 58.7306 49.2873 54.6265 0.0000 0.0000 0.0000
# 2 49.2873 124.8936 76.1448 0.0000 0.0000 0.0000
# 3 54.6265 76.1448 133.3172 0.0000 0.0000 0.0000
# 4 0.0000 0.0000 0.0000 32.0794 0.0000 0.0000
# 5 0.0000 0.0000 0.0000 0.0000 -8.4911 0.0000
# 6 0.0000 0.0000 0.0000 0.0000 0.0000 24.9947
#
#
#
# Elastic Compliance Matrix: (Units=1/GPa)
#
#
# Indices 1 2 3 4 5 6 
#
# 1 0.030932 -0.006873 -0.008749 0.000000 0.000000 0.000000
# 2 -0.006873 0.013812 -0.005072 0.000000 0.000000 0.000000
# 3 -0.008749 -0.005072 0.013983 0.000000 0.000000 0.000000
# 4 0.000000 0.000000 0.000000 0.031173 0.000000 0.000000
# 5 0.000000 0.000000 0.000000 0.000000 -0.117771 0.000000
# 6 0.000000 0.000000 0.000000 0.000000 0.000000 0.040008
#
#
# Mechanical properties :
#
#
# Convention : Reuss Voigt Hill
#
# Bulk Modulus (GPa) = 57.67591 75.22873 66.45232
# Shear Modulus (GPa) = 84.30968 18.84212 51.57590
#
# Velocity S-wave (km/s) = 6.80167 3.21545 5.31986
# Velocity P-wave (km/s) = 9.66084 7.42060 8.61386
#
# Compressibility (1/GPa) = 0.01733826
#
# Stress axis : x y z
#
# Youngs Moduli (GPa) = 32.32870 72.40269 71.51581
#
# Poissons Ratio (x) = 0.49762 0.62569
# Poissons Ratio (y) = 0.22219 0.36276
# Poissons Ratio (z) = 0.28284 0.36726
#
# Static dielectric constant tensor:
#      x y z
#    x 2.978990 0.000000 0.000000 
#    y 0.000000 3.417580 0.000000 
#    z 0.000000 0.000000 3.458150 
# 
# 
# High freq. dielectric constant tensor:
#      x y z
#    x 1.665480 0.000000 0.000000 
#    y 0.000000 1.715880 0.000000 
#    z 0.000000 0.000000 1.722970 
# 
# From -- ./inp_files/1881.got.cif
#   From: 2010.03.12/outbox.cif.g09.slc.cpg/sg47_1_cif.got.tgz:1881.got - 2010.04.14 03:12:58.
