data_PCOD8196633
_publ_section_title
;
Structure prediction by ZEFSAII (Michael W. Deem and Ramdas Pophale) SiO2 
 PCOD8196633
Probable space group: P M M M
;
_chemical_formula_sum "Si O2"
_cell_formula_units_Z 44
_cell_length_a 9.336457
_cell_length_b 9.098935
_cell_length_c 28.363067
_cell_angle_alpha 90.000000
_cell_angle_beta 90.000000
_cell_angle_gamma 90.000000
_cell_volume 2409.494031
_symmetry_space_group_name_H-M "P M M M"
_symmetry_group_IT_number 47
_symmetry_cell_setting 'orthorhombic'
loop_
_space_group_symop_operation_xyz
x,y,z
-x,-y,z
x,-y,-z
-x,y,-z
-x,-y,-z
x,y,-z
-x,y,z
x,-y,z
loop_
_atom_site_type_symbol
_atom_site_label
_atom_site_fract_x
_atom_site_fract_y
_atom_site_fract_z
Si Si1 0.666925 0.826813 0.500000
Si Si2 0.337233 0.325569 0.139934
Si Si3 0.164241 0.827425 0.779066
Si Si4 0.839162 0.325283 0.948035
Si Si5 0.167846 0.670882 0.417030
Si Si6 0.169508 0.838008 0.674403
O O1 0.500000 0.785105 0.500000
O O2 0.740464 0.760778 0.545912
O O3 0.691274 0.000000 0.500000
O O4 0.500000 0.271523 0.139529
O O5 0.325211 0.500000 0.141775
O O6 0.261329 0.262424 0.185586
O O7 0.264157 0.261872 0.092404
O O8 0.220774 0.788170 0.726354
O O9 0.000000 0.777661 0.785780
O O10 0.180173 0.000000 0.788500
O O11 0.836813 0.500000 0.946969
O O12 0.000000 0.268465 0.938068
O O13 0.788236 0.271005 0.000000
O O14 0.201861 0.500000 0.422838
O O15 0.218186 0.721458 0.365004
O O16 0.000000 0.703639 0.425291
O O17 0.000000 0.849723 0.676305
O O18 0.231931 0.000000 0.661932
#
# Coordination Sequence:
#
# PCOD8196633 Si02
#       6
#     4   8   8   8   8   8
#     4  11  24  39  54  74 102 139 180 213 244 290
#     4  10  20  31  45  70 102 133 165 201 244 296
#     4   9  18  33  53  75  98 128 167 207 247 293
#     4   8  14  26  45  68  93 123 161 204 249 296
#     4  10  20  34  55  83 109 132 163 205 254 304
#     4   8  15  30  52  76 100 127 163 206 248 292
#
# _framework density 18.261094
#
# number of rings (size 3 to 8) (size 9 to 14) (size 15 to 20)
#    0.000    2.818    0.000    3.273    0.000    5.455 
#    0.000    4.545    0.000    1.636    0.000    3.818 
#    0.000    0.000    0.000    0.000    0.000    0.000 
#
# Total GULP energy -545441.154409 kJ/mol
# GULP energy per Si atom -12396.389873 kJ/mol
# Density = 1.821953 g / cm^3
# Si number density = 18.261094 Si / 1000 Ang^3
#
#
#
# Elastic Constant Matrix: (Units=GPa)
#
#
# Indices 1 2 3 4 5 6 
#
# 1 95.2623 40.6766 73.7027 0.0000 0.0000 0.0000
# 2 40.6766 53.0538 48.3083 0.0000 0.0000 0.0000
# 3 73.7027 48.3083 159.9670 0.0000 0.0000 0.0000
# 4 0.0000 0.0000 0.0000 556.1582 0.0000 0.0000
# 5 0.0000 0.0000 0.0000 0.0000 -2.1625 0.0000
# 6 0.0000 0.0000 0.0000 0.0000 0.0000 21.2820
#
#
#
# Elastic Compliance Matrix: (Units=1/GPa)
#
#
# Indices 1 2 3 4 5 6 
#
# 1 0.019053 -0.009124 -0.006023 0.000000 0.000000 0.000000
# 2 -0.009124 0.030366 -0.004967 0.000000 0.000000 0.000000
# 3 -0.006023 -0.004967 0.010526 0.000000 0.000000 0.000000
# 4 0.000000 0.000000 0.000000 0.001798 0.000000 0.000000
# 5 0.000000 0.000000 0.000000 0.000000 -0.462427 0.000000
# 6 0.000000 0.000000 0.000000 0.000000 0.000000 0.046988
#
#
# Mechanical properties :
#
#
# Convention : Reuss Voigt Hill
#
# Bulk Modulus (GPa) = 50.71346 70.40649 60.55997
# Shear Modulus (GPa) = -16.29225 124.76190 54.23483
#
# Velocity S-wave (km/s) = -2.99018 8.27463 5.45565
# Velocity P-wave (km/s) = 3.98873 11.39876 8.53937
#
# Compressibility (1/GPa) = 0.01971863
#
# Stress axis : x y z
#
# Youngs Moduli (GPa) = 52.48463 32.93107 94.99995
#
# Poissons Ratio (x) = 0.30045 0.57221
# Poissons Ratio (y) = 0.47885 0.47184
# Poissons Ratio (z) = 0.31613 0.16356
#
# Static dielectric constant tensor:
#      x y z
#    x 3.251370 0.000000 0.000000 
#    y 0.000000 3.147880 0.000000 
#    z 0.000000 0.000000 3.771580 
# 
# 
# High freq. dielectric constant tensor:
#      x y z
#    x 1.684000 0.000000 0.000000 
#    y 0.000000 1.684510 0.000000 
#    z 0.000000 0.000000 1.727330 
# 
# From -- ./inp_files/1955.got.cif
#   From: 2010.03.12/outbox.cif.g09.slc.cpg/sg47_1_cif.got.tgz:1955.got - 2010.04.14 03:12:58.
