data_PCOD8196446
_publ_section_title
;
Structure prediction by ZEFSAII (Michael W. Deem and Ramdas Pophale) SiO2 
 PCOD8196446
Probable space group: P M M M
;
_chemical_formula_sum "Si O2"
_cell_formula_units_Z 60
_cell_length_a 25.790937
_cell_length_b 22.570376
_cell_length_c 9.206493
_cell_angle_alpha 90.000000
_cell_angle_beta 90.000000
_cell_angle_gamma 90.000000
_cell_volume 5359.202186
_symmetry_space_group_name_H-M "P M M M"
_symmetry_group_IT_number 47
_symmetry_cell_setting 'orthorhombic'
loop_
_space_group_symop_operation_xyz
x,y,z
-x,-y,z
x,-y,-z
-x,y,-z
-x,-y,-z
x,y,-z
-x,y,z
x,-y,z
loop_
_atom_site_type_symbol
_atom_site_label
_atom_site_fract_x
_atom_site_fract_y
_atom_site_fract_z
Si Si1 0.438326 0.270402 0.335311
Si Si2 0.438230 0.500000 0.335066
Si Si3 0.634608 0.070237 0.666418
Si Si4 0.560979 0.846345 0.831366
Si Si5 0.152535 0.929589 0.836958
Si Si6 0.943577 0.070439 0.662976
Si Si7 0.266204 0.929617 0.836580
Si Si8 0.438183 0.615056 0.164992
O O1 0.416605 0.270184 0.500000
O O2 0.500000 0.272304 0.337608
O O3 0.418942 0.212272 0.250743
O O4 0.416732 0.327429 0.249381
O O5 0.500000 0.500000 0.337563
O O6 0.416799 0.500000 0.500000
O O7 0.417331 0.557533 0.250113
O O8 0.630062 0.090779 0.500000
O O9 0.588019 0.097011 0.760002
O O10 0.689396 0.094264 0.729077
O O11 0.630417 0.000000 0.681076
O O12 0.500000 0.855125 0.810798
O O13 0.575988 0.841146 0.000000
O O14 0.104833 0.900827 0.748438
O O15 0.209296 0.909086 0.778501
O O16 0.149008 0.000000 0.830098
O O17 0.146256 0.906779 0.000000
O O18 0.939809 0.094453 0.500000
O O19 0.000000 0.089005 0.729223
O O20 0.939187 0.000000 0.665078
O O21 0.267625 0.000000 0.840870
O O22 0.275903 0.905386 0.000000
O O23 0.500000 0.615415 0.162858
O O24 0.416873 0.614775 0.000000
#
# Coordination Sequence:
#
# PCOD8196446 Si02
#       8
#     8   4   8   8   8   8   8   8
#     4   9  16  26  39  52  65  80  97 117 139 163
#     4   9  15  21  29  43  63  85 107 127 145 161
#     4  10  20  31  42  55  67  77  90 111 141 176
#     4  10  20  32  44  55  65  78  95 113 137 173
#     4   8  13  20  30  43  56  71  91 112 132 154
#     4   8  13  19  25  35  53  75  95 113 132 152
#     4   8  14  25  38  49  61  75  90 109 134 165
#     4   9  15  22  32  46  64  84 104 123 141 161
#
# _framework density 11.195696
#
# number of rings (size 3 to 8) (size 9 to 14) (size 15 to 20)
#    0.000    3.133    0.000    3.000    0.000    6.667 
#    0.000    5.333    0.000    0.000    0.000    0.000 
#    0.000    0.000    0.000    0.000    0.000    0.000 
#
# Total GULP energy -743546.882350 kJ/mol
# GULP energy per Si atom -12392.448039 kJ/mol
# Density = 1.117021 g / cm^3
# Si number density = 11.195696 Si / 1000 Ang^3
#
#
#
# Elastic Constant Matrix: (Units=GPa)
#
#
# Indices 1 2 3 4 5 6 
#
# 1 48.0901 19.5074 35.6052 0.0000 0.0000 0.0000
# 2 19.5074 32.9369 28.5576 0.0000 0.0000 0.0000
# 3 35.6052 28.5576 92.3893 0.0000 0.0000 0.0000
# 4 0.0000 0.0000 0.0000 16.7317 0.0000 0.0000
# 5 0.0000 0.0000 0.0000 0.0000 16.6005 0.0000
# 6 0.0000 0.0000 0.0000 0.0000 0.0000 0.2652
#
#
#
# Elastic Compliance Matrix: (Units=1/GPa)
#
#
# Indices 1 2 3 4 5 6 
#
# 1 0.031877 -0.011241 -0.008810 0.000000 0.000000 0.000000
# 2 -0.011241 0.045441 -0.009714 0.000000 0.000000 0.000000
# 3 -0.008810 -0.009714 0.017222 0.000000 0.000000 0.000000
# 4 0.000000 0.000000 0.000000 0.059767 0.000000 0.000000
# 5 0.000000 0.000000 0.000000 0.000000 0.060239 0.000000
# 6 0.000000 0.000000 0.000000 0.000000 0.000000 3.770179
#
#
# Mechanical properties :
#
#
# Convention : Reuss Voigt Hill
#
# Bulk Modulus (GPa) = 28.56348 37.86186 33.21267
# Shear Modulus (GPa) = 1.23276 12.70255 6.96766
#
# Velocity S-wave (km/s) = 1.05047 3.37203 2.49740
# Velocity P-wave (km/s) = 5.19996 7.00374 6.16814
#
# Compressibility (1/GPa) = 0.03500974
#
# Stress axis : x y z
#
# Youngs Moduli (GPa) = 31.37051 22.00661 58.06651
#
# Poissons Ratio (x) = 0.24737 0.51158
# Poissons Ratio (y) = 0.35263 0.56405
# Poissons Ratio (z) = 0.27638 0.21377
#
# Static dielectric constant tensor:
#      x y z
#    x 2.350660 0.000000 0.000000 
#    y 0.000000 2.120450 0.000000 
#    z 0.000000 0.000000 2.593510 
# 
# 
# High freq. dielectric constant tensor:
#      x y z
#    x 1.390020 0.000000 0.000000 
#    y 0.000000 1.376850 0.000000 
#    z 0.000000 0.000000 1.439330 
# 
# From -- ./inp_files/13524.got.cif
#   From: 2010.03.12/outbox.cif.g09.slc.cpg/sg47_7_cif.got.tgz:13524.got - 2010.04.14 03:12:58.
