data_PCOD8196575
_publ_section_title
;
Structure prediction by ZEFSAII (Michael W. Deem and Ramdas Pophale) SiO2 
 PCOD8196575
Probable space group: P M M M
;
_chemical_formula_sum "Si O2"
_cell_formula_units_Z 40
_cell_length_a 8.361416
_cell_length_b 27.413862
_cell_length_c 9.714502
_cell_angle_alpha 90.000000
_cell_angle_beta 90.000000
_cell_angle_gamma 90.000000
_cell_volume 2226.745562
_symmetry_space_group_name_H-M "P M M M"
_symmetry_group_IT_number 47
_symmetry_cell_setting 'orthorhombic'
loop_
_space_group_symop_operation_xyz
x,y,z
-x,-y,z
x,-y,-z
-x,y,-z
-x,-y,-z
x,y,-z
-x,y,z
x,-y,z
loop_
_atom_site_type_symbol
_atom_site_label
_atom_site_fract_x
_atom_site_fract_y
_atom_site_fract_z
Si Si1 0.679004 0.890894 0.336721
Si Si2 0.185433 0.698372 0.846561
Si Si3 0.813308 0.500000 0.155231
Si Si4 0.683814 0.779714 0.344462
Si Si5 0.000000 0.055767 0.663582
Si Si6 0.686398 0.401219 0.157118
O O1 0.675941 0.895361 0.500000
O O2 0.500000 0.908509 0.283630
O O3 0.705166 0.835022 0.292268
O O4 0.833325 0.920688 0.278008
O O5 0.216179 0.745400 0.754590
O O6 0.257476 0.649631 0.774137
O O7 0.000000 0.689748 0.859061
O O8 0.259605 0.706585 0.000000
O O9 0.755658 0.450123 0.230491
O O10 0.000000 0.500000 0.152948
O O11 0.740564 0.500000 0.000000
O O12 0.749471 0.774610 0.500000
O O13 0.500000 0.763848 0.338299
O O14 0.000000 0.061072 0.500000
O O15 0.000000 0.000000 0.711731
O O16 0.500000 0.404942 0.168241
O O17 0.749509 0.399733 0.000000
#
# Coordination Sequence:
#
# PCOD8196575 Si02
#       6
#     8   8   4   8   4   8
#     4   8  15  27  41  60  88 119 153 193 232 275
#     4  10  20  31  44  67  97 124 152 191 238 281
#     4   9  15  23  37  57  82 111 144 183 226 275
#     4   9  18  32  49  68  90 122 162 196 230 277
#     4   9  16  24  38  62  89 121 157 188 229 280
#     4   9  16  26  40  58  83 116 150 184 226 275
#
# _framework density 17.963436000000002
#
# number of rings (size 3 to 8) (size 9 to 14) (size 15 to 20)
#    0.000    3.000    0.000    2.700    1.400    5.600 
#    0.000    2.000    0.000    0.000    0.000    0.700 
#    0.000    7.200    0.000    4.400    0.000    4.400 
#
# Total GULP energy -495572.670462 kJ/mol
# GULP energy per Si atom -12389.316762 kJ/mol
# Density = 1.792255 g / cm^3
# Si number density = 17.963436 Si / 1000 Ang^3
#
#
#
# Elastic Constant Matrix: (Units=GPa)
#
#
# Indices 1 2 3 4 5 6 
#
# 1 110.8431 67.5696 14.0290 0.0000 0.0000 0.0000
# 2 67.5696 132.2384 23.5408 0.0000 0.0000 0.0000
# 3 14.0290 23.5408 23.3147 0.0000 0.0000 0.0000
# 4 0.0000 0.0000 0.0000 7.0102 0.0000 0.0000
# 5 0.0000 0.0000 0.0000 0.0000 13.3612 0.0000
# 6 0.0000 0.0000 0.0000 0.0000 0.0000 38.5920
#
#
#
# Elastic Compliance Matrix: (Units=1/GPa)
#
#
# Indices 1 2 3 4 5 6 
#
# 1 0.013139 -0.006469 -0.001374 0.000000 0.000000 0.000000
# 2 -0.006469 0.012404 -0.008632 0.000000 0.000000 0.000000
# 3 -0.001374 -0.008632 0.052434 0.000000 0.000000 0.000000
# 4 0.000000 0.000000 0.000000 0.142649 0.000000 0.000000
# 5 0.000000 0.000000 0.000000 0.000000 0.074844 0.000000
# 6 0.000000 0.000000 0.000000 0.000000 0.000000 0.025912
#
#
# Mechanical properties :
#
#
# Convention : Reuss Voigt Hill
#
# Bulk Modulus (GPa) = 22.20899 52.96388 37.58644
# Shear Modulus (GPa) = 13.53759 22.54315 18.04037
#
# Velocity S-wave (km/s) = 2.74819 3.54637 3.17248
# Velocity P-wave (km/s) = 4.73924 6.80568 5.86420
#
# Compressibility (1/GPa) = 0.04502680
#
# Stress axis : x y z
#
# Youngs Moduli (GPa) = 76.10801 80.61775 19.07154
#
# Poissons Ratio (x) = 0.52152 0.02621
# Poissons Ratio (y) = 0.49235 0.16462
# Poissons Ratio (z) = 0.10460 0.69589
#
# Static dielectric constant tensor:
#      x y z
#    x 3.499900 0.000000 0.000000 
#    y 0.000000 3.581860 0.000000 
#    z 0.000000 0.000000 2.691480 
# 
# 
# High freq. dielectric constant tensor:
#      x y z
#    x 1.710970 0.000000 0.000000 
#    y 0.000000 1.708850 0.000000 
#    z 0.000000 0.000000 1.605290 
# 
# From -- ./inp_files/1707.got.cif
#   From: 2010.03.12/outbox.cif.g09.slc.cpg/sg47_1_cif.got.tgz:1707.got - 2010.04.14 03:12:58.
