data_PCOD8196432
_publ_section_title
;
Structure prediction by ZEFSAII (Michael W. Deem and Ramdas Pophale) SiO2 
 PCOD8196432
Probable space group: P M M M
;
_chemical_formula_sum "Si O2"
_cell_formula_units_Z 56
_cell_length_a 31.272970
_cell_length_b 9.120394
_cell_length_c 14.198567
_cell_angle_alpha 90.000000
_cell_angle_beta 90.000000
_cell_angle_gamma 90.000000
_cell_volume 4049.740950
_symmetry_space_group_name_H-M "P M M M"
_symmetry_group_IT_number 47
_symmetry_cell_setting 'orthorhombic'
loop_
_space_group_symop_operation_xyz
x,y,z
-x,-y,z
x,-y,-z
-x,y,-z
-x,-y,-z
x,y,-z
-x,y,z
x,-y,z
loop_
_atom_site_type_symbol
_atom_site_label
_atom_site_fract_x
_atom_site_fract_y
_atom_site_fract_z
Si Si1 0.000000 0.332395 0.888515
Si Si2 0.582678 0.664566 0.887573
Si Si3 0.336099 0.165091 0.111924
Si Si4 0.919670 0.174552 0.201283
Si Si5 0.952119 0.826446 0.602332
Si Si6 0.159458 0.668422 0.111487
Si Si7 0.758007 0.164242 0.111797
Si Si8 0.500000 0.834955 0.887728
O O1 0.958128 0.248588 0.854450
O O2 0.000000 0.500000 0.851176
O O3 0.000000 0.331087 0.000000
O O4 0.578784 0.500000 0.849513
O O5 0.626666 0.732145 0.846335
O O6 0.542213 0.754704 0.848683
O O7 0.583064 0.668250 0.000000
O O8 0.288996 0.217411 0.146932
O O9 0.344655 0.000000 0.146859
O O10 0.337737 0.170510 0.000000
O O11 0.922032 0.222832 0.311399
O O12 0.875205 0.231387 0.161802
O O13 0.922753 0.000000 0.188302
O O14 0.934914 0.769587 0.500000
O O15 0.000000 0.764548 0.619799
O O16 0.954519 0.000000 0.600257
O O17 0.153643 0.500000 0.141402
O O18 0.205844 0.723405 0.147335
O O19 0.154458 0.687906 0.000000
O O20 0.767590 0.000000 0.149856
O O21 0.757873 0.160082 0.000000
O O22 0.500000 0.000000 0.849026
O O23 0.500000 0.832802 0.000000
#
# Coordination Sequence:
#
# PCOD8196432 Si02
#       8
#     4   8   8   8   8   8   8   4
#     4  11  23  35  44  57  82 110 129 149 178 207
#     4   9  15  20  26  37  52  69  91 121 158 202
#     4   8  13  21  32  44  57  73  96 128 165 201
#     4  11  20  31  48  66  79  98 127 152 175 208
#     4   8  14  27  47  68  85  97 115 147 182 212
#     4  10  20  31  41  55  78 105 126 147 180 215
#     4   8  14  25  39  52  65  84 113 146 173 202
#     4   9  15  21  27  33  45  67  93 121 157 201
#
# _framework density 13.828044
#
# number of rings (size 3 to 8) (size 9 to 14) (size 15 to 20)
#    0.000    2.857    0.714    3.429    0.000    6.286 
#    0.000    2.857    0.000    2.143    0.000    0.000 
#    0.000    0.000    0.000    0.000    0.000    0.000 
#
# Total GULP energy -693962.953530 kJ/mol
# GULP energy per Si atom -12392.195599 kJ/mol
# Density = 1.379657 g / cm^3
# Si number density = 13.828044 Si / 1000 Ang^3
#
#
#
# Elastic Constant Matrix: (Units=GPa)
#
#
# Indices 1 2 3 4 5 6 
#
# 1 120.9238 60.1296 24.8801 0.0000 0.0000 0.0000
# 2 60.1296 93.5184 22.8599 0.0000 0.0000 0.0000
# 3 24.8801 22.8599 34.0598 0.0000 0.0000 0.0000
# 4 0.0000 0.0000 0.0000 4.3695 0.0000 0.0000
# 5 0.0000 0.0000 0.0000 0.0000 -0.5367 0.0000
# 6 0.0000 0.0000 0.0000 0.0000 0.0000 20.6877
#
#
#
# Elastic Compliance Matrix: (Units=1/GPa)
#
#
# Indices 1 2 3 4 5 6 
#
# 1 0.012719 -0.007066 -0.004549 0.000000 0.000000 0.000000
# 2 -0.007066 0.016717 -0.006058 0.000000 0.000000 0.000000
# 3 -0.004549 -0.006058 0.036749 0.000000 0.000000 0.000000
# 4 0.000000 0.000000 0.000000 0.228862 0.000000 0.000000
# 5 0.000000 0.000000 0.000000 0.000000 -1.863144 0.000000
# 6 0.000000 0.000000 0.000000 0.000000 0.000000 0.048338
#
#
# Mechanical properties :
#
#
# Convention : Reuss Voigt Hill
#
# Bulk Modulus (GPa) = 32.42631 51.58236 42.00433
# Shear Modulus (GPa) = -3.39182 14.27959 5.44388
#
# Velocity S-wave (km/s) = -1.56786 3.21698 1.98630
# Velocity P-wave (km/s) = 4.49700 7.15418 5.97517
#
# Compressibility (1/GPa) = 0.03083916
#
# Stress axis : x y z
#
# Youngs Moduli (GPa) = 78.62116 59.81789 27.21166
#
# Poissons Ratio (x) = 0.42269 0.12377
# Poissons Ratio (y) = 0.55556 0.16486
# Poissons Ratio (z) = 0.35761 0.36241
#
# Static dielectric constant tensor:
#      x y z
#    x 3.060860 0.000000 0.000000 
#    y 0.000000 2.827260 0.000000 
#    z 0.000000 0.000000 2.402250 
# 
# 
# High freq. dielectric constant tensor:
#      x y z
#    x 1.534670 0.000000 0.000000 
#    y 0.000000 1.531650 0.000000 
#    z 0.000000 0.000000 1.451740 
# 
# From -- ./inp_files/25810.got.cif
#   From: 2010.03.12/outbox.cif.g09.slc.cpg/sg47_13_cif.got.tgz:25810.got - 2010.04.14 03:12:58.
