data_PCOD8196751
_publ_section_title
;
Structure prediction by ZEFSAII (Michael W. Deem and Ramdas Pophale) SiO2 
 PCOD8196751
Probable space group: P M M M
;
_chemical_formula_sum "Si O2"
_cell_formula_units_Z 60
_cell_length_a 9.292820
_cell_length_b 24.729254
_cell_length_c 15.852442
_cell_angle_alpha 90.000000
_cell_angle_beta 90.000000
_cell_angle_gamma 90.000000
_cell_volume 3642.962605
_symmetry_space_group_name_H-M "P M M M"
_symmetry_group_IT_number 47
_symmetry_cell_setting 'orthorhombic'
loop_
_space_group_symop_operation_xyz
x,y,z
-x,-y,z
x,-y,-z
-x,y,-z
-x,-y,-z
x,y,-z
-x,y,z
x,-y,z
loop_
_atom_site_type_symbol
_atom_site_label
_atom_site_fract_x
_atom_site_fract_y
_atom_site_fract_z
Si Si1 0.335227 0.435509 0.772980
Si Si2 0.830890 0.634998 0.901945
Si Si3 0.158991 0.158649 0.096732
Si Si4 0.331124 0.061900 0.158138
Si Si5 0.657554 0.936191 0.347477
Si Si6 0.158995 0.935279 0.500000
Si Si7 0.661763 0.741954 0.100075
Si Si8 0.670702 0.439478 0.589903
O O1 0.500000 0.417555 0.791293
O O2 0.323954 0.500000 0.773642
O O3 0.231225 0.413290 0.845516
O O4 0.281985 0.413043 0.679953
O O5 0.751532 0.689536 0.872746
O O6 0.000000 0.641899 0.885779
O O7 0.799560 0.621810 0.000000
O O8 0.237279 0.100731 0.100166
O O9 0.257377 0.205415 0.138835
O O10 0.000000 0.156374 0.139406
O O11 0.138331 0.174065 0.000000
O O12 0.500000 0.071521 0.142483
O O13 0.287537 0.076839 0.253860
O O14 0.291305 0.000000 0.136768
O O15 0.500000 0.910615 0.362241
O O16 0.764661 0.911711 0.416671
O O17 0.645808 0.000000 0.358843
O O18 0.000000 0.911404 0.500000
O O19 0.158517 0.000000 0.500000
O O20 0.500000 0.739119 0.137834
O O21 0.652856 0.746416 0.000000
O O22 0.718825 0.410564 0.500000
O O23 0.500000 0.442104 0.592964
O O24 0.733322 0.500000 0.586941
#
# Coordination Sequence:
#
# PCOD8196751 Si02
#       8
#     8   8   8   8   8   4   8   8
#     4   9  17  28  43  65  92 122 157 193 226 266
#     4  10  20  32  45  62  88 121 153 187 229 273
#     4  10  20  32  46  65  89 115 143 178 222 269
#     4   9  18  31  45  62  86 117 151 183 214 252
#     4   8  14  25  39  54  76 107 139 170 204 241
#     4   9  15  21  33  55  79 103 133 167 203 245
#     4   9  17  31  51  69  83 104 140 186 228 262
#     4   7  10  19  37  60  85 113 146 186 229 266
#
# _framework density 16.470109999999998
#
# number of rings (size 3 to 8) (size 9 to 14) (size 15 to 20)
#    0.000    3.133    0.000    3.400    0.000    5.600 
#    0.000    4.000    0.000    0.400    0.000    1.867 
#    2.000    0.000    3.600    0.000    2.267    0.000 
#
# Total GULP energy -743297.956307 kJ/mol
# GULP energy per Si atom -12388.299272 kJ/mol
# Density = 1.643262 g / cm^3
# Si number density = 16.470110 Si / 1000 Ang^3
#
#
#
# Elastic Constant Matrix: (Units=GPa)
#
#
# Indices 1 2 3 4 5 6 
#
# 1 98.4219 38.7709 37.7706 0.0000 0.0000 0.0000
# 2 38.7709 55.3016 26.2349 0.0000 0.0000 0.0000
# 3 37.7706 26.2349 66.6280 0.0000 0.0000 0.0000
# 4 0.0000 0.0000 0.0000 2.0225 0.0000 0.0000
# 5 0.0000 0.0000 0.0000 0.0000 13.5139 0.0000
# 6 0.0000 0.0000 0.0000 0.0000 0.0000 21.2723
#
#
#
# Elastic Compliance Matrix: (Units=1/GPa)
#
#
# Indices 1 2 3 4 5 6 
#
# 1 0.015550 -0.008263 -0.005561 0.000000 0.000000 0.000000
# 2 -0.008263 0.026628 -0.005800 0.000000 0.000000 0.000000
# 3 -0.005561 -0.005800 0.020445 0.000000 0.000000 0.000000
# 4 0.000000 0.000000 0.000000 0.494428 0.000000 0.000000
# 5 0.000000 0.000000 0.000000 0.000000 0.073998 0.000000
# 6 0.000000 0.000000 0.000000 0.000000 0.000000 0.047009
#
#
# Mechanical properties :
#
#
# Convention : Reuss Voigt Hill
#
# Bulk Modulus (GPa) = 42.78487 47.32269 45.05378
# Shear Modulus (GPa) = 6.89562 15.20009 11.04785
#
# Velocity S-wave (km/s) = 2.04837 3.04121 2.59276
# Velocity P-wave (km/s) = 5.62389 6.41301 6.03137
#
# Compressibility (1/GPa) = 0.02337275
#
# Stress axis : x y z
#
# Youngs Moduli (GPa) = 64.31009 37.55505 48.91133
#
# Poissons Ratio (x) = 0.31033 0.27201
# Poissons Ratio (y) = 0.53142 0.28370
# Poissons Ratio (z) = 0.35764 0.21783
#
# Static dielectric constant tensor:
#      x y z
#    x 3.205860 0.000000 0.000000 
#    y 0.000000 2.722450 0.000000 
#    z 0.000000 0.000000 3.277260 
# 
# 
# High freq. dielectric constant tensor:
#      x y z
#    x 1.630950 0.000000 0.000000 
#    y 0.000000 1.586830 0.000000 
#    z 0.000000 0.000000 1.621960 
# 
# From -- ./inp_files/27103.got.cif
#   From: 2010.03.12/outbox.cif.g09.slc.cpg/sg47_14_cif.got.tgz:27103.got - 2010.04.14 03:12:58.
