data_PCOD8196314
_publ_section_title
;
Structure prediction by ZEFSAII (Michael W. Deem and Ramdas Pophale) SiO2 
 PCOD8196314
Probable space group: P M M M
;
_chemical_formula_sum "Si O2"
_cell_formula_units_Z 56
_cell_length_a 9.173370
_cell_length_b 14.064121
_cell_length_c 23.175486
_cell_angle_alpha 90.000000
_cell_angle_beta 90.000000
_cell_angle_gamma 90.000000
_cell_volume 2989.994264
_symmetry_space_group_name_H-M "P M M M"
_symmetry_group_IT_number 47
_symmetry_cell_setting 'orthorhombic'
loop_
_space_group_symop_operation_xyz
x,y,z
-x,-y,z
x,-y,-z
-x,y,-z
-x,-y,-z
x,y,-z
-x,y,z
x,-y,z
loop_
_atom_site_type_symbol
_atom_site_label
_atom_site_fract_x
_atom_site_fract_y
_atom_site_fract_z
Si Si1 0.827663 0.608840 0.227400
Si Si2 0.667019 0.893474 0.611212
Si Si3 0.827451 0.103210 0.935250
Si Si4 0.667879 0.705176 0.667814
Si Si5 0.837544 0.112921 0.500000
Si Si6 0.827255 0.300903 0.107522
Si Si7 0.165486 0.612146 0.434821
Si Si8 0.335593 0.387916 0.000000
O O1 0.774104 0.500000 0.230065
O O2 0.759179 0.668127 0.278790
O O3 0.774475 0.654899 0.167643
O O4 0.000000 0.615116 0.233561
O O5 0.500000 0.896076 0.590984
O O6 0.688303 0.819929 0.664031
O O7 0.758460 0.851802 0.557692
O O8 0.717905 0.000000 0.630010
O O9 0.778911 0.189533 0.893741
O O10 0.000000 0.099174 0.937629
O O11 0.768270 0.000000 0.913051
O O12 0.768054 0.123002 0.000000
O O13 0.500000 0.677445 0.676880
O O14 0.721017 0.659503 0.608304
O O15 0.000000 0.155312 0.500000
O O16 0.836687 0.000000 0.500000
O O17 0.748765 0.355631 0.056607
O O18 0.000000 0.312858 0.098967
O O19 0.194916 0.649590 0.500000
O O20 0.189280 0.500000 0.432463
O O21 0.000000 0.637022 0.416193
O O22 0.339572 0.500000 0.000000
O O23 0.500000 0.346478 0.000000
#
# Coordination Sequence:
#
# PCOD8196314 Si02
#       8
#     8   8   8   8   4   8   8   4
#     4  10  22  39  57  78 107 144 184 226 274 325
#     4   9  19  36  54  73 104 144 179 214 263 325
#     4   8  13  24  48  83 116 142 172 216 267 312
#     4  11  23  36  55  80 104 138 184 226 266 319
#     4   9  17  29  49  79 108 133 168 215 265 316
#     4  10  19  35  59  83 107 143 189 227 260 317
#     4   9  19  36  56  78 106 139 172 213 273 333
#     4  11  23  35  50  79 116 146 173 221 286 331
#
# _framework density 18.729132
#
# number of rings (size 3 to 8) (size 9 to 14) (size 15 to 20)
#    0.000    2.429    0.714    2.571    1.000    6.286 
#    0.000    1.429    0.000    1.714    0.000    0.000 
#    0.000    0.000    0.000    0.000    0.000    0.000 
#
# Total GULP energy -694222.054868 kJ/mol
# GULP energy per Si atom -12396.822408 kJ/mol
# Density = 1.868650 g / cm^3
# Si number density = 18.729132 Si / 1000 Ang^3
#
#
#
# Elastic Constant Matrix: (Units=GPa)
#
#
# Indices 1 2 3 4 5 6 
#
# 1 41.8447 32.1908 36.0193 0.0000 0.0000 0.0000
# 2 32.1908 107.7108 66.2989 0.0000 0.0000 0.0000
# 3 36.0193 66.2989 123.0924 0.0000 0.0000 0.0000
# 4 0.0000 0.0000 0.0000 31.4552 0.0000 0.0000
# 5 0.0000 0.0000 0.0000 0.0000 10.6928 0.0000
# 6 0.0000 0.0000 0.0000 0.0000 0.0000 20.8950
#
#
#
# Elastic Compliance Matrix: (Units=1/GPa)
#
#
# Indices 1 2 3 4 5 6 
#
# 1 0.034444 -0.006119 -0.006783 0.000000 0.000000 0.000000
# 2 -0.006119 0.014976 -0.006276 0.000000 0.000000 0.000000
# 3 -0.006783 -0.006276 0.013489 0.000000 0.000000 0.000000
# 4 0.000000 0.000000 0.000000 0.031791 0.000000 0.000000
# 5 0.000000 0.000000 0.000000 0.000000 0.093521 0.000000
# 6 0.000000 0.000000 0.000000 0.000000 0.000000 0.047858
#
#
# Mechanical properties :
#
#
# Convention : Reuss Voigt Hill
#
# Bulk Modulus (GPa) = 40.72775 60.18510 50.45643
# Shear Modulus (GPa) = 17.69169 21.81787 19.75478
#
# Velocity S-wave (km/s) = 3.07678 3.41679 3.25123
# Velocity P-wave (km/s) = 5.86643 6.91160 6.41035
#
# Compressibility (1/GPa) = 0.02455328
#
# Stress axis : x y z
#
# Youngs Moduli (GPa) = 29.03268 66.77568 74.13440
#
# Poissons Ratio (x) = 0.40858 0.50288
# Poissons Ratio (y) = 0.17764 0.46523
# Poissons Ratio (z) = 0.19694 0.41905
#
# Static dielectric constant tensor:
#      x y z
#    x 3.326000 0.000000 0.000000 
#    y 0.000000 3.848130 0.000000 
#    z 0.000000 0.000000 3.386010 
# 
# 
# High freq. dielectric constant tensor:
#      x y z
#    x 1.708460 0.000000 0.000000 
#    y 0.000000 1.746880 0.000000 
#    z 0.000000 0.000000 1.707450 
# 
# From -- ./inp_files/29796.got.cif
#   From: 2010.03.12/outbox.cif.g09.slc.cpg/sg47_15_cif.got.tgz:29796.got - 2010.04.14 03:12:58.
