data_PCOD8196423
_publ_section_title
;
Structure prediction by ZEFSAII (Michael W. Deem and Ramdas Pophale) SiO2 
 PCOD8196423
Probable space group: P M M M
;
_chemical_formula_sum "Si O2"
_cell_formula_units_Z 64
_cell_length_a 9.271154
_cell_length_b 29.767972
_cell_length_c 15.302208
_cell_angle_alpha 90.000000
_cell_angle_beta 90.000000
_cell_angle_gamma 90.000000
_cell_volume 4223.156197
_symmetry_space_group_name_H-M "P M M M"
_symmetry_group_IT_number 47
_symmetry_cell_setting 'orthorhombic'
loop_
_space_group_symop_operation_xyz
x,y,z
-x,-y,z
x,-y,-z
-x,y,-z
-x,-y,-z
x,y,-z
-x,y,z
x,-y,z
loop_
_atom_site_type_symbol
_atom_site_label
_atom_site_fract_x
_atom_site_fract_y
_atom_site_fract_z
Si Si1 0.167764 0.384493 0.403931
Si Si2 0.162021 0.049605 0.103927
Si Si3 0.338070 0.133314 0.104060
Si Si4 0.666472 0.608504 0.762201
Si Si5 0.834928 0.551544 0.898680
Si Si6 0.336890 0.705452 0.406833
Si Si7 0.662665 0.714502 0.219838
Si Si8 0.167909 0.779346 0.101716
O O1 0.193584 0.407105 0.500000
O O2 0.255129 0.409125 0.326405
O O3 0.219901 0.333456 0.409181
O O4 0.000000 0.385264 0.379423
O O5 0.266362 0.087940 0.142738
O O6 0.000000 0.058259 0.138359
O O7 0.215528 0.000000 0.133952
O O8 0.162080 0.052153 0.000000
O O9 0.500000 0.136828 0.140830
O O10 0.248721 0.176330 0.136482
O O11 0.337471 0.131493 0.000000
O O12 0.500000 0.596179 0.753750
O O13 0.729754 0.583268 0.845170
O O14 0.691846 0.661417 0.776349
O O15 0.804726 0.500000 0.873690
O O16 0.000000 0.564031 0.877476
O O17 0.801578 0.559831 0.000000
O O18 0.323937 0.732564 0.500000
O O19 0.500000 0.684822 0.399082
O O20 0.312076 0.734703 0.318613
O O21 0.500000 0.724756 0.187474
O O22 0.774720 0.736299 0.153452
O O23 0.000000 0.785884 0.120291
O O24 0.199086 0.770946 0.000000
#
# Coordination Sequence:
#
# PCOD8196423 Si02
#       8
#     8   8   8   8   8   8   8   8
#     4   9  16  26  43  67  92 117 143 169 199 238
#     4   8  13  21  33  49  69  92 120 159 205 248
#     4   9  16  25  37  51  68  94 129 169 210 249
#     4  10  20  32  48  70  93 116 140 170 208 247
#     4   9  19  36  55  72  90 113 140 171 209 251
#     4   8  14  26  43  62  85 110 134 164 205 250
#     4   9  18  30  43  62  86 110 137 168 202 240
#     4  10  20  31  41  53  73 106 145 179 210 245
#
# _framework density 15.154544
#
# number of rings (size 3 to 8) (size 9 to 14) (size 15 to 20)
#    0.000    3.000    0.000    3.000    0.000    6.750 
#    0.000    4.375    0.000    0.375    0.000    2.625 
#    0.000    0.000    0.000    0.000    0.000    0.625 
#
# Total GULP energy -793014.670954 kJ/mol
# GULP energy per Si atom -12390.854234 kJ/mol
# Density = 1.512005 g / cm^3
# Si number density = 15.154544 Si / 1000 Ang^3
#
#
#
# Elastic Constant Matrix: (Units=GPa)
#
#
# Indices 1 2 3 4 5 6 
#
# 1 107.9812 45.0356 52.3722 0.0000 0.0000 0.0000
# 2 45.0356 55.3428 37.5485 0.0000 0.0000 0.0000
# 3 52.3722 37.5485 71.6007 0.0000 0.0000 0.0000
# 4 0.0000 0.0000 0.0000 0.2324 0.0000 0.0000
# 5 0.0000 0.0000 0.0000 0.0000 21.4559 0.0000
# 6 0.0000 0.0000 0.0000 0.0000 0.0000 24.1671
#
#
#
# Elastic Compliance Matrix: (Units=1/GPa)
#
#
# Indices 1 2 3 4 5 6 
#
# 1 0.016390 -0.008078 -0.007752 0.000000 0.000000 0.000000
# 2 -0.008078 0.032030 -0.010889 0.000000 0.000000 0.000000
# 3 -0.007752 -0.010889 0.025347 0.000000 0.000000 0.000000
# 4 0.000000 0.000000 0.000000 4.302628 0.000000 0.000000
# 5 0.000000 0.000000 0.000000 0.000000 0.046607 0.000000
# 6 0.000000 0.000000 0.000000 0.000000 0.000000 0.041379
#
#
# Mechanical properties :
#
#
# Convention : Reuss Voigt Hill
#
# Bulk Modulus (GPa) = 49.18925 56.09303 52.64114
# Shear Modulus (GPa) = 1.10507 15.83565 8.47036
#
# Velocity S-wave (km/s) = 0.85486 3.23607 2.36674
# Velocity P-wave (km/s) = 5.78820 7.14543 6.50232
#
# Compressibility (1/GPa) = 0.02032964
#
# Stress axis : x y z
#
# Youngs Moduli (GPa) = 61.01393 31.22070 39.45254
#
# Poissons Ratio (x) = 0.25219 0.30585
# Poissons Ratio (y) = 0.49284 0.42959
# Poissons Ratio (z) = 0.47299 0.33995
#
# Static dielectric constant tensor:
#      x y z
#    x 3.036370 0.000000 0.000000 
#    y 0.000000 2.722190 0.000000 
#    z 0.000000 0.000000 2.947050 
# 
# 
# High freq. dielectric constant tensor:
#      x y z
#    x 1.594190 0.000000 0.000000 
#    y 0.000000 1.545270 0.000000 
#    z 0.000000 0.000000 1.556150 
# 
# From -- ./inp_files/8303.got.cif
#   From: 2010.03.12/outbox.cif.g09.slc.cpg/sg47_5_cif.got.tgz:8303.got - 2010.04.14 03:12:58.
