data_PCOD8196454
_publ_section_title
;
Structure prediction by ZEFSAII (Michael W. Deem and Ramdas Pophale) SiO2 
 PCOD8196454
Probable space group: P M M M
;
_chemical_formula_sum "Si O2"
_cell_formula_units_Z 44
_cell_length_a 14.819949
_cell_length_b 22.711740
_cell_length_c 9.384356
_cell_angle_alpha 90.000000
_cell_angle_beta 90.000000
_cell_angle_gamma 90.000000
_cell_volume 3158.650624
_symmetry_space_group_name_H-M "P M M M"
_symmetry_group_IT_number 47
_symmetry_cell_setting 'orthorhombic'
loop_
_space_group_symop_operation_xyz
x,y,z
-x,-y,z
x,-y,-z
-x,y,-z
-x,-y,-z
x,y,-z
-x,y,z
x,-y,z
loop_
_atom_site_type_symbol
_atom_site_label
_atom_site_fract_x
_atom_site_fract_y
_atom_site_fract_z
Si Si1 0.893063 0.848791 0.336301
Si Si2 0.892139 0.500000 0.659988
Si Si3 0.768444 0.930222 0.163703
Si Si4 0.400289 0.930068 0.659868
Si Si5 0.107189 0.738568 0.840122
Si Si6 0.892735 0.608488 0.839941
O O1 0.862118 0.851255 0.500000
O O2 0.851582 0.903120 0.250129
O O3 0.856329 0.787618 0.269083
O O4 0.000000 0.854012 0.321733
O O5 0.855168 0.500000 0.500000
O O6 0.853073 0.558377 0.736531
O O7 0.000000 0.500000 0.663903
O O8 0.674555 0.906200 0.230369
O O9 0.776451 0.000000 0.178567
O O10 0.772568 0.910085 0.000000
O O11 0.377451 0.907885 0.500000
O O12 0.500000 0.907244 0.705761
O O13 0.400127 0.000000 0.661995
O O14 0.140708 0.673546 0.791234
O O15 0.000000 0.739251 0.840549
O O16 0.142390 0.752426 0.000000
O O17 0.000000 0.606466 0.835913
O O18 0.858973 0.595439 0.000000
#
# Coordination Sequence:
#
# PCOD8196454 Si02
#       6
#     8   4   8   8   8   8
#     4  10  20  31  42  55  71  94 124 158 194 229
#     4   9  15  19  25  41  63  83 103 133 172 209
#     4  10  20  31  43  59  77  97 121 151 186 223
#     4   8  14  26  44  63  81  99 116 137 171 216
#     4   8  14  25  39  51  63  83 113 148 183 218
#     4   8  13  21  32  44  59  81 107 135 171 214
#
# _framework density 13.929999
#
# number of rings (size 3 to 8) (size 9 to 14) (size 15 to 20)
#    0.000    3.182    0.000    3.000    0.000    4.727 
#    0.000    7.273    0.000    0.000    0.000    0.000 
#    0.000    0.000    0.000    0.000    0.000    0.000 
#
# Total GULP energy -545288.277190 kJ/mol
# GULP energy per Si atom -12392.915391 kJ/mol
# Density = 1.389829 g / cm^3
# Si number density = 13.929999 Si / 1000 Ang^3
#
#
#
# Elastic Constant Matrix: (Units=GPa)
#
#
# Indices 1 2 3 4 5 6 
#
# 1 29.8656 22.2297 31.9413 0.0000 0.0000 0.0000
# 2 22.2297 62.5229 51.9067 0.0000 0.0000 0.0000
# 3 31.9413 51.9067 116.3876 0.0000 0.0000 0.0000
# 4 0.0000 0.0000 0.0000 21.8026 0.0000 0.0000
# 5 0.0000 0.0000 0.0000 0.0000 16.3281 0.0000
# 6 0.0000 0.0000 0.0000 0.0000 0.0000 0.7654
#
#
#
# Elastic Compliance Matrix: (Units=1/GPa)
#
#
# Indices 1 2 3 4 5 6 
#
# 1 0.051333 -0.010410 -0.009445 0.000000 0.000000 0.000000
# 2 -0.010410 0.027509 -0.009412 0.000000 0.000000 0.000000
# 3 -0.009445 -0.009412 0.015382 0.000000 0.000000 0.000000
# 4 0.000000 0.000000 0.000000 0.045866 0.000000 0.000000
# 5 0.000000 0.000000 0.000000 0.000000 0.061244 0.000000
# 6 0.000000 0.000000 0.000000 0.000000 0.000000 1.306477
#
#
# Mechanical properties :
#
#
# Convention : Reuss Voigt Hill
#
# Bulk Modulus (GPa) = 28.01880 46.77018 37.39449
# Shear Modulus (GPa) = 3.16808 14.62578 8.89693
#
# Velocity S-wave (km/s) = 1.50971 3.24381 2.52997
# Velocity P-wave (km/s) = 4.81629 6.90491 5.95291
#
# Compressibility (1/GPa) = 0.03569032
#
# Stress axis : x y z
#
# Youngs Moduli (GPa) = 19.48053 36.35195 65.01306
#
# Poissons Ratio (x) = 0.37842 0.61407
# Poissons Ratio (y) = 0.20279 0.61188
# Poissons Ratio (z) = 0.18400 0.34213
#
# Static dielectric constant tensor:
#      x y z
#    x 2.410930 0.000000 0.000000 
#    y 0.000000 2.842610 0.000000 
#    z 0.000000 0.000000 2.963460 
# 
# 
# High freq. dielectric constant tensor:
#      x y z
#    x 1.468620 0.000000 0.000000 
#    y 0.000000 1.519070 0.000000 
#    z 0.000000 0.000000 1.543400 
# 
# From -- ./inp_files/7504.got.cif
#   From: 2010.03.12/outbox.cif.g09.slc.cpg/sg47_4_cif.got.tgz:7504.got - 2010.04.14 03:12:58.
