data_PCOD8196416
_publ_section_title
;
Structure prediction by ZEFSAII (Michael W. Deem and Ramdas Pophale) SiO2 
 PCOD8196416
Probable space group: P M M M
;
_chemical_formula_sum "Si O2"
_cell_formula_units_Z 64
_cell_length_a 9.296463
_cell_length_b 30.674217
_cell_length_c 20.301746
_cell_angle_alpha 90.000000
_cell_angle_beta 90.000000
_cell_angle_gamma 90.000000
_cell_volume 5789.280877
_symmetry_space_group_name_H-M "P M M M"
_symmetry_group_IT_number 47
_symmetry_cell_setting 'orthorhombic'
loop_
_space_group_symop_operation_xyz
x,y,z
-x,-y,z
x,-y,-z
-x,y,-z
-x,-y,-z
x,y,-z
-x,y,z
x,-y,z
loop_
_atom_site_type_symbol
_atom_site_label
_atom_site_fract_x
_atom_site_fract_y
_atom_site_fract_z
Si Si1 0.162192 0.629566 0.078584
Si Si2 0.158775 0.051771 0.308232
Si Si3 0.661532 0.451776 0.921680
Si Si4 0.336727 0.713011 0.921490
Si Si5 0.832362 0.949125 0.161558
Si Si6 0.666331 0.118725 0.922340
Si Si7 0.660900 0.948205 0.571862
Si Si8 0.836731 0.796472 0.921624
O O1 0.230852 0.584792 0.106601
O O2 0.256958 0.669831 0.104861
O O3 0.000000 0.633801 0.105749
O O4 0.161476 0.629400 0.000000
O O5 0.217397 0.063983 0.235674
O O6 0.252272 0.072650 0.367186
O O7 0.000000 0.071216 0.316837
O O8 0.153760 0.000000 0.314444
O O9 0.500000 0.442228 0.896152
O O10 0.711836 0.500000 0.898182
O O11 0.661881 0.449893 0.000000
O O12 0.500000 0.714080 0.894285
O O13 0.248927 0.754565 0.894310
O O14 0.338944 0.713501 0.000000
O O15 0.732672 0.923933 0.110632
O O16 0.000000 0.937432 0.150953
O O17 0.806867 0.000000 0.148899
O O18 0.500000 0.124137 0.902424
O O19 0.753597 0.160717 0.896569
O O20 0.683702 0.113046 0.000000
O O21 0.726383 0.935084 0.500000
O O22 0.500000 0.929931 0.576923
O O23 0.660210 0.000000 0.578210
O O24 0.000000 0.796403 0.894094
O O25 0.838980 0.795244 0.000000
#
# Coordination Sequence:
#
# PCOD8196416 Si02
#       8
#     8   8   8   8   8   8   8   8
#     4   9  15  20  26  37  51  65  82 102 122 146
#     4   8  14  24  36  49  64  81 101 122 140 159
#     4   8  13  20  27  33  43  61  83 104 125 147
#     4   9  15  22  32  44  57  70  82  98 122 152
#     4   9  18  31  43  53  65  81 100 120 142 168
#     4  10  20  31  41  53  66  77  92 115 142 173
#     4   8  13  20  30  46  67  87 104 120 137 157
#     4   9  16  26  39  51  61  72  85 102 128 162
#
# _framework density 11.054913000000001
#
# number of rings (size 3 to 8) (size 9 to 14) (size 15 to 20)
#    0.000    3.250    0.000    3.000    0.000    6.750 
#    0.000    5.000    0.000    0.000    0.000    0.000 
#    0.000    0.000    0.000    0.000    0.000    0.000 
#
# Total GULP energy -793117.948411 kJ/mol
# GULP energy per Si atom -12392.467944 kJ/mol
# Density = 1.102975 g / cm^3
# Si number density = 11.054913 Si / 1000 Ang^3
#
#
#
# Elastic Constant Matrix: (Units=GPa)
#
#
# Indices 1 2 3 4 5 6 
#
# 1 91.6738 46.9310 22.7533 0.0000 0.0000 0.0000
# 2 46.9310 65.0740 18.8812 0.0000 0.0000 0.0000
# 3 22.7533 18.8812 22.6827 0.0000 0.0000 0.0000
# 4 0.0000 0.0000 0.0000 0.0903 0.0000 0.0000
# 5 0.0000 0.0000 0.0000 0.0000 12.2362 0.0000
# 6 0.0000 0.0000 0.0000 0.0000 0.0000 20.2917
#
#
#
# Elastic Compliance Matrix: (Units=1/GPa)
#
#
# Indices 1 2 3 4 5 6 
#
# 1 0.018877 -0.010705 -0.010024 0.000000 0.000000 0.000000
# 2 -0.010705 0.026332 -0.011180 0.000000 0.000000 0.000000
# 3 -0.010024 -0.011180 0.063448 0.000000 0.000000 0.000000
# 4 0.000000 0.000000 0.000000 11.077413 0.000000 0.000000
# 5 0.000000 0.000000 0.000000 0.000000 0.081725 0.000000
# 6 0.000000 0.000000 0.000000 0.000000 0.000000 0.049281
#
#
# Mechanical properties :
#
#
# Convention : Reuss Voigt Hill
#
# Bulk Modulus (GPa) = 22.30280 39.61795 30.96037
# Shear Modulus (GPa) = 0.43876 12.58129 6.51002
#
# Velocity S-wave (km/s) = 0.63067 3.37719 2.42932
# Velocity P-wave (km/s) = 4.55507 7.15000 5.99463
#
# Compressibility (1/GPa) = 0.04483743
#
# Stress axis : x y z
#
# Youngs Moduli (GPa) = 52.97571 37.97732 15.76082
#
# Poissons Ratio (x) = 0.40655 0.15799
# Poissons Ratio (y) = 0.56711 0.17621
# Poissons Ratio (z) = 0.53105 0.42459
#
# Static dielectric constant tensor:
#      x y z
#    x 2.577500 0.000000 0.000000 
#    y 0.000000 2.314840 0.000000 
#    z 0.000000 0.000000 2.045830 
# 
# 
# High freq. dielectric constant tensor:
#      x y z
#    x 1.432470 0.000000 0.000000 
#    y 0.000000 1.398710 0.000000 
#    z 0.000000 0.000000 1.355330 
# 
# From -- ./inp_files/30229.got.cif
#   From: 2010.03.12/outbox.cif.g09.slc.cpg/sg47_16_cif.got.tgz:30229.got - 2010.04.14 03:12:58.
