data_PCOD8196489
_publ_section_title
;
Structure prediction by ZEFSAII (Michael W. Deem and Ramdas Pophale) SiO2 
 PCOD8196489
Probable space group: P M M M
;
_chemical_formula_sum "Si O2"
_cell_formula_units_Z 48
_cell_length_a 9.197352
_cell_length_b 14.999966
_cell_length_c 25.332481
_cell_angle_alpha 90.000000
_cell_angle_beta 90.000000
_cell_angle_gamma 90.000000
_cell_volume 3494.868250
_symmetry_space_group_name_H-M "P M M M"
_symmetry_group_IT_number 47
_symmetry_cell_setting 'orthorhombic'
loop_
_space_group_symop_operation_xyz
x,y,z
-x,-y,z
x,-y,-z
-x,y,-z
-x,-y,-z
x,y,-z
-x,y,z
x,-y,z
loop_
_atom_site_type_symbol
_atom_site_label
_atom_site_fract_x
_atom_site_fract_y
_atom_site_fract_z
Si Si1 0.335781 0.893943 0.740781
Si Si2 0.336640 0.105991 0.058223
Si Si3 0.163223 0.598238 0.562698
Si Si4 0.836394 0.106446 0.842143
Si Si5 0.831138 0.895258 0.637038
Si Si6 0.666573 0.768341 0.562540
O O1 0.500000 0.856537 0.738622
O O2 0.257109 0.856653 0.793096
O O3 0.247389 0.860263 0.689914
O O4 0.336818 0.000000 0.742229
O O5 0.500000 0.140880 0.068641
O O6 0.231334 0.144577 0.103444
O O7 0.336306 0.000000 0.060683
O O8 0.283034 0.137346 0.000000
O O9 0.164819 0.598425 0.500000
O O10 0.212618 0.500000 0.583020
O O11 0.272561 0.673696 0.584016
O O12 0.000000 0.619223 0.582856
O O13 0.000000 0.142829 0.837055
O O14 0.835203 0.000000 0.842204
O O15 0.759401 0.848348 0.586825
O O16 0.000000 0.870270 0.640925
O O17 0.808136 0.000000 0.629338
O O18 0.683319 0.775754 0.500000
O O19 0.500000 0.776680 0.580429
#
# Coordination Sequence:
#
# PCOD8196489 Si02
#       6
#     8   8   8   8   8   8
#     4   9  16  26  39  51  63  81 107 140 177 214
#     4   8  13  20  28  38  54  76 100 126 160 203
#     4   8  14  26  44  63  81 100 120 142 170 206
#     4   9  15  21  30  44  60  77 100 131 166 205
#     4  10  20  32  44  56  71  93 122 155 188 221
#     4  10  20  31  43  60  80 100 121 146 178 218
#
# _framework density 13.734424000000001
#
# number of rings (size 3 to 8) (size 9 to 14) (size 15 to 20)
#    0.000    3.000    0.000    3.000    0.000    7.000 
#    0.000    5.000    0.000    0.000    0.000    0.000 
#    0.000    0.000    0.000    0.000    0.000    0.000 
#
# Total GULP energy -594967.076176 kJ/mol
# GULP energy per Si atom -12395.147420 kJ/mol
# Density = 1.370316 g / cm^3
# Si number density = 13.734424 Si / 1000 Ang^3
#
#
#
# Elastic Constant Matrix: (Units=GPa)
#
#
# Indices 1 2 3 4 5 6 
#
# 1 122.5124 32.9393 51.7058 0.0000 0.0000 0.0000
# 2 32.9393 31.1656 24.3532 0.0000 0.0000 0.0000
# 3 51.7058 24.3532 65.7173 0.0000 0.0000 0.0000
# 4 0.0000 0.0000 0.0000 0.5680 0.0000 0.0000
# 5 0.0000 0.0000 0.0000 0.0000 26.0964 0.0000
# 6 0.0000 0.0000 0.0000 0.0000 0.0000 14.4781
#
#
#
# Elastic Compliance Matrix: (Units=1/GPa)
#
#
# Indices 1 2 3 4 5 6 
#
# 1 0.013651 -0.008495 -0.007592 0.000000 0.000000 0.000000
# 2 -0.008495 0.050452 -0.012012 0.000000 0.000000 0.000000
# 3 -0.007592 -0.012012 0.025642 0.000000 0.000000 0.000000
# 4 0.000000 0.000000 0.000000 1.760694 0.000000 0.000000
# 5 0.000000 0.000000 0.000000 0.000000 0.038319 0.000000
# 6 0.000000 0.000000 0.000000 0.000000 0.000000 0.069070
#
#
# Mechanical properties :
#
#
# Convention : Reuss Voigt Hill
#
# Bulk Modulus (GPa) = 29.81073 48.59910 39.20492
# Shear Modulus (GPa) = 2.46888 15.58829 9.02859
#
# Velocity S-wave (km/s) = 1.34220 3.37260 2.56670
# Velocity P-wave (km/s) = 4.91469 7.11531 6.11481
#
# Compressibility (1/GPa) = 0.03354497
#
# Stress axis : x y z
#
# Youngs Moduli (GPa) = 73.25629 19.82091 38.99894
#
# Poissons Ratio (x) = 0.16838 0.29609
# Poissons Ratio (y) = 0.62231 0.46847
# Poissons Ratio (z) = 0.55618 0.23810
#
# Static dielectric constant tensor:
#      x y z
#    x 2.950280 0.000000 0.000000 
#    y 0.000000 2.337820 0.000000 
#    z 0.000000 0.000000 2.757700 
# 
# 
# High freq. dielectric constant tensor:
#      x y z
#    x 1.540860 0.000000 0.000000 
#    y 0.000000 1.452840 0.000000 
#    z 0.000000 0.000000 1.514180 
# 
# From -- ./inp_files/7466.got.cif
#   From: 2010.03.12/outbox.cif.g09.slc.cpg/sg47_4_cif.got.tgz:7466.got - 2010.04.14 03:12:58.
