data_PCOD8196685
_publ_section_title
;
Structure prediction by ZEFSAII (Michael W. Deem and Ramdas Pophale) SiO2 
 PCOD8196685
Probable space group: P M M M
;
_chemical_formula_sum "Si O2"
_cell_formula_units_Z 64
_cell_length_a 14.407987
_cell_length_b 24.927246
_cell_length_c 9.927898
_cell_angle_alpha 90.000000
_cell_angle_beta 90.000000
_cell_angle_gamma 90.000000
_cell_volume 3565.618826
_symmetry_space_group_name_H-M "P M M M"
_symmetry_group_IT_number 47
_symmetry_cell_setting 'orthorhombic'
loop_
_space_group_symop_operation_xyz
x,y,z
-x,-y,z
x,-y,-z
-x,y,-z
-x,-y,-z
x,y,-z
-x,y,z
x,-y,z
loop_
_atom_site_type_symbol
_atom_site_label
_atom_site_fract_x
_atom_site_fract_y
_atom_site_fract_z
Si Si1 0.105119 0.786959 0.349047
Si Si2 0.724222 0.373327 0.154822
Si Si3 0.259038 0.750755 0.154594
Si Si4 0.894884 0.087049 0.653385
Si Si5 0.390523 0.559676 0.649033
Si Si6 0.395836 0.156326 0.159471
Si Si7 0.897534 0.560227 0.159620
Si Si8 0.267357 0.059667 0.154388
O O1 0.138048 0.772128 0.500000
O O2 0.166759 0.756945 0.240676
O O3 0.113475 0.849884 0.326038
O O4 0.000000 0.767752 0.326710
O O5 0.710242 0.310178 0.171914
O O6 0.642714 0.399021 0.239840
O O7 0.822911 0.395844 0.210883
O O8 0.712155 0.390542 0.000000
O O9 0.340342 0.790484 0.207052
O O10 0.234683 0.764291 0.000000
O O11 0.868857 0.071173 0.500000
O O12 0.825476 0.058974 0.756639
O O13 0.000000 0.068099 0.684811
O O14 0.354781 0.576337 0.500000
O O15 0.500000 0.560364 0.650982
O O16 0.354107 0.500000 0.684018
O O17 0.500000 0.157156 0.222071
O O18 0.341661 0.103011 0.209821
O O19 0.403991 0.155385 0.000000
O O20 0.869684 0.500000 0.207696
O O21 0.000000 0.575129 0.217022
O O22 0.901939 0.561561 0.000000
O O23 0.311720 0.000000 0.162985
O O24 0.240287 0.073602 0.000000
#
# Coordination Sequence:
#
# PCOD8196685 Si02
#       8
#     8   8   8   8   8   8   8   8
#     4   9  18  33  53  75 100 134 174 211 247 294
#     4  10  20  31  49  79 107 131 168 214 257 306
#     4  10  20  33  51  77 105 135 169 208 259 311
#     4   9  18  33  53  76 103 137 171 202 246 304
#     4   9  19  36  55  74 100 136 174 211 257 312
#     4   9  18  34  53  71  97 132 168 209 258 311
#     4   8  14  26  44  66  96 133 167 201 243 288
#     4  10  20  33  52  78 103 129 168 216 260 305
#
# _framework density 17.949197999999999
#
# number of rings (size 3 to 8) (size 9 to 14) (size 15 to 20)
#    0.000    2.750    1.250    1.875    0.000    3.750 
#    0.000    6.875    0.000    1.875    0.000    2.625 
#    0.000    0.000    0.000    0.000    0.000    0.000 
#
# Total GULP energy -793325.484046 kJ/mol
# GULP energy per Si atom -12395.710688 kJ/mol
# Density = 1.790834 g / cm^3
# Si number density = 17.949198 Si / 1000 Ang^3
#
#
#
# Elastic Constant Matrix: (Units=GPa)
#
#
# Indices 1 2 3 4 5 6 
#
# 1 90.8419 50.3349 44.2630 0.0000 0.0000 0.0000
# 2 50.3349 103.8548 43.0478 0.0000 0.0000 0.0000
# 3 44.2630 43.0478 66.9212 0.0000 0.0000 0.0000
# 4 0.0000 0.0000 0.0000 17.7017 0.0000 0.0000
# 5 0.0000 0.0000 0.0000 0.0000 23.1704 0.0000
# 6 0.0000 0.0000 0.0000 0.0000 0.0000 16.7465
#
#
#
# Elastic Compliance Matrix: (Units=1/GPa)
#
#
# Indices 1 2 3 4 5 6 
#
# 1 0.018086 -0.005192 -0.008623 0.000000 0.000000 0.000000
# 2 -0.005192 0.014620 -0.005971 0.000000 0.000000 0.000000
# 3 -0.008623 -0.005971 0.024487 0.000000 0.000000 0.000000
# 4 0.000000 0.000000 0.000000 0.056492 0.000000 0.000000
# 5 0.000000 0.000000 0.000000 0.000000 0.043158 0.000000
# 6 0.000000 0.000000 0.000000 0.000000 0.000000 0.059714
#
#
# Mechanical properties :
#
#
# Convention : Reuss Voigt Hill
#
# Bulk Modulus (GPa) = 56.74485 59.65659 58.20072
# Shear Modulus (GPa) = 19.08380 19.78853 19.43616
#
# Velocity S-wave (km/s) = 3.26423 3.32396 3.29423
# Velocity P-wave (km/s) = 6.77419 6.93110 6.85309
#
# Compressibility (1/GPa) = 0.01762274
#
# Stress axis : x y z
#
# Youngs Moduli (GPa) = 55.29006 68.40042 40.83775
#
# Poissons Ratio (x) = 0.35510 0.35215
# Poissons Ratio (y) = 0.28704 0.24382
# Poissons Ratio (z) = 0.47678 0.40839
#
# Static dielectric constant tensor:
#      x y z
#    x 3.442480 0.000000 0.000000 
#    y 0.000000 3.355790 0.000000 
#    z 0.000000 0.000000 3.146160 
# 
# 
# High freq. dielectric constant tensor:
#      x y z
#    x 1.689440 0.000000 0.000000 
#    y 0.000000 1.696850 0.000000 
#    z 0.000000 0.000000 1.667090 
# 
# From -- ./inp_files/16802.got.cif
#   From: 2010.03.12/outbox.cif.g09.slc.cpg/sg47_9_cif.got.tgz:16802.got - 2010.04.14 03:12:58.
