data_PCOD8196658
_publ_section_title
;
Structure prediction by ZEFSAII (Michael W. Deem and Ramdas Pophale) SiO2 
 PCOD8196658
Probable space group: P M M M
;
_chemical_formula_sum "Si O2"
_cell_formula_units_Z 44
_cell_length_a 28.173539
_cell_length_b 9.586313
_cell_length_c 9.198962
_cell_angle_alpha 90.000000
_cell_angle_beta 90.000000
_cell_angle_gamma 90.000000
_cell_volume 2484.458998
_symmetry_space_group_name_H-M "P M M M"
_symmetry_group_IT_number 47
_symmetry_cell_setting 'orthorhombic'
loop_
_space_group_symop_operation_xyz
x,y,z
-x,-y,z
x,-y,-z
-x,y,-z
-x,-y,-z
x,y,-z
-x,y,z
x,-y,z
loop_
_atom_site_type_symbol
_atom_site_label
_atom_site_fract_x
_atom_site_fract_y
_atom_site_fract_z
Si Si1 0.092485 0.837830 0.830109
Si Si2 0.370000 0.840800 0.827292
Si Si3 0.000000 0.165958 0.664303
Si Si4 0.716101 0.656663 0.172857
Si Si5 0.444846 0.658695 0.667647
Si Si6 0.821039 0.343600 0.172652
O O1 0.046669 0.778272 0.746372
O O2 0.138779 0.759803 0.766540
O O3 0.100400 0.000000 0.798795
O O4 0.084556 0.808356 0.000000
O O5 0.323016 0.763520 0.765611
O O6 0.416390 0.766177 0.766185
O O7 0.368604 0.000000 0.772959
O O8 0.372142 0.832468 0.000000
O O9 0.000000 0.222764 0.500000
O O10 0.000000 0.000000 0.668939
O O11 0.704340 0.500000 0.227878
O O12 0.768609 0.701949 0.228453
O O13 0.715486 0.658755 0.000000
O O14 0.431751 0.683505 0.500000
O O15 0.500000 0.688181 0.694869
O O16 0.432336 0.500000 0.712617
O O17 0.832367 0.500000 0.226623
O O18 0.821316 0.338030 0.000000
#
# Coordination Sequence:
#
# PCOD8196658 Si02
#       6
#     8   8   4   8   8   8
#     4   9  16  26  43  66  87 108 141 185 223 255
#     4  10  20  31  46  73 105 131 156 191 235 281
#     4   9  17  29  44  61  84 116 148 175 212 266
#     4   8  14  26  44  65  91 123 155 186 223 269
#     4   9  19  36  55  72  91 121 163 204 239 280
#     4   8  14  25  42  65  91 117 146 182 224 266
#
# _framework density 17.710094000000002
#
# number of rings (size 3 to 8) (size 9 to 14) (size 15 to 20)
#    0.000    3.182    0.000    2.455    0.000    4.000 
#    0.000    6.818    0.000    4.364    0.000    5.091 
#    0.000    0.000    0.000    0.000    0.000    0.000 
#
# Total GULP energy -545415.111237 kJ/mol
# GULP energy per Si atom -12395.797983 kJ/mol
# Density = 1.766978 g / cm^3
# Si number density = 17.710094 Si / 1000 Ang^3
#
#
#
# Elastic Constant Matrix: (Units=GPa)
#
#
# Indices 1 2 3 4 5 6 
#
# 1 144.4405 83.6830 34.2670 0.0000 0.0000 0.0000
# 2 83.6830 107.9383 28.6180 0.0000 0.0000 0.0000
# 3 34.2670 28.6180 28.9837 0.0000 0.0000 0.0000
# 4 0.0000 0.0000 0.0000 15.4036 0.0000 0.0000
# 5 0.0000 0.0000 0.0000 0.0000 2.4682 0.0000
# 6 0.0000 0.0000 0.0000 0.0000 0.0000 36.3169
#
#
#
# Elastic Compliance Matrix: (Units=1/GPa)
#
#
# Indices 1 2 3 4 5 6 
#
# 1 0.013747 -0.008600 -0.007761 0.000000 0.000000 0.000000
# 2 -0.008600 0.017930 -0.007536 0.000000 0.000000 0.000000
# 3 -0.007761 -0.007536 0.051119 0.000000 0.000000 0.000000
# 4 0.000000 0.000000 0.000000 0.064920 0.000000 0.000000
# 5 0.000000 0.000000 0.000000 0.000000 0.405156 0.000000
# 6 0.000000 0.000000 0.000000 0.000000 0.000000 0.027535
#
#
# Mechanical properties :
#
#
# Convention : Reuss Voigt Hill
#
# Bulk Modulus (GPa) = 28.57037 63.83317 46.20177
# Shear Modulus (GPa) = 7.81408 19.82405 13.81907
#
# Velocity S-wave (km/s) = 2.10281 3.34932 2.79640
# Velocity P-wave (km/s) = 4.69713 7.14695 6.04739
#
# Compressibility (1/GPa) = 0.03500130
#
# Stress axis : x y z
#
# Youngs Moduli (GPa) = 72.74220 55.77167 19.56209
#
# Poissons Ratio (x) = 0.47965 0.15183
# Poissons Ratio (y) = 0.62560 0.14742
# Poissons Ratio (z) = 0.56458 0.42030
#
# Static dielectric constant tensor:
#      x y z
#    x 3.612330 0.000000 0.000000 
#    y 0.000000 3.304400 0.000000 
#    z 0.000000 0.000000 2.856530 
# 
# 
# High freq. dielectric constant tensor:
#      x y z
#    x 1.700350 0.000000 0.000000 
#    y 0.000000 1.673620 0.000000 
#    z 0.000000 0.000000 1.638150 
# 
# From -- ./inp_files/2136.got.cif
#   From: 2010.03.12/outbox.cif.g09.slc.cpg/sg47_2_cif.got.tgz:2136.got - 2010.04.14 03:12:58.
