data_PCOD8196357
_publ_section_title
;
Structure prediction by ZEFSAII (Michael W. Deem and Ramdas Pophale) SiO2 
 PCOD8196357
Probable space group: P M M M
;
_chemical_formula_sum "Si O2"
_cell_formula_units_Z 48
_cell_length_a 19.262756
_cell_length_b 8.015976
_cell_length_c 24.846670
_cell_angle_alpha 90.000000
_cell_angle_beta 90.000000
_cell_angle_gamma 90.000000
_cell_volume 3836.569092
_symmetry_space_group_name_H-M "P M M M"
_symmetry_group_IT_number 47
_symmetry_cell_setting 'orthorhombic'
loop_
_space_group_symop_operation_xyz
x,y,z
-x,-y,z
x,-y,-z
-x,y,-z
-x,-y,-z
x,y,-z
-x,y,z
x,-y,z
loop_
_atom_site_type_symbol
_atom_site_label
_atom_site_fract_x
_atom_site_fract_y
_atom_site_fract_z
Si Si1 0.821634 0.194173 0.060592
Si Si2 0.578723 0.500000 0.935792
Si Si3 0.917350 0.684595 0.627680
Si Si4 0.082814 0.000000 0.439133
Si Si5 0.079831 0.190240 0.261395
Si Si6 0.664956 0.814611 0.936024
Si Si7 0.077223 0.691400 0.150290
O O1 0.743548 0.226995 0.081631
O O2 0.875292 0.287893 0.098362
O O3 0.838852 0.000000 0.061801
O O4 0.830396 0.264230 0.000000
O O5 0.500000 0.500000 0.914805
O O6 0.615374 0.668262 0.913156
O O7 0.582061 0.500000 0.000000
O O8 0.895312 0.500000 0.606424
O O9 0.888024 0.831565 0.589369
O O10 0.888055 0.705770 0.688718
O O11 0.000000 0.701469 0.629449
O O12 0.110754 0.000000 0.500000
O O13 0.000000 0.000000 0.437795
O O14 0.113865 0.224325 0.202849
O O15 0.000000 0.241745 0.253918
O O16 0.088898 0.000000 0.278394
O O17 0.642825 0.000000 0.914466
O O18 0.661450 0.819150 0.000000
O O19 0.070430 0.500000 0.164543
O O20 0.000000 0.766477 0.138544
#
# Coordination Sequence:
#
# PCOD8196357 Si02
#       7
#     8   4   8   4   8   8   8
#     4   9  18  31  43  52  64  88 117 139 170 216
#     4   9  16  24  38  60  77  91 111 131 156 188
#     4   9  15  23  35  48  62  82 104 126 157 195
#     4   9  16  24  32  46  66  84 105 127 149 189
#     4   9  15  25  39  50  62  80 103 133 170 207
#     4   8  15  27  40  54  72  93 114 133 156 194
#     4  10  20  29  37  53  70  83 107 146 185 215
#
# _framework density 12.511177999999999
#
# number of rings (size 3 to 8) (size 9 to 14) (size 15 to 20)
#    0.000    3.000    0.833    2.000    1.167    4.333 
#    0.000    5.000    0.000    0.000    0.000    0.000 
#    0.000    0.000    0.000    0.000    0.000    0.000 
#
# Total GULP energy -594749.089833 kJ/mol
# GULP energy per Si atom -12390.606038 kJ/mol
# Density = 1.248270 g / cm^3
# Si number density = 12.511178 Si / 1000 Ang^3
#
#
#
# Elastic Constant Matrix: (Units=GPa)
#
#
# Indices 1 2 3 4 5 6 
#
# 1 41.0315 28.1277 18.2867 0.0000 0.0000 0.0000
# 2 28.1277 83.6631 33.0934 0.0000 0.0000 0.0000
# 3 18.2867 33.0934 62.8381 0.0000 0.0000 0.0000
# 4 0.0000 0.0000 0.0000 14.3216 0.0000 0.0000
# 5 0.0000 0.0000 0.0000 0.0000 -0.0571 0.0000
# 6 0.0000 0.0000 0.0000 0.0000 0.0000 13.2579
#
#
#
# Elastic Compliance Matrix: (Units=1/GPa)
#
#
# Indices 1 2 3 4 5 6 
#
# 1 0.032739 -0.009143 -0.004712 0.000000 0.000000 0.000000
# 2 -0.009143 0.017651 -0.006635 0.000000 0.000000 0.000000
# 3 -0.004712 -0.006635 0.020780 0.000000 0.000000 0.000000
# 4 0.000000 0.000000 0.000000 0.069824 0.000000 0.000000
# 5 0.000000 0.000000 0.000000 0.000000-17.513648 0.000000
# 6 0.000000 0.000000 0.000000 0.000000 0.000000 0.075427
#
#
# Mechanical properties :
#
#
# Convention : Reuss Voigt Hill
#
# Bulk Modulus (GPa) = 33.12468 38.50534 35.81501
# Shear Modulus (GPa) = -0.28992 12.70615 6.20811
#
# Velocity S-wave (km/s) = -0.48190 3.19028 2.22998
# Velocity P-wave (km/s) = 5.12093 6.66439 5.94298
#
# Compressibility (1/GPa) = 0.03018897
#
# Stress axis : x y z
#
# Youngs Moduli (GPa) = 30.54427 56.65345 48.12392
#
# Poissons Ratio (x) = 0.51798 0.22678
# Poissons Ratio (y) = 0.27927 0.31931
# Poissons Ratio (z) = 0.14394 0.37591
#
# Static dielectric constant tensor:
#      x y z
#    x 2.198720 0.000000 0.000000 
#    y 0.000000 2.780440 0.000000 
#    z 0.000000 0.000000 2.444630 
# 
# 
# High freq. dielectric constant tensor:
#      x y z
#    x 1.408830 0.000000 0.000000 
#    y 0.000000 1.495370 0.000000 
#    z 0.000000 0.000000 1.448390 
# 
# From -- ./inp_files/30034.got.cif
#   From: 2010.03.12/outbox.cif.g09.slc.cpg/sg47_16_cif.got.tgz:30034.got - 2010.04.14 03:12:58.
