data_PCOD8196349
_publ_section_title
;
Structure prediction by ZEFSAII (Michael W. Deem and Ramdas Pophale) SiO2 
 PCOD8196349
Probable space group: P M M M
;
_chemical_formula_sum "Si O2"
_cell_formula_units_Z 56
_cell_length_a 14.355207
_cell_length_b 8.873276
_cell_length_c 23.025598
_cell_angle_alpha 90.000000
_cell_angle_beta 90.000000
_cell_angle_gamma 90.000000
_cell_volume 2932.948031
_symmetry_space_group_name_H-M "P M M M"
_symmetry_group_IT_number 47
_symmetry_cell_setting 'orthorhombic'
loop_
_space_group_symop_operation_xyz
x,y,z
-x,-y,z
x,-y,-z
-x,y,-z
-x,-y,-z
x,y,-z
-x,y,z
x,-y,z
loop_
_atom_site_type_symbol
_atom_site_label
_atom_site_fract_x
_atom_site_fract_y
_atom_site_fract_z
Si Si1 0.101998 0.670534 0.649094
Si Si2 0.191029 0.822290 0.066084
Si Si3 0.395290 0.822404 0.500000
Si Si4 0.701703 0.674256 0.392154
Si Si5 0.000000 0.330342 0.931148
Si Si6 0.268284 0.676374 0.170213
Si Si7 0.895096 0.828012 0.231838
Si Si8 0.395231 0.679021 0.726076
O O1 0.112750 0.500000 0.674123
O O2 0.186552 0.700135 0.604492
O O3 0.110038 0.789851 0.700383
O O4 0.000000 0.688355 0.618475
O O5 0.092792 0.756707 0.089147
O O6 0.273684 0.758734 0.107425
O O7 0.185361 0.000000 0.071795
O O8 0.212670 0.772564 0.000000
O O9 0.500000 0.756966 0.500000
O O10 0.343338 0.769099 0.557206
O O11 0.396474 0.000000 0.500000
O O12 0.675347 0.500000 0.401390
O O13 0.662483 0.733439 0.330227
O O14 0.000000 0.500000 0.905641
O O15 0.000000 0.334624 0.000000
O O16 0.279627 0.500000 0.159768
O O17 0.168012 0.712191 0.197018
O O18 0.346938 0.738549 0.214667
O O19 0.000000 0.806828 0.208610
O O20 0.861146 0.000000 0.222946
O O21 0.500000 0.744060 0.722963
O O22 0.395764 0.500000 0.727509
#
# Coordination Sequence:
#
# PCOD8196349 Si02
#       8
#     8   8   4   8   4   8   8   8
#     4   9  17  32  55  83 114 144 180 225 267 313
#     4  10  21  36  52  72 104 144 182 223 271 324
#     4  11  25  41  56  81 114 146 185 235 284 325
#     4  10  19  36  61  86 111 146 186 221 269 327
#     4   9  17  31  51  75 103 139 183 224 265 318
#     4  11  21  34  54  80 108 140 182 229 274 324
#     4  10  20  32  48  74 110 149 183 217 264 322
#     4   9  18  34  57  85 112 136 172 227 283 328
#
# _framework density 19.093416999999999
#
# number of rings (size 3 to 8) (size 9 to 14) (size 15 to 20)
#    0.000    2.143    1.429    2.143    1.000    4.286 
#    0.000    0.357    0.000    5.143    0.000    3.000 
#    0.000    0.000    0.000    0.000    0.000    0.000 
#
# Total GULP energy -694243.942869 kJ/mol
# GULP energy per Si atom -12397.213266 kJ/mol
# Density = 1.904996 g / cm^3
# Si number density = 19.093417 Si / 1000 Ang^3
#
#
#
# Elastic Constant Matrix: (Units=GPa)
#
#
# Indices 1 2 3 4 5 6 
#
# 1 125.5831 28.3029 65.2302 0.0000 0.0000 0.0000
# 2 28.3029 46.8568 26.8188 0.0000 0.0000 0.0000
# 3 65.2302 26.8188 114.3921 0.0000 0.0000 0.0000
# 4 0.0000 0.0000 0.0000 26.1277 0.0000 0.0000
# 5 0.0000 0.0000 0.0000 0.0000 25.1393 0.0000
# 6 0.0000 0.0000 0.0000 0.0000 0.0000 17.7700
#
#
#
# Elastic Compliance Matrix: (Units=1/GPa)
#
#
# Indices 1 2 3 4 5 6 
#
# 1 0.011874 -0.003808 -0.005878 0.000000 0.000000 0.000000
# 2 -0.003808 0.025870 -0.003894 0.000000 0.000000 0.000000
# 3 -0.005878 -0.003894 0.013007 0.000000 0.000000 0.000000
# 4 0.000000 0.000000 0.000000 0.038274 0.000000 0.000000
# 5 0.000000 0.000000 0.000000 0.000000 0.039778 0.000000
# 6 0.000000 0.000000 0.000000 0.000000 0.000000 0.056275
#
#
# Mechanical properties :
#
#
# Convention : Reuss Voigt Hill
#
# Bulk Modulus (GPa) = 42.38857 58.61508 50.50182
# Shear Modulus (GPa) = 22.71672 24.90608 23.81140
#
# Velocity S-wave (km/s) = 3.45304 3.61561 3.53526
# Velocity P-wave (km/s) = 6.17631 6.94233 6.57049
#
# Compressibility (1/GPa) = 0.02359127
#
# Stress axis : x y z
#
# Youngs Moduli (GPa) = 84.21458 38.65432 76.88278
#
# Poissons Ratio (x) = 0.14719 0.45195
# Poissons Ratio (y) = 0.32068 0.29936
# Poissons Ratio (z) = 0.49505 0.15051
#
# Static dielectric constant tensor:
#      x y z
#    x 3.672230 0.000000 0.000000 
#    y 0.000000 3.354970 0.000000 
#    z 0.000000 0.000000 3.500450 
# 
# 
# High freq. dielectric constant tensor:
#      x y z
#    x 1.730750 0.000000 0.000000 
#    y 0.000000 1.729740 0.000000 
#    z 0.000000 0.000000 1.733420 
# 
# From -- ./inp_files/31051.got.cif
#   From: 2010.03.12/outbox.cif.g09.slc.cpg/sg47_16_cif.got.tgz:31051.got - 2010.04.14 03:12:58.
