data_PCOD8196589
_publ_section_title
;
Structure prediction by ZEFSAII (Michael W. Deem and Ramdas Pophale) SiO2 
 PCOD8196589
Probable space group: P M M M
;
_chemical_formula_sum "Si O2"
_cell_formula_units_Z 56
_cell_length_a 9.197333
_cell_length_b 22.989315
_cell_length_c 14.623241
_cell_angle_alpha 90.000000
_cell_angle_beta 90.000000
_cell_angle_gamma 90.000000
_cell_volume 3091.943714
_symmetry_space_group_name_H-M "P M M M"
_symmetry_group_IT_number 47
_symmetry_cell_setting 'orthorhombic'
loop_
_space_group_symop_operation_xyz
x,y,z
-x,-y,z
x,-y,-z
-x,y,-z
-x,-y,-z
x,y,-z
-x,y,z
x,-y,z
loop_
_atom_site_type_symbol
_atom_site_label
_atom_site_fract_x
_atom_site_fract_y
_atom_site_fract_z
Si Si1 0.827368 0.757548 0.399282
Si Si2 0.333175 0.568212 0.603856
Si Si3 0.330006 0.294379 0.893970
Si Si4 0.327289 0.163311 0.898929
Si Si5 0.831036 0.112449 0.604758
Si Si6 0.826958 0.655571 0.270100
Si Si7 0.330948 0.935348 0.234038
O O1 0.767687 0.740426 0.500000
O O2 0.774065 0.822234 0.373671
O O3 0.769002 0.711585 0.326041
O O4 0.000000 0.757198 0.402237
O O5 0.287036 0.584921 0.500000
O O6 0.500000 0.586537 0.620768
O O7 0.313469 0.500000 0.618897
O O8 0.230144 0.598868 0.677666
O O9 0.500000 0.303376 0.874763
O O10 0.281496 0.228370 0.868523
O O11 0.239475 0.339390 0.831636
O O12 0.294505 0.307448 0.000000
O O13 0.500000 0.159334 0.901931
O O14 0.262139 0.113775 0.832434
O O15 0.264751 0.150793 0.000000
O O16 0.800312 0.096041 0.500000
O O17 0.744078 0.067788 0.667430
O O18 0.000000 0.106820 0.627628
O O19 0.000000 0.652200 0.263481
O O20 0.500000 0.923258 0.248007
O O21 0.304261 0.000000 0.193209
#
# Coordination Sequence:
#
# PCOD8196589 Si02
#       7
#     8   8   8   8   8   8   8
#     4   8  15  28  45  68  97 124 152 190 238 290
#     4   9  19  36  55  75 104 143 181 210 235 272
#     4   9  18  33  52  72  96 129 167 205 245 293
#     4   8  15  30  51  72  94 122 157 196 239 291
#     4   9  18  33  50  64  84 121 163 196 230 281
#     4  11  20  29  49  79 107 133 161 201 252 298
#     4  10  20  31  45  68  94 118 149 195 247 291
#
# _framework density 18.111585000000002
#
# number of rings (size 3 to 8) (size 9 to 14) (size 15 to 20)
#    0.000    2.857    0.000    3.857    0.000    2.571 
#    0.000    4.286    0.000    3.429    0.000    4.000 
#    0.000    0.000    0.000    0.000    0.000    0.000 
#
# Total GULP energy -694209.374885 kJ/mol
# GULP energy per Si atom -12396.595980 kJ/mol
# Density = 1.807036 g / cm^3
# Si number density = 18.111585 Si / 1000 Ang^3
#
#
#
# Elastic Constant Matrix: (Units=GPa)
#
#
# Indices 1 2 3 4 5 6 
#
# 1 51.4794 36.1878 47.8568 0.0000 0.0000 0.0000
# 2 36.1878 73.0337 56.7909 0.0000 0.0000 0.0000
# 3 47.8568 56.7909 112.2127 0.0000 0.0000 0.0000
# 4 0.0000 0.0000 0.0000 28.4443 0.0000 0.0000
# 5 0.0000 0.0000 0.0000 0.0000 22.0370 0.0000
# 6 0.0000 0.0000 0.0000 0.0000 0.0000 22.4812
#
#
#
# Elastic Compliance Matrix: (Units=1/GPa)
#
#
# Indices 1 2 3 4 5 6 
#
# 1 0.035925 -0.009707 -0.010409 0.000000 0.000000 0.000000
# 2 -0.009707 0.025200 -0.008614 0.000000 0.000000 0.000000
# 3 -0.010409 -0.008614 0.017710 0.000000 0.000000 0.000000
# 4 0.000000 0.000000 0.000000 0.035156 0.000000 0.000000
# 5 0.000000 0.000000 0.000000 0.000000 0.045378 0.000000
# 6 0.000000 0.000000 0.000000 0.000000 0.000000 0.044482
#
#
# Mechanical properties :
#
#
# Convention : Reuss Voigt Hill
#
# Bulk Modulus (GPa) = 46.78065 57.59963 52.19014
# Shear Modulus (GPa) = 18.62638 20.98520 19.80579
#
# Velocity S-wave (km/s) = 3.21038 3.40760 3.31046
# Velocity P-wave (km/s) = 6.29502 6.88143 6.59475
#
# Compressibility (1/GPa) = 0.02137636
#
# Stress axis : x y z
#
# Youngs Moduli (GPa) = 27.83582 39.68218 56.46402
#
# Poissons Ratio (x) = 0.38518 0.58772
# Poissons Ratio (y) = 0.27020 0.48639
# Poissons Ratio (z) = 0.28974 0.34183
#
# Static dielectric constant tensor:
#      x y z
#    x 2.966560 0.000000 0.000000 
#    y 0.000000 3.291720 0.000000 
#    z 0.000000 0.000000 3.425440 
# 
# 
# High freq. dielectric constant tensor:
#      x y z
#    x 1.670750 0.000000 0.000000 
#    y 0.000000 1.691560 0.000000 
#    z 0.000000 0.000000 1.702810 
# 
# From -- ./inp_files/7283.got.cif
#   From: 2010.03.12/outbox.cif.g09.slc.cpg/sg47_4_cif.got.tgz:7283.got - 2010.04.14 03:12:58.
