data_PCOD8196101
_publ_section_title
;
Structure prediction by ZEFSAII (Michael W. Deem and Ramdas Pophale) SiO2 
 PCOD8196101
Probable space group: P M M M
;
_chemical_formula_sum "Si O2"
_cell_formula_units_Z 64
_cell_length_a 19.555373
_cell_length_b 20.487744
_cell_length_c 8.951802
_cell_angle_alpha 90.000000
_cell_angle_beta 90.000000
_cell_angle_gamma 90.000000
_cell_volume 3586.498972
_symmetry_space_group_name_H-M "P M M M"
_symmetry_group_IT_number 47
_symmetry_cell_setting 'orthorhombic'
loop_
_space_group_symop_operation_xyz
x,y,z
-x,-y,z
x,-y,-z
-x,y,-z
-x,-y,-z
x,y,-z
-x,y,z
x,-y,z
loop_
_atom_site_type_symbol
_atom_site_label
_atom_site_fract_x
_atom_site_fract_y
_atom_site_fract_z
Si Si1 0.422755 0.615714 0.173570
Si Si2 0.426030 0.764036 0.822736
Si Si3 0.077326 0.731197 0.674619
Si Si4 0.715735 0.814544 0.176340
Si Si5 0.293054 0.573575 0.328958
Si Si6 0.077351 0.869431 0.826797
Si Si7 0.204790 0.317118 0.175824
Si Si8 0.799434 0.073616 0.672102
O O1 0.500000 0.590072 0.198270
O O2 0.415969 0.689984 0.230958
O O3 0.371136 0.573126 0.271384
O O4 0.402188 0.610129 0.000000
O O5 0.500000 0.790953 0.764462
O O6 0.362719 0.807654 0.766169
O O7 0.426290 0.763183 0.000000
O O8 0.091336 0.738298 0.500000
O O9 0.090446 0.800575 0.749857
O O10 0.130444 0.680165 0.745784
O O11 0.000000 0.706779 0.706255
O O12 0.756909 0.749582 0.221829
O O13 0.744918 0.877652 0.257141
O O14 0.719664 0.825874 0.000000
O O15 0.290609 0.597148 0.500000
O O16 0.264576 0.500000 0.314013
O O17 0.247432 0.620912 0.228884
O O18 0.127430 0.922039 0.753982
O O19 0.000000 0.894088 0.803123
O O20 0.095411 0.860825 0.000000
O O21 0.194790 0.321978 0.000000
O O22 0.809895 0.091760 0.500000
O O23 0.771936 0.000000 0.691900
#
# Coordination Sequence:
#
# PCOD8196101 Si02
#       8
#     8   8   8   8   8   8   8   8
#     4   9  17  32  54  78 107 144 184 225 270 323
#     4   8  14  28  52  80 107 132 166 217 270 317
#     4  10  20  34  55  83 113 144 177 216 266 322
#     4  10  19  33  56  83 106 135 177 224 273 321
#     4  11  24  38  52  75 111 152 188 226 274 325
#     4  10  20  34  53  78 108 142 180 221 265 314
#     4  11  21  35  58  85 109 139 182 228 273 320
#     4  11  24  38  52  74 107 147 185 222 270 325
#
# _framework density 17.8447
#
# number of rings (size 3 to 8) (size 9 to 14) (size 15 to 20)
#    0.000    2.000    2.500    2.625    0.000    4.750 
#    0.000    2.500    0.000    1.125    0.000    5.250 
#    0.000    0.000    0.000    0.000    0.000    0.000 
#
# Total GULP energy -793553.891886 kJ/mol
# GULP energy per Si atom -12399.279561 kJ/mol
# Density = 1.780408 g / cm^3
# Si number density = 17.844700 Si / 1000 Ang^3
#
#
#
# Elastic Constant Matrix: (Units=GPa)
#
#
# Indices 1 2 3 4 5 6 
#
# 1 121.6044 49.8232 48.0093 0.0000 0.0000 0.0000
# 2 49.8232 79.4588 39.7353 0.0000 0.0000 0.0000
# 3 48.0093 39.7353 81.3299 0.0000 0.0000 0.0000
# 4 0.0000 0.0000 0.0000 24.7404 0.0000 0.0000
# 5 0.0000 0.0000 0.0000 0.0000 24.6275 0.0000
# 6 0.0000 0.0000 0.0000 0.0000 0.0000 23.1005
#
#
#
# Elastic Compliance Matrix: (Units=1/GPa)
#
#
# Indices 1 2 3 4 5 6 
#
# 1 0.012242 -0.005376 -0.004600 0.000000 0.000000 0.000000
# 2 -0.005376 0.019015 -0.006117 0.000000 0.000000 0.000000
# 3 -0.004600 -0.006117 0.017999 0.000000 0.000000 0.000000
# 4 0.000000 0.000000 0.000000 0.040420 0.000000 0.000000
# 5 0.000000 0.000000 0.000000 0.000000 0.040605 0.000000
# 6 0.000000 0.000000 0.000000 0.000000 0.000000 0.043289
#
#
# Mechanical properties :
#
#
# Convention : Reuss Voigt Hill
#
# Bulk Modulus (GPa) = 58.57830 61.94764 60.26297
# Shear Modulus (GPa) = 23.64676 24.14869 23.89772
#
# Velocity S-wave (km/s) = 3.64420 3.68267 3.66349
# Velocity P-wave (km/s) = 7.11371 7.27138 7.19298
#
# Compressibility (1/GPa) = 0.01707117
#
# Stress axis : x y z
#
# Youngs Moduli (GPa) = 81.68577 52.59091 55.55730
#
# Poissons Ratio (x) = 0.28272 0.25557
# Poissons Ratio (y) = 0.43912 0.33982
# Poissons Ratio (z) = 0.37576 0.32168
#
# Static dielectric constant tensor:
#      x y z
#    x 3.692080 0.000000 0.000000 
#    y 0.000000 3.029860 0.000000 
#    z 0.000000 0.000000 3.267400 
# 
# 
# High freq. dielectric constant tensor:
#      x y z
#    x 1.699040 0.000000 0.000000 
#    y 0.000000 1.661070 0.000000 
#    z 0.000000 0.000000 1.688030 
# 
# From -- ./inp_files/10044.got.cif
#   From: 2010.03.12/outbox.cif.g09.slc.cpg/sg47_6_cif.got.tgz:10044.got - 2010.04.14 03:12:58.
