data_PCOD8196630
_publ_section_title
;
Structure prediction by ZEFSAII (Michael W. Deem and Ramdas Pophale) SiO2 
 PCOD8196630
Probable space group: P M M M
;
_chemical_formula_sum "Si O2"
_cell_formula_units_Z 56
_cell_length_a 9.317156
_cell_length_b 19.108711
_cell_length_c 18.114304
_cell_angle_alpha 90.000000
_cell_angle_beta 90.000000
_cell_angle_gamma 90.000000
_cell_volume 3225.049696
_symmetry_space_group_name_H-M "P M M M"
_symmetry_group_IT_number 47
_symmetry_cell_setting 'orthorhombic'
loop_
_space_group_symop_operation_xyz
x,y,z
-x,-y,z
x,-y,-z
-x,y,-z
-x,-y,-z
x,y,-z
-x,y,z
x,-y,z
loop_
_atom_site_type_symbol
_atom_site_label
_atom_site_fract_x
_atom_site_fract_y
_atom_site_fract_z
Si Si1 0.334112 0.657842 0.585033
Si Si2 0.839207 0.076985 0.087640
Si Si3 0.164215 0.292328 0.801080
Si Si4 0.832734 0.217389 0.651637
Si Si5 0.170198 0.923638 0.582984
Si Si6 0.165794 0.579320 0.296144
Si Si7 0.333257 0.209917 0.086222
O O1 0.317055 0.636686 0.500000
O O2 0.500000 0.664842 0.607785
O O3 0.256614 0.731403 0.599256
O O4 0.261850 0.596397 0.632821
O O5 0.733544 0.137205 0.116546
O O6 0.000000 0.093316 0.116508
O O7 0.789955 0.000000 0.116501
O O8 0.838301 0.076148 0.000000
O O9 0.193515 0.235602 0.736978
O O10 0.205826 0.369557 0.771701
O O11 0.263447 0.274955 0.870847
O O12 0.000000 0.289874 0.827507
O O13 0.776964 0.138287 0.637089
O O14 0.000000 0.226250 0.630936
O O15 0.226241 0.908791 0.500000
O O16 0.000000 0.925453 0.582564
O O17 0.227759 0.000000 0.610105
O O18 0.194421 0.500000 0.270605
O O19 0.000000 0.591836 0.318339
O O20 0.500000 0.207517 0.103650
O O21 0.301297 0.220806 0.000000
#
# Coordination Sequence:
#
# PCOD8196630 Si02
#       7
#     8   8   8   8   8   8   8
#     4  10  20  31  45  70 102 132 162 196 234 278
#     4   8  14  26  45  68  93 121 153 190 233 278
#     4   9  18  32  50  72  95 120 153 193 238 287
#     4   9  17  30  48  68  92 125 165 205 243 285
#     4   8  13  22  40  67  94 120 156 203 247 280
#     4   9  19  36  56  76  97 123 157 194 231 277
#     4  10  20  32  48  71  97 126 160 197 237 284
#
# _framework density 17.364073000000001
#
# number of rings (size 3 to 8) (size 9 to 14) (size 15 to 20)
#    0.000    3.000    0.000    3.000    0.000    5.714 
#    0.000    3.571    0.000    3.429    0.000    5.000 
#    0.000    0.000    0.000    0.000    0.000    0.000 
#
# Total GULP energy -694174.824139 kJ/mol
# GULP energy per Si atom -12395.979002 kJ/mol
# Density = 1.732455 g / cm^3
# Si number density = 17.364073 Si / 1000 Ang^3
#
#
#
# Elastic Constant Matrix: (Units=GPa)
#
#
# Indices 1 2 3 4 5 6 
#
# 1 86.5621 52.1271 48.2840 0.0000 0.0000 0.0000
# 2 52.1271 148.8339 54.3439 0.0000 0.0000 0.0000
# 3 48.2840 54.3439 61.8318 0.0000 0.0000 0.0000
# 4 0.0000 0.0000 0.0000 20.5164 0.0000 0.0000
# 5 0.0000 0.0000 0.0000 0.0000 23.7056 0.0000
# 6 0.0000 0.0000 0.0000 0.0000 0.0000 12.8768
#
#
#
# Elastic Compliance Matrix: (Units=1/GPa)
#
#
# Indices 1 2 3 4 5 6 
#
# 1 0.020864 -0.002000 -0.014535 0.000000 0.000000 0.000000
# 2 -0.002000 0.010086 -0.007302 0.000000 0.000000 0.000000
# 3 -0.014535 -0.007302 0.033941 0.000000 0.000000 0.000000
# 4 0.000000 0.000000 0.000000 0.048742 0.000000 0.000000
# 5 0.000000 0.000000 0.000000 0.000000 0.042184 0.000000
# 6 0.000000 0.000000 0.000000 0.000000 0.000000 0.077659
#
#
# Mechanical properties :
#
#
# Convention : Reuss Voigt Hill
#
# Bulk Modulus (GPa) = 58.08444 67.41533 62.74988
# Shear Modulus (GPa) = 17.42831 20.91795 19.17313
#
# Velocity S-wave (km/s) = 3.17156 3.47460 3.32653
# Velocity P-wave (km/s) = 6.85093 7.41660 7.13937
#
# Compressibility (1/GPa) = 0.01721632
#
# Stress axis : x y z
#
# Youngs Moduli (GPa) = 47.92838 99.14920 29.46295
#
# Poissons Ratio (x) = 0.19834 0.42824
# Poissons Ratio (y) = 0.09588 0.21515
# Poissons Ratio (z) = 0.69663 0.72402
#
# Static dielectric constant tensor:
#      x y z
#    x 3.111640 0.000000 0.000000 
#    y 0.000000 3.502590 0.000000 
#    z 0.000000 0.000000 2.965280 
# 
# 
# High freq. dielectric constant tensor:
#      x y z
#    x 1.653530 0.000000 0.000000 
#    y 0.000000 1.673270 0.000000 
#    z 0.000000 0.000000 1.642920 
# 
# From -- ./inp_files/29916.got.cif
#   From: 2010.03.12/outbox.cif.g09.slc.cpg/sg47_15_cif.got.tgz:29916.got - 2010.04.14 03:12:58.
