data_PCOD8196802
_publ_section_title
;
Structure prediction by ZEFSAII (Michael W. Deem and Ramdas Pophale) SiO2 
 PCOD8196802
Probable space group: P M M M
;
_chemical_formula_sum "Si O2"
_cell_formula_units_Z 44
_cell_length_a 9.025204
_cell_length_b 9.240258
_cell_length_c 29.049686
_cell_angle_alpha 90.000000
_cell_angle_beta 90.000000
_cell_angle_gamma 90.000000
_cell_volume 2422.604765
_symmetry_space_group_name_H-M "P M M M"
_symmetry_group_IT_number 47
_symmetry_cell_setting 'orthorhombic'
loop_
_space_group_symop_operation_xyz
x,y,z
-x,-y,z
x,-y,-z
-x,y,-z
-x,-y,-z
x,y,-z
-x,y,z
x,-y,z
loop_
_atom_site_type_symbol
_atom_site_label
_atom_site_fract_x
_atom_site_fract_y
_atom_site_fract_z
Si Si1 0.327960 0.669683 0.763941
Si Si2 0.333082 0.172142 0.590005
Si Si3 0.832663 0.827231 0.500000
Si Si4 0.676816 0.837384 0.147069
Si Si5 0.825942 0.833032 0.317914
Si Si6 0.665982 0.171994 0.951266
O O1 0.500000 0.709246 0.756182
O O2 0.300927 0.500000 0.764482
O O3 0.268876 0.732716 0.812361
O O4 0.231947 0.738596 0.723902
O O5 0.500000 0.233024 0.590603
O O6 0.249898 0.233876 0.545130
O O7 0.249458 0.226062 0.635595
O O8 0.332815 0.000000 0.588180
O O9 0.000000 0.768428 0.500000
O O10 0.831152 0.000000 0.500000
O O11 0.500000 0.837778 0.143572
O O12 0.740911 0.778577 0.097366
O O13 0.734263 0.000000 0.157617
O O14 0.000000 0.812584 0.323421
O O15 0.783476 0.000000 0.308994
O O16 0.500000 0.234759 0.953336
O O17 0.659499 0.000000 0.948881
O O18 0.746305 0.219508 0.000000
#
# Coordination Sequence:
#
# PCOD8196802 Si02
#       6
#     8   8   4   8   8   8
#     4  10  20  32  46  65  90 121 156 193 234 281
#     4   9  16  26  42  65  93 124 156 190 230 276
#     4   9  15  23  37  61  96 131 158 187 226 271
#     4   8  13  22  38  59  83 114 151 189 228 270
#     4  10  20  33  49  69  92 119 154 196 240 283
#     4   7   9  14  27  50  79 109 142 180 221 265
#
# _framework density 18.162268000000001
#
# number of rings (size 3 to 8) (size 9 to 14) (size 15 to 20)
#    0.000    3.182    0.000    3.545    0.000    5.455 
#    0.000    0.000    0.000    0.545    0.000    4.455 
#    0.000    5.818    0.000    8.364    0.000    9.636 
#
# Total GULP energy -545108.459635 kJ/mol
# GULP energy per Si atom -12388.828628 kJ/mol
# Density = 1.812093 g / cm^3
# Si number density = 18.162268 Si / 1000 Ang^3
#
#
#
# Elastic Constant Matrix: (Units=GPa)
#
#
# Indices 1 2 3 4 5 6 
#
# 1 74.2796 24.5192 61.4503 0.0000 0.0000 0.0000
# 2 24.5192 39.9382 44.3621 0.0000 0.0000 0.0000
# 3 61.4503 44.3621 207.1698 0.0000 0.0000 0.0000
# 4 0.0000 0.0000 0.0000 -1.0086 0.0000 0.0000
# 5 0.0000 0.0000 0.0000 0.0000 2.4027 0.0000
# 6 0.0000 0.0000 0.0000 0.0000 0.0000 12.2179
#
#
#
# Elastic Compliance Matrix: (Units=1/GPa)
#
#
# Indices 1 2 3 4 5 6 
#
# 1 0.019300 -0.007203 -0.004182 0.000000 0.000000 0.000000
# 2 -0.007203 0.035541 -0.005474 0.000000 0.000000 0.000000
# 3 -0.004182 -0.005474 0.007240 0.000000 0.000000 0.000000
# 4 0.000000 0.000000 0.000000 -0.991479 0.000000 0.000000
# 5 0.000000 0.000000 0.000000 0.000000 0.416201 0.000000
# 6 0.000000 0.000000 0.000000 0.000000 0.000000 0.081847
#
#
# Mechanical properties :
#
#
# Convention : Reuss Voigt Hill
#
# Bulk Modulus (GPa) = 35.25846 64.67232 49.96539
# Shear Modulus (GPa) = -12.88076 15.45946 1.28935
#
# Velocity S-wave (km/s) = -2.66598 2.92067 0.84347
# Velocity P-wave (km/s) = 3.15889 6.85997 5.34031
#
# Compressibility (1/GPa) = 0.02836198
#
# Stress axis : x y z
#
# Youngs Moduli (GPa) = 51.81229 28.13623 138.12765
#
# Poissons Ratio (x) = 0.20268 0.57770
# Poissons Ratio (y) = 0.37323 0.75610
# Poissons Ratio (z) = 0.21670 0.15402
#
# Static dielectric constant tensor:
#      x y z
#    x 3.031750 0.000000 0.000000 
#    y 0.000000 2.837970 0.000000 
#    z 0.000000 0.000000 3.967560 
# 
# 
# High freq. dielectric constant tensor:
#      x y z
#    x 1.662530 0.000000 0.000000 
#    y 0.000000 1.642150 0.000000 
#    z 0.000000 0.000000 1.736950 
# 
# From -- ./inp_files/13631.got.cif
#   From: 2010.03.12/outbox.cif.g09.slc.cpg/sg47_7_cif.got.tgz:13631.got - 2010.04.14 03:12:58.
