data_PCOD8196317
_publ_section_title
;
Structure prediction by ZEFSAII (Michael W. Deem and Ramdas Pophale) SiO2 
 PCOD8196317
Probable space group: P M M M
;
_chemical_formula_sum "Si O2"
_cell_formula_units_Z 44
_cell_length_a 9.137670
_cell_length_b 26.829818
_cell_length_c 10.064150
_cell_angle_alpha 90.000000
_cell_angle_beta 90.000000
_cell_angle_gamma 90.000000
_cell_volume 2467.347374
_symmetry_space_group_name_H-M "P M M M"
_symmetry_group_IT_number 47
_symmetry_cell_setting 'orthorhombic'
loop_
_space_group_symop_operation_xyz
x,y,z
-x,-y,z
x,-y,-z
-x,y,-z
-x,-y,-z
x,y,-z
-x,y,z
x,-y,z
loop_
_atom_site_type_symbol
_atom_site_label
_atom_site_fract_x
_atom_site_fract_y
_atom_site_fract_z
Si Si1 0.670768 0.608249 0.342759
Si Si2 0.326285 0.944562 0.000000
Si Si3 0.826667 0.057293 0.500000
Si Si4 0.327412 0.500000 0.644638
Si Si5 0.666373 0.215519 0.847830
Si Si6 0.328836 0.110085 0.260886
Si Si7 0.827427 0.684817 0.151690
O O1 0.706981 0.613534 0.500000
O O2 0.500000 0.618564 0.318541
O O3 0.715978 0.552674 0.287233
O O4 0.762787 0.646097 0.255710
O O5 0.269699 0.915950 0.128547
O O6 0.500000 0.945539 0.000000
O O7 0.260223 0.000000 0.000000
O O8 0.767009 0.086850 0.624826
O O9 0.000000 0.059231 0.500000
O O10 0.770978 0.000000 0.500000
O O11 0.500000 0.500000 0.625354
O O12 0.252950 0.500000 0.500000
O O13 0.500000 0.233833 0.828049
O O14 0.700027 0.169192 0.751231
O O15 0.772535 0.260411 0.807953
O O16 0.690879 0.198328 0.000000
O O17 0.500000 0.099317 0.286674
O O18 0.000000 0.683814 0.165038
O O19 0.778348 0.672226 0.000000
#
# Coordination Sequence:
#
# PCOD8196317 Si02
#       7
#     8   4   4   4   8   8   8
#     4   9  17  32  55  81 105 134 175 222 268 311
#     4   9  16  28  53  87 111 125 157 214 267 308
#     4  11  25  41  53  73 111 151 179 206 249 308
#     4   7  12  26  50  77 104 132 168 217 268 313
#     4   9  17  33  57  82 105 130 169 220 268 312
#     4  10  19  35  59  84 105 132 172 217 263 311
#     4  10  21  35  51  74 107 145 180 212 256 313
#
# _framework density 17.832916999999998
#
# number of rings (size 3 to 8) (size 9 to 14) (size 15 to 20)
#    0.000    2.636    0.909    2.455    0.000    3.636 
#    1.636    1.364    0.000    6.000    0.000    0.000 
#    0.000    0.000    0.000    0.000    0.000    0.000 
#
# Total GULP energy -545323.658668 kJ/mol
# GULP energy per Si atom -12393.719515 kJ/mol
# Density = 1.779233 g / cm^3
# Si number density = 17.832917 Si / 1000 Ang^3
#
#
#
# Elastic Constant Matrix: (Units=GPa)
#
#
# Indices 1 2 3 4 5 6 
#
# 1 63.0139 57.3693 46.0005 0.0000 0.0000 0.0000
# 2 57.3693 144.0682 71.4725 0.0000 0.0000 0.0000
# 3 46.0005 71.4725 101.8335 0.0000 0.0000 0.0000
# 4 0.0000 0.0000 0.0000 30.6329 0.0000 0.0000
# 5 0.0000 0.0000 0.0000 0.0000 33.1603 0.0000
# 6 0.0000 0.0000 0.0000 0.0000 0.0000 11.6070
#
#
#
# Elastic Compliance Matrix: (Units=1/GPa)
#
#
# Indices 1 2 3 4 5 6 
#
# 1 0.028142 -0.007517 -0.007436 0.000000 0.000000 0.000000
# 2 -0.007517 0.012657 -0.005488 0.000000 0.000000 0.000000
# 3 -0.007436 -0.005488 0.017031 0.000000 0.000000 0.000000
# 4 0.000000 0.000000 0.000000 0.032645 0.000000 0.000000
# 5 0.000000 0.000000 0.000000 0.000000 0.030157 0.000000
# 6 0.000000 0.000000 0.000000 0.000000 0.000000 0.086155
#
#
# Mechanical properties :
#
#
# Convention : Reuss Voigt Hill
#
# Bulk Modulus (GPa) = 59.00709 73.17780 66.09244
# Shear Modulus (GPa) = 19.73807 24.01825 21.87816
#
# Velocity S-wave (km/s) = 3.33052 3.67393 3.50643
# Velocity P-wave (km/s) = 6.92463 7.68904 7.31682
#
# Compressibility (1/GPa) = 0.01694712
#
# Stress axis : x y z
#
# Youngs Moduli (GPa) = 35.53427 79.00732 58.71742
#
# Poissons Ratio (x) = 0.59391 0.43664
# Poissons Ratio (y) = 0.26712 0.32223
# Poissons Ratio (z) = 0.26424 0.43357
#
# Static dielectric constant tensor:
#      x y z
#    x 3.052140 0.000000 0.000000 
#    y 0.000000 3.571490 0.000000 
#    z 0.000000 0.000000 3.070780 
# 
# 
# High freq. dielectric constant tensor:
#      x y z
#    x 1.666430 0.000000 0.000000 
#    y 0.000000 1.706210 0.000000 
#    z 0.000000 0.000000 1.674910 
# 
# From -- ./inp_files/2391.got.cif
#   From: 2010.03.12/outbox.cif.g09.slc.cpg/sg47_2_cif.got.tgz:2391.got - 2010.04.14 03:12:58.
