data_PCOD8196490
_publ_section_title
;
Structure prediction by ZEFSAII (Michael W. Deem and Ramdas Pophale) SiO2 
 PCOD8196490
Probable space group: P M M M
;
_chemical_formula_sum "Si O2"
_cell_formula_units_Z 44
_cell_length_a 9.092146
_cell_length_b 22.732685
_cell_length_c 15.089457
_cell_angle_alpha 90.000000
_cell_angle_beta 90.000000
_cell_angle_gamma 90.000000
_cell_volume 3118.823133
_symmetry_space_group_name_H-M "P M M M"
_symmetry_group_IT_number 47
_symmetry_cell_setting 'orthorhombic'
loop_
_space_group_symop_operation_xyz
x,y,z
-x,-y,z
x,-y,-z
-x,y,-z
-x,-y,-z
x,y,-z
-x,y,z
x,-y,z
loop_
_atom_site_type_symbol
_atom_site_label
_atom_site_fract_x
_atom_site_fract_y
_atom_site_fract_z
Si Si1 0.165210 0.430134 0.097458
Si Si2 0.333664 0.000000 0.605622
Si Si3 0.833606 0.115051 0.605695
Si Si4 0.666163 0.770389 0.605461
Si Si5 0.331519 0.569600 0.268452
Si Si6 0.828581 0.653539 0.396513
O O1 0.166897 0.500000 0.097525
O O2 0.273864 0.406423 0.173504
O O3 0.000000 0.407590 0.117329
O O4 0.216728 0.407514 0.000000
O O5 0.250103 0.057525 0.641838
O O6 0.500000 0.000000 0.642120
O O7 0.334159 0.000000 0.500000
O O8 0.833699 0.115347 0.500000
O O9 0.750538 0.172531 0.642864
O O10 0.000000 0.114771 0.641989
O O11 0.666330 0.772253 0.500000
O O12 0.500000 0.770196 0.642341
O O13 0.749428 0.712286 0.639075
O O14 0.500000 0.588754 0.278481
O O15 0.311555 0.500000 0.275945
O O16 0.237101 0.597372 0.347065
O O17 0.798449 0.643957 0.500000
O O18 0.000000 0.659555 0.375777
#
# Coordination Sequence:
#
# PCOD8196490 Si02
#       6
#     8   4   8   8   8   8
#     4   8  14  26  44  63  81 100 120 143 175 218
#     4   9  15  21  29  43  63  85 109 139 178 219
#     4   9  15  22  32  46  64  85 110 141 178 219
#     4   9  16  26  39  52  66  86 114 149 187 224
#     4  10  20  31  43  60  80 100 122 152 191 232
#     4  10  20  32  44  56  71  95 128 163 196 230
#
# _framework density 14.107886000000001
#
# number of rings (size 3 to 8) (size 9 to 14) (size 15 to 20)
#    0.000    2.818    0.000    3.000    0.000    8.364 
#    0.000    3.636    0.000    0.000    0.000    0.000 
#    0.000    0.000    0.000    0.000    0.000    0.000 
#
# Total GULP energy -545484.494503 kJ/mol
# GULP energy per Si atom -12397.374875 kJ/mol
# Density = 1.407578 g / cm^3
# Si number density = 14.107886 Si / 1000 Ang^3
#
#
#
# Elastic Constant Matrix: (Units=GPa)
#
#
# Indices 1 2 3 4 5 6 
#
# 1 126.3054 48.5921 36.7740 0.0000 0.0000 0.0000
# 2 48.5921 63.9535 27.6233 0.0000 0.0000 0.0000
# 3 36.7740 27.6233 39.6055 0.0000 0.0000 0.0000
# 4 0.0000 0.0000 0.0000 0.6319 0.0000 0.0000
# 5 0.0000 0.0000 0.0000 0.0000 15.9051 0.0000
# 6 0.0000 0.0000 0.0000 0.0000 0.0000 28.6186
#
#
#
# Elastic Compliance Matrix: (Units=1/GPa)
#
#
# Indices 1 2 3 4 5 6 
#
# 1 0.012441 -0.006387 -0.007096 0.000000 0.000000 0.000000
# 2 -0.006387 0.025657 -0.011964 0.000000 0.000000 0.000000
# 3 -0.007096 -0.011964 0.040183 0.000000 0.000000 0.000000
# 4 0.000000 0.000000 0.000000 1.582485 0.000000 0.000000
# 5 0.000000 0.000000 0.000000 0.000000 0.062873 0.000000
# 6 0.000000 0.000000 0.000000 0.000000 0.000000 0.034942
#
#
# Mechanical properties :
#
#
# Convention : Reuss Voigt Hill
#
# Bulk Modulus (GPa) = 36.51677 50.64924 43.58300
# Shear Modulus (GPa) = 2.74936 16.82279 9.78607
#
# Velocity S-wave (km/s) = 1.39751 3.45692 2.63660
# Velocity P-wave (km/s) = 5.34268 7.20507 6.34260
#
# Compressibility (1/GPa) = 0.02738468
#
# Stress axis : x y z
#
# Youngs Moduli (GPa) = 80.38063 38.97539 24.88641
#
# Poissons Ratio (x) = 0.24895 0.17660
# Poissons Ratio (y) = 0.51343 0.29774
# Poissons Ratio (z) = 0.57041 0.46631
#
# Static dielectric constant tensor:
#      x y z
#    x 3.006510 0.000000 0.000000 
#    y 0.000000 2.724230 0.000000 
#    z 0.000000 0.000000 2.447010 
# 
# 
# High freq. dielectric constant tensor:
#      x y z
#    x 1.559440 0.000000 0.000000 
#    y 0.000000 1.525100 0.000000 
#    z 0.000000 0.000000 1.474270 
# 
# From -- ./inp_files/10863.got.cif
#   From: 2010.03.12/outbox.cif.g09.slc.cpg/sg47_6_cif.got.tgz:10863.got - 2010.04.14 03:12:58.
