data_PCOD8196186
_publ_section_title
;
Structure prediction by ZEFSAII (Michael W. Deem and Ramdas Pophale) SiO2 
 PCOD8196186
Probable space group: P M M M
;
_chemical_formula_sum "Si O2"
_cell_formula_units_Z 52
_cell_length_a 8.924855
_cell_length_b 12.229971
_cell_length_c 27.120550
_cell_angle_alpha 90.000000
_cell_angle_beta 90.000000
_cell_angle_gamma 90.000000
_cell_volume 2960.227500
_symmetry_space_group_name_H-M "P M M M"
_symmetry_group_IT_number 47
_symmetry_cell_setting 'orthorhombic'
loop_
_space_group_symop_operation_xyz
x,y,z
-x,-y,z
x,-y,-z
-x,y,-z
-x,-y,-z
x,y,-z
-x,y,z
x,-y,z
loop_
_atom_site_type_symbol
_atom_site_label
_atom_site_fract_x
_atom_site_fract_y
_atom_site_fract_z
Si Si1 0.176988 0.312272 0.619924
Si Si2 0.173839 0.375212 0.818202
Si Si3 0.670765 0.371546 0.282418
Si Si4 0.177249 0.000000 0.944258
Si Si5 0.677426 0.500000 0.556995
Si Si6 0.322488 0.373965 0.000000
Si Si7 0.822498 0.880167 0.446152
Si Si8 0.176130 0.238571 0.913585
O O1 0.231176 0.313358 0.676042
O O2 0.257893 0.396648 0.584697
O O3 0.228954 0.196381 0.598265
O O4 0.000000 0.333153 0.618192
O O5 0.214861 0.500000 0.834300
O O6 0.267857 0.338065 0.770929
O O7 0.215683 0.288685 0.860487
O O8 0.000000 0.368326 0.804383
O O9 0.500000 0.332462 0.286521
O O10 0.686170 0.500000 0.290872
O O11 0.230765 0.111359 0.916564
O O12 0.000000 0.000000 0.946283
O O13 0.242226 0.000000 0.000000
O O14 0.500000 0.500000 0.562056
O O15 0.728770 0.500000 0.500000
O O16 0.261787 0.312851 0.047680
O O17 0.267279 0.500000 0.000000
O O18 0.500000 0.367963 0.000000
O O19 0.765763 0.838049 0.500000
O O20 0.000000 0.885490 0.447528
O O21 0.755181 0.000000 0.435704
O O22 0.000000 0.246767 0.925018
#
# Coordination Sequence:
#
# PCOD8196186 Si02
#       8
#     8   8   8   4   4   4   8   8
#     4  11  20  31  53  79 103 133 173 218 257 303
#     4   9  18  32  52  77 101 127 170 221 263 305
#     4  10  20  34  52  73 102 139 172 207 260 319
#     4   9  16  30  54  82 108 138 176 214 255 306
#     4  11  23  35  47  71 111 149 175 206 257 316
#     4  11  23  34  47  74 112 145 174 213 260 313
#     4   8  15  29  49  74 102 129 161 207 260 305
#     4  10  19  34  56  79 105 139 177 218 260 306
#
# _framework density 17.566217999999999
#
# number of rings (size 3 to 8) (size 9 to 14) (size 15 to 20)
#    0.000    2.231    1.538    2.769    0.000    3.692 
#    0.000    2.308    1.692    1.846    0.000    5.385 
#    0.000    0.000    0.000    0.000    0.000    0.000 
#
# Total GULP energy -644630.591315 kJ/mol
# GULP energy per Si atom -12396.742141 kJ/mol
# Density = 1.752624 g / cm^3
# Si number density = 17.566218 Si / 1000 Ang^3
#
#
#
# Elastic Constant Matrix: (Units=GPa)
#
#
# Indices 1 2 3 4 5 6 
#
# 1 54.6647 32.9591 44.1711 0.0000 0.0000 0.0000
# 2 32.9591 126.9704 77.0358 0.0000 0.0000 0.0000
# 3 44.1711 77.0358 134.9496 0.0000 0.0000 0.0000
# 4 0.0000 0.0000 0.0000 103.8971 0.0000 0.0000
# 5 0.0000 0.0000 0.0000 0.0000 22.8100 0.0000
# 6 0.0000 0.0000 0.0000 0.0000 0.0000 -6.2184
#
#
#
# Elastic Compliance Matrix: (Units=1/GPa)
#
#
# Indices 1 2 3 4 5 6 
#
# 1 0.025327 -0.002363 -0.006941 0.000000 0.000000 0.000000
# 2 -0.002363 0.012269 -0.006231 0.000000 0.000000 0.000000
# 3 -0.006941 -0.006231 0.013239 0.000000 0.000000 0.000000
# 4 0.000000 0.000000 0.000000 0.009625 0.000000 0.000000
# 5 0.000000 0.000000 0.000000 0.000000 0.043840 0.000000
# 6 0.000000 0.000000 0.000000 0.000000 0.000000 -0.160813
#
#
# Mechanical properties :
#
#
# Convention : Reuss Voigt Hill
#
# Bulk Modulus (GPa) = 50.59240 69.43519 60.01379
# Shear Modulus (GPa) = -265.17736 34.92565 -115.12585
#
# Velocity S-wave (km/s) = -12.29985 4.46379 -8.10435
# Velocity P-wave (km/s) = 13.14731 8.13516 7.30312
#
# Compressibility (1/GPa) = 0.01976581
#
# Stress axis : x y z
#
# Youngs Moduli (GPa) = 39.48423 81.50305 75.53629
#
# Poissons Ratio (x) = 0.19261 0.52428
# Poissons Ratio (y) = 0.09331 0.47063
# Poissons Ratio (z) = 0.27405 0.50781
#
# Static dielectric constant tensor:
#      x y z
#    x 3.120400 0.000000 0.000000 
#    y 0.000000 2.737850 0.000000 
#    z 0.000000 0.000000 3.383190 
# 
# 
# High freq. dielectric constant tensor:
#      x y z
#    x 1.662710 0.000000 0.000000 
#    y 0.000000 1.672840 0.000000 
#    z 0.000000 0.000000 1.683530 
# 
# From -- ./inp_files/33359.got.cif
#   From: 2010.03.12/outbox.cif.g09.slc.cpg/sg47_17_cif.got.tgz:33359.got - 2010.04.14 03:12:58.
