data_PCOD8196429
_publ_section_title
;
Structure prediction by ZEFSAII (Michael W. Deem and Ramdas Pophale) SiO2 
 PCOD8196429
Probable space group: P M M M
;
_chemical_formula_sum "Si O2"
_cell_formula_units_Z 40
_cell_length_a 17.549231
_cell_length_b 17.889246
_cell_length_c 9.086989
_cell_angle_alpha 90.000000
_cell_angle_beta 90.000000
_cell_angle_gamma 90.000000
_cell_volume 2852.792139
_symmetry_space_group_name_H-M "P M M M"
_symmetry_group_IT_number 47
_symmetry_cell_setting 'orthorhombic'
loop_
_space_group_symop_operation_xyz
x,y,z
-x,-y,z
x,-y,-z
-x,y,-z
-x,-y,-z
x,y,-z
-x,y,z
x,-y,z
loop_
_atom_site_type_symbol
_atom_site_label
_atom_site_fract_x
_atom_site_fract_y
_atom_site_fract_z
Si Si1 0.416504 0.000000 0.325180
Si Si2 0.148550 0.411045 0.833754
Si Si3 0.589894 0.694645 0.830857
Si Si4 0.700102 0.412658 0.328543
Si Si5 0.000000 0.589196 0.666502
Si Si6 0.591004 0.159971 0.665179
O O1 0.375352 0.921318 0.280661
O O2 0.500000 0.000000 0.251188
O O3 0.425241 0.000000 0.500000
O O4 0.146298 0.500000 0.833456
O O5 0.223749 0.382549 0.750363
O O6 0.074494 0.379591 0.749672
O O7 0.148883 0.379956 0.000000
O O8 0.500000 0.687206 0.807802
O O9 0.627329 0.628689 0.737782
O O10 0.619675 0.775013 0.773448
O O11 0.613603 0.686582 0.000000
O O12 0.707597 0.394918 0.500000
O O13 0.687997 0.500000 0.298721
O O14 0.000000 0.500000 0.666838
O O15 0.000000 0.619677 0.500000
O O16 0.619453 0.178755 0.500000
O O17 0.500000 0.154155 0.666273
#
# Coordination Sequence:
#
# PCOD8196429 Si02
#       6
#     4   8   8   8   4   8
#     4   7  10  18  35  57  75  91 113 142 177 218
#     4   9  16  26  40  57  76  96 118 147 186 229
#     4  10  20  31  41  54  73  97 126 161 200 237
#     4  10  20  32  44  56  70  92 126 166 203 236
#     4   9  15  23  37  57  79  99 119 144 175 216
#     4   8  13  23  39  56  73  93 118 148 182 222
#
# _framework density 14.021350999999999
#
# number of rings (size 3 to 8) (size 9 to 14) (size 15 to 20)
#    0.000    3.000    0.000    3.300    0.000    6.400 
#    0.000    2.500    0.000    3.000    0.000    0.000 
#    0.000    0.000    0.000    0.000    0.000    1.000 
#
# Total GULP energy -495716.358561 kJ/mol
# GULP energy per Si atom -12392.908964 kJ/mol
# Density = 1.398944 g / cm^3
# Si number density = 14.021351 Si / 1000 Ang^3
#
#
#
# Elastic Constant Matrix: (Units=GPa)
#
#
# Indices 1 2 3 4 5 6 
#
# 1 48.5716 30.7100 38.5912 0.0000 0.0000 0.0000
# 2 30.7100 59.4683 42.9480 0.0000 0.0000 0.0000
# 3 38.5912 42.9480 104.5010 0.0000 0.0000 0.0000
# 4 0.0000 0.0000 0.0000 14.1143 0.0000 0.0000
# 5 0.0000 0.0000 0.0000 0.0000 24.0866 0.0000
# 6 0.0000 0.0000 0.0000 0.0000 0.0000 0.6769
#
#
#
# Elastic Compliance Matrix: (Units=1/GPa)
#
#
# Indices 1 2 3 4 5 6 
#
# 1 0.034427 -0.012225 -0.007689 0.000000 0.000000 0.000000
# 2 -0.012225 0.028255 -0.007097 0.000000 0.000000 0.000000
# 3 -0.007689 -0.007097 0.015326 0.000000 0.000000 0.000000
# 4 0.000000 0.000000 0.000000 0.070850 0.000000 0.000000
# 5 0.000000 0.000000 0.000000 0.000000 0.041517 0.000000
# 6 0.000000 0.000000 0.000000 0.000000 0.000000 1.477249
#
#
# Mechanical properties :
#
#
# Convention : Reuss Voigt Hill
#
# Bulk Modulus (GPa) = 41.69525 48.55992 45.12758
# Shear Modulus (GPa) = 2.89077 14.46169 8.67623
#
# Velocity S-wave (km/s) = 1.43742 3.21503 2.49024
# Velocity P-wave (km/s) = 5.70582 6.96347 6.36578
#
# Compressibility (1/GPa) = 0.02398355
#
# Stress axis : x y z
#
# Youngs Moduli (GPa) = 29.04695 35.39226 65.24962
#
# Poissons Ratio (x) = 0.43268 0.50172
# Poissons Ratio (y) = 0.35511 0.46311
# Poissons Ratio (z) = 0.22335 0.25120
#
# Static dielectric constant tensor:
#      x y z
#    x 2.545820 0.000000 0.000000 
#    y 0.000000 2.746340 0.000000 
#    z 0.000000 0.000000 2.870100 
# 
# 
# High freq. dielectric constant tensor:
#      x y z
#    x 1.497910 0.000000 0.000000 
#    y 0.000000 1.503670 0.000000 
#    z 0.000000 0.000000 1.544370 
# 
# From -- ./inp_files/9376.got.cif
#   From: 2010.03.12/outbox.cif.g09.slc.cpg/sg47_5_cif.got.tgz:9376.got - 2010.04.14 03:12:58.
