data_PCOD8196527
_publ_section_title
;
Structure prediction by ZEFSAII (Michael W. Deem and Ramdas Pophale) SiO2 
 PCOD8196527
Probable space group: P M M M
;
_chemical_formula_sum "Si O2"
_cell_formula_units_Z 44
_cell_length_a 8.890031
_cell_length_b 9.652019
_cell_length_c 28.621020
_cell_angle_alpha 90.000000
_cell_angle_beta 90.000000
_cell_angle_gamma 90.000000
_cell_volume 2455.876654
_symmetry_space_group_name_H-M "P M M M"
_symmetry_group_IT_number 47
_symmetry_cell_setting 'orthorhombic'
loop_
_space_group_symop_operation_xyz
x,y,z
-x,-y,z
x,-y,-z
-x,y,-z
-x,-y,-z
x,y,-z
-x,y,z
x,-y,z
loop_
_atom_site_type_symbol
_atom_site_label
_atom_site_fract_x
_atom_site_fract_y
_atom_site_fract_z
Si Si1 0.178534 0.342485 0.315334
Si Si2 0.323927 0.839902 0.237095
Si Si3 0.321448 0.847103 0.867873
Si Si4 0.678871 0.654899 0.051478
Si Si5 0.835884 0.836069 0.500000
Si Si6 0.180153 0.156080 0.600351
O O1 0.240104 0.500000 0.315588
O O2 0.232421 0.263154 0.269588
O O3 0.241992 0.262213 0.360877
O O4 0.000000 0.341440 0.315725
O O5 0.500000 0.818221 0.245792
O O6 0.278722 0.797694 0.184235
O O7 0.279839 0.000000 0.246847
O O8 0.500000 0.851111 0.872322
O O9 0.249914 0.748006 0.907379
O O10 0.255680 0.000000 0.876749
O O11 0.500000 0.654303 0.055402
O O12 0.741239 0.500000 0.058234
O O13 0.726226 0.711052 0.000000
O O14 0.754199 0.796098 0.549149
O O15 0.000000 0.764455 0.500000
O O16 0.856603 0.000000 0.500000
O O17 0.000000 0.157927 0.597957
O O18 0.235007 0.000000 0.612855
#
# Coordination Sequence:
#
# PCOD8196527 Si02
#       6
#     8   8   8   8   4   8
#     4  10  20  31  43  64  93 120 147 179 215 258
#     4   9  18  32  48  65  85 112 149 188 222 259
#     4   8  14  24  37  54  76 101 132 172 213 250
#     4   8  13  20  30  47  73 104 135 164 197 243
#     4   7  10  18  35  59  82 105 138 175 208 248
#     4   8  13  23  40  60  83 112 143 175 212 252
#
# _framework density 17.916208000000001
#
# number of rings (size 3 to 8) (size 9 to 14) (size 15 to 20)
#    0.000    3.545    0.000    3.273    0.000    2.545 
#    0.000    4.091    0.000    2.727    0.000    0.636 
#    0.000    5.818    0.000    8.000    0.000   13.091 
#
# Total GULP energy -545082.465158 kJ/mol
# GULP energy per Si atom -12388.237844 kJ/mol
# Density = 1.787543 g / cm^3
# Si number density = 17.916208 Si / 1000 Ang^3
#
#
#
# Elastic Constant Matrix: (Units=GPa)
#
#
# Indices 1 2 3 4 5 6 
#
# 1 4.6795 10.2284 10.2302 0.0000 0.0000 0.0000
# 2 10.2284 111.8779 94.8692 0.0000 0.0000 0.0000
# 3 10.2302 94.8692 179.7914 0.0000 0.0000 0.0000
# 4 0.0000 0.0000 0.0000 18.6082 0.0000 0.0000
# 5 0.0000 0.0000 0.0000 0.0000 16.6495 0.0000
# 6 0.0000 0.0000 0.0000 0.0000 0.0000 14.0337
#
#
#
# Elastic Compliance Matrix: (Units=1/GPa)
#
#
# Indices 1 2 3 4 5 6 
#
# 1 0.268820 -0.021005 -0.004213 0.000000 0.000000 0.000000
# 2 -0.021005 0.017817 -0.008206 0.000000 0.000000 0.000000
# 3 -0.004213 -0.008206 0.010132 0.000000 0.000000 0.000000
# 4 0.000000 0.000000 0.000000 0.053740 0.000000 0.000000
# 5 0.000000 0.000000 0.000000 0.000000 0.060062 0.000000
# 6 0.000000 0.000000 0.000000 0.000000 0.000000 0.071257
#
#
# Mechanical properties :
#
#
# Convention : Reuss Voigt Hill
#
# Bulk Modulus (GPa) = 4.34931 58.55604 31.45267
# Shear Modulus (GPa) = 7.99596 21.92634 14.96115
#
# Velocity S-wave (km/s) = 2.11487 3.50212 2.89288
# Velocity P-wave (km/s) = 2.89766 7.00766 5.36208
#
# Compressibility (1/GPa) = 0.22992169
#
# Stress axis : x y z
#
# Youngs Moduli (GPa) = 3.71997 56.12466 98.69782
#
# Poissons Ratio (x) = 1.17888 0.41577
# Poissons Ratio (y) = 0.07814 0.80996
# Poissons Ratio (z) = 0.01567 0.46058
#
# Static dielectric constant tensor:
#      x y z
#    x 2.587100 0.000000 0.000000 
#    y 0.000000 3.488890 0.000000 
#    z 0.000000 0.000000 3.805460 
# 
# 
# High freq. dielectric constant tensor:
#      x y z
#    x 1.614930 0.000000 0.000000 
#    y 0.000000 1.681340 0.000000 
#    z 0.000000 0.000000 1.716390 
# 
# From -- ./inp_files/33529.got.cif
#   From: 2010.03.12/outbox.cif.g09.slc.cpg/sg47_17_cif.got.tgz:33529.got - 2010.04.14 03:12:58.
