data_PCOD8196467
_publ_section_title
;
Structure prediction by ZEFSAII (Michael W. Deem and Ramdas Pophale) SiO2 
 PCOD8196467
Probable space group: P M M M
;
_chemical_formula_sum "Si O2"
_cell_formula_units_Z 52
_cell_length_a 24.447985
_cell_length_b 17.968261
_cell_length_c 9.228532
_cell_angle_alpha 90.000000
_cell_angle_beta 90.000000
_cell_angle_gamma 90.000000
_cell_volume 4053.981293
_symmetry_space_group_name_H-M "P M M M"
_symmetry_group_IT_number 47
_symmetry_cell_setting 'orthorhombic'
loop_
_space_group_symop_operation_xyz
x,y,z
-x,-y,z
x,-y,-z
-x,y,-z
-x,-y,-z
x,y,-z
-x,y,z
x,-y,z
loop_
_atom_site_type_symbol
_atom_site_label
_atom_site_fract_x
_atom_site_fract_y
_atom_site_fract_z
Si Si1 0.064894 0.417894 0.662153
Si Si2 0.114463 0.138577 0.330007
Si Si3 0.337366 0.911208 0.162717
Si Si4 0.232897 0.915042 0.333842
Si Si5 0.064786 0.275967 0.833111
Si Si6 0.439840 0.911509 0.337166
Si Si7 0.935298 0.000000 0.164960
O O1 0.086073 0.398508 0.500000
O O2 0.086510 0.500000 0.708822
O O3 0.085359 0.356427 0.776599
O O4 0.000000 0.418849 0.661010
O O5 0.100142 0.133323 0.500000
O O6 0.179423 0.133981 0.304231
O O7 0.094470 0.215810 0.265546
O O8 0.084447 0.072614 0.247718
O O9 0.282937 0.881638 0.241681
O O10 0.391980 0.877947 0.237033
O O11 0.338348 0.000000 0.169936
O O12 0.336229 0.881200 0.000000
O O13 0.251248 0.911626 0.500000
O O14 0.219264 0.000000 0.288966
O O15 0.000000 0.266409 0.814792
O O16 0.082291 0.266889 0.000000
O O17 0.430819 0.882043 0.500000
O O18 0.500000 0.886189 0.280327
O O19 0.436704 0.000000 0.335957
O O20 0.000000 0.000000 0.163211
O O21 0.912657 0.000000 0.000000
#
# Coordination Sequence:
#
# PCOD8196467 Si02
#       7
#     8   8   8   8   8   8   4
#     4   8  14  26  44  63  80  98 119 140 164 201
#     4  11  21  33  46  58  70  91 123 154 184 219
#     4   9  16  23  33  50  66  82 105 134 172 211
#     4   9  17  30  42  51  64  83 113 149 182 216
#     4  10  20  31  42  59  81 100 117 141 179 222
#     4   8  13  21  32  45  62  85 108 129 160 202
#     4  11  23  35  45  57  73  91 112 145 190 233
#
# _framework density 12.826897000000001
#
# number of rings (size 3 to 8) (size 9 to 14) (size 15 to 20)
#    0.000    2.692    0.769    3.000    0.000    7.077 
#    0.000    3.077    0.000    0.000    0.000    0.000 
#    0.000    0.000    0.000    0.000    0.000    0.000 
#
# Total GULP energy -644580.941059 kJ/mol
# GULP energy per Si atom -12395.787328 kJ/mol
# Density = 1.279770 g / cm^3
# Si number density = 12.826897 Si / 1000 Ang^3
#
#
#
# Elastic Constant Matrix: (Units=GPa)
#
#
# Indices 1 2 3 4 5 6 
#
# 1 70.0336 25.6257 51.3427 0.0000 0.0000 0.0000
# 2 25.6257 59.2028 37.3296 0.0000 0.0000 0.0000
# 3 51.3427 37.3296 99.7193 0.0000 0.0000 0.0000
# 4 0.0000 0.0000 0.0000 14.6058 0.0000 0.0000
# 5 0.0000 0.0000 0.0000 0.0000 15.3347 0.0000
# 6 0.0000 0.0000 0.0000 0.0000 0.0000 -59.4769
#
#
#
# Elastic Compliance Matrix: (Units=1/GPa)
#
#
# Indices 1 2 3 4 5 6 
#
# 1 0.023424 -0.003318 -0.010818 0.000000 0.000000 0.000000
# 2 -0.003318 0.022580 -0.006745 0.000000 0.000000 0.000000
# 3 -0.010818 -0.006745 0.018123 0.000000 0.000000 0.000000
# 4 0.000000 0.000000 0.000000 0.068466 0.000000 0.000000
# 5 0.000000 0.000000 0.000000 0.000000 0.065212 0.000000
# 6 0.000000 0.000000 0.000000 0.000000 0.000000 -0.016813
#
#
# Mechanical properties :
#
#
# Convention : Reuss Voigt Hill
#
# Bulk Modulus (GPa) = 44.71130 50.83909 47.77520
# Shear Modulus (GPa) = 21.71957 1.73657 11.72807
#
# Velocity S-wave (km/s) = 4.11942 1.16481 3.02708
# Velocity P-wave (km/s) = 7.58678 6.44437 7.03879
#
# Compressibility (1/GPa) = 0.02236571
#
# Stress axis : x y z
#
# Youngs Moduli (GPa) = 42.69140 44.28747 55.17832
#
# Poissons Ratio (x) = 0.14693 0.59694
# Poissons Ratio (y) = 0.14163 0.37215
# Poissons Ratio (z) = 0.46185 0.29870
#
# Static dielectric constant tensor:
#      x y z
#    x 2.595710 0.000000 0.000000 
#    y 0.000000 2.395720 0.000000 
#    z 0.000000 0.000000 2.794360 
# 
# 
# High freq. dielectric constant tensor:
#      x y z
#    x 1.470780 0.000000 0.000000 
#    y 0.000000 1.436400 0.000000 
#    z 0.000000 0.000000 1.502420 
# 
# From -- ./inp_files/10087.got.cif
#   From: 2010.03.12/outbox.cif.g09.slc.cpg/sg47_6_cif.got.tgz:10087.got - 2010.04.14 03:12:58.
