data_PCOD8196617
_publ_section_title
;
Structure prediction by ZEFSAII (Michael W. Deem and Ramdas Pophale) SiO2 
 PCOD8196617
Probable space group: P M M M
;
_chemical_formula_sum "Si O2"
_cell_formula_units_Z 52
_cell_length_a 20.921319
_cell_length_b 14.437484
_cell_length_c 8.948028
_cell_angle_alpha 90.000000
_cell_angle_beta 90.000000
_cell_angle_gamma 90.000000
_cell_volume 2702.762669
_symmetry_space_group_name_H-M "P M M M"
_symmetry_group_IT_number 47
_symmetry_cell_setting 'orthorhombic'
loop_
_space_group_symop_operation_xyz
x,y,z
-x,-y,z
x,-y,-z
-x,y,-z
-x,-y,-z
x,y,-z
-x,y,z
x,-y,z
loop_
_atom_site_type_symbol
_atom_site_label
_atom_site_fract_x
_atom_site_fract_y
_atom_site_fract_z
Si Si1 0.274416 0.892394 0.169293
Si Si2 0.129981 0.100412 0.822806
Si Si3 0.818816 0.608678 0.334001
Si Si4 0.500000 0.893218 0.177105
Si Si5 0.929492 0.285084 0.822810
Si Si6 0.322551 0.602473 0.677344
Si Si7 0.383290 0.210998 0.674869
O O1 0.202307 0.875220 0.223888
O O2 0.317405 0.839476 0.288595
O O3 0.292320 0.000000 0.173945
O O4 0.285455 0.855176 0.000000
O O5 0.083771 0.180838 0.762554
O O6 0.109536 0.000000 0.755813
O O7 0.127456 0.093616 0.000000
O O8 0.825137 0.651926 0.500000
O O9 0.828058 0.500000 0.342436
O O10 0.875074 0.646478 0.231516
O O11 0.748533 0.630362 0.263465
O O12 0.438739 0.837462 0.232499
O O13 0.500000 0.000000 0.236148
O O14 0.500000 0.893545 0.000000
O O15 0.000000 0.315203 0.765261
O O16 0.927499 0.285793 0.000000
O O17 0.316382 0.597268 0.500000
O O18 0.343148 0.500000 0.738242
O O19 0.374725 0.680470 0.722684
O O20 0.398933 0.202358 0.500000
#
# Coordination Sequence:
#
# PCOD8196617 Si02
#       7
#     8   8   8   4   8   8   8
#     4   9  17  30  49  72  99 132 166 202 252 310
#     4   8  15  29  48  69  94 127 168 209 249 302
#     4   9  18  34  55  75  97 130 169 205 245 301
#     4  11  25  43  58  73 104 150 183 199 230 285
#     4  10  20  31  45  69  99 130 166 211 260 302
#     4   8  16  33  56  81 106 130 161 204 254 304
#     4  11  21  33  55  83 106 131 166 210 252 286
#
# _framework density 19.239573
#
# number of rings (size 3 to 8) (size 9 to 14) (size 15 to 20)
#    0.000    2.692    0.000    3.923    0.000    4.000 
#    0.000    4.231    0.000    7.385    0.000    1.077 
#    0.000    0.000    0.000    0.000    0.000    0.000 
#
# Total GULP energy -644433.649205 kJ/mol
# GULP energy per Si atom -12392.954792 kJ/mol
# Density = 1.919578 g / cm^3
# Si number density = 19.239573 Si / 1000 Ang^3
#
#
#
# Elastic Constant Matrix: (Units=GPa)
#
#
# Indices 1 2 3 4 5 6 
#
# 1 92.2773 68.4657 25.8646 0.0000 0.0000 0.0000
# 2 68.4657 99.2999 27.1820 0.0000 0.0000 0.0000
# 3 25.8646 27.1820 34.7224 0.0000 0.0000 0.0000
# 4 0.0000 0.0000 0.0000 20.5891 0.0000 0.0000
# 5 0.0000 0.0000 0.0000 0.0000 19.5866 0.0000
# 6 0.0000 0.0000 0.0000 0.0000 0.0000 27.2714
#
#
#
# Elastic Compliance Matrix: (Units=1/GPa)
#
#
# Indices 1 2 3 4 5 6 
#
# 1 0.023142 -0.014302 -0.006042 0.000000 0.000000 0.000000
# 2 -0.014302 0.021656 -0.006300 0.000000 0.000000 0.000000
# 3 -0.006042 -0.006300 0.038232 0.000000 0.000000 0.000000
# 4 0.000000 0.000000 0.000000 0.048569 0.000000 0.000000
# 5 0.000000 0.000000 0.000000 0.000000 0.051055 0.000000
# 6 0.000000 0.000000 0.000000 0.000000 0.000000 0.036668
#
#
# Mechanical properties :
#
#
# Convention : Reuss Voigt Hill
#
# Bulk Modulus (GPa) = 33.62191 52.14714 42.88452
# Shear Modulus (GPa) = 17.69755 20.47523 19.08639
#
# Velocity S-wave (km/s) = 3.03620 3.26579 3.15308
# Velocity P-wave (km/s) = 5.45936 6.43299 5.96607
#
# Compressibility (1/GPa) = 0.02974251
#
# Stress axis : x y z
#
# Youngs Moduli (GPa) = 43.21150 46.17674 26.15599
#
# Poissons Ratio (x) = 0.66042 0.15804
# Poissons Ratio (y) = 0.61801 0.16477
# Poissons Ratio (z) = 0.26109 0.29089
#
# Static dielectric constant tensor:
#      x y z
#    x 3.610290 0.000000 0.000000 
#    y 0.000000 3.893050 0.000000 
#    z 0.000000 0.000000 3.222390 
# 
# 
# High freq. dielectric constant tensor:
#      x y z
#    x 1.742250 0.000000 0.000000 
#    y 0.000000 1.759020 0.000000 
#    z 0.000000 0.000000 1.709970 
# 
# From -- ./inp_files/11084.got.cif
#   From: 2010.03.12/outbox.cif.g09.slc.cpg/sg47_6_cif.got.tgz:11084.got - 2010.04.14 03:12:58.
