data_PCOD8196602
_publ_section_title
;
Structure prediction by ZEFSAII (Michael W. Deem and Ramdas Pophale) SiO2 
 PCOD8196602
Probable space group: P M M M
;
_chemical_formula_sum "Si O2"
_cell_formula_units_Z 40
_cell_length_a 8.968504
_cell_length_b 25.619530
_cell_length_c 9.695601
_cell_angle_alpha 90.000000
_cell_angle_beta 90.000000
_cell_angle_gamma 90.000000
_cell_volume 2227.747162
_symmetry_space_group_name_H-M "P M M M"
_symmetry_group_IT_number 47
_symmetry_cell_setting 'orthorhombic'
loop_
_space_group_symop_operation_xyz
x,y,z
-x,-y,z
x,-y,-z
-x,y,-z
-x,-y,-z
x,y,-z
-x,y,z
x,-y,z
loop_
_atom_site_type_symbol
_atom_site_label
_atom_site_fract_x
_atom_site_fract_y
_atom_site_fract_z
Si Si1 0.822724 0.236458 0.654972
Si Si2 0.822867 0.143591 0.843345
Si Si3 0.672674 0.939372 0.656330
Si Si4 0.177425 0.647830 0.654266
Si Si5 0.177415 0.442420 0.154520
O O1 0.763874 0.224274 0.500000
O O2 0.758364 0.194127 0.762308
O O3 0.769940 0.294367 0.701928
O O4 0.000000 0.234272 0.653942
O O5 0.769559 0.091800 0.766455
O O6 0.000000 0.144008 0.843073
O O7 0.761721 0.144469 0.000000
O O8 0.720634 0.924704 0.500000
O O9 0.500000 0.925976 0.678534
O O10 0.703191 0.000000 0.683520
O O11 0.234618 0.637038 0.500000
O O12 0.248068 0.603057 0.751040
O O13 0.000000 0.645173 0.658993
O O14 0.226681 0.500000 0.207885
O O15 0.000000 0.438840 0.156125
O O16 0.237125 0.433709 0.000000
#
# Coordination Sequence:
#
# PCOD8196602 Si02
#       5
#     8   8   8   8   8
#     4   8  14  25  39  54  75 104 137 173 213 256
#     4  10  20  31  45  69  97 121 147 181 221 264
#     4   9  19  36  55  72  90 116 151 185 217 259
#     4   8  13  20  30  44  61  85 121 164 207 247
#     4   8  13  19  25  35  54  82 117 157 201 248
#
# _framework density 17.955358
#
# number of rings (size 3 to 8) (size 9 to 14) (size 15 to 20)
#    0.000    3.400    0.000    3.000    0.000    3.600 
#    0.000    9.000    0.000    0.000    0.000    0.000 
#    0.000    0.000    0.000    0.000    0.000    1.000 
#
# Total GULP energy -495700.052170 kJ/mol
# GULP energy per Si atom -12392.501304 kJ/mol
# Density = 1.791449 g / cm^3
# Si number density = 17.955358 Si / 1000 Ang^3
#
#
#
# Elastic Constant Matrix: (Units=GPa)
#
#
# Indices 1 2 3 4 5 6 
#
# 1 5.9690 13.7485 14.0711 0.0000 0.0000 0.0000
# 2 13.7485 140.6875 94.0805 0.0000 0.0000 0.0000
# 3 14.0711 94.0805 134.3277 0.0000 0.0000 0.0000
# 4 0.0000 0.0000 0.0000 32.3355 0.0000 0.0000
# 5 0.0000 0.0000 0.0000 0.0000 12.5013 0.0000
# 6 0.0000 0.0000 0.0000 0.0000 0.0000 -0.5238
#
#
#
# Elastic Compliance Matrix: (Units=1/GPa)
#
#
# Indices 1 2 3 4 5 6 
#
# 1 0.232974 -0.012127 -0.015911 0.000000 0.000000 0.000000
# 2 -0.012127 0.014001 -0.008536 0.000000 0.000000 0.000000
# 3 -0.015911 -0.008536 0.015089 0.000000 0.000000 0.000000
# 4 0.000000 0.000000 0.000000 0.030926 0.000000 0.000000
# 5 0.000000 0.000000 0.000000 0.000000 0.079991 0.000000
# 6 0.000000 0.000000 0.000000 0.000000 0.000000 -1.908980
#
#
# Mechanical properties :
#
#
# Convention : Reuss Voigt Hill
#
# Bulk Modulus (GPa) = 5.29333 58.30937 31.80135
# Shear Modulus (GPa) = -3.57174 19.46821 7.94823
#
# Velocity S-wave (km/s) = -1.41193 3.29638 2.10625
# Velocity P-wave (km/s) = 0.54441 6.85808 4.86465
#
# Compressibility (1/GPa) = 0.18891693
#
# Stress axis : x y z
#
# Youngs Moduli (GPa) = 4.29232 71.42318 66.27140
#
# Poissons Ratio (x) = 0.86615 1.05445
# Poissons Ratio (y) = 0.05205 0.56568
# Poissons Ratio (z) = 0.06830 0.60965
#
# Static dielectric constant tensor:
#      x y z
#    x 2.591900 0.000000 0.000000 
#    y 0.000000 3.664970 0.000000 
#    z 0.000000 0.000000 3.570250 
# 
# 
# High freq. dielectric constant tensor:
#      x y z
#    x 1.619160 0.000000 0.000000 
#    y 0.000000 1.710990 0.000000 
#    z 0.000000 0.000000 1.695950 
# 
# From -- ./inp_files/1661.got.cif
#   From: 2010.03.12/outbox.cif.g09.slc.cpg/sg47_1_cif.got.tgz:1661.got - 2010.04.14 03:12:58.
