data_PCOD8196711
_publ_section_title
;
Structure prediction by ZEFSAII (Michael W. Deem and Ramdas Pophale) SiO2 
 PCOD8196711
Probable space group: P M M M
;
_chemical_formula_sum "Si O2"
_cell_formula_units_Z 48
_cell_length_a 17.544966
_cell_length_b 9.091332
_cell_length_c 23.103972
_cell_angle_alpha 90.000000
_cell_angle_beta 90.000000
_cell_angle_gamma 90.000000
_cell_volume 3685.247823
_symmetry_space_group_name_H-M "P M M M"
_symmetry_group_IT_number 47
_symmetry_cell_setting 'orthorhombic'
loop_
_space_group_symop_operation_xyz
x,y,z
-x,-y,z
x,-y,-z
-x,y,-z
-x,-y,-z
x,y,-z
-x,y,z
x,-y,z
loop_
_atom_site_type_symbol
_atom_site_label
_atom_site_fract_x
_atom_site_fract_y
_atom_site_fract_z
Si Si1 0.000000 0.833449 0.569057
Si Si2 0.300115 0.170788 0.432002
Si Si3 0.590698 0.834890 0.765211
Si Si4 0.148706 0.333727 0.568869
Si Si5 0.416351 0.325113 0.000000
Si Si6 0.408690 0.665615 0.124011
Si Si7 0.410137 0.330080 0.651191
O O1 0.925600 0.749761 0.593123
O O2 0.000000 0.833675 0.500000
O O3 0.000000 0.000000 0.592689
O O4 0.310839 0.194780 0.500000
O O5 0.223331 0.248276 0.409148
O O6 0.372373 0.244359 0.401759
O O7 0.295522 0.000000 0.415790
O O8 0.500000 0.832647 0.767279
O O9 0.623492 0.769072 0.825152
O O10 0.619588 0.737358 0.711611
O O11 0.621947 0.000000 0.757842
O O12 0.146461 0.334454 0.500000
O O13 0.149802 0.500000 0.593037
O O14 0.375767 0.279522 0.060954
O O15 0.424630 0.500000 0.000000
O O16 0.500000 0.252247 0.000000
O O17 0.500000 0.669842 0.121432
O O18 0.381249 0.500000 0.137381
O O19 0.500000 0.308891 0.644433
O O20 0.386459 0.500000 0.649351
#
# Coordination Sequence:
#
# PCOD8196711 Si02
#       7
#     4   8   8   8   4   8   8
#     4   9  15  23  37  57  79  99 117 135 157 190
#     4  10  20  32  44  57  73  91 110 137 177 220
#     4   9  16  25  36  49  64  81 103 134 171 207
#     4   9  16  26  40  57  76  96 116 136 160 195
#     4   7  10  16  27  43  61  81 103 125 151 188
#     4   8  12  19  31  45  61  81 104 128 156 193
#     4  10  20  32  44  55  66  84 113 147 181 218
#
# _framework density 13.024903999999999
#
# number of rings (size 3 to 8) (size 9 to 14) (size 15 to 20)
#    0.000    3.000    0.000    3.250    0.000    7.333 
#    0.000    2.083    0.000    2.500    0.000    0.000 
#    0.000    0.000    0.000    0.000    0.000    0.000 
#
# Total GULP energy -594882.021443 kJ/mol
# GULP energy per Si atom -12393.375447 kJ/mol
# Density = 1.299526 g / cm^3
# Si number density = 13.024904 Si / 1000 Ang^3
#
#
#
# Elastic Constant Matrix: (Units=GPa)
#
#
# Indices 1 2 3 4 5 6 
#
# 1 35.3462 32.8417 26.4653 0.0000 0.0000 0.0000
# 2 32.8417 111.2102 45.1652 0.0000 0.0000 0.0000
# 3 26.4653 45.1652 60.6507 0.0000 0.0000 0.0000
# 4 0.0000 0.0000 0.0000 16.3492 0.0000 0.0000
# 5 0.0000 0.0000 0.0000 0.0000 0.4716 0.0000
# 6 0.0000 0.0000 0.0000 0.0000 0.0000 18.7414
#
#
#
# Elastic Compliance Matrix: (Units=1/GPa)
#
#
# Indices 1 2 3 4 5 6 
#
# 1 0.046351 -0.007847 -0.014382 0.000000 0.000000 0.000000
# 2 -0.007847 0.014219 -0.007164 0.000000 0.000000 0.000000
# 3 -0.014382 -0.007164 0.028099 0.000000 0.000000 0.000000
# 4 0.000000 0.000000 0.000000 0.061165 0.000000 0.000000
# 5 0.000000 0.000000 0.000000 0.000000 2.120249 0.000000
# 6 0.000000 0.000000 0.000000 0.000000 0.000000 0.053358
#
#
# Mechanical properties :
#
#
# Convention : Reuss Voigt Hill
#
# Bulk Modulus (GPa) = 33.46529 46.23908 39.85219
# Shear Modulus (GPa) = 2.09014 13.96145 8.02579
#
# Velocity S-wave (km/s) = 1.26815 3.27755 2.48501
# Velocity P-wave (km/s) = 5.28142 7.06404 6.23675
#
# Compressibility (1/GPa) = 0.02988170
#
# Stress axis : x y z
#
# Youngs Moduli (GPa) = 21.57445 70.32845 35.58890
#
# Poissons Ratio (x) = 0.55188 0.51184
# Poissons Ratio (y) = 0.16930 0.25497
# Poissons Ratio (z) = 0.31028 0.50386
#
# Static dielectric constant tensor:
#      x y z
#    x 2.291490 0.000000 0.000000 
#    y 0.000000 2.779420 0.000000 
#    z 0.000000 0.000000 2.650100 
# 
# 
# High freq. dielectric constant tensor:
#      x y z
#    x 1.439470 0.000000 0.000000 
#    y 0.000000 1.508730 0.000000 
#    z 0.000000 0.000000 1.474660 
# 
# From -- ./inp_files/31251.got.cif
#   From: 2010.03.12/outbox.cif.g09.slc.cpg/sg47_16_cif.got.tgz:31251.got - 2010.04.14 03:12:58.
