data_PCOD8196161
_publ_section_title
;
Structure prediction by ZEFSAII (Michael W. Deem and Ramdas Pophale) SiO2 
 PCOD8196161
Probable space group: P M M M
;
_chemical_formula_sum "Si O2"
_cell_formula_units_Z 36
_cell_length_a 11.925926
_cell_length_b 7.520682
_cell_length_c 24.010445
_cell_angle_alpha 90.000000
_cell_angle_beta 90.000000
_cell_angle_gamma 90.000000
_cell_volume 2153.523152
_symmetry_space_group_name_H-M "P M M M"
_symmetry_group_IT_number 47
_symmetry_cell_setting 'orthorhombic'
loop_
_space_group_symop_operation_xyz
x,y,z
-x,-y,z
x,-y,-z
-x,y,-z
-x,-y,-z
x,y,-z
-x,y,z
x,-y,z
loop_
_atom_site_type_symbol
_atom_site_label
_atom_site_fract_x
_atom_site_fract_y
_atom_site_fract_z
Si Si1 0.133678 0.802763 0.357154
Si Si2 0.000000 0.210112 0.061565
Si Si3 0.133897 0.500000 0.562550
Si Si4 0.875875 0.789929 0.235255
Si Si5 0.225110 0.210342 0.121972
Si Si6 0.632333 0.500000 0.935643
O O1 0.179727 0.673359 0.405181
O O2 0.171148 0.731047 0.295942
O O3 0.000000 0.808055 0.357658
O O4 0.181956 0.000000 0.368944
O O5 0.889510 0.273997 0.093158
O O6 0.000000 0.000000 0.058770
O O7 0.000000 0.294067 0.000000
O O8 0.182453 0.500000 0.500000
O O9 0.000000 0.500000 0.561600
O O10 0.788112 0.735594 0.187092
O O11 0.000000 0.707077 0.224197
O O12 0.890286 0.000000 0.235106
O O13 0.325190 0.321345 0.094723
O O14 0.248936 0.000000 0.113882
O O15 0.500000 0.500000 0.930680
O O16 0.671095 0.500000 0.000000
#
# Coordination Sequence:
#
# PCOD8196161 Si02
#       6
#     8   4   4   8   8   4
#     4   8  14  23  35  52  77 108 137 173 220 263
#     4   9  16  27  47  75 100 117 135 169 228 293
#     4   9  16  23  30  44  68 105 156 198 215 233
#     4   8  13  25  45  69  94 113 135 174 229 289
#     4  10  19  34  55  75  95 119 145 184 238 286
#     4  11  26  42  51  65  89 121 167 203 218 258
#
# _framework density 16.716794
#
# number of rings (size 3 to 8) (size 9 to 14) (size 15 to 20)
#    0.000    3.000    1.111    2.000    0.000    3.556 
#    0.000    5.556    0.000    0.000    0.000    0.000 
#    0.000    0.000    0.000    0.000    0.000    8.889 
#
# Total GULP energy -446110.198738 kJ/mol
# GULP energy per Si atom -12391.949965 kJ/mol
# Density = 1.667875 g / cm^3
# Si number density = 16.716794 Si / 1000 Ang^3
#
#
#
# Elastic Constant Matrix: (Units=GPa)
#
#
# Indices 1 2 3 4 5 6 
#
# 1 40.7645 23.8554 31.5782 0.0000 0.0000 0.0000
# 2 23.8554 84.6017 60.6808 0.0000 0.0000 0.0000
# 3 31.5782 60.6808 168.2384 0.0000 0.0000 0.0000
# 4 0.0000 0.0000 0.0000 25.1823 0.0000 0.0000
# 5 0.0000 0.0000 0.0000 0.0000 9.6370 0.0000
# 6 0.0000 0.0000 0.0000 0.0000 0.0000 14.7899
#
#
#
# Elastic Compliance Matrix: (Units=1/GPa)
#
#
# Indices 1 2 3 4 5 6 
#
# 1 0.030903 -0.006142 -0.003585 0.000000 0.000000 0.000000
# 2 -0.006142 0.017166 -0.005039 0.000000 0.000000 0.000000
# 3 -0.003585 -0.005039 0.008434 0.000000 0.000000 0.000000
# 4 0.000000 0.000000 0.000000 0.039710 0.000000 0.000000
# 5 0.000000 0.000000 0.000000 0.000000 0.103767 0.000000
# 6 0.000000 0.000000 0.000000 0.000000 0.000000 0.067614
#
#
# Mechanical properties :
#
#
# Convention : Reuss Voigt Hill
#
# Bulk Modulus (GPa) = 37.07677 58.42594 47.75136
# Shear Modulus (GPa) = 16.33365 21.75451 19.04408
#
# Velocity S-wave (km/s) = 3.12922 3.61135 3.37889
# Velocity P-wave (km/s) = 5.93999 7.23985 6.62189
#
# Compressibility (1/GPa) = 0.02697106
#
# Stress axis : x y z
#
# Youngs Moduli (GPa) = 32.35956 58.25460 118.56532
#
# Poissons Ratio (x) = 0.35782 0.42505
# Poissons Ratio (y) = 0.19877 0.59740
# Poissons Ratio (z) = 0.11601 0.29352
#
# Static dielectric constant tensor:
#      x y z
#    x 2.512160 0.000000 0.000000 
#    y 0.000000 3.135750 0.000000 
#    z 0.000000 0.000000 3.643080 
# 
# 
# High freq. dielectric constant tensor:
#      x y z
#    x 1.557250 0.000000 0.000000 
#    y 0.000000 1.645710 0.000000 
#    z 0.000000 0.000000 1.658680 
# 
# From -- ./inp_files/32282.got.cif
#   From: 2010.03.12/outbox.cif.g09.slc.cpg/sg47_17_cif.got.tgz:32282.got - 2010.04.14 03:12:58.
