data_PCOD8196236
_publ_section_title
;
Structure prediction by ZEFSAII (Michael W. Deem and Ramdas Pophale) SiO2 
 PCOD8196236
Probable space group: P M M M
;
_chemical_formula_sum "Si O2"
_cell_formula_units_Z 64
_cell_length_a 23.699489
_cell_length_b 15.357473
_cell_length_c 9.334501
_cell_angle_alpha 90.000000
_cell_angle_beta 90.000000
_cell_angle_gamma 90.000000
_cell_volume 3397.424772
_symmetry_space_group_name_H-M "P M M M"
_symmetry_group_IT_number 47
_symmetry_cell_setting 'orthorhombic'
loop_
_space_group_symop_operation_xyz
x,y,z
-x,-y,z
x,-y,-z
-x,y,-z
-x,-y,-z
x,y,-z
-x,y,z
x,-y,z
loop_
_atom_site_type_symbol
_atom_site_label
_atom_site_fract_x
_atom_site_fract_y
_atom_site_fract_z
Si Si1 0.433540 0.750000 0.834335
Si Si2 0.751325 0.850383 0.666446
Si Si3 0.858216 0.097025 0.164292
Si Si4 0.751324 0.350382 0.333554
Si Si5 0.373432 0.400993 0.334331
Si Si6 0.373431 0.900993 0.665669
Si Si7 0.141784 0.402975 0.164292
Si Si8 0.937067 0.750000 0.829592
O O1 0.500000 0.750003 0.814484
O O2 0.410108 0.662836 0.762087
O O3 0.410105 0.837164 0.762089
O O4 0.415646 0.749999 0.000000
O O5 0.764531 0.862379 0.500000
O O6 0.799798 0.899012 0.752053
O O7 0.749351 0.750001 0.711531
O O8 0.692071 0.893694 0.708005
O O9 0.904044 0.164662 0.226697
O O10 0.883566 0.000000 0.179790
O O11 0.845105 0.120221 0.000000
O O12 0.764529 0.362380 0.500000
O O13 0.692070 0.393692 0.291993
O O14 0.799797 0.399011 0.247947
O O15 0.381524 0.373918 0.500000
O O16 0.393630 0.500000 0.307528
O O17 0.381523 0.873918 0.500000
O O18 0.393629 0.000000 0.692472
O O19 0.116435 0.500000 0.179792
O O20 0.095957 0.335338 0.226697
O O21 0.154896 0.379780 0.000000
O O22 0.000000 0.749999 0.763377
O O23 0.941125 0.749999 0.000000
#
# Coordination Sequence:
#
# PCOD8196236 Si02
#       8
#     8   8   8   8   8   8   8   8
#     4  11  25  42  59  82 116 155 190 229 278 331
#     4  10  19  34  58  84 111 143 176 216 270 328
#     4  10  20  33  52  79 108 139 176 218 268 325
#     4  10  19  34  58  84 111 143 176 216 270 328
#     4  10  21  39  63  88 113 145 188 234 278 329
#     4  10  21  39  63  88 113 145 188 234 278 329
#     4  10  20  33  52  79 108 139 176 218 268 325
#     4   9  18  33  51  72 102 139 180 227 270 309
#
# _framework density 18.837796000000001
#
# number of rings (size 3 to 8) (size 9 to 14) (size 15 to 20)
#    0.000    2.000    2.500    1.125    0.000    5.000 
#    0.000    5.000    0.000    1.500    0.000    1.750 
#    0.000    0.000    0.000    0.000    0.000    0.000 
#
# Total GULP energy -793739.504270 kJ/mol
# GULP energy per Si atom -12402.179754 kJ/mol
# Density = 1.879492 g / cm^3
# Si number density = 18.837796 Si / 1000 Ang^3
#
#
#
# Elastic Constant Matrix: (Units=GPa)
#
#
# Indices 1 2 3 4 5 6 
#
# 1 118.5147 64.3585 57.4758 0.0000 0.0000 0.0000
# 2 64.3585 140.2119 49.5568 0.0000 0.0000 0.0000
# 3 57.4758 49.5568 63.6799 0.0000 0.0000 0.0000
# 4 0.0000 0.0000 0.0000 23.8171 0.0000 0.0000
# 5 0.0000 0.0000 0.0000 0.0000 116.5625 0.0000
# 6 0.0000 0.0000 0.0000 0.0000 0.0000 8.6632
#
#
#
# Elastic Compliance Matrix: (Units=1/GPa)
#
#
# Indices 1 2 3 4 5 6 
#
# 1 0.015912 -0.003073 -0.011970 0.000000 0.000000 0.000000
# 2 -0.003073 0.010431 -0.005345 0.000000 0.000000 0.000000
# 3 -0.011970 -0.005345 0.030667 0.000000 0.000000 0.000000
# 4 0.000000 0.000000 0.000000 0.041987 0.000000 0.000000
# 5 0.000000 0.000000 0.000000 0.000000 0.008579 0.000000
# 6 0.000000 0.000000 0.000000 0.000000 0.000000 0.115431
#
#
# Mechanical properties :
#
#
# Convention : Reuss Voigt Hill
#
# Bulk Modulus (GPa) = 61.59580 73.90986 67.75283
# Shear Modulus (GPa) = 18.57404 39.87625 29.22515
#
# Velocity S-wave (km/s) = 3.14347 4.60588 3.94307
# Velocity P-wave (km/s) = 6.77821 8.22226 7.53491
#
# Compressibility (1/GPa) = 0.01623487
#
# Stress axis : x y z
#
# Youngs Moduli (GPa) = 62.84759 95.86361 32.60884
#
# Poissons Ratio (x) = 0.29457 0.39033
# Poissons Ratio (y) = 0.19312 0.17428
# Poissons Ratio (z) = 0.75229 0.51234
#
# Static dielectric constant tensor:
#      x y z
#    x 3.436550 0.000000 0.000000 
#    y 0.000000 3.683470 0.000000 
#    z 0.000000 0.000000 3.295010 
# 
# 
# High freq. dielectric constant tensor:
#      x y z
#    x 1.725780 0.000000 0.000000 
#    y 0.000000 1.750970 0.000000 
#    z 0.000000 0.000000 1.709050 
# 
# From -- ./inp_files/7929.got.cif
#   From: 2010.03.12/outbox.cif.g09.slc.cpg/sg47_4_cif.got.tgz:7929.got - 2010.04.14 03:12:58.
