data_PCOD8196877
_publ_section_title
;
Structure prediction by ZEFSAII (Michael W. Deem and Ramdas Pophale) SiO2 
 PCOD8196877
Probable space group: P M M M
;
_chemical_formula_sum "Si O2"
_cell_formula_units_Z 44
_cell_length_a 9.409790
_cell_length_b 9.135019
_cell_length_c 28.562950
_cell_angle_alpha 90.000000
_cell_angle_beta 90.000000
_cell_angle_gamma 90.000000
_cell_volume 2455.231492
_symmetry_space_group_name_H-M "P M M M"
_symmetry_group_IT_number 47
_symmetry_cell_setting 'orthorhombic'
loop_
_space_group_symop_operation_xyz
x,y,z
-x,-y,z
x,-y,-z
-x,y,-z
-x,-y,-z
x,y,-z
-x,y,z
x,-y,z
loop_
_atom_site_type_symbol
_atom_site_label
_atom_site_fract_x
_atom_site_fract_y
_atom_site_fract_z
Si Si1 0.163212 0.173673 0.276728
Si Si2 0.840377 0.175024 0.000000
Si Si3 0.333402 0.670328 0.641993
Si Si4 0.668589 0.835975 0.448556
Si Si5 0.340418 0.825950 0.914014
Si Si6 0.340747 0.826090 0.189469
O O1 0.246483 0.244370 0.319238
O O2 0.231711 0.233207 0.228360
O O3 0.000000 0.223751 0.277761
O O4 0.178177 0.000000 0.280769
O O5 0.763574 0.238229 0.046365
O O6 0.000000 0.235078 0.000000
O O7 0.836778 0.000000 0.000000
O O8 0.500000 0.704395 0.648752
O O9 0.300178 0.500000 0.645947
O O10 0.277635 0.725291 0.591360
O O11 0.725250 0.786292 0.500000
O O12 0.500000 0.835834 0.449554
O O13 0.723641 0.000000 0.437247
O O14 0.500000 0.771101 0.924589
O O15 0.292495 0.771488 0.862242
O O16 0.336611 0.000000 0.915552
O O17 0.500000 0.768419 0.200667
O O18 0.341797 0.000000 0.189938
#
# Coordination Sequence:
#
# PCOD8196877 Si02
#       6
#     8   4   8   8   8   8
#     4  10  20  32  47  67  90 119 155 194 237 283
#     4   9  15  19  25  41  67 101 138 175 216 263
#     4  10  20  32  48  71  97 126 158 191 230 276
#     4   8  14  26  46  72  99 125 154 190 231 272
#     4   8  13  21  32  46  67  98 136 176 219 268
#     4   8  14  25  41  59  78 104 142 188 233 275
#
# _framework density 17.920918
#
# number of rings (size 3 to 8) (size 9 to 14) (size 15 to 20)
#    0.000    3.182    0.000    3.000    0.000    4.364 
#    0.000    5.455    0.000    0.545    0.000    3.818 
#    0.000    0.000    0.000    0.818    0.000   16.727 
#
# Total GULP energy -545295.582738 kJ/mol
# GULP energy per Si atom -12393.081426 kJ/mol
# Density = 1.788013 g / cm^3
# Si number density = 17.920918 Si / 1000 Ang^3
#
#
#
# Elastic Constant Matrix: (Units=GPa)
#
#
# Indices 1 2 3 4 5 6 
#
# 1 90.1793 21.4124 77.9326 0.0000 0.0000 0.0000
# 2 21.4124 20.3096 26.4747 0.0000 0.0000 0.0000
# 3 77.9326 26.4747 171.0911 0.0000 0.0000 0.0000
# 4 0.0000 0.0000 0.0000 -0.9199 0.0000 0.0000
# 5 0.0000 0.0000 0.0000 0.0000 4.8599 0.0000
# 6 0.0000 0.0000 0.0000 0.0000 0.0000 11.5297
#
#
#
# Elastic Compliance Matrix: (Units=1/GPa)
#
#
# Indices 1 2 3 4 5 6 
#
# 1 0.020290 -0.011705 -0.007431 0.000000 0.000000 0.000000
# 2 -0.011705 0.068432 -0.005257 0.000000 0.000000 0.000000
# 3 -0.007431 -0.005257 0.010043 0.000000 0.000000 0.000000
# 4 0.000000 0.000000 0.000000 -1.087129 0.000000 0.000000
# 5 0.000000 0.000000 0.000000 0.000000 0.205767 0.000000
# 6 0.000000 0.000000 0.000000 0.000000 0.000000 0.086733
#
#
# Mechanical properties :
#
#
# Convention : Reuss Voigt Hill
#
# Bulk Modulus (GPa) = 20.00878 59.24659 39.62769
# Shear Modulus (GPa) = -7.93125 13.47796 2.77335
#
# Velocity S-wave (km/s) = -2.10602 2.74538 1.24536
# Velocity P-wave (km/s) = 2.29686 6.57125 4.92224
#
# Compressibility (1/GPa) = 0.04997805
#
# Stress axis : x y z
#
# Youngs Moduli (GPa) = 49.28499 14.61309 99.56977
#
# Poissons Ratio (x) = 0.17105 0.73990
# Poissons Ratio (y) = 0.57689 0.52348
# Poissons Ratio (z) = 0.36624 0.07683
#
# Static dielectric constant tensor:
#      x y z
#    x 3.233580 0.000000 0.000000 
#    y 0.000000 2.821620 0.000000 
#    z 0.000000 0.000000 3.864400 
# 
# 
# High freq. dielectric constant tensor:
#      x y z
#    x 1.670060 0.000000 0.000000 
#    y 0.000000 1.634460 0.000000 
#    z 0.000000 0.000000 1.716000 
# 
# From -- ./inp_files/13676.got.cif
#   From: 2010.03.12/outbox.cif.g09.slc.cpg/sg47_7_cif.got.tgz:13676.got - 2010.04.14 03:12:58.
