data_PCOD8196140
_publ_section_title
;
Structure prediction by ZEFSAII (Michael W. Deem and Ramdas Pophale) SiO2 
 PCOD8196140
Probable space group: P M M M
;
_chemical_formula_sum "Si O2"
_cell_formula_units_Z 56
_cell_length_a 18.418249
_cell_length_b 17.284581
_cell_length_c 9.720867
_cell_angle_alpha 90.000000
_cell_angle_beta 90.000000
_cell_angle_gamma 90.000000
_cell_volume 3094.654697
_symmetry_space_group_name_H-M "P M M M"
_symmetry_group_IT_number 47
_symmetry_cell_setting 'orthorhombic'
loop_
_space_group_symop_operation_xyz
x,y,z
-x,-y,z
x,-y,-z
-x,y,-z
-x,-y,-z
x,y,-z
-x,y,z
x,-y,z
loop_
_atom_site_type_symbol
_atom_site_label
_atom_site_fract_x
_atom_site_fract_y
_atom_site_fract_z
Si Si1 0.789070 0.590387 0.839949
Si Si2 0.579738 0.092028 0.345739
Si Si3 0.137224 0.137871 0.841552
Si Si4 0.915199 0.000000 0.345935
Si Si5 0.343578 0.407541 0.654964
Si Si6 0.080648 0.695409 0.162756
Si Si7 0.500000 0.415282 0.336898
Si Si8 0.294917 0.911565 0.845047
O O1 0.801586 0.500000 0.814085
O O2 0.719118 0.622007 0.757351
O O3 0.860989 0.633192 0.782395
O O4 0.775597 0.609062 0.000000
O O5 0.596768 0.119824 0.500000
O O6 0.500000 0.122468 0.300520
O O7 0.641851 0.125949 0.247503
O O8 0.580285 0.000000 0.336714
O O9 0.106762 0.075098 0.738389
O O10 0.105124 0.219228 0.792604
O O11 0.224148 0.141229 0.828054
O O12 0.115443 0.118175 0.000000
O O13 0.879689 0.000000 0.500000
O O14 0.000000 0.000000 0.363814
O O15 0.325147 0.379467 0.500000
O O16 0.348527 0.500000 0.658333
O O17 0.423183 0.373702 0.703669
O O18 0.000000 0.678024 0.223398
O O19 0.077719 0.689802 0.000000
O O20 0.500000 0.500000 0.267222
O O21 0.500000 0.424683 0.500000
O O22 0.275486 0.000000 0.801666
O O23 0.324072 0.910128 0.000000
#
# Coordination Sequence:
#
# PCOD8196140 Si02
#       8
#     8   8   8   4   8   8   4   8
#     4   9  17  29  46  71 101 127 156 201 251 291
#     4   8  14  24  38  59  88 121 154 185 222 271
#     4  10  19  34  53  72  94 124 164 202 235 283
#     4  11  23  35  49  73 102 127 152 189 241 292
#     4   8  13  23  41  65  93 125 160 194 232 283
#     4   9  18  32  51  73  94 124 166 204 240 287
#     4   7  10  18  35  61  91 121 155 194 229 268
#     4   9  16  26  41  65  92 114 146 192 235 270
#
# _framework density 18.095718000000002
#
# number of rings (size 3 to 8) (size 9 to 14) (size 15 to 20)
#    0.000    3.143    0.714    1.929    0.000    2.286 
#    0.000    3.929    0.000    3.429    1.857    2.000 
#    0.000    0.000    0.000    0.000    0.000    0.000 
#
# Total GULP energy -693917.629411 kJ/mol
# GULP energy per Si atom -12391.386239 kJ/mol
# Density = 1.805453 g / cm^3
# Si number density = 18.095718 Si / 1000 Ang^3
#
#
#
# Elastic Constant Matrix: (Units=GPa)
#
#
# Indices 1 2 3 4 5 6 
#
# 1 173.5893 46.3155 63.3932 0.0000 0.0000 0.0000
# 2 46.3155 47.2420 29.6528 0.0000 0.0000 0.0000
# 3 63.3932 29.6528 72.6176 0.0000 0.0000 0.0000
# 4 0.0000 0.0000 0.0000 6.8132 0.0000 0.0000
# 5 0.0000 0.0000 0.0000 0.0000 29.5522 0.0000
# 6 0.0000 0.0000 0.0000 0.0000 0.0000 14.4334
#
#
#
# Elastic Compliance Matrix: (Units=1/GPa)
#
#
# Indices 1 2 3 4 5 6 
#
# 1 0.009401 -0.005467 -0.005975 0.000000 0.000000 0.000000
# 2 -0.005467 0.031642 -0.008148 0.000000 0.000000 0.000000
# 3 -0.005975 -0.008148 0.022314 0.000000 0.000000 0.000000
# 4 0.000000 0.000000 0.000000 0.146774 0.000000 0.000000
# 5 0.000000 0.000000 0.000000 0.000000 0.033838 0.000000
# 6 0.000000 0.000000 0.000000 0.000000 0.000000 0.069284
#
#
# Mechanical properties :
#
#
# Convention : Reuss Voigt Hill
#
# Bulk Modulus (GPa) = 41.36131 63.57466 52.46799
# Shear Modulus (GPa) = 13.86995 20.43225 17.15110
#
# Velocity S-wave (km/s) = 2.77154 3.36388 3.08197
# Velocity P-wave (km/s) = 5.75747 7.09199 6.45929
#
# Compressibility (1/GPa) = 0.02417718
#
# Stress axis : x y z
#
# Youngs Moduli (GPa) = 106.36954 31.60397 44.81511
#
# Poissons Ratio (x) = 0.17277 0.26776
# Poissons Ratio (y) = 0.58148 0.36517
# Poissons Ratio (z) = 0.63553 0.25752
#
# Static dielectric constant tensor:
#      x y z
#    x 3.856920 0.000000 0.000000 
#    y 0.000000 2.942520 0.000000 
#    z 0.000000 0.000000 3.265060 
# 
# 
# High freq. dielectric constant tensor:
#      x y z
#    x 1.719170 0.000000 0.000000 
#    y 0.000000 1.655140 0.000000 
#    z 0.000000 0.000000 1.673410 
# 
# From -- ./inp_files/11379.got.cif
#   From: 2010.03.12/outbox.cif.g09.slc.cpg/sg47_6_cif.got.tgz:11379.got - 2010.04.14 03:12:58.
