data_PCOD8196420
_publ_section_title
;
Structure prediction by ZEFSAII (Michael W. Deem and Ramdas Pophale) SiO2 
 PCOD8196420
Probable space group: P M M M
;
_chemical_formula_sum "Si O2"
_cell_formula_units_Z 52
_cell_length_a 25.504156
_cell_length_b 9.300271
_cell_length_c 17.484663
_cell_angle_alpha 90.000000
_cell_angle_beta 90.000000
_cell_angle_gamma 90.000000
_cell_volume 4147.284474
_symmetry_space_group_name_H-M "P M M M"
_symmetry_group_IT_number 47
_symmetry_cell_setting 'orthorhombic'
loop_
_space_group_symop_operation_xyz
x,y,z
-x,-y,z
x,-y,-z
-x,y,-z
-x,-y,-z
x,y,-z
-x,y,z
x,-y,z
loop_
_atom_site_type_symbol
_atom_site_label
_atom_site_fract_x
_atom_site_fract_y
_atom_site_fract_z
Si Si1 0.562663 0.839452 0.000000
Si Si2 0.255695 0.337187 0.590998
Si Si3 0.562282 0.340805 0.858643
Si Si4 0.561194 0.332879 0.312375
Si Si5 0.057986 0.661461 0.590933
Si Si6 0.642525 0.833666 0.590096
Si Si7 0.155839 0.162165 0.591306
O O1 0.585114 0.763878 0.923676
O O2 0.500000 0.836072 0.000000
O O3 0.584632 0.000000 0.000000
O O4 0.254426 0.338769 0.500000
O O5 0.256630 0.500000 0.623079
O O6 0.306717 0.252194 0.620238
O O7 0.204463 0.255395 0.622704
O O8 0.500000 0.345531 0.863007
O O9 0.584587 0.500000 0.874717
O O10 0.578744 0.289827 0.773789
O O11 0.500000 0.303085 0.324525
O O12 0.574058 0.500000 0.328107
O O13 0.591297 0.231731 0.371006
O O14 0.060174 0.661911 0.500000
O O15 0.069471 0.500000 0.620547
O O16 0.102038 0.768779 0.623720
O O17 0.000000 0.711782 0.618292
O O18 0.635504 0.814701 0.500000
O O19 0.649043 0.000000 0.612609
O O20 0.155929 0.162163 0.500000
O O21 0.160486 0.000000 0.622691
#
# Coordination Sequence:
#
# PCOD8196420 Si02
#       7
#     4   8   8   8   8   8   8
#     4   9  15  21  33  55  77  93 109 127 147 175
#     4   9  16  26  39  50  59  74  98 127 158 193
#     4   8  14  25  39  53  70  91 111 129 150 179
#     4   9  18  31  44  56  69  87 111 135 160 195
#     4   8  13  20  28  38  54  76  99 119 140 173
#     4  10  20  31  41  53  68  84 104 134 172 209
#     4   9  15  21  30  44  60  75  92 118 152 187
#
# _framework density 12.538325
#
# number of rings (size 3 to 8) (size 9 to 14) (size 15 to 20)
#    0.000    3.154    0.000    3.000    0.000    7.077 
#    0.000    4.615    0.000    0.000    0.000    0.000 
#    0.000    0.000    0.000    0.000    0.000    0.000 
#
# Total GULP energy -644521.024683 kJ/mol
# GULP energy per Si atom -12394.635090 kJ/mol
# Density = 1.250979 g / cm^3
# Si number density = 12.538325 Si / 1000 Ang^3
#
#
#
# Elastic Constant Matrix: (Units=GPa)
#
#
# Indices 1 2 3 4 5 6 
#
# 1 73.0270 55.3026 22.6767 0.0000 0.0000 0.0000
# 2 55.3026 111.2276 29.7118 0.0000 0.0000 0.0000
# 3 22.6767 29.7118 26.2684 0.0000 0.0000 0.0000
# 4 0.0000 0.0000 0.0000 11.9681 0.0000 0.0000
# 5 0.0000 0.0000 0.0000 0.0000 0.1539 0.0000
# 6 0.0000 0.0000 0.0000 0.0000 0.0000 21.2829
#
#
#
# Elastic Compliance Matrix: (Units=1/GPa)
#
#
# Indices 1 2 3 4 5 6 
#
# 1 0.023740 -0.009069 -0.010236 0.000000 0.000000 0.000000
# 2 -0.009069 0.016348 -0.010662 0.000000 0.000000 0.000000
# 3 -0.010236 -0.010662 0.058964 0.000000 0.000000 0.000000
# 4 0.000000 0.000000 0.000000 0.083555 0.000000 0.000000
# 5 0.000000 0.000000 0.000000 0.000000 6.497198 0.000000
# 6 0.000000 0.000000 0.000000 0.000000 0.000000 0.046986
#
#
# Mechanical properties :
#
#
# Convention : Reuss Voigt Hill
#
# Bulk Modulus (GPa) = 25.56337 47.32279 36.44308
# Shear Modulus (GPa) = 0.73532 13.53646 7.13589
#
# Velocity S-wave (km/s) = 0.76664 3.28930 2.38822
# Velocity P-wave (km/s) = 4.60609 7.22845 6.06080
#
# Compressibility (1/GPa) = 0.03911847
#
# Stress axis : x y z
#
# Youngs Moduli (GPa) = 42.12261 61.17005 16.95946
#
# Poissons Ratio (x) = 0.55477 0.17360
# Poissons Ratio (y) = 0.38203 0.18081
# Poissons Ratio (z) = 0.43116 0.65217
#
# Static dielectric constant tensor:
#      x y z
#    x 2.519050 0.000000 0.000000 
#    y 0.000000 2.765390 0.000000 
#    z 0.000000 0.000000 2.206300 
# 
# 
# High freq. dielectric constant tensor:
#      x y z
#    x 1.457640 0.000000 0.000000 
#    y 0.000000 1.491370 0.000000 
#    z 0.000000 0.000000 1.413640 
# 
# From -- ./inp_files/28874.got.cif
#   From: 2010.03.12/outbox.cif.g09.slc.cpg/sg47_15_cif.got.tgz:28874.got - 2010.04.14 03:12:58.
