data_PCOD8196986
_publ_section_title
;
Structure prediction by ZEFSAII (Michael W. Deem and Ramdas Pophale) SiO2 
 PCOD8196986
Probable space group: P M M M
;
_chemical_formula_sum "Si O2"
_cell_formula_units_Z 64
_cell_length_a 9.156508
_cell_length_b 20.391780
_cell_length_c 17.909063
_cell_angle_alpha 90.000000
_cell_angle_beta 90.000000
_cell_angle_gamma 90.000000
_cell_volume 3343.935412
_symmetry_space_group_name_H-M "P M M M"
_symmetry_group_IT_number 47
_symmetry_cell_setting 'orthorhombic'
loop_
_space_group_symop_operation_xyz
x,y,z
-x,-y,z
x,-y,-z
-x,y,-z
-x,-y,-z
x,y,-z
-x,y,z
x,-y,z
loop_
_atom_site_type_symbol
_atom_site_label
_atom_site_fract_x
_atom_site_fract_y
_atom_site_fract_z
Si Si1 0.668986 0.740588 0.375522
Si Si2 0.829880 0.790188 0.083013
Si Si3 0.169167 0.925299 0.850357
Si Si4 0.658920 0.925460 0.708053
Si Si5 0.332398 0.706612 0.792060
Si Si6 0.331351 0.428108 0.725642
Si Si7 0.829245 0.611891 0.583681
Si Si8 0.834344 0.868125 0.583634
O O1 0.500000 0.731969 0.396696
O O2 0.690847 0.744140 0.286119
O O3 0.760163 0.683432 0.413263
O O4 0.732284 0.805410 0.411274
O O5 0.797912 0.868852 0.088828
O O6 0.753243 0.743645 0.143082
O O7 0.000000 0.777514 0.094142
O O8 0.778548 0.769393 0.000000
O O9 0.258370 0.897358 0.779810
O O10 0.000000 0.926482 0.827979
O O11 0.214636 0.000000 0.876238
O O12 0.500000 0.889731 0.697137
O O13 0.762749 0.922256 0.636385
O O14 0.627474 0.000000 0.725082
O O15 0.500000 0.706181 0.816915
O O16 0.276385 0.630724 0.780019
O O17 0.500000 0.412912 0.705793
O O18 0.313820 0.500000 0.764299
O O19 0.245336 0.432172 0.647291
O O20 0.804043 0.582785 0.500000
O O21 0.000000 0.616544 0.601496
O O22 0.831903 0.896124 0.500000
O O23 0.000000 0.852131 0.608650
#
# Coordination Sequence:
#
# PCOD8196986 Si02
#       8
#     8   8   8   8   8   8   8   8
#     4  10  20  34  53  75  99 131 174 219 260 308
#     4  10  21  35  53  81 113 141 170 206 250 304
#     4   9  18  34  56  79 105 140 177 211 251 302
#     4  10  21  36  53  72  95 126 167 214 260 310
#     4   9  19  35  55  79 104 133 171 214 260 311
#     4   9  19  36  56  77 102 136 181 229 272 316
#     4  10  20  32  47  72 108 144 176 214 261 313
#     4  11  23  35  48  69  97 129 168 217 270 319
#
# _framework density 19.139126000000001
#
# number of rings (size 3 to 8) (size 9 to 14) (size 15 to 20)
#    0.000    2.250    0.000    3.375    0.000   10.500 
#    0.000    3.750    0.000    0.375    0.000    5.250 
#    0.000    0.000    0.000    0.000    0.000    0.000 
#
# Total GULP energy -793099.241715 kJ/mol
# GULP energy per Si atom -12392.175652 kJ/mol
# Density = 1.909556 g / cm^3
# Si number density = 19.139126 Si / 1000 Ang^3
#
#
#
# Elastic Constant Matrix: (Units=GPa)
#
#
# Indices 1 2 3 4 5 6 
#
# 1 83.9443 33.5711 50.7712 0.0000 0.0000 0.0000
# 2 33.5711 79.1632 40.5314 0.0000 0.0000 0.0000
# 3 50.7712 40.5314 101.7225 0.0000 0.0000 0.0000
# 4 0.0000 0.0000 0.0000 6.5068 0.0000 0.0000
# 5 0.0000 0.0000 0.0000 0.0000 22.9425 0.0000
# 6 0.0000 0.0000 0.0000 0.0000 0.0000 23.6547
#
#
#
# Elastic Compliance Matrix: (Units=1/GPa)
#
#
# Indices 1 2 3 4 5 6 
#
# 1 0.017928 -0.003796 -0.007436 0.000000 0.000000 0.000000
# 2 -0.003796 0.016673 -0.004749 0.000000 0.000000 0.000000
# 3 -0.007436 -0.004749 0.015434 0.000000 0.000000 0.000000
# 4 0.000000 0.000000 0.000000 0.153685 0.000000 0.000000
# 5 0.000000 0.000000 0.000000 0.000000 0.043587 0.000000
# 6 0.000000 0.000000 0.000000 0.000000 0.000000 0.042275
#
#
# Mechanical properties :
#
#
# Convention : Reuss Voigt Hill
#
# Bulk Modulus (GPa) = 55.32629 57.17525 56.25077
# Shear Modulus (GPa) = 15.26402 19.95124 17.60763
#
# Velocity S-wave (km/s) = 2.82712 3.23217 3.03641
# Velocity P-wave (km/s) = 6.29500 6.62326 6.46122
#
# Compressibility (1/GPa) = 0.01807459
#
# Stress axis : x y z
#
# Youngs Moduli (GPa) = 55.77906 59.97623 64.79144
#
# Poissons Ratio (x) = 0.22765 0.48177
# Poissons Ratio (y) = 0.21172 0.30769
# Poissons Ratio (z) = 0.41475 0.28483
#
# Static dielectric constant tensor:
#      x y z
#    x 3.741420 0.000000 0.000000 
#    y 0.000000 3.575110 0.000000 
#    z 0.000000 0.000000 3.393010 
# 
# 
# High freq. dielectric constant tensor:
#      x y z
#    x 1.750160 0.000000 0.000000 
#    y 0.000000 1.742780 0.000000 
#    z 0.000000 0.000000 1.720760 
# 
# From -- ./inp_files/27028.got.cif
#   From: 2010.03.12/outbox.cif.g09.slc.cpg/sg47_14_cif.got.tgz:27028.got - 2010.04.14 03:12:58.
