data_PCOD8196341
_publ_section_title
;
Structure prediction by ZEFSAII (Michael W. Deem and Ramdas Pophale) SiO2 
 PCOD8196341
Probable space group: P M M M
;
_chemical_formula_sum "Si O2"
_cell_formula_units_Z 56
_cell_length_a 21.117593
_cell_length_b 8.813862
_cell_length_c 15.164025
_cell_angle_alpha 90.000000
_cell_angle_beta 90.000000
_cell_angle_gamma 90.000000
_cell_volume 2822.442829
_symmetry_space_group_name_H-M "P M M M"
_symmetry_group_IT_number 47
_symmetry_cell_setting 'orthorhombic'
loop_
_space_group_symop_operation_xyz
x,y,z
-x,-y,z
x,-y,-z
-x,y,-z
-x,-y,-z
x,y,-z
-x,y,z
x,-y,z
loop_
_atom_site_type_symbol
_atom_site_label
_atom_site_fract_x
_atom_site_fract_y
_atom_site_fract_z
Si Si1 0.847223 0.823317 0.249529
Si Si2 0.926229 0.326030 0.899211
Si Si3 0.073300 0.325193 0.398697
Si Si4 0.628631 0.827050 0.599457
Si Si5 0.363528 0.826091 0.099467
Si Si6 0.500000 0.827787 0.166279
Si Si7 0.711703 0.322325 0.253137
Si Si8 0.500000 0.322441 0.350103
O O1 0.887955 0.786169 0.163194
O O2 0.884978 0.782679 0.337991
O O3 0.783451 0.728576 0.244782
O O4 0.830854 0.000000 0.250507
O O5 0.911231 0.500000 0.873868
O O6 0.000000 0.292538 0.885878
O O7 0.906279 0.294239 0.000000
O O8 0.091429 0.293304 0.500000
O O9 0.086771 0.500000 0.374468
O O10 0.000000 0.287077 0.382033
O O11 0.654745 0.815725 0.500000
O O12 0.680481 0.754330 0.662317
O O13 0.561685 0.744454 0.604033
O O14 0.618404 0.000000 0.629183
O O15 0.438522 0.797299 0.107151
O O16 0.325498 0.717774 0.164316
O O17 0.347022 0.000000 0.122694
O O18 0.342897 0.786910 0.000000
O O19 0.500000 0.712080 0.246811
O O20 0.500000 0.000000 0.203062
O O21 0.708558 0.500000 0.267815
O O22 0.500000 0.500000 0.365346
#
# Coordination Sequence:
#
# PCOD8196341 Si02
#       8
#     8   8   8   8   8   4   8   4
#     4  12  25  39  59  87 122 162 202 245 297 355
#     4   9  19  38  64  92 122 157 198 246 299 353
#     4   9  19  38  64  92 122 157 197 242 293 350
#     4  11  24  43  66  90 119 157 199 247 305 363
#     4  10  21  39  64  92 122 158 199 243 298 362
#     4  10  19  35  63  91 123 159 193 241 299 356
#     4  12  26  43  62  85 118 160 204 252 301 354
#     4  12  23  36  61  95 127 158 195 245 299 351
#
# _framework density 19.840969000000001
#
# number of rings (size 3 to 8) (size 9 to 14) (size 15 to 20)
#    0.000    1.429    1.429    5.357    0.000    7.143 
#    0.000    1.429    0.000    1.286    0.000    0.000 
#    0.000    0.000    0.000    0.000    0.000    0.000 
#
# Total GULP energy -694670.605100 kJ/mol
# GULP energy per Si atom -12404.832234 kJ/mol
# Density = 1.979581 g / cm^3
# Si number density = 19.840969 Si / 1000 Ang^3
#
#
#
# Elastic Constant Matrix: (Units=GPa)
#
#
# Indices 1 2 3 4 5 6 
#
# 1 87.3745 33.9973 44.5297 0.0000 0.0000 0.0000
# 2 33.9973 122.9647 49.3724 0.0000 0.0000 0.0000
# 3 44.5297 49.3724 116.8113 0.0000 0.0000 0.0000
# 4 0.0000 0.0000 0.0000 17.9615 0.0000 0.0000
# 5 0.0000 0.0000 0.0000 0.0000 -4.3728 0.0000
# 6 0.0000 0.0000 0.0000 0.0000 0.0000 36.4666
#
#
#
# Elastic Compliance Matrix: (Units=1/GPa)
#
#
# Indices 1 2 3 4 5 6 
#
# 1 0.014675 -0.002181 -0.004672 0.000000 0.000000 0.000000
# 2 -0.002181 0.010119 -0.003445 0.000000 0.000000 0.000000
# 3 -0.004672 -0.003445 0.011798 0.000000 0.000000 0.000000
# 4 0.000000 0.000000 0.000000 0.055675 0.000000 0.000000
# 5 0.000000 0.000000 0.000000 0.000000 -0.228686 0.000000
# 6 0.000000 0.000000 0.000000 0.000000 0.000000 0.027422
#
#
# Mechanical properties :
#
#
# Convention : Reuss Voigt Hill
#
# Bulk Modulus (GPa) = 62.52327 64.77214 63.64770
# Shear Modulus (GPa) = -60.19210 23.29447 -18.44882
#
# Velocity S-wave (km/s) = -5.51390 3.43017 -3.05263
# Velocity P-wave (km/s) = 2.99281 6.95734 4.44116
#
# Compressibility (1/GPa) = 0.01599405
#
# Stress axis : x y z
#
# Youngs Moduli (GPa) = 68.14349 98.82503 84.75881
#
# Poissons Ratio (x) = 0.21557 0.39601
# Poissons Ratio (y) = 0.14864 0.29203
# Poissons Ratio (z) = 0.31838 0.34049
#
# Static dielectric constant tensor:
#      x y z
#    x 4.959720 0.000000 0.000000 
#    y 0.000000 3.572570 0.000000 
#    z 0.000000 0.000000 3.690590 
# 
# 
# High freq. dielectric constant tensor:
#      x y z
#    x 1.773190 0.000000 0.000000 
#    y 0.000000 1.771320 0.000000 
#    z 0.000000 0.000000 1.787600 
# 
# From -- ./inp_files/25213.got.cif
#   From: 2010.03.12/outbox.cif.g09.slc.cpg/sg47_13_cif.got.tgz:25213.got - 2010.04.14 03:12:58.
