data_PCOD8196613
_publ_section_title
;
Structure prediction by ZEFSAII (Michael W. Deem and Ramdas Pophale) SiO2 
 PCOD8196613
Probable space group: P M M M
;
_chemical_formula_sum "Si O2"
_cell_formula_units_Z 36
_cell_length_a 9.518438
_cell_length_b 9.025306
_cell_length_c 23.143629
_cell_angle_alpha 90.000000
_cell_angle_beta 90.000000
_cell_angle_gamma 90.000000
_cell_volume 1988.195469
_symmetry_space_group_name_H-M "P M M M"
_symmetry_group_IT_number 47
_symmetry_cell_setting 'orthorhombic'
loop_
_space_group_symop_operation_xyz
x,y,z
-x,-y,z
x,-y,-z
-x,y,-z
-x,-y,-z
x,y,-z
-x,y,z
x,-y,z
loop_
_atom_site_type_symbol
_atom_site_label
_atom_site_fract_x
_atom_site_fract_y
_atom_site_fract_z
Si Si1 0.157551 0.176170 0.564024
Si Si2 0.155512 0.675838 0.103966
Si Si3 0.657651 0.322909 0.000000
Si Si4 0.659290 0.823912 0.330912
Si Si5 0.163003 0.672422 0.766143
O O1 0.203303 0.231261 0.500000
O O2 0.264427 0.240173 0.611719
O O3 0.000000 0.232993 0.578090
O O4 0.159314 0.000000 0.565417
O O5 0.149635 0.500000 0.100112
O O6 0.201384 0.721546 0.168540
O O7 0.000000 0.738912 0.090166
O O8 0.264670 0.739432 0.057101
O O9 0.657835 0.500000 0.000000
O O10 0.500000 0.260158 0.000000
O O11 0.500000 0.764571 0.330742
O O12 0.738853 0.768063 0.274648
O O13 0.663259 0.000000 0.330650
O O14 0.195254 0.500000 0.756464
O O15 0.000000 0.706608 0.753111
#
# Coordination Sequence:
#
# PCOD8196613 Si02
#       5
#     8   8   4   8   8
#     4   8  14  26  45  67  89 115 149 188 227 265
#     4   8  14  25  40  58  82 112 145 182 223 264
#     4   9  15  21  33  57  86 113 142 177 218 264
#     4  10  20  31  45  69  98 125 152 183 224 274
#     4   9  18  32  49  68  90 120 158 194 228 268
#
# _framework density 18.106873
#
# number of rings (size 3 to 8) (size 9 to 14) (size 15 to 20)
#    0.000    3.222    0.000    3.000    0.000    4.444 
#    0.000    4.444    0.000    0.667    0.000    5.444 
#    0.000    6.222    0.000    0.000    0.000    0.000 
#
# Total GULP energy -446207.573912 kJ/mol
# GULP energy per Si atom -12394.654831 kJ/mol
# Density = 1.806566 g / cm^3
# Si number density = 18.106873 Si / 1000 Ang^3
#
#
#
# Elastic Constant Matrix: (Units=GPa)
#
#
# Indices 1 2 3 4 5 6 
#
# 1 141.3408 14.4237 104.8285 0.0000 0.0000 0.0000
# 2 14.4237 6.9857 13.5048 0.0000 0.0000 0.0000
# 3 104.8285 13.5048 166.3494 0.0000 0.0000 0.0000
# 4 0.0000 0.0000 0.0000 23.0723 0.0000 0.0000
# 5 0.0000 0.0000 0.0000 0.0000 18.7049 0.0000
# 6 0.0000 0.0000 0.0000 0.0000 0.0000 17.3565
#
#
#
# Elastic Compliance Matrix: (Units=1/GPa)
#
#
# Indices 1 2 3 4 5 6 
#
# 1 0.014421 -0.014480 -0.007912 0.000000 0.000000 0.000000
# 2 -0.014480 0.184338 -0.005840 0.000000 0.000000 0.000000
# 3 -0.007912 -0.005840 0.011472 0.000000 0.000000 0.000000
# 4 0.000000 0.000000 0.000000 0.043342 0.000000 0.000000
# 5 0.000000 0.000000 0.000000 0.000000 0.053462 0.000000
# 6 0.000000 0.000000 0.000000 0.000000 0.000000 0.057615
#
#
# Mechanical properties :
#
#
# Convention : Reuss Voigt Hill
#
# Bulk Modulus (GPa) = 6.50341 64.46554 35.48448
# Shear Modulus (GPa) = 10.58493 23.95466 17.26980
#
# Velocity S-wave (km/s) = 2.42043 3.64120 3.09167
# Velocity P-wave (km/s) = 3.37799 7.30465 5.69072
#
# Compressibility (1/GPa) = 0.15376545
#
# Stress axis : x y z
#
# Youngs Moduli (GPa) = 69.34338 5.42482 87.17189
#
# Poissons Ratio (x) = 0.07855 0.68972
# Poissons Ratio (y) = 1.00409 0.50912
# Poissons Ratio (z) = 0.54866 0.03168
#
# Static dielectric constant tensor:
#      x y z
#    x 3.585340 0.000000 0.000000 
#    y 0.000000 2.678670 0.000000 
#    z 0.000000 0.000000 3.672360 
# 
# 
# High freq. dielectric constant tensor:
#      x y z
#    x 1.703100 0.000000 0.000000 
#    y 0.000000 1.630910 0.000000 
#    z 0.000000 0.000000 1.718740 
# 
# From -- ./inp_files/1459.got.cif
#   From: 2010.03.12/outbox.cif.g09.slc.cpg/sg47_1_cif.got.tgz:1459.got - 2010.04.14 03:12:58.
