data_PCOD8196343
_publ_section_title
;
Structure prediction by ZEFSAII (Michael W. Deem and Ramdas Pophale) SiO2 
 PCOD8196343
Probable space group: P M M M
;
_chemical_formula_sum "Si O2"
_cell_formula_units_Z 52
_cell_length_a 9.425829
_cell_length_b 25.164837
_cell_length_c 11.919724
_cell_angle_alpha 90.000000
_cell_angle_beta 90.000000
_cell_angle_gamma 90.000000
_cell_volume 2827.351981
_symmetry_space_group_name_H-M "P M M M"
_symmetry_group_IT_number 47
_symmetry_cell_setting 'orthorhombic'
loop_
_space_group_symop_operation_xyz
x,y,z
-x,-y,z
x,-y,-z
-x,y,-z
-x,-y,-z
x,y,-z
-x,y,z
x,-y,z
loop_
_atom_site_type_symbol
_atom_site_label
_atom_site_fract_x
_atom_site_fract_y
_atom_site_fract_z
Si Si1 0.658858 0.423641 0.000000
Si Si2 0.656862 0.700713 0.000000
Si Si3 0.166725 0.346560 0.375897
Si Si4 0.838571 0.854670 0.870992
Si Si5 0.163034 0.441144 0.219048
Si Si6 0.331068 0.060656 0.742189
Si Si7 0.654698 0.062767 0.500000
Si Si8 0.836896 0.740747 0.203369
O O1 0.645833 0.361441 0.000000
O O2 0.743301 0.443094 0.108147
O O3 0.500000 0.448350 0.000000
O O4 0.738054 0.717343 0.890303
O O5 0.500000 0.726618 0.000000
O O6 0.236794 0.346804 0.500000
O O7 0.225228 0.396550 0.304021
O O8 0.202532 0.289569 0.318626
O O9 0.000000 0.353635 0.387826
O O10 0.736940 0.902551 0.836413
O O11 0.810437 0.804105 0.789883
O O12 0.000000 0.874256 0.858749
O O13 0.805955 0.838495 0.000000
O O14 0.170934 0.500000 0.275155
O O15 0.000000 0.427122 0.187220
O O16 0.500000 0.067276 0.743814
O O17 0.269365 0.077926 0.618152
O O18 0.288879 0.000000 0.769562
O O19 0.500000 0.090037 0.500000
O O20 0.633294 0.000000 0.500000
O O21 0.000000 0.729575 0.170025
#
# Coordination Sequence:
#
# PCOD8196343 Si02
#       8
#     4   4   8   8   8   8   4   8
#     4  11  22  34  51  78 110 139 171 215 266 317
#     4  11  21  32  54  83 103 129 176 223 264 308
#     4   9  18  33  55  80 104 135 175 219 264 308
#     4  10  21  35  51  76 108 140 174 212 260 315
#     4  10  20  33  53  80 107 138 177 218 260 310
#     4   9  18  34  56  79 104 138 179 217 257 308
#     4   7  12  28  53  75  97 131 173 213 250 295
#     4  10  19  36  58  76 102 140 177 210 258 322
#
# _framework density 18.391767999999999
#
# number of rings (size 3 to 8) (size 9 to 14) (size 15 to 20)
#    0.000    2.385    2.308    1.615    0.000    3.692 
#    1.385    3.462    0.000    3.231    0.000    1.077 
#    0.000    0.000    0.000    0.000    0.000    0.000 
#
# Total GULP energy -644407.544785 kJ/mol
# GULP energy per Si atom -12392.452784 kJ/mol
# Density = 1.834991 g / cm^3
# Si number density = 18.391768 Si / 1000 Ang^3
#
#
#
# Elastic Constant Matrix: (Units=GPa)
#
#
# Indices 1 2 3 4 5 6 
#
# 1 57.7851 36.7140 37.9229 0.0000 0.0000 0.0000
# 2 36.7140 117.9536 59.6062 0.0000 0.0000 0.0000
# 3 37.9229 59.6062 120.5991 0.0000 0.0000 0.0000
# 4 0.0000 0.0000 0.0000 15.7930 0.0000 0.0000
# 5 0.0000 0.0000 0.0000 0.0000 2.9465 0.0000
# 6 0.0000 0.0000 0.0000 0.0000 0.0000 16.0673
#
#
#
# Elastic Compliance Matrix: (Units=1/GPa)
#
#
# Indices 1 2 3 4 5 6 
#
# 1 0.023691 -0.004811 -0.005072 0.000000 0.000000 0.000000
# 2 -0.004811 0.012277 -0.004555 0.000000 0.000000 0.000000
# 3 -0.005072 -0.004555 0.012138 0.000000 0.000000 0.000000
# 4 0.000000 0.000000 0.000000 0.063319 0.000000 0.000000
# 5 0.000000 0.000000 0.000000 0.000000 0.339381 0.000000
# 6 0.000000 0.000000 0.000000 0.000000 0.000000 0.062238
#
#
# Mechanical properties :
#
#
# Convention : Reuss Voigt Hill
#
# Bulk Modulus (GPa) = 52.00160 62.75821 57.37991
# Shear Modulus (GPa) = 9.11858 17.76769 13.44314
#
# Velocity S-wave (km/s) = 2.22907 3.11153 2.70651
# Velocity P-wave (km/s) = 5.91276 6.86338 6.40573
#
# Compressibility (1/GPa) = 0.01923018
#
# Stress axis : x y z
#
# Youngs Moduli (GPa) = 42.21077 81.45135 82.38439
#
# Poissons Ratio (x) = 0.39186 0.41784
# Poissons Ratio (y) = 0.20307 0.37528
# Poissons Ratio (z) = 0.21409 0.37103
#
# Static dielectric constant tensor:
#      x y z
#    x 3.267630 0.000000 0.000000 
#    y 0.000000 3.441710 0.000000 
#    z 0.000000 0.000000 3.755680 
# 
# 
# High freq. dielectric constant tensor:
#      x y z
#    x 1.683440 0.000000 0.000000 
#    y 0.000000 1.715940 0.000000 
#    z 0.000000 0.000000 1.707090 
# 
# From -- ./inp_files/15595.got.cif
#   From: 2010.03.12/outbox.cif.g09.slc.cpg/sg47_8_cif.got.tgz:15595.got - 2010.04.14 03:12:58.
