data_PCOD8196750
_publ_section_title
;
Structure prediction by ZEFSAII (Michael W. Deem and Ramdas Pophale) SiO2 
 PCOD8196750
Probable space group: P M M M
;
_chemical_formula_sum "Si O2"
_cell_formula_units_Z 64
_cell_length_a 31.117092
_cell_length_b 9.156936
_cell_length_c 14.256976
_cell_angle_alpha 90.000000
_cell_angle_beta 90.000000
_cell_angle_gamma 90.000000
_cell_volume 4062.343106
_symmetry_space_group_name_H-M "P M M M"
_symmetry_group_IT_number 47
_symmetry_cell_setting 'orthorhombic'
loop_
_space_group_symop_operation_xyz
x,y,z
-x,-y,z
x,-y,-z
-x,y,-z
-x,-y,-z
x,y,-z
-x,y,z
x,-y,z
loop_
_atom_site_type_symbol
_atom_site_label
_atom_site_fract_x
_atom_site_fract_y
_atom_site_fract_z
Si Si1 0.871524 0.663593 0.111517
Si Si2 0.317735 0.169931 0.393594
Si Si3 0.547892 0.329387 0.776055
Si Si4 0.047425 0.835920 0.888457
Si Si5 0.289173 0.326478 0.217141
Si Si6 0.213108 0.830620 0.110517
Si Si7 0.416601 0.169037 0.605714
Si Si8 0.627003 0.326534 0.104745
O O1 0.865636 0.500000 0.151521
O O2 0.915840 0.730125 0.152950
O O3 0.832260 0.764967 0.144363
O O4 0.873664 0.659922 0.000000
O O5 0.302488 0.201376 0.500000
O O6 0.289330 0.267134 0.323430
O O7 0.367215 0.216628 0.381829
O O8 0.311587 0.000000 0.369326
O O9 0.500000 0.295315 0.814436
O O10 0.555314 0.500000 0.762992
O O11 0.553128 0.259194 0.674221
O O12 0.583048 0.266007 0.848705
O O13 0.000000 0.781191 0.856333
O O14 0.055511 0.000000 0.851221
O O15 0.049925 0.836630 0.000000
O O16 0.284572 0.500000 0.217652
O O17 0.249744 0.258513 0.162175
O O18 0.332568 0.273295 0.165510
O O19 0.214754 0.000000 0.138982
O O20 0.219576 0.809140 0.000000
O O21 0.431826 0.201543 0.500000
O O22 0.421862 0.000000 0.629834
O O23 0.626038 0.500000 0.099828
O O24 0.630602 0.260843 0.000000
#
# Coordination Sequence:
#
# PCOD8196750 Si02
#       8
#     8   8   8   8   8   8   8   8
#     4   9  16  25  37  54  78 108 145 191 237 275
#     4   9  18  33  52  72  93 116 142 173 210 257
#     4  10  20  33  49  70  93 116 145 179 214 254
#     4   8  13  21  33  49  71 103 144 188 233 279
#     4  11  20  31  50  72  93 115 142 181 224 266
#     4  10  20  32  45  62  87 120 155 189 228 273
#     4   9  18  33  52  71  92 118 143 169 206 254
#     4   9  18  32  48  67  90 115 143 177 216 255
#
# _framework density 15.754454000000001
#
# number of rings (size 3 to 8) (size 9 to 14) (size 15 to 20)
#    0.000    2.625    1.250    2.625    0.000    4.250 
#    0.000    5.000    0.000    1.125    0.000    0.875 
#    0.000    0.000    0.000    0.000    0.000    0.625 
#
# Total GULP energy -793457.412038 kJ/mol
# GULP energy per Si atom -12397.772063 kJ/mol
# Density = 1.571860 g / cm^3
# Si number density = 15.754454 Si / 1000 Ang^3
#
#
#
# Elastic Constant Matrix: (Units=GPa)
#
#
# Indices 1 2 3 4 5 6 
#
# 1 116.8898 50.9950 39.3220 0.0000 0.0000 0.0000
# 2 50.9950 73.1038 32.4827 0.0000 0.0000 0.0000
# 3 39.3220 32.4827 65.7571 0.0000 0.0000 0.0000
# 4 0.0000 0.0000 0.0000 19.7467 0.0000 0.0000
# 5 0.0000 0.0000 0.0000 0.0000 5.2364 0.0000
# 6 0.0000 0.0000 0.0000 0.0000 0.0000 27.4766
#
#
#
# Elastic Compliance Matrix: (Units=1/GPa)
#
#
# Indices 1 2 3 4 5 6 
#
# 1 0.013174 -0.007289 -0.004277 0.000000 0.000000 0.000000
# 2 -0.007289 0.021559 -0.006291 0.000000 0.000000 0.000000
# 3 -0.004277 -0.006291 0.020873 0.000000 0.000000 0.000000
# 4 0.000000 0.000000 0.000000 0.050641 0.000000 0.000000
# 5 0.000000 0.000000 0.000000 0.000000 0.190972 0.000000
# 6 0.000000 0.000000 0.000000 0.000000 0.000000 0.036395
#
#
# Mechanical properties :
#
#
# Convention : Reuss Voigt Hill
#
# Bulk Modulus (GPa) = 50.27326 55.70556 52.98941
# Shear Modulus (GPa) = 13.29932 19.35533 16.32732
#
# Velocity S-wave (km/s) = 2.90860 3.50889 3.22275
# Velocity P-wave (km/s) = 6.57721 7.20082 6.89607
#
# Compressibility (1/GPa) = 0.01989129
#
# Stress axis : x y z
#
# Youngs Moduli (GPa) = 75.90735 46.38381 47.90929
#
# Poissons Ratio (x) = 0.33810 0.20491
# Poissons Ratio (y) = 0.55331 0.30140
# Poissons Ratio (z) = 0.32467 0.29180
#
# Static dielectric constant tensor:
#      x y z
#    x 3.095420 0.000000 0.000000 
#    y 0.000000 2.973400 0.000000 
#    z 0.000000 0.000000 2.780000 
# 
# 
# High freq. dielectric constant tensor:
#      x y z
#    x 1.601760 0.000000 0.000000 
#    y 0.000000 1.602000 0.000000 
#    z 0.000000 0.000000 1.563820 
# 
# From -- ./inp_files/14337.got.cif
#   From: 2010.03.12/outbox.cif.g09.slc.cpg/sg47_8_cif.got.tgz:14337.got - 2010.04.14 03:12:58.
