data_PCOD8196786
_publ_section_title
;
Structure prediction by ZEFSAII (Michael W. Deem and Ramdas Pophale) SiO2 
 PCOD8196786
Probable space group: P M M M
;
_chemical_formula_sum "Si O2"
_cell_formula_units_Z 52
_cell_length_a 12.258101
_cell_length_b 9.586319
_cell_length_c 30.526099
_cell_angle_alpha 90.000000
_cell_angle_beta 90.000000
_cell_angle_gamma 90.000000
_cell_volume 3587.123924
_symmetry_space_group_name_H-M "P M M M"
_symmetry_group_IT_number 47
_symmetry_cell_setting 'orthorhombic'
loop_
_space_group_symop_operation_xyz
x,y,z
-x,-y,z
x,-y,-z
-x,y,-z
-x,-y,-z
x,y,-z
-x,y,z
x,-y,z
loop_
_atom_site_type_symbol
_atom_site_label
_atom_site_fract_x
_atom_site_fract_y
_atom_site_fract_z
Si Si1 0.129719 0.343747 0.451759
Si Si2 0.500000 0.659782 0.052048
Si Si3 0.294220 0.838936 0.948038
Si Si4 0.129642 0.654104 0.798271
Si Si5 0.871824 0.338965 0.896545
Si Si6 0.870293 0.156011 0.278212
Si Si7 0.870294 0.843698 0.374607
O O1 0.164511 0.287368 0.500000
O O2 0.174201 0.500000 0.445336
O O3 0.181595 0.249851 0.413222
O O4 0.000000 0.343479 0.448259
O O5 0.500000 0.500000 0.070418
O O6 0.604559 0.745998 0.069064
O O7 0.500000 0.655055 0.000000
O O8 0.185722 0.768725 0.929000
O O9 0.306180 0.000000 0.932361
O O10 0.286059 0.833820 0.000000
O O11 0.175896 0.500000 0.789483
O O12 0.162890 0.702720 0.847012
O O13 0.181481 0.752381 0.760820
O O14 0.000000 0.652486 0.794883
O O15 0.839037 0.500000 0.906393
O O16 0.000000 0.319838 0.903451
O O17 0.835845 0.213437 0.326391
O O18 0.000000 0.156154 0.274594
O O19 0.825289 0.000000 0.272295
O O20 0.000000 0.843760 0.378211
O O21 0.825652 0.000000 0.380802
#
# Coordination Sequence:
#
# PCOD8196786 Si02
#       7
#     8   4   8   8   8   8   8
#     4   8  13  19  24  30  41  57  78 106 142 185
#     4   9  17  31  51  69  83 103 131 159 189 225
#     4  10  20  32  46  65  87 107 129 160 194 226
#     4   8  14  24  36  49  65  86 113 143 172 204
#     4   9  18  31  44  59  81 108 136 162 188 225
#     4   8  13  20  29  41  56  73  95 125 160 198
#     4   8  13  19  25  34  47  62  83 112 146 187
#
# _framework density 14.496293
#
# number of rings (size 3 to 8) (size 9 to 14) (size 15 to 20)
#    0.000    3.462    0.000    3.000    0.000    4.000 
#    0.000    7.692    0.000    0.000    0.000    0.000 
#    0.000    0.000    0.000    0.000    0.000    0.000 
#
# Total GULP energy -644267.424506 kJ/mol
# GULP energy per Si atom -12389.758164 kJ/mol
# Density = 1.446330 g / cm^3
# Si number density = 14.496293 Si / 1000 Ang^3
#
#
#
# Elastic Constant Matrix: (Units=GPa)
#
#
# Indices 1 2 3 4 5 6 
#
# 1 26.1480 27.9665 20.3871 0.0000 0.0000 0.0000
# 2 27.9665 96.3063 50.0024 0.0000 0.0000 0.0000
# 3 20.3871 50.0024 64.3457 0.0000 0.0000 0.0000
# 4 0.0000 0.0000 0.0000 31.6831 0.0000 0.0000
# 5 0.0000 0.0000 0.0000 0.0000 0.3338 0.0000
# 6 0.0000 0.0000 0.0000 0.0000 0.0000 12.9969
#
#
#
# Elastic Compliance Matrix: (Units=1/GPa)
#
#
# Indices 1 2 3 4 5 6 
#
# 1 0.058377 -0.012319 -0.008923 0.000000 0.000000 0.000000
# 2 -0.012319 0.020006 -0.011643 0.000000 0.000000 0.000000
# 3 -0.008923 -0.011643 0.027416 0.000000 0.000000 0.000000
# 4 0.000000 0.000000 0.000000 0.031563 0.000000 0.000000
# 5 0.000000 0.000000 0.000000 0.000000 2.995687 0.000000
# 6 0.000000 0.000000 0.000000 0.000000 0.000000 0.076941
#
#
# Mechanical properties :
#
#
# Convention : Reuss Voigt Hill
#
# Bulk Modulus (GPa) = 24.98241 42.61244 33.79742
# Shear Modulus (GPa) = 1.52017 14.89904 8.20961
#
# Velocity S-wave (km/s) = 1.02515 3.20938 2.38234
# Velocity P-wave (km/s) = 4.32115 6.57212 5.56170
#
# Compressibility (1/GPa) = 0.04002817
#
# Stress axis : x y z
#
# Youngs Moduli (GPa) = 17.13012 49.98429 36.47503
#
# Poissons Ratio (x) = 0.61578 0.32545
# Poissons Ratio (y) = 0.21103 0.42469
# Poissons Ratio (z) = 0.15284 0.58199
#
# Static dielectric constant tensor:
#      x y z
#    x 2.202700 0.000000 0.000000 
#    y 0.000000 3.105020 0.000000 
#    z 0.000000 0.000000 3.057490 
# 
# 
# High freq. dielectric constant tensor:
#      x y z
#    x 1.469450 0.000000 0.000000 
#    y 0.000000 1.562670 0.000000 
#    z 0.000000 0.000000 1.558280 
# 
# From -- ./inp_files/34289.got.cif
#   From: 2010.03.12/outbox.cif.g09.slc.cpg/sg47_18_cif.got.tgz:34289.got - 2010.04.14 03:12:58.
