data_PCOD8196799
_publ_section_title
;
Structure prediction by ZEFSAII (Michael W. Deem and Ramdas Pophale) SiO2 
 PCOD8196799
Probable space group: P M M M
;
_chemical_formula_sum "Si O2"
_cell_formula_units_Z 44
_cell_length_a 29.076783
_cell_length_b 9.037189
_cell_length_c 9.079907
_cell_angle_alpha 90.000000
_cell_angle_beta 90.000000
_cell_angle_gamma 90.000000
_cell_volume 2385.948804
_symmetry_space_group_name_H-M "P M M M"
_symmetry_group_IT_number 47
_symmetry_cell_setting 'orthorhombic'
loop_
_space_group_symop_operation_xyz
x,y,z
-x,-y,z
x,-y,-z
-x,y,-z
-x,-y,-z
x,y,-z
-x,y,z
x,-y,z
loop_
_atom_site_type_symbol
_atom_site_label
_atom_site_fract_x
_atom_site_fract_y
_atom_site_fract_z
Si Si1 0.180830 0.672507 0.828333
Si Si2 0.548685 0.165802 0.824978
Si Si3 0.352961 0.823076 0.834122
Si Si4 0.910392 0.323873 0.333770
Si Si5 0.736204 0.175620 0.332962
Si Si6 0.000000 0.676615 0.833499
O O1 0.188182 0.500000 0.796055
O O2 0.135255 0.732941 0.747887
O O3 0.224128 0.759716 0.767801
O O4 0.175113 0.705125 0.000000
O O5 0.500000 0.245981 0.776503
O O6 0.597281 0.240019 0.774325
O O7 0.546629 0.000000 0.761354
O O8 0.551063 0.159555 0.000000
O O9 0.312703 0.765496 0.727692
O O10 0.355522 0.000000 0.833956
O O11 0.342732 0.766392 0.000000
O O12 0.910462 0.262228 0.500000
O O13 0.911774 0.500000 0.333046
O O14 0.954987 0.261400 0.249292
O O15 0.742047 0.231610 0.500000
O O16 0.738530 0.000000 0.323129
O O17 0.000000 0.500000 0.832722
O O18 0.000000 0.736916 0.000000
#
# Coordination Sequence:
#
# PCOD8196799 Si02
#       6
#     8   8   8   8   8   4
#     4  10  20  33  49  69  92 118 150 189 231 271
#     4   7   9  14  27  49  75 102 134 172 213 256
#     4   8  13  22  37  56  79 109 144 181 219 258
#     4   9  16  26  41  62  89 119 148 180 222 269
#     4  10  20  32  46  65  90 121 155 188 223 266
#     4   9  15  23  37  59  88 119 150 183 218 259
#
# _framework density 18.441300999999999
#
# number of rings (size 3 to 8) (size 9 to 14) (size 15 to 20)
#    0.000    3.182    0.000    3.545    0.000    5.455 
#    0.000    0.000    0.000    0.545    0.000    4.455 
#    0.000    5.818    0.000    8.364    0.000    9.636 
#
# Total GULP energy -545103.606181 kJ/mol
# GULP energy per Si atom -12388.718322 kJ/mol
# Density = 1.839933 g / cm^3
# Si number density = 18.441301 Si / 1000 Ang^3
#
#
#
# Elastic Constant Matrix: (Units=GPa)
#
#
# Indices 1 2 3 4 5 6 
#
# 1 195.2010 16.1172 67.7702 0.0000 0.0000 0.0000
# 2 16.1172 6.8351 12.8225 0.0000 0.0000 0.0000
# 3 67.7702 12.8225 106.1022 0.0000 0.0000 0.0000
# 4 0.0000 0.0000 0.0000 13.3935 0.0000 0.0000
# 5 0.0000 0.0000 0.0000 0.0000 16.3275 0.0000
# 6 0.0000 0.0000 0.0000 0.0000 0.0000 20.3930
#
#
#
# Elastic Compliance Matrix: (Units=1/GPa)
#
#
# Indices 1 2 3 4 5 6 
#
# 1 0.007142 -0.010711 -0.003267 0.000000 0.000000 0.000000
# 2 -0.010711 0.205259 -0.017964 0.000000 0.000000 0.000000
# 3 -0.003267 -0.017964 0.013683 0.000000 0.000000 0.000000
# 4 0.000000 0.000000 0.000000 0.074663 0.000000 0.000000
# 5 0.000000 0.000000 0.000000 0.000000 0.061246 0.000000
# 6 0.000000 0.000000 0.000000 0.000000 0.000000 0.049036
#
#
# Mechanical properties :
#
#
# Convention : Reuss Voigt Hill
#
# Bulk Modulus (GPa) = 6.16527 55.72869 30.94698
# Shear Modulus (GPa) = 9.45215 24.11804 16.78510
#
# Velocity S-wave (km/s) = 2.26642 3.62031 3.02021
# Velocity P-wave (km/s) = 3.19364 6.91091 5.38331
#
# Compressibility (1/GPa) = 0.16219880
#
# Stress axis : x y z
#
# Youngs Moduli (GPa) = 140.02540 4.87189 73.08510
#
# Poissons Ratio (x) = 0.05218 0.23878
# Poissons Ratio (y) = 1.49978 1.31294
# Poissons Ratio (z) = 0.45748 0.08752
#
# Static dielectric constant tensor:
#      x y z
#    x 4.000600 0.000000 0.000000 
#    y 0.000000 2.643210 0.000000 
#    z 0.000000 0.000000 3.382670 
# 
# 
# High freq. dielectric constant tensor:
#      x y z
#    x 1.748460 0.000000 0.000000 
#    y 0.000000 1.627710 0.000000 
#    z 0.000000 0.000000 1.703440 
# 
# From -- ./inp_files/2252.got.cif
#   From: 2010.03.12/outbox.cif.g09.slc.cpg/sg47_2_cif.got.tgz:2252.got - 2010.04.14 03:12:58.
