data_PCOD8196487
_publ_section_title
;
Structure prediction by ZEFSAII (Michael W. Deem and Ramdas Pophale) SiO2 
 PCOD8196487
Probable space group: P M M M
;
_chemical_formula_sum "Si O2"
_cell_formula_units_Z 56
_cell_length_a 15.019921
_cell_length_b 9.171083
_cell_length_c 30.571794
_cell_angle_alpha 90.000000
_cell_angle_beta 90.000000
_cell_angle_gamma 90.000000
_cell_volume 4211.232283
_symmetry_space_group_name_H-M "P M M M"
_symmetry_group_IT_number 47
_symmetry_cell_setting 'orthorhombic'
loop_
_space_group_symop_operation_xyz
x,y,z
-x,-y,z
x,-y,-z
-x,y,-z
-x,-y,-z
x,y,-z
-x,y,z
x,-y,z
loop_
_atom_site_type_symbol
_atom_site_label
_atom_site_fract_x
_atom_site_fract_y
_atom_site_fract_z
Si Si1 0.606161 0.335140 0.784538
Si Si2 0.606239 0.163896 0.130945
Si Si3 0.268418 0.832973 0.448189
Si Si4 0.394068 0.164896 0.299948
Si Si5 0.901935 0.336292 0.551953
Si Si6 0.605855 0.663856 0.048214
Si Si7 0.395530 0.669476 0.613741
O O1 0.500000 0.335510 0.784096
O O2 0.642802 0.500000 0.783050
O O3 0.642190 0.257724 0.828318
O O4 0.643392 0.247204 0.742778
O O5 0.500000 0.164993 0.130586
O O6 0.644624 0.231457 0.085869
O O7 0.642694 0.000000 0.135368
O O8 0.275834 0.815651 0.500000
O O9 0.173635 0.772998 0.430404
O O10 0.347978 0.739338 0.427983
O O11 0.277315 0.000000 0.433464
O O12 0.500000 0.163777 0.298545
O O13 0.360566 0.250705 0.342637
O O14 0.356818 0.000000 0.300814
O O15 0.901784 0.334738 0.500000
O O16 0.881180 0.500000 0.568677
O O17 0.000000 0.286427 0.568789
O O18 0.500000 0.664128 0.050389
O O19 0.640816 0.500000 0.056537
O O20 0.636902 0.718443 0.000000
O O21 0.500000 0.693714 0.607092
O O22 0.371416 0.500000 0.617547
#
# Coordination Sequence:
#
# PCOD8196487 Si02
#       7
#     8   8   8   8   8   8   8
#     4   9  15  22  32  44  57  72  91 116 147 184
#     4   9  15  20  26  37  51  65  83 109 141 175
#     4  10  20  31  43  60  80 100 121 146 175 205
#     4   9  16  26  39  52  65  80 100 129 164 198
#     4   8  14  26  44  63  81 100 120 142 169 201
#     4   8  13  20  27  33  43  61  83 105 132 170
#     4  10  20  32  44  56  71  94 123 150 175 206
#
# _framework density 13.297770999999999
#
# number of rings (size 3 to 8) (size 9 to 14) (size 15 to 20)
#    0.000    3.000    0.000    3.000    0.000    7.714 
#    0.000    4.286    0.000    0.000    0.000    0.000 
#    0.000    0.000    0.000    0.000    0.000    0.000 
#
# Total GULP energy -694138.720671 kJ/mol
# GULP energy per Si atom -12395.334298 kJ/mol
# Density = 1.326750 g / cm^3
# Si number density = 13.297771 Si / 1000 Ang^3
#
#
#
# Elastic Constant Matrix: (Units=GPa)
#
#
# Indices 1 2 3 4 5 6 
#
# 1 25.7133 27.9522 22.2266 0.0000 0.0000 0.0000
# 2 27.9522 121.7578 53.1891 0.0000 0.0000 0.0000
# 3 22.2266 53.1891 71.8194 0.0000 0.0000 0.0000
# 4 0.0000 0.0000 0.0000 26.9790 0.0000 0.0000
# 5 0.0000 0.0000 0.0000 0.0000 0.4111 0.0000
# 6 0.0000 0.0000 0.0000 0.0000 0.0000 11.9728
#
#
#
# Elastic Compliance Matrix: (Units=1/GPa)
#
#
# Indices 1 2 3 4 5 6 
#
# 1 0.058033 -0.008097 -0.011964 0.000000 0.000000 0.000000
# 2 -0.008097 0.013270 -0.007322 0.000000 0.000000 0.000000
# 3 -0.011964 -0.007322 0.023049 0.000000 0.000000 0.000000
# 4 0.000000 0.000000 0.000000 0.037066 0.000000 0.000000
# 5 0.000000 0.000000 0.000000 0.000000 2.432272 0.000000
# 6 0.000000 0.000000 0.000000 0.000000 0.000000 0.083523
#
#
# Mechanical properties :
#
#
# Convention : Reuss Voigt Hill
#
# Bulk Modulus (GPa) = 25.26041 47.33629 36.29835
# Shear Modulus (GPa) = 1.84150 15.60077 8.72114
#
# Velocity S-wave (km/s) = 1.17806 3.42890 2.56370
# Velocity P-wave (km/s) = 4.57030 7.16595 6.00993
#
# Compressibility (1/GPa) = 0.03958765
#
# Stress axis : x y z
#
# Youngs Moduli (GPa) = 17.23147 75.35514 43.38533
#
# Poissons Ratio (x) = 0.61012 0.51905
# Poissons Ratio (y) = 0.13952 0.31768
# Poissons Ratio (z) = 0.20615 0.55178
#
# Static dielectric constant tensor:
#      x y z
#    x 2.194930 0.000000 0.000000 
#    y 0.000000 2.895110 0.000000 
#    z 0.000000 0.000000 2.734120 
# 
# 
# High freq. dielectric constant tensor:
#      x y z
#    x 1.424620 0.000000 0.000000 
#    y 0.000000 1.524970 0.000000 
#    z 0.000000 0.000000 1.502430 
# 
# From -- ./inp_files/8142.got.cif
#   From: 2010.03.12/outbox.cif.g09.slc.cpg/sg47_5_cif.got.tgz:8142.got - 2010.04.14 03:12:58.
