data_PCOD8196722
_publ_section_title
;
Structure prediction by ZEFSAII (Michael W. Deem and Ramdas Pophale) SiO2 
 PCOD8196722
Probable space group: P M M M
;
_chemical_formula_sum "Si O2"
_cell_formula_units_Z 44
_cell_length_a 23.356975
_cell_length_b 14.075100
_cell_length_c 9.079163
_cell_angle_alpha 90.000000
_cell_angle_beta 90.000000
_cell_angle_gamma 90.000000
_cell_volume 2984.790805
_symmetry_space_group_name_H-M "P M M M"
_symmetry_group_IT_number 47
_symmetry_cell_setting 'orthorhombic'
loop_
_space_group_symop_operation_xyz
x,y,z
-x,-y,z
x,-y,-z
-x,y,-z
-x,-y,-z
x,y,-z
-x,y,z
x,-y,z
loop_
_atom_site_type_symbol
_atom_site_label
_atom_site_fract_x
_atom_site_fract_y
_atom_site_fract_z
Si Si1 0.785573 0.610902 0.827801
Si Si2 0.111623 0.282615 0.674770
Si Si3 0.563044 0.387019 0.834471
Si Si4 0.000000 0.606383 0.325099
Si Si5 0.934024 0.108179 0.829661
Si Si6 0.328238 0.387144 0.335495
O O1 0.795923 0.500000 0.794894
O O2 0.832971 0.670503 0.744036
O O3 0.724347 0.644981 0.766550
O O4 0.787826 0.633246 0.000000
O O5 0.117239 0.285027 0.500000
O O6 0.105882 0.174413 0.729292
O O7 0.056303 0.340158 0.732575
O O8 0.500000 0.355040 0.777076
O O9 0.566676 0.500000 0.835322
O O10 0.612703 0.344539 0.730468
O O11 0.572764 0.348997 0.000000
O O12 0.000000 0.500000 0.259860
O O13 0.000000 0.603958 0.500000
O O14 0.000000 0.121470 0.782973
O O15 0.914805 0.000000 0.801524
O O16 0.925771 0.135437 0.000000
O O17 0.319842 0.346444 0.500000
O O18 0.331904 0.500000 0.339293
#
# Coordination Sequence:
#
# PCOD8196722 Si02
#       6
#     8   8   8   4   8   8
#     4  10  20  32  44  58  79 110 145 177 209 250
#     4  11  20  31  47  66  86 108 135 171 212 252
#     4   8  13  21  33  49  70  97 129 166 207 247
#     4   9  18  30  42  59  84 110 133 163 206 249
#     4   9  18  33  51  68  87 109 131 161 203 251
#     4   9  16  25  37  53  73  99 133 173 212 246
#
# _framework density 14.741402000000001
#
# number of rings (size 3 to 8) (size 9 to 14) (size 15 to 20)
#    0.000    2.636    0.909    3.273    0.000    4.727 
#    0.000    2.727    0.000    2.182    0.000    0.000 
#    0.000    0.000    0.000    0.000    0.000    0.909 
#
# Total GULP energy -545502.060735 kJ/mol
# GULP energy per Si atom -12397.774108 kJ/mol
# Density = 1.470785 g / cm^3
# Si number density = 14.741402 Si / 1000 Ang^3
#
#
#
# Elastic Constant Matrix: (Units=GPa)
#
#
# Indices 1 2 3 4 5 6 
#
# 1 121.9150 37.7889 57.4007 0.0000 0.0000 0.0000
# 2 37.7889 53.0513 34.1955 0.0000 0.0000 0.0000
# 3 57.4007 34.1955 88.6302 0.0000 0.0000 0.0000
# 4 0.0000 0.0000 0.0000 17.5978 0.0000 0.0000
# 5 0.0000 0.0000 0.0000 0.0000 28.9392 0.0000
# 6 0.0000 0.0000 0.0000 0.0000 0.0000 2.1515
#
#
#
# Elastic Compliance Matrix: (Units=1/GPa)
#
#
# Indices 1 2 3 4 5 6 
#
# 1 0.012723 -0.004993 -0.006313 0.000000 0.000000 0.000000
# 2 -0.004993 0.027049 -0.007202 0.000000 0.000000 0.000000
# 3 -0.006313 -0.007202 0.018150 0.000000 0.000000 0.000000
# 4 0.000000 0.000000 0.000000 0.056825 0.000000 0.000000
# 5 0.000000 0.000000 0.000000 0.000000 0.034555 0.000000
# 6 0.000000 0.000000 0.000000 0.000000 0.000000 0.464781
#
#
# Mechanical properties :
#
#
# Convention : Reuss Voigt Hill
#
# Bulk Modulus (GPa) = 47.83664 58.04074 52.93869
# Shear Modulus (GPa) = 7.59800 18.68514 13.14157
#
# Velocity S-wave (km/s) = 2.27275 3.56410 2.98899
# Velocity P-wave (km/s) = 6.27759 7.50967 6.92110
#
# Compressibility (1/GPa) = 0.02090448
#
# Stress axis : x y z
#
# Youngs Moduli (GPa) = 78.60082 36.97041 55.09529
#
# Poissons Ratio (x) = 0.18459 0.34783
# Poissons Ratio (y) = 0.39245 0.39681
# Poissons Ratio (z) = 0.49623 0.26627
#
# Static dielectric constant tensor:
#      x y z
#    x 2.995640 0.000000 0.000000 
#    y 0.000000 2.487220 0.000000 
#    z 0.000000 0.000000 2.927610 
# 
# 
# High freq. dielectric constant tensor:
#      x y z
#    x 1.565390 0.000000 0.000000 
#    y 0.000000 1.505640 0.000000 
#    z 0.000000 0.000000 1.570690 
# 
# From -- ./inp_files/10886.got.cif
#   From: 2010.03.12/outbox.cif.g09.slc.cpg/sg47_6_cif.got.tgz:10886.got - 2010.04.14 03:12:58.
