data_PCOD8196797
_publ_section_title
;
Structure prediction by ZEFSAII (Michael W. Deem and Ramdas Pophale) SiO2 
 PCOD8196797
Probable space group: P M M M
;
_chemical_formula_sum "Si O2"
_cell_formula_units_Z 64
_cell_length_a 29.225204
_cell_length_b 9.119475
_cell_length_c 14.477644
_cell_angle_alpha 90.000000
_cell_angle_beta 90.000000
_cell_angle_gamma 90.000000
_cell_volume 3858.560212
_symmetry_space_group_name_H-M "P M M M"
_symmetry_group_IT_number 47
_symmetry_cell_setting 'orthorhombic'
loop_
_space_group_symop_operation_xyz
x,y,z
-x,-y,z
x,-y,-z
-x,y,-z
-x,-y,-z
x,y,-z
-x,y,z
x,-y,z
loop_
_atom_site_type_symbol
_atom_site_label
_atom_site_fract_x
_atom_site_fract_y
_atom_site_fract_z
Si Si1 0.102461 0.666985 0.603395
Si Si2 0.872883 0.164852 0.891608
Si Si3 0.353403 0.675308 0.395738
Si Si4 0.050326 0.329828 0.781234
Si Si5 0.548412 0.663882 0.390412
Si Si6 0.805976 0.831694 0.607244
Si Si7 0.230648 0.826991 0.894566
Si Si8 0.268957 0.674204 0.274597
O O1 0.083976 0.695290 0.500000
O O2 0.120700 0.500000 0.613491
O O3 0.061140 0.697807 0.673426
O O4 0.142879 0.778730 0.627868
O O5 0.910546 0.263904 0.844413
O O6 0.821408 0.218769 0.868149
O O7 0.879237 0.000000 0.855357
O O8 0.880891 0.172669 0.000000
O O9 0.341969 0.731573 0.500000
O O10 0.355539 0.500000 0.397422
O O11 0.403194 0.738371 0.360473
O O12 0.315392 0.730758 0.323696
O O13 0.049310 0.500000 0.804497
O O14 0.000000 0.261498 0.801603
O O15 0.550076 0.655648 0.500000
O O16 0.500000 0.743368 0.359653
O O17 0.546810 0.500000 0.349492
O O18 0.793825 0.813389 0.500000
O O19 0.772790 0.729066 0.664410
O O20 0.801257 0.000000 0.639601
O O21 0.265751 0.741910 0.828005
O O22 0.236875 0.000000 0.881900
O O23 0.241507 0.781523 0.000000
O O24 0.267535 0.500000 0.267770
#
# Coordination Sequence:
#
# PCOD8196797 Si02
#       8
#     8   8   8   8   8   8   8   8
#     4   9  18  33  51  68  87 114 148 182 214 250
#     4   9  19  36  55  71  86 108 139 173 211 256
#     4   8  14  23  34  54  88 125 155 183 218 259
#     4  10  21  34  48  70  96 117 138 167 207 254
#     4   7   9  15  29  48  73 111 156 192 218 249
#     4  10  20  32  46  65  90 120 153 186 217 253
#     4   9  19  36  54  69  87 113 146 184 223 263
#     4  11  20  28  43  67  95 123 148 179 222 270
#
# _framework density 16.586497999999999
#
# number of rings (size 3 to 8) (size 9 to 14) (size 15 to 20)
#    0.000    2.875    0.000    3.750    0.000    5.500 
#    0.000    3.750    0.000    0.000    0.000    2.625 
#    0.000    2.500    0.000   20.375    0.000   12.750 
#
# Total GULP energy -793012.715372 kJ/mol
# GULP energy per Si atom -12390.823678 kJ/mol
# Density = 1.654875 g / cm^3
# Si number density = 16.586498 Si / 1000 Ang^3
#
#
#
# Elastic Constant Matrix: (Units=GPa)
#
#
# Indices 1 2 3 4 5 6 
#
# 1 113.8972 30.7499 66.8017 0.0000 0.0000 0.0000
# 2 30.7499 37.3283 27.6826 0.0000 0.0000 0.0000
# 3 66.8017 27.6826 66.9036 0.0000 0.0000 0.0000
# 4 0.0000 0.0000 0.0000 23.8808 0.0000 0.0000
# 5 0.0000 0.0000 0.0000 0.0000 15.7291 0.0000
# 6 0.0000 0.0000 0.0000 0.0000 0.0000 4.0469
#
#
#
# Elastic Compliance Matrix: (Units=1/GPa)
#
#
# Indices 1 2 3 4 5 6 
#
# 1 0.021357 -0.002567 -0.020262 0.000000 0.000000 0.000000
# 2 -0.002567 0.038957 -0.013556 0.000000 0.000000 0.000000
# 3 -0.020262 -0.013556 0.040788 0.000000 0.000000 0.000000
# 4 0.000000 0.000000 0.000000 0.041875 0.000000 0.000000
# 5 0.000000 0.000000 0.000000 0.000000 0.063576 0.000000
# 6 0.000000 0.000000 0.000000 0.000000 0.000000 0.247103
#
#
# Mechanical properties :
#
#
# Convention : Reuss Voigt Hill
#
# Bulk Modulus (GPa) = 35.29745 52.06639 43.68192
# Shear Modulus (GPa) = 9.33062 14.92435 12.12748
#
# Velocity S-wave (km/s) = 2.37437 3.00290 2.70694
# Velocity P-wave (km/s) = 5.37065 6.59410 6.01357
#
# Compressibility (1/GPa) = 0.02833066
#
# Stress axis : x y z
#
# Youngs Moduli (GPa) = 46.82345 25.66924 24.51728
#
# Poissons Ratio (x) = 0.06588 0.49678
# Poissons Ratio (y) = 0.12018 0.33237
# Poissons Ratio (z) = 0.94875 0.34798
#
# Static dielectric constant tensor:
#      x y z
#    x 3.484270 0.000000 0.000000 
#    y 0.000000 2.930920 0.000000 
#    z 0.000000 0.000000 3.088850 
# 
# 
# High freq. dielectric constant tensor:
#      x y z
#    x 1.634520 0.000000 0.000000 
#    y 0.000000 1.612640 0.000000 
#    z 0.000000 0.000000 1.623080 
# 
# From -- ./inp_files/25867.got.cif
#   From: 2010.03.12/outbox.cif.g09.slc.cpg/sg47_13_cif.got.tgz:25867.got - 2010.04.14 03:12:58.
