data_PCOD8196114
_publ_section_title
;
Structure prediction by ZEFSAII (Michael W. Deem and Ramdas Pophale) SiO2 
 PCOD8196114
Probable space group: P M M M
;
_chemical_formula_sum "Si O2"
_cell_formula_units_Z 56
_cell_length_a 22.455766
_cell_length_b 15.112311
_cell_length_c 8.713451
_cell_angle_alpha 90.000000
_cell_angle_beta 90.000000
_cell_angle_gamma 90.000000
_cell_volume 2956.983831
_symmetry_space_group_name_H-M "P M M M"
_symmetry_group_IT_number 47
_symmetry_cell_setting 'orthorhombic'
loop_
_space_group_symop_operation_xyz
x,y,z
-x,-y,z
x,-y,-z
-x,y,-z
-x,-y,-z
x,y,-z
-x,y,z
x,-y,z
loop_
_atom_site_type_symbol
_atom_site_label
_atom_site_fract_x
_atom_site_fract_y
_atom_site_fract_z
Si Si1 0.932099 0.598839 0.319127
Si Si2 0.620057 0.674427 0.679689
Si Si3 0.500000 0.604737 0.176704
Si Si4 0.348807 0.141827 0.180426
Si Si5 0.217014 0.902507 0.182234
Si Si6 0.271888 0.401491 0.824652
Si Si7 0.834694 0.278602 0.181639
Si Si8 0.567243 0.000000 0.681100
O O1 0.925381 0.603790 0.500000
O O2 0.912412 0.500000 0.263025
O O3 0.893948 0.677833 0.247616
O O4 0.000000 0.615663 0.268893
O O5 0.617452 0.696056 0.500000
O O6 0.556470 0.642160 0.735312
O O7 0.641084 0.757292 0.778605
O O8 0.669737 0.600896 0.717336
O O9 0.500000 0.500000 0.187823
O O10 0.500000 0.636308 0.000000
O O11 0.284164 0.111942 0.242938
O O12 0.400428 0.087275 0.260984
O O13 0.353133 0.126253 0.000000
O O14 0.173691 0.823185 0.240964
O O15 0.194399 0.000000 0.238051
O O16 0.218434 0.898495 0.000000
O O17 0.244977 0.500000 0.814303
O O18 0.222407 0.333959 0.761674
O O19 0.289641 0.378165 0.000000
O O20 0.839331 0.282311 0.000000
O O21 0.500000 0.000000 0.745202
O O22 0.567294 0.000000 0.500000
#
# Coordination Sequence:
#
# PCOD8196114 Si02
#       8
#     8   8   4   8   8   8   8   4
#     4   9  19  36  56  80 116 160 199 236 283 341
#     4  12  25  39  57  82 113 143 179 232 289 339
#     4  11  25  45  65  80  99 138 191 237 279 343
#     4  11  21  39  63  82 106 146 192 229 276 345
#     4   9  17  33  58  85 110 142 185 233 281 332
#     4  10  20  35  55  80 112 148 186 229 279 340
#     4  10  19  33  56  86 117 147 189 241 284 329
#     4  11  25  41  57  83 119 145 176 237 301 346
#
# _framework density 18.938216000000001
#
# number of rings (size 3 to 8) (size 9 to 14) (size 15 to 20)
#    0.000    1.714    2.143    3.429    1.000    4.857 
#    0.000    0.714    0.000    0.429    0.000    3.000 
#    0.000    0.000    0.000    0.000    0.000    0.000 
#
# Total GULP energy -694334.399331 kJ/mol
# GULP energy per Si atom -12398.828559 kJ/mol
# Density = 1.889511 g / cm^3
# Si number density = 18.938216 Si / 1000 Ang^3
#
#
#
# Elastic Constant Matrix: (Units=GPa)
#
#
# Indices 1 2 3 4 5 6 
#
# 1 119.6702 68.3550 30.8093 0.0000 0.0000 0.0000
# 2 68.3550 143.5070 19.8384 0.0000 0.0000 0.0000
# 3 30.8093 19.8384 41.6975 0.0000 0.0000 0.0000
# 4 0.0000 0.0000 0.0000 19.3663 0.0000 0.0000
# 5 0.0000 0.0000 0.0000 0.0000 0.7210 0.0000
# 6 0.0000 0.0000 0.0000 0.0000 0.0000 41.0825
#
#
#
# Elastic Compliance Matrix: (Units=1/GPa)
#
#
# Indices 1 2 3 4 5 6 
#
# 1 0.013263 -0.005312 -0.007272 0.000000 0.000000 0.000000
# 2 -0.005312 0.009586 -0.000636 0.000000 0.000000 0.000000
# 3 -0.007272 -0.000636 0.029658 0.000000 0.000000 0.000000
# 4 0.000000 0.000000 0.000000 0.051636 0.000000 0.000000
# 5 0.000000 0.000000 0.000000 0.000000 1.386921 0.000000
# 6 0.000000 0.000000 0.000000 0.000000 0.000000 0.024341
#
#
# Mechanical properties :
#
#
# Convention : Reuss Voigt Hill
#
# Bulk Modulus (GPa) = 38.36300 60.32002 49.34151
# Shear Modulus (GPa) = 3.22469 24.62542 13.92506
#
# Velocity S-wave (km/s) = 1.30631 3.60988 2.71456
# Velocity P-wave (km/s) = 4.75144 7.02105 5.99463
#
# Compressibility (1/GPa) = 0.02606678
#
# Stress axis : x y z
#
# Youngs Moduli (GPa) = 75.39935 104.31436 33.71756
#
# Poissons Ratio (x) = 0.55411 0.24520
# Poissons Ratio (y) = 0.40052 0.02145
# Poissons Ratio (z) = 0.54832 0.06635
#
# Static dielectric constant tensor:
#      x y z
#    x 3.475020 0.000000 0.000000 
#    y 0.000000 3.854110 0.000000 
#    z 0.000000 0.000000 3.277890 
# 
# 
# High freq. dielectric constant tensor:
#      x y z
#    x 1.723510 0.000000 0.000000 
#    y 0.000000 1.748790 0.000000 
#    z 0.000000 0.000000 1.718410 
# 
# From -- ./inp_files/7417.got.cif
#   From: 2010.03.12/outbox.cif.g09.slc.cpg/sg47_4_cif.got.tgz:7417.got - 2010.04.14 03:12:58.
