data_PCOD8196225
_publ_section_title
;
Structure prediction by ZEFSAII (Michael W. Deem and Ramdas Pophale) SiO2 
 PCOD8196225
Probable space group: P M M M
;
_chemical_formula_sum "Si O2"
_cell_formula_units_Z 48
_cell_length_a 8.887917
_cell_length_b 19.002928
_cell_length_c 15.128340
_cell_angle_alpha 90.000000
_cell_angle_beta 90.000000
_cell_angle_gamma 90.000000
_cell_volume 2555.122872
_symmetry_space_group_name_H-M "P M M M"
_symmetry_group_IT_number 47
_symmetry_cell_setting 'orthorhombic'
loop_
_space_group_symop_operation_xyz
x,y,z
-x,-y,z
x,-y,-z
-x,y,-z
-x,-y,-z
x,y,-z
-x,y,z
x,-y,z
loop_
_atom_site_type_symbol
_atom_site_label
_atom_site_fract_x
_atom_site_fract_y
_atom_site_fract_z
Si Si1 0.678728 0.579088 0.500000
Si Si2 0.672030 0.416903 0.000000
Si Si3 0.677244 0.172813 0.398899
Si Si4 0.321832 0.327338 0.662548
Si Si5 0.821193 0.821552 0.901716
Si Si6 0.178558 0.667221 0.847050
Si Si7 0.178421 0.080055 0.253834
O O1 0.744605 0.500000 0.500000
O O2 0.500000 0.578077 0.500000
O O3 0.735320 0.620060 0.586515
O O4 0.754479 0.389546 0.086889
O O5 0.683440 0.500000 0.000000
O O6 0.500000 0.391046 0.000000
O O7 0.729601 0.165174 0.500000
O O8 0.500000 0.163633 0.390347
O O9 0.727995 0.248658 0.362988
O O10 0.757031 0.112035 0.343599
O O11 0.500000 0.332266 0.676452
O O12 0.237374 0.351510 0.750243
O O13 0.762999 0.744492 0.874683
O O14 0.758035 0.878066 0.831557
O O15 0.000000 0.822556 0.901373
O O16 0.760922 0.840282 0.000000
O O17 0.000000 0.662871 0.849961
O O18 0.000000 0.085388 0.257986
O O19 0.233428 0.000000 0.245273
#
# Coordination Sequence:
#
# PCOD8196225 Si02
#       7
#     4   4   8   8   8   8   8
#     4   9  18  34  57  83 112 145 184 234 285 333
#     4  11  25  43  61  85 118 153 192 238 284 334
#     4  10  20  35  56  80 108 147 194 239 280 333
#     4  10  19  34  57  85 113 147 193 238 281 338
#     4   9  17  32  55  82 109 141 182 224 270 329
#     4  11  21  36  60  88 116 149 189 235 285 342
#     4  10  21  36  55  82 114 145 183 234 287 340
#
# _framework density 18.785789000000001
#
# number of rings (size 3 to 8) (size 9 to 14) (size 15 to 20)
#    0.000    2.000    3.333    0.750    0.000    2.667 
#    0.000    5.417    0.000    0.500    0.000    1.167 
#    0.000    0.000    0.000    0.000    0.000    0.000 
#
# Total GULP energy -595315.165225 kJ/mol
# GULP energy per Si atom -12402.399276 kJ/mol
# Density = 1.874303 g / cm^3
# Si number density = 18.785789 Si / 1000 Ang^3
#
#
#
# Elastic Constant Matrix: (Units=GPa)
#
#
# Indices 1 2 3 4 5 6 
#
# 1 39.9406 34.3646 40.4975 0.0000 0.0000 0.0000
# 2 34.3646 120.6457 72.1816 0.0000 0.0000 0.0000
# 3 40.4975 72.1816 181.1494 0.0000 0.0000 0.0000
# 4 0.0000 0.0000 0.0000 48.9402 0.0000 0.0000
# 5 0.0000 0.0000 0.0000 0.0000 28.7235 0.0000
# 6 0.0000 0.0000 0.0000 0.0000 0.0000 23.9112
#
#
#
# Elastic Compliance Matrix: (Units=1/GPa)
#
#
# Indices 1 2 3 4 5 6 
#
# 1 0.036669 -0.007274 -0.005299 0.000000 0.000000 0.000000
# 2 -0.007274 0.012326 -0.003285 0.000000 0.000000 0.000000
# 3 -0.005299 -0.003285 0.008014 0.000000 0.000000 0.000000
# 4 0.000000 0.000000 0.000000 0.020433 0.000000 0.000000
# 5 0.000000 0.000000 0.000000 0.000000 0.034815 0.000000
# 6 0.000000 0.000000 0.000000 0.000000 0.000000 0.041821
#
#
# Mechanical properties :
#
#
# Convention : Reuss Voigt Hill
#
# Bulk Modulus (GPa) = 39.53857 70.64700 55.09279
# Shear Modulus (GPa) = 25.74313 33.29446 29.51879
#
# Velocity S-wave (km/s) = 3.70584 4.21446 3.96831
# Velocity P-wave (km/s) = 6.27724 7.83393 7.09839
#
# Compressibility (1/GPa) = 0.02529176
#
# Stress axis : x y z
#
# Youngs Moduli (GPa) = 27.27109 81.12698 124.78057
#
# Poissons Ratio (x) = 0.59014 0.66122
# Poissons Ratio (y) = 0.19838 0.40995
# Poissons Ratio (z) = 0.14451 0.26653
#
# Static dielectric constant tensor:
#      x y z
#    x 3.137940 0.000000 0.000000 
#    y 0.000000 3.555830 0.000000 
#    z 0.000000 0.000000 3.497050 
# 
# 
# High freq. dielectric constant tensor:
#      x y z
#    x 1.699920 0.000000 0.000000 
#    y 0.000000 1.730160 0.000000 
#    z 0.000000 0.000000 1.748230 
# 
# From -- ./inp_files/21087.got.cif
#   From: 2010.03.12/outbox.cif.g09.slc.cpg/sg47_11_cif.got.tgz:21087.got - 2010.04.14 03:12:58.
