data_PCOD8196526
_publ_section_title
;
Structure prediction by ZEFSAII (Michael W. Deem and Ramdas Pophale) SiO2 
 PCOD8196526
Probable space group: P M M M
;
_chemical_formula_sum "Si O2"
_cell_formula_units_Z 64
_cell_length_a 9.204517
_cell_length_b 28.452105
_cell_length_c 14.195992
_cell_angle_alpha 90.000000
_cell_angle_beta 90.000000
_cell_angle_gamma 90.000000
_cell_volume 3717.758308
_symmetry_space_group_name_H-M "P M M M"
_symmetry_group_IT_number 47
_symmetry_cell_setting 'orthorhombic'
loop_
_space_group_symop_operation_xyz
x,y,z
-x,-y,z
x,-y,-z
-x,y,-z
-x,-y,-z
x,y,-z
-x,y,z
x,-y,z
loop_
_atom_site_type_symbol
_atom_site_label
_atom_site_fract_x
_atom_site_fract_y
_atom_site_fract_z
Si Si1 0.833484 0.446596 0.724410
Si Si2 0.167734 0.224989 0.211181
Si Si3 0.662669 0.696237 0.889037
Si Si4 0.167053 0.276709 0.606279
Si Si5 0.666926 0.411033 0.892666
Si Si6 0.329053 0.857731 0.109159
Si Si7 0.334757 0.630596 0.388958
Si Si8 0.162703 0.948419 0.888317
O O1 0.819439 0.500000 0.688497
O O2 0.768050 0.443701 0.829314
O O3 0.745910 0.413871 0.653783
O O4 0.000000 0.430260 0.726881
O O5 0.215589 0.272468 0.159585
O O6 0.192417 0.232701 0.323396
O O7 0.261764 0.181654 0.175539
O O8 0.000000 0.215133 0.187606
O O9 0.500000 0.713294 0.861227
O O10 0.685083 0.642555 0.857156
O O11 0.682544 0.700641 0.000000
O O12 0.210696 0.261181 0.500000
O O13 0.262734 0.320379 0.642293
O O14 0.000000 0.293074 0.609850
O O15 0.500000 0.426859 0.882858
O O16 0.719033 0.416367 0.000000
O O17 0.500000 0.856991 0.121497
O O18 0.271544 0.907997 0.146696
O O19 0.284870 0.848728 0.000000
O O20 0.324829 0.625087 0.500000
O O21 0.500000 0.630920 0.352515
O O22 0.000000 0.937174 0.851851
O O23 0.212519 0.000000 0.850501
O O24 0.163215 0.949681 0.000000
#
# Coordination Sequence:
#
# PCOD8196526 Si02
#       8
#     8   8   8   8   8   8   8   8
#     4  11  24  38  52  73 100 128 156 188 230 279
#     4  11  21  30  45  69  95 125 159 194 233 277
#     4   9  18  32  48  67  93 123 153 186 226 272
#     4   9  19  36  55  74  97 124 154 190 235 287
#     4   9  19  36  56  75  95 123 159 197 235 275
#     4  10  20  31  43  63  95 134 170 203 240 280
#     4  10  21  37  58  81 100 120 150 189 233 283
#     4   8  14  26  44  64  88 122 164 208 248 282
#
# _framework density 17.214676000000001
#
# number of rings (size 3 to 8) (size 9 to 14) (size 15 to 20)
#    0.000    2.375    0.000    3.750    0.000    8.750 
#    0.000    5.000    0.000    0.000    0.000    0.000 
#    0.000    0.500    0.000    5.750    0.000    1.875 
#
# Total GULP energy -793571.131023 kJ/mol
# GULP energy per Si atom -12399.548922 kJ/mol
# Density = 1.717549 g / cm^3
# Si number density = 17.214676 Si / 1000 Ang^3
#
#
#
# Elastic Constant Matrix: (Units=GPa)
#
#
# Indices 1 2 3 4 5 6 
#
# 1 101.4190 58.1819 36.1162 0.0000 0.0000 0.0000
# 2 58.1819 95.5398 42.8589 0.0000 0.0000 0.0000
# 3 36.1162 42.8589 43.6625 0.0000 0.0000 0.0000
# 4 0.0000 0.0000 0.0000 16.5443 0.0000 0.0000
# 5 0.0000 0.0000 0.0000 0.0000 22.9486 0.0000
# 6 0.0000 0.0000 0.0000 0.0000 0.0000 28.1828
#
#
#
# Elastic Compliance Matrix: (Units=1/GPa)
#
#
# Indices 1 2 3 4 5 6 
#
# 1 0.016160 -0.006870 -0.006624 0.000000 0.000000 0.000000
# 2 -0.006870 0.021623 -0.015542 0.000000 0.000000 0.000000
# 3 -0.006624 -0.015542 0.043638 0.000000 0.000000 0.000000
# 4 0.000000 0.000000 0.000000 0.060444 0.000000 0.000000
# 5 0.000000 0.000000 0.000000 0.000000 0.043576 0.000000
# 6 0.000000 0.000000 0.000000 0.000000 0.000000 0.035483
#
#
# Mechanical properties :
#
#
# Convention : Reuss Voigt Hill
#
# Bulk Modulus (GPa) = 42.82789 57.21505 50.02147
# Shear Modulus (GPa) = 17.43517 20.43275 18.93396
#
# Velocity S-wave (km/s) = 3.18592 3.44893 3.32003
# Velocity P-wave (km/s) = 6.20211 7.01203 6.61947
#
# Compressibility (1/GPa) = 0.02334927
#
# Stress axis : x y z
#
# Youngs Moduli (GPa) = 61.88193 46.24800 22.91580
#
# Poissons Ratio (x) = 0.31771 0.15179
# Poissons Ratio (y) = 0.42511 0.35616
# Poissons Ratio (z) = 0.40988 0.71880
#
# Static dielectric constant tensor:
#      x y z
#    x 3.328940 0.000000 0.000000 
#    y 0.000000 3.267640 0.000000 
#    z 0.000000 0.000000 3.135600 
# 
# 
# High freq. dielectric constant tensor:
#      x y z
#    x 1.672580 0.000000 0.000000 
#    y 0.000000 1.652090 0.000000 
#    z 0.000000 0.000000 1.645070 
# 
# From -- ./inp_files/22153.got.cif
#   From: 2010.03.12/outbox.cif.g09.slc.cpg/sg47_12_cif.got.tgz:22153.got - 2010.04.14 03:12:58.
