data_PCOD8196741
_publ_section_title
;
Structure prediction by ZEFSAII (Michael W. Deem and Ramdas Pophale) SiO2 
 PCOD8196741
Probable space group: P M M M
;
_chemical_formula_sum "Si O2"
_cell_formula_units_Z 36
_cell_length_a 9.107223
_cell_length_b 12.319421
_cell_length_c 20.241255
_cell_angle_alpha 90.000000
_cell_angle_beta 90.000000
_cell_angle_gamma 90.000000
_cell_volume 2270.982063
_symmetry_space_group_name_H-M "P M M M"
_symmetry_group_IT_number 47
_symmetry_cell_setting 'orthorhombic'
loop_
_space_group_symop_operation_xyz
x,y,z
-x,-y,z
x,-y,-z
-x,y,-z
-x,-y,-z
x,y,-z
-x,y,z
x,-y,z
loop_
_atom_site_type_symbol
_atom_site_label
_atom_site_fract_x
_atom_site_fract_y
_atom_site_fract_z
Si Si1 0.834952 0.370917 0.927240
Si Si2 0.670317 0.214601 0.577786
Si Si3 0.830410 0.627966 0.328292
Si Si4 0.664545 0.370761 0.198185
Si Si5 0.833895 0.000000 0.421469
O O1 0.835176 0.500000 0.923476
O O2 0.730806 0.322865 0.870032
O O3 0.000000 0.327897 0.915508
O O4 0.778567 0.333766 0.000000
O O5 0.692529 0.228542 0.500000
O O6 0.500000 0.208066 0.596903
O O7 0.744260 0.318178 0.611427
O O8 0.749011 0.106019 0.604515
O O9 0.810124 0.500000 0.336355
O O10 0.762831 0.669569 0.259245
O O11 0.000000 0.662149 0.330275
O O12 0.500000 0.325386 0.206633
O O13 0.664116 0.500000 0.195576
O O14 0.833790 0.000000 0.500000
O O15 0.000000 0.000000 0.393797
#
# Coordination Sequence:
#
# PCOD8196741 Si02
#       5
#     8   8   8   8   4
#     4   8  13  21  33  49  70  98 133 171 208 246
#     4  10  20  33  49  68  89 112 140 177 220 262
#     4  10  20  32  45  61  84 116 151 183 216 258
#     4   9  16  25  37  53  75 104 138 175 213 253
#     4   9  17  31  51  71  89 109 136 171 212 259
#
# _framework density 15.852171999999999
#
# number of rings (size 3 to 8) (size 9 to 14) (size 15 to 20)
#    0.000    2.778    0.000    3.000    0.000    7.556 
#    0.000    4.444    0.000    0.000    0.000    0.000 
#    0.000    0.000    0.000    1.000    0.000   18.889 
#
# Total GULP energy -446308.661854 kJ/mol
# GULP energy per Si atom -12397.462829 kJ/mol
# Density = 1.581609 g / cm^3
# Si number density = 15.852172 Si / 1000 Ang^3
#
#
#
# Elastic Constant Matrix: (Units=GPa)
#
#
# Indices 1 2 3 4 5 6 
#
# 1 143.3456 36.7565 65.1189 0.0000 0.0000 0.0000
# 2 36.7565 33.3142 31.2272 0.0000 0.0000 0.0000
# 3 65.1189 31.2272 81.4676 0.0000 0.0000 0.0000
# 4 0.0000 0.0000 0.0000 1.3652 0.0000 0.0000
# 5 0.0000 0.0000 0.0000 0.0000 30.9392 0.0000
# 6 0.0000 0.0000 0.0000 0.0000 0.0000 21.2966
#
#
#
# Elastic Compliance Matrix: (Units=1/GPa)
#
#
# Indices 1 2 3 4 5 6 
#
# 1 0.011796 -0.006519 -0.006930 0.000000 0.000000 0.000000
# 2 -0.006519 0.050453 -0.014128 0.000000 0.000000 0.000000
# 3 -0.006930 -0.014128 0.023230 0.000000 0.000000 0.000000
# 4 0.000000 0.000000 0.000000 0.732509 0.000000 0.000000
# 5 0.000000 0.000000 0.000000 0.000000 0.032321 0.000000
# 6 0.000000 0.000000 0.000000 0.000000 0.000000 0.046956
#
#
# Mechanical properties :
#
#
# Convention : Reuss Voigt Hill
#
# Bulk Modulus (GPa) = 32.97716 58.25919 45.61818
# Shear Modulus (GPa) = 5.19466 19.05517 12.12492
#
# Velocity S-wave (km/s) = 1.81220 3.47083 2.76864
# Velocity P-wave (km/s) = 5.02263 7.27279 6.24981
#
# Compressibility (1/GPa) = 0.03032402
#
# Stress axis : x y z
#
# Youngs Moduli (GPa) = 84.77574 19.82048 43.04849
#
# Poissons Ratio (x) = 0.12921 0.29832
# Poissons Ratio (y) = 0.55264 0.60821
# Poissons Ratio (z) = 0.58749 0.28003
#
# Static dielectric constant tensor:
#      x y z
#    x 3.269140 0.000000 0.000000 
#    y 0.000000 2.557450 0.000000 
#    z 0.000000 0.000000 3.110840 
# 
# 
# High freq. dielectric constant tensor:
#      x y z
#    x 1.627340 0.000000 0.000000 
#    y 0.000000 1.543850 0.000000 
#    z 0.000000 0.000000 1.606530 
# 
# From -- ./inp_files/3723.got.cif
#   From: 2010.03.12/outbox.cif.g09.slc.cpg/sg47_2_cif.got.tgz:3723.got - 2010.04.14 03:12:58.
