data_PCOD8196380
_publ_section_title
;
Structure prediction by ZEFSAII (Michael W. Deem and Ramdas Pophale) SiO2 
 PCOD8196380
Probable space group: P M M M
;
_chemical_formula_sum "Si O2"
_cell_formula_units_Z 64
_cell_length_a 9.119225
_cell_length_b 14.369418
_cell_length_c 28.389339
_cell_angle_alpha 90.000000
_cell_angle_beta 90.000000
_cell_angle_gamma 90.000000
_cell_volume 3720.080951
_symmetry_space_group_name_H-M "P M M M"
_symmetry_group_IT_number 47
_symmetry_cell_setting 'orthorhombic'
loop_
_space_group_symop_operation_xyz
x,y,z
-x,-y,z
x,-y,-z
-x,y,-z
-x,-y,-z
x,y,-z
-x,y,z
x,-y,z
loop_
_atom_site_type_symbol
_atom_site_label
_atom_site_fract_x
_atom_site_fract_y
_atom_site_fract_z
Si Si1 0.168688 0.603738 0.235027
Si Si2 0.833472 0.897219 0.908446
Si Si3 0.327675 0.724527 0.947835
Si Si4 0.828342 0.891368 0.356657
Si Si5 0.663843 0.110165 0.551725
Si Si6 0.325742 0.220525 0.724754
Si Si7 0.659685 0.854081 0.821839
Si Si8 0.339225 0.644684 0.854145
O O1 0.183755 0.500000 0.257086
O O2 0.259505 0.676430 0.266592
O O3 0.226236 0.595913 0.181055
O O4 0.000000 0.636004 0.233638
O O5 0.745509 0.824963 0.940191
O O6 0.774626 0.906556 0.854783
O O7 0.000000 0.862642 0.905811
O O8 0.821796 0.000000 0.931417
O O9 0.500000 0.741696 0.942982
O O10 0.279370 0.647625 0.908510
O O11 0.285546 0.687719 0.000000
O O12 0.778894 0.857721 0.408631
O O13 0.741392 0.825916 0.321120
O O14 0.000000 0.873528 0.351107
O O15 0.788925 0.000000 0.348137
O O16 0.711896 0.148536 0.500000
O O17 0.500000 0.146587 0.564139
O O18 0.661198 0.000000 0.549657
O O19 0.500000 0.232005 0.719573
O O20 0.285007 0.151124 0.767827
O O21 0.500000 0.903548 0.824292
O O22 0.641706 0.750263 0.839647
O O23 0.500000 0.595670 0.851452
#
# Coordination Sequence:
#
# PCOD8196380 Si02
#       8
#     8   8   8   8   8   8   8   8
#     4  10  20  33  51  75 100 124 151 187 233 285
#     4  10  20  30  40  58  83 109 140 180 222 265
#     4   9  18  32  48  64  82 107 140 177 219 266
#     4  10  20  31  44  66  98 135 171 207 248 291
#     4   8  14  26  44  64  88 123 168 214 254 290
#     4  10  20  33  49  69  95 127 162 200 239 282
#     4   8  16  30  45  60  78 106 144 181 218 261
#     4   8  15  29  48  68  87 108 138 175 213 259
#
# _framework density 17.203927
#
# number of rings (size 3 to 8) (size 9 to 14) (size 15 to 20)
#    0.000    2.875    0.000    3.375    0.000    9.000 
#    0.000    5.000    0.000    0.375    0.000    2.625 
#    0.000    0.500    0.000    5.250    0.000    2.500 
#
# Total GULP energy -792983.266860 kJ/mol
# GULP energy per Si atom -12390.363545 kJ/mol
# Density = 1.716477 g / cm^3
# Si number density = 17.203927 Si / 1000 Ang^3
#
#
#
# Elastic Constant Matrix: (Units=GPa)
#
#
# Indices 1 2 3 4 5 6 
#
# 1 85.4005 30.0563 44.3835 0.0000 0.0000 0.0000
# 2 30.0563 53.2052 28.8647 0.0000 0.0000 0.0000
# 3 44.3835 28.8647 118.6564 0.0000 0.0000 0.0000
# 4 0.0000 0.0000 0.0000 9.1976 0.0000 0.0000
# 5 0.0000 0.0000 0.0000 0.0000 11.4474 0.0000
# 6 0.0000 0.0000 0.0000 0.0000 0.0000 25.1028
#
#
#
# Elastic Compliance Matrix: (Units=1/GPa)
#
#
# Indices 1 2 3 4 5 6 
#
# 1 0.016456 -0.006863 -0.004486 0.000000 0.000000 0.000000
# 2 -0.006863 0.024515 -0.003397 0.000000 0.000000 0.000000
# 3 -0.004486 -0.003397 0.010932 0.000000 0.000000 0.000000
# 4 0.000000 0.000000 0.000000 0.108724 0.000000 0.000000
# 5 0.000000 0.000000 0.000000 0.000000 0.087356 0.000000
# 6 0.000000 0.000000 0.000000 0.000000 0.000000 0.039836
#
#
# Mechanical properties :
#
#
# Convention : Reuss Voigt Hill
#
# Bulk Modulus (GPa) = 44.61808 51.54123 48.07965
# Shear Modulus (GPa) = 15.39505 19.41341 17.40423
#
# Velocity S-wave (km/s) = 2.99466 3.36285 3.18408
# Velocity P-wave (km/s) = 6.16023 6.71583 6.44402
#
# Compressibility (1/GPa) = 0.02241244
#
# Stress axis : x y z
#
# Youngs Moduli (GPa) = 60.76725 40.79209 91.47491
#
# Poissons Ratio (x) = 0.27994 0.41036
# Poissons Ratio (y) = 0.41702 0.31070
# Poissons Ratio (z) = 0.27261 0.13855
#
# Static dielectric constant tensor:
#      x y z
#    x 3.280500 0.000000 0.000000 
#    y 0.000000 2.913920 0.000000 
#    z 0.000000 0.000000 3.653350 
# 
# 
# High freq. dielectric constant tensor:
#      x y z
#    x 1.668610 0.000000 0.000000 
#    y 0.000000 1.625900 0.000000 
#    z 0.000000 0.000000 1.654910 
# 
# From -- ./inp_files/34460.got.cif
#   From: 2010.03.12/outbox.cif.g09.slc.cpg/sg47_18_cif.got.tgz:34460.got - 2010.04.14 03:12:58.
