data_PCOD8196145
_publ_section_title
;
Structure prediction by ZEFSAII (Michael W. Deem and Ramdas Pophale) SiO2 
 PCOD8196145
Probable space group: P M M M
;
_chemical_formula_sum "Si O2"
_cell_formula_units_Z 44
_cell_length_a 9.385201
_cell_length_b 14.764266
_cell_length_c 17.209462
_cell_angle_alpha 90.000000
_cell_angle_beta 90.000000
_cell_angle_gamma 90.000000
_cell_volume 2384.639497
_symmetry_space_group_name_H-M "P M M M"
_symmetry_group_IT_number 47
_symmetry_cell_setting 'orthorhombic'
loop_
_space_group_symop_operation_xyz
x,y,z
-x,-y,z
x,-y,-z
-x,y,-z
-x,-y,-z
x,y,-z
-x,y,z
x,-y,z
loop_
_atom_site_type_symbol
_atom_site_label
_atom_site_fract_x
_atom_site_fract_y
_atom_site_fract_z
Si Si1 0.333629 0.676131 0.816488
Si Si2 0.161825 0.898064 0.666465
Si Si3 0.667911 0.500000 0.088618
Si Si4 0.669389 0.398466 0.500000
Si Si5 0.665768 0.722661 0.641573
Si Si6 0.162204 0.848730 0.155921
Si Si7 0.653728 0.000000 0.087748
O O1 0.500000 0.697112 0.832035
O O2 0.283200 0.585518 0.860073
O O3 0.303840 0.673610 0.723852
O O4 0.233821 0.751588 0.853023
O O5 0.258225 0.819682 0.629162
O O6 0.170569 0.889680 0.758562
O O7 0.000000 0.883876 0.637784
O O8 0.214105 0.000000 0.643350
O O9 0.500000 0.500000 0.080813
O O10 0.732297 0.500000 0.000000
O O11 0.733770 0.500000 0.500000
O O12 0.500000 0.403830 0.500000
O O13 0.723855 0.345952 0.423614
O O14 0.500000 0.743072 0.630736
O O15 0.252982 0.912204 0.101635
O O16 0.000000 0.842925 0.126685
O O17 0.500000 0.000000 0.134003
O O18 0.609925 0.000000 0.000000
#
# Coordination Sequence:
#
# PCOD8196145 Si02
#       7
#     8   8   4   4   8   8   4
#     4   9  18  32  52  77 102 133 176 218 259 317
#     4   9  17  32  53  75 101 135 170 207 253 306
#     4   9  18  32  51  74 102 134 167 213 269 317
#     4   9  18  32  52  77 108 138 169 217 270 307
#     4   9  18  31  50  78 104 133 172 215 258 305
#     4  10  19  34  53  74 101 135 174 216 261 311
#     4  11  23  35  49  73 105 138 173 216 263 313
#
# _framework density 18.451426999999999
#
# number of rings (size 3 to 8) (size 9 to 14) (size 15 to 20)
#    0.000    2.636    0.909    0.818    1.273    2.545 
#    0.000    3.182    0.000    4.364    0.000    0.000 
#    0.000    0.000    0.000    0.000    0.000    0.000 
#
# Total GULP energy -545357.189621 kJ/mol
# GULP energy per Si atom -12394.481582 kJ/mol
# Density = 1.840943 g / cm^3
# Si number density = 18.451427 Si / 1000 Ang^3
#
#
#
# Elastic Constant Matrix: (Units=GPa)
#
#
# Indices 1 2 3 4 5 6 
#
# 1 90.2184 70.7132 37.7608 0.0000 0.0000 0.0000
# 2 70.7132 188.6796 75.3288 0.0000 0.0000 0.0000
# 3 37.7608 75.3288 84.5526 0.0000 0.0000 0.0000
# 4 0.0000 0.0000 0.0000 36.1522 0.0000 0.0000
# 5 0.0000 0.0000 0.0000 0.0000 12.7935 0.0000
# 6 0.0000 0.0000 0.0000 0.0000 0.0000 55.6007
#
#
#
# Elastic Compliance Matrix: (Units=1/GPa)
#
#
# Indices 1 2 3 4 5 6 
#
# 1 0.016116 -0.004915 -0.002819 0.000000 0.000000 0.000000
# 2 -0.004915 0.009724 -0.006469 0.000000 0.000000 0.000000
# 3 -0.002819 -0.006469 0.018849 0.000000 0.000000 0.000000
# 4 0.000000 0.000000 0.000000 0.027661 0.000000 0.000000
# 5 0.000000 0.000000 0.000000 0.000000 0.078165 0.000000
# 6 0.000000 0.000000 0.000000 0.000000 0.000000 0.017985
#
#
# Mechanical properties :
#
#
# Convention : Reuss Voigt Hill
#
# Bulk Modulus (GPa) = 61.40633 81.22846 71.31739
# Shear Modulus (GPa) = 24.71168 32.88581 28.79874
#
# Velocity S-wave (km/s) = 3.66359 4.22630 3.95497
# Velocity P-wave (km/s) = 7.15878 8.24220 7.71952
#
# Compressibility (1/GPa) = 0.01628497
#
# Stress axis : x y z
#
# Youngs Moduli (GPa) = 62.04973 102.83318 53.05306
#
# Poissons Ratio (x) = 0.50538 0.14955
# Poissons Ratio (y) = 0.30495 0.34319
# Poissons Ratio (z) = 0.17492 0.66521
#
# Static dielectric constant tensor:
#      x y z
#    x 3.288220 0.000000 0.000000 
#    y 0.000000 3.611380 0.000000 
#    z 0.000000 0.000000 3.304150 
# 
# 
# High freq. dielectric constant tensor:
#      x y z
#    x 1.697680 0.000000 0.000000 
#    y 0.000000 1.724370 0.000000 
#    z 0.000000 0.000000 1.699930 
# 
# From -- ./inp_files/9053.got.cif
#   From: 2010.03.12/outbox.cif.g09.slc.cpg/sg47_5_cif.got.tgz:9053.got - 2010.04.14 03:12:58.
