data_PCOD8196875
_publ_section_title
;
Structure prediction by ZEFSAII (Michael W. Deem and Ramdas Pophale) SiO2 
 PCOD8196875
Probable space group: P M M M
;
_chemical_formula_sum "Si O2"
_cell_formula_units_Z 48
_cell_length_a 31.251377
_cell_length_b 9.501410
_cell_length_c 8.383793
_cell_angle_alpha 90.000000
_cell_angle_beta 90.000000
_cell_angle_gamma 90.000000
_cell_volume 2489.417647
_symmetry_space_group_name_H-M "P M M M"
_symmetry_group_IT_number 47
_symmetry_cell_setting 'orthorhombic'
loop_
_space_group_symop_operation_xyz
x,y,z
-x,-y,z
x,-y,-z
-x,y,-z
-x,-y,-z
x,y,-z
-x,y,z
x,-y,z
loop_
_atom_site_type_symbol
_atom_site_label
_atom_site_fract_x
_atom_site_fract_y
_atom_site_fract_z
Si Si1 0.123094 0.842557 0.689763
Si Si2 0.217624 0.158320 0.310356
Si Si3 0.547494 0.342348 0.189618
Si Si4 0.704252 0.340568 0.310600
Si Si5 0.374476 0.159808 0.810453
Si Si6 0.953069 0.342277 0.310245
O O1 0.120681 0.837693 0.500000
O O2 0.170301 0.790912 0.745362
O O3 0.085371 0.748541 0.765954
O O4 0.115582 0.000000 0.751789
O O5 0.219531 0.155511 0.500000
O O6 0.252760 0.266722 0.242390
O O7 0.226951 0.000000 0.246358
O O8 0.500000 0.299527 0.250433
O O9 0.558950 0.500000 0.250327
O O10 0.581964 0.231056 0.256250
O O11 0.548150 0.341329 0.000000
O O12 0.704870 0.342544 0.500000
O O13 0.701653 0.500000 0.243404
O O14 0.664541 0.250503 0.252520
O O15 0.371738 0.000000 0.745138
O O16 0.373928 0.160709 0.000000
O O17 0.949801 0.341010 0.500000
O O18 0.947679 0.500000 0.245406
O O19 0.000000 0.283407 0.258875
#
# Coordination Sequence:
#
# PCOD8196875 Si02
#       6
#     8   8   8   8   8   8
#     4   8  13  20  30  44  61  84 117 157 200 244
#     4   8  14  25  39  54  74 100 131 170 214 256
#     4   8  14  26  45  68  93 120 148 179 216 256
#     4  10  20  32  47  67  89 116 151 187 224 266
#     4  10  20  32  48  71  96 122 151 182 219 262
#     4   8  13  19  25  35  54  81 113 151 196 242
#
# _framework density 19.281618000000002
#
# number of rings (size 3 to 8) (size 9 to 14) (size 15 to 20)
#    0.000    3.333    0.000    3.000    0.000    3.333 
#    0.000    6.667    0.000    0.500    0.000    3.500 
#    0.000    0.000    0.000    0.000    0.000    0.833 
#
# Total GULP energy -594776.414218 kJ/mol
# GULP energy per Si atom -12391.175296 kJ/mol
# Density = 1.923773 g / cm^3
# Si number density = 19.281618 Si / 1000 Ang^3
#
#
#
# Elastic Constant Matrix: (Units=GPa)
#
#
# Indices 1 2 3 4 5 6 
#
# 1 208.9587 123.8522 5.5870 0.0000 0.0000 0.0000
# 2 123.8522 159.4550 6.5096 0.0000 0.0000 0.0000
# 3 5.5870 6.5096 3.6934 0.0000 0.0000 0.0000
# 4 0.0000 0.0000 0.0000 11.4033 0.0000 0.0000
# 5 0.0000 0.0000 0.0000 0.0000 101.0394 0.0000
# 6 0.0000 0.0000 0.0000 0.0000 0.0000 48.2036
#
#
#
# Elastic Compliance Matrix: (Units=1/GPa)
#
#
# Indices 1 2 3 4 5 6 
#
# 1 0.008875 -0.006837 -0.001374 0.000000 0.000000 0.000000
# 2 -0.006837 0.012025 -0.010851 0.000000 0.000000 0.000000
# 3 -0.001374 -0.010851 0.291956 0.000000 0.000000 0.000000
# 4 0.000000 0.000000 0.000000 0.087694 0.000000 0.000000
# 5 0.000000 0.000000 0.000000 0.000000 0.009897 0.000000
# 6 0.000000 0.000000 0.000000 0.000000 0.000000 0.020745
#
#
# Mechanical properties :
#
#
# Convention : Reuss Voigt Hill
#
# Bulk Modulus (GPa) = 3.63994 71.55607 37.59801
# Shear Modulus (GPa) = 8.91433 47.87314 28.39374
#
# Velocity S-wave (km/s) = 2.15250 4.98821 3.84158
# Velocity P-wave (km/s) = 2.84070 8.38856 6.26249
#
# Compressibility (1/GPa) = 0.27473000
#
# Stress axis : x y z
#
# Youngs Moduli (GPa) = 112.67780 83.16046 3.42517
#
# Poissons Ratio (x) = 0.56858 0.00471
# Poissons Ratio (y) = 0.77040 0.03717
# Poissons Ratio (z) = 0.15487 0.90240
#
# Static dielectric constant tensor:
#      x y z
#    x 4.040000 0.000000 0.000000 
#    y 0.000000 3.971790 0.000000 
#    z 0.000000 0.000000 2.783370 
# 
# 
# High freq. dielectric constant tensor:
#      x y z
#    x 1.770280 0.000000 0.000000 
#    y 0.000000 1.750130 0.000000 
#    z 0.000000 0.000000 1.673970 
# 
# From -- ./inp_files/4722.got.cif
#   From: 2010.03.12/outbox.cif.g09.slc.cpg/sg47_3_cif.got.tgz:4722.got - 2010.04.14 03:12:58.
