data_PCOD8196191
_publ_section_title
;
Structure prediction by ZEFSAII (Michael W. Deem and Ramdas Pophale) SiO2 
 PCOD8196191
Probable space group: P M M M
;
_chemical_formula_sum "Si O2"
_cell_formula_units_Z 48
_cell_length_a 9.989157
_cell_length_b 28.788908
_cell_length_c 9.184268
_cell_angle_alpha 90.000000
_cell_angle_beta 90.000000
_cell_angle_gamma 90.000000
_cell_volume 2641.183521
_symmetry_space_group_name_H-M "P M M M"
_symmetry_group_IT_number 47
_symmetry_cell_setting 'orthorhombic'
loop_
_space_group_symop_operation_xyz
x,y,z
-x,-y,z
x,-y,-z
-x,y,-z
-x,-y,-z
x,y,-z
-x,y,z
x,-y,z
loop_
_atom_site_type_symbol
_atom_site_label
_atom_site_fract_x
_atom_site_fract_y
_atom_site_fract_z
Si Si1 0.346590 0.716035 0.829132
Si Si2 0.151498 0.203412 0.172822
Si Si3 0.000000 0.945577 0.338425
Si Si4 0.346289 0.621622 0.670269
Si Si5 0.847249 0.554271 0.166829
Si Si6 0.500000 0.052400 0.827731
Si Si7 0.232787 0.101791 0.172562
O O1 0.500000 0.730168 0.794423
O O2 0.248422 0.756050 0.768491
O O3 0.305010 0.669161 0.748339
O O4 0.326147 0.707894 0.000000
O O5 0.212805 0.154626 0.226158
O O6 0.000000 0.209685 0.233548
O O7 0.148896 0.204660 0.000000
O O8 0.128110 0.930975 0.248901
O O9 0.000000 0.923069 0.500000
O O10 0.000000 0.000000 0.352587
O O11 0.322804 0.628125 0.500000
O O12 0.500000 0.608738 0.705709
O O13 0.252796 0.580680 0.727104
O O14 0.827285 0.500000 0.195275
O O15 0.000000 0.568728 0.201880
O O16 0.812994 0.566651 0.000000
O O17 0.625258 0.082503 0.774289
O O18 0.500000 0.000000 0.761017
O O19 0.500000 0.048046 0.000000
O O20 0.213613 0.098072 0.000000
#
# Coordination Sequence:
#
# PCOD8196191 Si02
#       7
#     8   8   4   8   8   4   8
#     4   9  18  32  52  75 101 136 176 217 265 317
#     4   9  17  30  50  78 103 127 166 216 265 314
#     4  11  23  37  53  75 105 141 179 217 258 309
#     4  10  21  36  53  77 111 146 182 223 266 315
#     4   9  19  36  57  81 109 142 182 227 273 320
#     4   9  18  30  49  81 111 133 167 215 262 311
#     4  10  19  34  56  80 107 137 172 216 265 317
#
# _framework density 18.173672
#
# number of rings (size 3 to 8) (size 9 to 14) (size 15 to 20)
#    0.000    2.500    0.833    1.750    1.167    4.000 
#    0.000    5.417    0.000    1.500    0.000    0.000 
#    0.000    0.000    0.000    0.000    0.000    0.000 
#
# Total GULP energy -595179.360545 kJ/mol
# GULP energy per Si atom -12399.570011 kJ/mol
# Density = 1.813231 g / cm^3
# Si number density = 18.173672 Si / 1000 Ang^3
#
#
#
# Elastic Constant Matrix: (Units=GPa)
#
#
# Indices 1 2 3 4 5 6 
#
# 1 143.0408 77.2169 39.3153 0.0000 0.0000 0.0000
# 2 77.2169 114.5450 37.5060 0.0000 0.0000 0.0000
# 3 39.3153 37.5060 46.8312 0.0000 0.0000 0.0000
# 4 0.0000 0.0000 0.0000 7.8619 0.0000 0.0000
# 5 0.0000 0.0000 0.0000 0.0000 13.6289 0.0000
# 6 0.0000 0.0000 0.0000 0.0000 0.0000 28.2029
#
#
#
# Elastic Compliance Matrix: (Units=1/GPa)
#
#
# Indices 1 2 3 4 5 6 
#
# 1 0.011725 -0.006345 -0.004762 0.000000 0.000000 0.000000
# 2 -0.006345 0.015267 -0.006900 0.000000 0.000000 0.000000
# 3 -0.004762 -0.006900 0.030877 0.000000 0.000000 0.000000
# 4 0.000000 0.000000 0.000000 0.127195 0.000000 0.000000
# 5 0.000000 0.000000 0.000000 0.000000 0.073374 0.000000
# 6 0.000000 0.000000 0.000000 0.000000 0.000000 0.035457
#
#
# Mechanical properties :
#
#
# Convention : Reuss Voigt Hill
#
# Bulk Modulus (GPa) = 45.75595 68.05484 56.90540
# Shear Modulus (GPa) = 14.82828 19.96400 17.39614
#
# Velocity S-wave (km/s) = 2.85953 3.31798 3.09725
# Velocity P-wave (km/s) = 6.01118 7.22543 6.64609
#
# Compressibility (1/GPa) = 0.02185508
#
# Stress axis : x y z
#
# Youngs Moduli (GPa) = 85.28875 65.50201 32.38651
#
# Poissons Ratio (x) = 0.41560 0.15422
# Poissons Ratio (y) = 0.54114 0.22347
# Poissons Ratio (z) = 0.40613 0.45198
#
# Static dielectric constant tensor:
#      x y z
#    x 3.881640 0.000000 0.000000 
#    y 0.000000 3.432660 0.000000 
#    z 0.000000 0.000000 3.117080 
# 
# 
# High freq. dielectric constant tensor:
#      x y z
#    x 1.714420 0.000000 0.000000 
#    y 0.000000 1.710880 0.000000 
#    z 0.000000 0.000000 1.673200 
# 
# From -- ./inp_files/2653.got.cif
#   From: 2010.03.12/outbox.cif.g09.slc.cpg/sg47_2_cif.got.tgz:2653.got - 2010.04.14 03:12:58.
