data_PCOD8196036
_publ_section_title
;
Structure prediction by ZEFSAII (Michael W. Deem and Ramdas Pophale) SiO2 
 PCOD8196036
Probable space group: P M M M
;
_chemical_formula_sum "Si O2"
_cell_formula_units_Z 48
_cell_length_a 18.268237
_cell_length_b 15.591329
_cell_length_c 8.688917
_cell_angle_alpha 90.000000
_cell_angle_beta 90.000000
_cell_angle_gamma 90.000000
_cell_volume 2474.830284
_symmetry_space_group_name_H-M "P M M M"
_symmetry_group_IT_number 47
_symmetry_cell_setting 'orthorhombic'
loop_
_space_group_symop_operation_xyz
x,y,z
-x,-y,z
x,-y,-z
-x,y,-z
-x,-y,-z
x,y,-z
-x,y,z
x,-y,z
loop_
_atom_site_type_symbol
_atom_site_label
_atom_site_fract_x
_atom_site_fract_y
_atom_site_fract_z
Si Si1 0.082592 0.669327 0.182480
Si Si2 0.162435 0.500000 0.183016
Si Si3 0.658445 0.815552 0.183830
Si Si4 0.670954 0.500000 0.817613
Si Si5 0.415627 0.343391 0.678331
Si Si6 0.818488 0.188167 0.676772
Si Si7 0.347167 0.000000 0.824745
Si Si8 0.800740 0.000000 0.673360
O O1 0.122615 0.584673 0.248660
O O2 0.123191 0.754775 0.234992
O O3 0.000000 0.670779 0.246691
O O4 0.082888 0.666647 0.000000
O O5 0.245781 0.500000 0.240796
O O6 0.159349 0.500000 0.000000
O O7 0.600336 0.746113 0.238681
O O8 0.737932 0.796819 0.254201
O O9 0.626448 0.908363 0.244845
O O10 0.665975 0.814806 0.000000
O O11 0.633003 0.584106 0.754104
O O12 0.665556 0.500000 0.000000
O O13 0.395657 0.335679 0.500000
O O14 0.500000 0.367511 0.703114
O O15 0.816055 0.216637 0.500000
O O16 0.845787 0.088681 0.693863
O O17 0.259789 0.000000 0.805924
O O18 0.370671 0.000000 0.000000
O O19 0.765679 0.000000 0.500000
#
# Coordination Sequence:
#
# PCOD8196036 Si02
#       8
#     8   4   8   4   8   8   4   4
#     4  10  20  35  55  78 106 141 179 219 265 318
#     4   9  19  36  57  80 104 133 171 215 262 314
#     4  10  19  34  57  83 110 141 182 228 273 324
#     4  11  22  37  61  87 108 137 181 228 274 328
#     4  11  24  40  56  78 112 150 184 221 268 321
#     4  10  19  33  54  79 108 141 179 223 270 321
#     4   8  16  30  51  80 109 137 173 225 279 318
#     4   8  16  30  49  74 103 139 179 217 263 320
#
# _framework density 19.39527
#
# number of rings (size 3 to 8) (size 9 to 14) (size 15 to 20)
#    0.000    2.167    0.000    3.250    0.000    6.333 
#    0.000    2.083    0.000    6.000    0.000    0.000 
#    0.000    0.000    0.000    0.000    0.000    0.000 
#
# Total GULP energy -594927.808871 kJ/mol
# GULP energy per Si atom -12394.329351 kJ/mol
# Density = 1.935113 g / cm^3
# Si number density = 19.395270 Si / 1000 Ang^3
#
#
#
# Elastic Constant Matrix: (Units=GPa)
#
#
# Indices 1 2 3 4 5 6 
#
# 1 79.9701 38.7965 16.6976 0.0000 0.0000 0.0000
# 2 38.7965 139.0823 16.3322 0.0000 0.0000 0.0000
# 3 16.6976 16.3322 24.8568 0.0000 0.0000 0.0000
# 4 0.0000 0.0000 0.0000 22.4345 0.0000 0.0000
# 5 0.0000 0.0000 0.0000 0.0000 17.6585 0.0000
# 6 0.0000 0.0000 0.0000 0.0000 0.0000 40.3608
#
#
#
# Elastic Compliance Matrix: (Units=1/GPa)
#
#
# Indices 1 2 3 4 5 6 
#
# 1 0.015944 -0.003456 -0.008439 0.000000 0.000000 0.000000
# 2 -0.003456 0.008540 -0.003290 0.000000 0.000000 0.000000
# 3 -0.008439 -0.003290 0.048061 0.000000 0.000000 0.000000
# 4 0.000000 0.000000 0.000000 0.044574 0.000000 0.000000
# 5 0.000000 0.000000 0.000000 0.000000 0.056630 0.000000
# 6 0.000000 0.000000 0.000000 0.000000 0.000000 0.024777
#
#
# Mechanical properties :
#
#
# Convention : Reuss Voigt Hill
#
# Bulk Modulus (GPa) = 23.71099 43.06244 33.38671
# Shear Modulus (GPa) = 20.58002 27.56295 24.07149
#
# Velocity S-wave (km/s) = 3.26096 3.77386 3.52675
# Velocity P-wave (km/s) = 5.14103 6.42185 5.81680
#
# Compressibility (1/GPa) = 0.04217454
#
# Stress axis : x y z
#
# Youngs Moduli (GPa) = 62.72120 117.08993 20.80696
#
# Poissons Ratio (x) = 0.40471 0.17559
# Poissons Ratio (y) = 0.21679 0.06845
# Poissons Ratio (z) = 0.52931 0.38519
#
# Static dielectric constant tensor:
#      x y z
#    x 3.365630 0.000000 0.000000 
#    y 0.000000 4.037160 0.000000 
#    z 0.000000 0.000000 3.494210 
# 
# 
# High freq. dielectric constant tensor:
#      x y z
#    x 1.728870 0.000000 0.000000 
#    y 0.000000 1.782150 0.000000 
#    z 0.000000 0.000000 1.748400 
# 
# From -- ./inp_files/9284.got.cif
#   From: 2010.03.12/outbox.cif.g09.slc.cpg/sg47_5_cif.got.tgz:9284.got - 2010.04.14 03:12:58.
