data_PCOD8196922
_publ_section_title
;
Structure prediction by ZEFSAII (Michael W. Deem and Ramdas Pophale) SiO2 
 PCOD8196922
Probable space group: P M M M
;
_chemical_formula_sum "Si O2"
_cell_formula_units_Z 44
_cell_length_a 28.845539
_cell_length_b 9.167150
_cell_length_c 8.982324
_cell_angle_alpha 90.000000
_cell_angle_beta 90.000000
_cell_angle_gamma 90.000000
_cell_volume 2375.208356
_symmetry_space_group_name_H-M "P M M M"
_symmetry_group_IT_number 47
_symmetry_cell_setting 'orthorhombic'
loop_
_space_group_symop_operation_xyz
x,y,z
-x,-y,z
x,-y,-z
-x,y,-z
-x,-y,-z
x,y,-z
-x,y,z
x,-y,z
loop_
_atom_site_type_symbol
_atom_site_label
_atom_site_fract_x
_atom_site_fract_y
_atom_site_fract_z
Si Si1 0.450922 0.663518 0.323040
Si Si2 0.261135 0.673078 0.831388
Si Si3 0.178926 0.168363 0.672804
Si Si4 0.916018 0.169010 0.825649
Si Si5 0.000000 0.672011 0.328279
Si Si6 0.351835 0.674384 0.332394
O O1 0.448438 0.657691 0.500000
O O2 0.500000 0.742536 0.274060
O O3 0.453055 0.500000 0.258997
O O4 0.401940 0.736547 0.271396
O O5 0.258677 0.500000 0.820207
O O6 0.221698 0.736762 0.726920
O O7 0.310948 0.730838 0.774166
O O8 0.254184 0.727580 0.000000
O O9 0.169863 0.198996 0.500000
O O10 0.133541 0.217726 0.762426
O O11 0.190366 0.000000 0.703975
O O12 0.954605 0.265241 0.748259
O O13 0.925947 0.000000 0.789911
O O14 0.916785 0.200522 0.000000
O O15 0.000000 0.500000 0.307382
O O16 0.000000 0.718443 0.500000
O O17 0.341713 0.730440 0.500000
O O18 0.354502 0.500000 0.332207
#
# Coordination Sequence:
#
# PCOD8196922 Si02
#       6
#     8   8   8   8   4   8
#     4   7   9  14  27  49  76 107 146 191 236 281
#     4  10  20  32  47  69  98 132 166 200 243 295
#     4  10  21  37  57  79 101 128 165 208 251 294
#     4  10  21  38  60  83 106 135 170 206 248 297
#     4  11  24  39  56  82 114 145 176 209 244 282
#     4   8  13  22  37  57  83 117 156 197 240 286
#
# _framework density 18.524691000000001
#
# number of rings (size 3 to 8) (size 9 to 14) (size 15 to 20)
#    0.000    2.818    0.000    3.818    0.000    5.818 
#    0.000    0.000    0.000    0.545    0.000    3.818 
#    0.000    0.727    0.000    8.364    0.000    9.636 
#
# Total GULP energy -545207.228032 kJ/mol
# GULP energy per Si atom -12391.073364 kJ/mol
# Density = 1.848253 g / cm^3
# Si number density = 18.524691 Si / 1000 Ang^3
#
#
#
# Elastic Constant Matrix: (Units=GPa)
#
#
# Indices 1 2 3 4 5 6 
#
# 1 172.4187 39.6583 58.4624 0.0000 0.0000 0.0000
# 2 39.6583 26.1948 28.8616 0.0000 0.0000 0.0000
# 3 58.4624 28.8616 84.9028 0.0000 0.0000 0.0000
# 4 0.0000 0.0000 0.0000 20.3913 0.0000 0.0000
# 5 0.0000 0.0000 0.0000 0.0000 -30.5608 0.0000
# 6 0.0000 0.0000 0.0000 0.0000 0.0000 25.8750
#
#
#
# Elastic Compliance Matrix: (Units=1/GPa)
#
#
# Indices 1 2 3 4 5 6 
#
# 1 0.009236 -0.011153 -0.002568 0.000000 0.000000 0.000000
# 2 -0.011153 0.074506 -0.017647 0.000000 0.000000 0.000000
# 3 -0.002568 -0.017647 0.019546 0.000000 0.000000 0.000000
# 4 0.000000 0.000000 0.000000 0.049041 0.000000 0.000000
# 5 0.000000 0.000000 0.000000 0.000000 -0.032722 0.000000
# 6 0.000000 0.000000 0.000000 0.000000 0.000000 0.038647
#
#
# Mechanical properties :
#
#
# Convention : Reuss Voigt Hill
#
# Bulk Modulus (GPa) = 24.66132 59.72011 42.19071
# Shear Modulus (GPa) = 21.32125 13.57669 17.44897
#
# Velocity S-wave (km/s) = 3.39627 2.71014 3.07242
# Velocity P-wave (km/s) = 5.35920 6.48855 5.95073
#
# Compressibility (1/GPa) = 0.04054933
#
# Stress axis : x y z
#
# Youngs Moduli (GPa) = 108.27065 13.42182 51.16240
#
# Poissons Ratio (x) = 0.14970 0.13140
# Poissons Ratio (y) = 1.20760 0.90287
# Poissons Ratio (z) = 0.27807 0.23686
#
# Static dielectric constant tensor:
#      x y z
#    x 3.836280 0.000000 0.000000 
#    y 0.000000 2.937640 0.000000 
#    z 0.000000 0.000000 3.370470 
# 
# 
# High freq. dielectric constant tensor:
#      x y z
#    x 1.749430 0.000000 0.000000 
#    y 0.000000 1.662170 0.000000 
#    z 0.000000 0.000000 1.706460 
# 
# From -- ./inp_files/2048.got.cif
#   From: 2010.03.12/outbox.cif.g09.slc.cpg/sg47_2_cif.got.tgz:2048.got - 2010.04.14 03:12:58.
