data_PCOD8196367
_publ_section_title
;
Structure prediction by ZEFSAII (Michael W. Deem and Ramdas Pophale) SiO2 
 PCOD8196367
Probable space group: P M M M
;
_chemical_formula_sum "Si O2"
_cell_formula_units_Z 40
_cell_length_a 18.839223
_cell_length_b 8.362612
_cell_length_c 18.314051
_cell_angle_alpha 90.000000
_cell_angle_beta 90.000000
_cell_angle_gamma 90.000000
_cell_volume 2885.289222
_symmetry_space_group_name_H-M "P M M M"
_symmetry_group_IT_number 47
_symmetry_cell_setting 'orthorhombic'
loop_
_space_group_symop_operation_xyz
x,y,z
-x,-y,z
x,-y,-z
-x,y,-z
-x,-y,-z
x,y,-z
-x,y,z
x,-y,z
loop_
_atom_site_type_symbol
_atom_site_label
_atom_site_fract_x
_atom_site_fract_y
_atom_site_fract_z
Si Si1 0.580848 0.313646 0.352256
Si Si2 0.081178 0.000000 0.913251
Si Si3 0.158878 0.679131 0.086587
Si Si4 0.579301 0.814670 0.203091
Si Si5 0.580030 0.186614 0.500000
Si Si6 0.679275 0.316031 0.082588
O O1 0.500000 0.249366 0.349930
O O2 0.585890 0.500000 0.358573
O O3 0.616242 0.259333 0.275890
O O4 0.618888 0.244069 0.425312
O O5 0.115404 0.833271 0.882290
O O6 0.000000 0.000000 0.887839
O O7 0.089059 0.000000 0.000000
O O8 0.133589 0.500000 0.114866
O O9 0.240198 0.706459 0.109870
O O10 0.152190 0.675639 0.000000
O O11 0.500000 0.742212 0.190109
O O12 0.627350 0.784020 0.133134
O O13 0.573522 0.000000 0.216797
O O14 0.500000 0.259518 0.500000
O O15 0.578744 0.000000 0.500000
O O16 0.656738 0.500000 0.086638
O O17 0.671246 0.251415 0.000000
#
# Coordination Sequence:
#
# PCOD8196367 Si02
#       6
#     8   4   8   8   4   8
#     4   9  16  26  39  53  70  92 117 146 184 230
#     4   9  16  24  38  60  79  97 119 144 184 229
#     4   8  15  27  40  55  75  97 123 154 186 226
#     4  10  20  30  39  54  74  94 121 163 209 241
#     4   9  15  23  37  55  73  91 111 139 179 228
#     4   9  18  31  44  55  68  94 130 163 199 239
#
# _framework density 13.863427
#
# number of rings (size 3 to 8) (size 9 to 14) (size 15 to 20)
#    0.000    3.000    0.000    2.700    1.400    6.000 
#    0.000    4.000    0.000    0.000    0.000    0.000 
#    0.000    0.000    0.000    0.000    0.000    0.000 
#
# Total GULP energy -495553.632637 kJ/mol
# GULP energy per Si atom -12388.840816 kJ/mol
# Density = 1.383187 g / cm^3
# Si number density = 13.863427 Si / 1000 Ang^3
#
#
#
# Elastic Constant Matrix: (Units=GPa)
#
#
# Indices 1 2 3 4 5 6 
#
# 1 47.1352 32.8718 24.6841 0.0000 0.0000 0.0000
# 2 32.8718 83.5447 27.8952 0.0000 0.0000 0.0000
# 3 24.6841 27.8952 69.4748 0.0000 0.0000 0.0000
# 4 0.0000 0.0000 0.0000 21.4734 0.0000 0.0000
# 5 0.0000 0.0000 0.0000 0.0000 -0.1639 0.0000
# 6 0.0000 0.0000 0.0000 0.0000 0.0000 18.5219
#
#
#
# Elastic Compliance Matrix: (Units=1/GPa)
#
#
# Indices 1 2 3 4 5 6 
#
# 1 0.032177 -0.010212 -0.007332 0.000000 0.000000 0.000000
# 2 -0.010212 0.017064 -0.003223 0.000000 0.000000 0.000000
# 3 -0.007332 -0.003223 0.018293 0.000000 0.000000 0.000000
# 4 0.000000 0.000000 0.000000 0.046569 0.000000 0.000000
# 5 0.000000 0.000000 0.000000 0.000000 -6.100086 0.000000
# 6 0.000000 0.000000 0.000000 0.000000 0.000000 0.053990
#
#
# Mechanical properties :
#
#
# Convention : Reuss Voigt Hill
#
# Bulk Modulus (GPa) = 38.46275 41.22856 39.84565
# Shear Modulus (GPa) = -0.85008 15.61318 7.38155
#
# Velocity S-wave (km/s) = -0.78391 3.35955 2.30999
# Velocity P-wave (km/s) = 5.19470 6.69719 5.99322
#
# Compressibility (1/GPa) = 0.02599918
#
# Stress axis : x y z
#
# Youngs Moduli (GPa) = 31.07773 58.60282 54.66617
#
# Poissons Ratio (x) = 0.59848 0.40081
# Poissons Ratio (y) = 0.31738 0.17619
# Poissons Ratio (z) = 0.22786 0.18888
#
# Static dielectric constant tensor:
#      x y z
#    x 2.463300 0.000000 0.000000 
#    y 0.000000 2.945100 0.000000 
#    z 0.000000 0.000000 2.686700 
# 
# 
# High freq. dielectric constant tensor:
#      x y z
#    x 1.474180 0.000000 0.000000 
#    y 0.000000 1.548840 0.000000 
#    z 0.000000 0.000000 1.500740 
# 
# From -- ./inp_files/5729.got.cif
#   From: 2010.03.12/outbox.cif.g09.slc.cpg/sg47_3_cif.got.tgz:5729.got - 2010.04.14 03:12:58.
