data_PCOD8196182
_publ_section_title
;
Structure prediction by ZEFSAII (Michael W. Deem and Ramdas Pophale) SiO2 
 PCOD8196182
Probable space group: P M M M
;
_chemical_formula_sum "Si O2"
_cell_formula_units_Z 40
_cell_length_a 24.280508
_cell_length_b 9.452916
_cell_length_c 9.988308
_cell_angle_alpha 90.000000
_cell_angle_beta 90.000000
_cell_angle_gamma 90.000000
_cell_volume 2292.532459
_symmetry_space_group_name_H-M "P M M M"
_symmetry_group_IT_number 47
_symmetry_cell_setting 'orthorhombic'
loop_
_space_group_symop_operation_xyz
x,y,z
-x,-y,z
x,-y,-z
-x,y,-z
-x,-y,-z
x,y,-z
-x,y,z
x,-y,z
loop_
_atom_site_type_symbol
_atom_site_label
_atom_site_fract_x
_atom_site_fract_y
_atom_site_fract_z
Si Si1 0.435392 0.341728 0.000000
Si Si2 0.381254 0.167163 0.770975
Si Si3 0.060549 0.341500 0.658845
Si Si4 0.836119 0.833165 0.654444
Si Si5 0.740580 0.167377 0.848980
Si Si6 0.438224 0.833384 0.500000
O O1 0.417948 0.254283 0.871727
O O2 0.409364 0.500000 0.000000
O O3 0.500000 0.354789 0.000000
O O4 0.317938 0.213075 0.788146
O O5 0.402534 0.215174 0.626398
O O6 0.388925 0.000000 0.797228
O O7 0.059678 0.339255 0.500000
O O8 0.073591 0.500000 0.710034
O O9 0.107636 0.235737 0.710381
O O10 0.000000 0.293544 0.712004
O O11 0.823776 0.790536 0.500000
O O12 0.787251 0.774089 0.748553
O O13 0.842920 0.000000 0.667703
O O14 0.744564 0.000000 0.855035
O O15 0.747696 0.229021 0.000000
O O16 0.500000 0.765960 0.500000
O O17 0.444924 0.000000 0.500000
#
# Coordination Sequence:
#
# PCOD8196182 Si02
#       6
#     4   8   8   8   8   4
#     4  11  23  37  53  75 103 133 168 211 254 299
#     4  10  19  34  56  78 101 133 170 208 251 301
#     4   8  14  26  44  66  94 126 158 194 237 283
#     4   9  17  27  44  71  98 123 155 197 241 285
#     4   9  17  30  48  71  96 126 162 198 240 289
#     4   9  18  30  49  81 109 125 156 209 256 296
#
# _framework density 17.447953999999999
#
# number of rings (size 3 to 8) (size 9 to 14) (size 15 to 20)
#    0.000    2.800    1.000    1.500    1.400    2.000 
#    0.000    3.500    0.000    2.400    0.000    4.200 
#    0.000    0.000    0.000    0.000    0.000    0.000 
#
# Total GULP energy -495785.439137 kJ/mol
# GULP energy per Si atom -12394.635978 kJ/mol
# Density = 1.740824 g / cm^3
# Si number density = 17.447954 Si / 1000 Ang^3
#
#
#
# Elastic Constant Matrix: (Units=GPa)
#
#
# Indices 1 2 3 4 5 6 
#
# 1 152.0705 38.4844 74.8175 0.0000 0.0000 0.0000
# 2 38.4844 43.0638 33.2664 0.0000 0.0000 0.0000
# 3 74.8175 33.2664 124.5247 0.0000 0.0000 0.0000
# 4 0.0000 0.0000 0.0000 3.7120 0.0000 0.0000
# 5 0.0000 0.0000 0.0000 0.0000 24.5320 0.0000
# 6 0.0000 0.0000 0.0000 0.0000 0.0000 14.8109
#
#
#
# Elastic Compliance Matrix: (Units=1/GPa)
#
#
# Indices 1 2 3 4 5 6 
#
# 1 0.010298 -0.005573 -0.004698 0.000000 0.000000 0.000000
# 2 -0.005573 0.032276 -0.005274 0.000000 0.000000 0.000000
# 3 -0.004698 -0.005274 0.012262 0.000000 0.000000 0.000000
# 4 0.000000 0.000000 0.000000 0.269398 0.000000 0.000000
# 5 0.000000 0.000000 0.000000 0.000000 0.040763 0.000000
# 6 0.000000 0.000000 0.000000 0.000000 0.000000 0.067518
#
#
# Mechanical properties :
#
#
# Convention : Reuss Voigt Hill
#
# Bulk Modulus (GPa) = 42.11383 68.08841 55.10112
# Shear Modulus (GPa) = 10.60397 20.15034 15.37715
#
# Velocity S-wave (km/s) = 2.46793 3.40204 2.97192
# Velocity P-wave (km/s) = 5.68420 7.38514 6.58978
#
# Compressibility (1/GPa) = 0.02374517
#
# Stress axis : x y z
#
# Youngs Moduli (GPa) = 97.10724 30.98269 81.55088
#
# Poissons Ratio (x) = 0.17268 0.38315
# Poissons Ratio (y) = 0.54122 0.43009
# Poissons Ratio (z) = 0.45624 0.16340
#
# Static dielectric constant tensor:
#      x y z
#    x 3.614030 0.000000 0.000000 
#    y 0.000000 3.009440 0.000000 
#    z 0.000000 0.000000 3.462610 
# 
# 
# High freq. dielectric constant tensor:
#      x y z
#    x 1.687780 0.000000 0.000000 
#    y 0.000000 1.637670 0.000000 
#    z 0.000000 0.000000 1.658990 
# 
# From -- ./inp_files/12989.got.cif
#   From: 2010.03.12/outbox.cif.g09.slc.cpg/sg47_7_cif.got.tgz:12989.got - 2010.04.14 03:12:58.
