data_PCOD8196248
_publ_section_title
;
Structure prediction by ZEFSAII (Michael W. Deem and Ramdas Pophale) SiO2 
 PCOD8196248
Probable space group: P M M M
;
_chemical_formula_sum "Si O2"
_cell_formula_units_Z 48
_cell_length_a 8.027611
_cell_length_b 15.906799
_cell_length_c 17.739834
_cell_angle_alpha 90.000000
_cell_angle_beta 90.000000
_cell_angle_gamma 90.000000
_cell_volume 2265.263172
_symmetry_space_group_name_H-M "P M M M"
_symmetry_group_IT_number 47
_symmetry_cell_setting 'orthorhombic'
loop_
_space_group_symop_operation_xyz
x,y,z
-x,-y,z
x,-y,-z
-x,y,-z
-x,-y,-z
x,y,-z
-x,y,z
x,-y,z
loop_
_atom_site_type_symbol
_atom_site_label
_atom_site_fract_x
_atom_site_fract_y
_atom_site_fract_z
Si Si1 0.198159 0.258774 0.084332
Si Si2 0.302904 0.596400 0.500000
Si Si3 0.690863 0.344641 0.660331
Si Si4 0.000000 0.902272 0.418717
Si Si5 0.193126 0.408362 0.813215
Si Si6 0.314013 0.150986 0.675319
Si Si7 0.805963 0.094156 0.830583
O O1 0.275146 0.332208 0.138095
O O2 0.255020 0.165731 0.111262
O O3 0.000000 0.262771 0.085310
O O4 0.267373 0.272527 0.000000
O O5 0.246406 0.500000 0.500000
O O6 0.500000 0.607050 0.500000
O O7 0.231864 0.639920 0.576513
O O8 0.500000 0.374035 0.659756
O O9 0.784354 0.398260 0.723572
O O10 0.712064 0.249478 0.686360
O O11 0.828583 0.879166 0.379515
O O12 0.000000 0.857261 0.500000
O O13 0.000000 0.000000 0.428639
O O14 0.268109 0.500000 0.836533
O O15 0.000000 0.408367 0.832056
O O16 0.500000 0.132429 0.642592
O O17 0.298251 0.103848 0.754473
O O18 0.000000 0.106696 0.810491
O O19 0.774656 0.000000 0.863767
#
# Coordination Sequence:
#
# PCOD8196248 Si02
#       7
#     8   4   8   4   8   8   8
#     4   9  18  33  54  83 119 156 197 249 308 370
#     4   9  18  34  55  81 113 146 186 243 304 362
#     4  10  21  36  58  85 113 152 199 246 300 362
#     4  11  26  44  62  90 125 163 206 257 318 370
#     4  10  20  34  55  83 115 154 200 249 303 366
#     4  11  23  39  63  92 122 161 211 256 303 368
#     4  10  19  34  59  87 117 154 198 251 308 367
#
# _framework density 21.189592000000001
#
# number of rings (size 3 to 8) (size 9 to 14) (size 15 to 20)
#    0.000    2.000    2.500    1.000    2.333    3.333 
#    0.000    4.583    0.000    3.500    0.000    2.333 
#    0.000    0.000    0.000    0.000    0.000    0.000 
#
# Total GULP energy -594932.613043 kJ/mol
# GULP energy per Si atom -12394.429438 kJ/mol
# Density = 2.114136 g / cm^3
# Si number density = 21.189592 Si / 1000 Ang^3
#
#
#
# Elastic Constant Matrix: (Units=GPa)
#
#
# Indices 1 2 3 4 5 6 
#
# 1 56.6066 24.5166 22.9738 0.0000 0.0000 0.0000
# 2 24.5166 160.5313 72.0207 0.0000 0.0000 0.0000
# 3 22.9738 72.0207 153.9178 0.0000 0.0000 0.0000
# 4 0.0000 0.0000 0.0000 28.5389 0.0000 0.0000
# 5 0.0000 0.0000 0.0000 0.0000 4.2443 0.0000
# 6 0.0000 0.0000 0.0000 0.0000 0.0000 12.7699
#
#
#
# Elastic Compliance Matrix: (Units=1/GPa)
#
#
# Indices 1 2 3 4 5 6 
#
# 1 0.019349 -0.002100 -0.001905 0.000000 0.000000 0.000000
# 2 -0.002100 0.008112 -0.003482 0.000000 0.000000 0.000000
# 3 -0.001905 -0.003482 0.008411 0.000000 0.000000 0.000000
# 4 0.000000 0.000000 0.000000 0.035040 0.000000 0.000000
# 5 0.000000 0.000000 0.000000 0.000000 0.235611 0.000000
# 6 0.000000 0.000000 0.000000 0.000000 0.000000 0.078309
#
#
# Mechanical properties :
#
#
# Convention : Reuss Voigt Hill
#
# Bulk Modulus (GPa) = 47.85583 67.78643 57.82113
# Shear Modulus (GPa) = 12.29186 25.88026 19.08606
#
# Velocity S-wave (km/s) = 2.41112 3.49860 3.00447
# Velocity P-wave (km/s) = 5.51225 6.95558 6.27555
#
# Compressibility (1/GPa) = 0.02089609
#
# Stress axis : x y z
#
# Youngs Moduli (GPa) = 51.68322 123.26765 118.89392
#
# Poissons Ratio (x) = 0.25888 0.22653
# Poissons Ratio (y) = 0.10854 0.41404
# Poissons Ratio (z) = 0.09847 0.42928
#
# Static dielectric constant tensor:
#      x y z
#    x 3.448230 0.000000 0.000000 
#    y 0.000000 4.164480 0.000000 
#    z 0.000000 0.000000 4.310930 
# 
# 
# High freq. dielectric constant tensor:
#      x y z
#    x 1.797350 0.000000 0.000000 
#    y 0.000000 1.844720 0.000000 
#    z 0.000000 0.000000 1.823710 
# 
# From -- ./inp_files/26531.got.cif
#   From: 2010.03.12/outbox.cif.g09.slc.cpg/sg47_14_cif.got.tgz:26531.got - 2010.04.14 03:12:58.
