data_PCOD8196896
_publ_section_title
;
Structure prediction by ZEFSAII (Michael W. Deem and Ramdas Pophale) SiO2 
 PCOD8196896
Probable space group: P M M M
;
_chemical_formula_sum "Si O2"
_cell_formula_units_Z 64
_cell_length_a 19.932410
_cell_length_b 9.096608
_cell_length_c 17.921087
_cell_angle_alpha 90.000000
_cell_angle_beta 90.000000
_cell_angle_gamma 90.000000
_cell_volume 3249.403471
_symmetry_space_group_name_H-M "P M M M"
_symmetry_group_IT_number 47
_symmetry_cell_setting 'orthorhombic'
loop_
_space_group_symop_operation_xyz
x,y,z
-x,-y,z
x,-y,-z
-x,y,-z
-x,-y,-z
x,y,-z
-x,y,z
x,-y,z
loop_
_atom_site_type_symbol
_atom_site_label
_atom_site_fract_x
_atom_site_fract_y
_atom_site_fract_z
Si Si1 0.924407 0.341122 0.220709
Si Si2 0.736889 0.165113 0.131657
Si Si3 0.797369 0.668924 0.415866
Si Si4 0.078383 0.172341 0.362474
Si Si5 0.703384 0.172634 0.702852
Si Si6 0.425223 0.327826 0.241845
Si Si7 0.386735 0.326783 0.919239
Si Si8 0.886915 0.834214 0.083883
O O1 0.886508 0.500000 0.224154
O O2 0.896349 0.224048 0.280272
O O3 0.923930 0.277422 0.137851
O O4 0.000000 0.369940 0.244176
O O5 0.741521 0.205573 0.219393
O O6 0.689771 0.275221 0.087034
O O7 0.808088 0.181567 0.093901
O O8 0.708445 0.000000 0.123134
O O9 0.769235 0.678404 0.500000
O O10 0.804312 0.500000 0.389872
O O11 0.871648 0.742626 0.417686
O O12 0.744750 0.751587 0.363041
O O13 0.000000 0.208084 0.380161
O O14 0.091576 0.000000 0.368636
O O15 0.627965 0.238618 0.708275
O O16 0.698175 0.000000 0.685624
O O17 0.500000 0.299166 0.273590
O O18 0.406562 0.500000 0.245542
O O19 0.425485 0.271672 0.154970
O O20 0.388545 0.500000 0.920519
O O21 0.416073 0.270091 0.000000
O O22 0.910194 0.000000 0.102164
O O23 0.906970 0.791839 0.000000
#
# Coordination Sequence:
#
# PCOD8196896 Si02
#       8
#     8   8   8   8   8   8   8   8
#     4  10  21  36  53  72  96 130 173 221 272 325
#     4   9  18  32  49  70  96 129 171 215 262 317
#     4  11  24  40  60  88 120 150 179 215 262 319
#     4  10  21  38  61  87 115 148 185 223 263 314
#     4  10  20  35  58  84 110 143 183 229 275 323
#     4   9  18  33  53  77 108 148 190 232 281 334
#     4   9  17  28  44  70 103 138 178 223 269 317
#     4  10  20  32  47  68  95 130 174 225 279 332
#
# _framework density 19.695923000000001
#
# number of rings (size 3 to 8) (size 9 to 14) (size 15 to 20)
#    0.000    2.250    0.000    2.625    0.000    6.500 
#    0.000    3.750    0.000    0.375    0.000    6.125 
#    0.000    0.000    0.000    0.000    0.000    0.000 
#
# Total GULP energy -793188.220033 kJ/mol
# GULP energy per Si atom -12393.565938 kJ/mol
# Density = 1.965109 g / cm^3
# Si number density = 19.695923 Si / 1000 Ang^3
#
#
#
# Elastic Constant Matrix: (Units=GPa)
#
#
# Indices 1 2 3 4 5 6 
#
# 1 77.5288 40.4298 32.1412 0.0000 0.0000 0.0000
# 2 40.4298 91.7375 41.4057 0.0000 0.0000 0.0000
# 3 32.1412 41.4057 85.5112 0.0000 0.0000 0.0000
# 4 0.0000 0.0000 0.0000 26.8142 0.0000 0.0000
# 5 0.0000 0.0000 0.0000 0.0000 49.8353 0.0000
# 6 0.0000 0.0000 0.0000 0.0000 0.0000 28.5215
#
#
#
# Elastic Compliance Matrix: (Units=1/GPa)
#
#
# Indices 1 2 3 4 5 6 
#
# 1 0.017599 -0.006104 -0.003659 0.000000 0.000000 0.000000
# 2 -0.006104 0.016067 -0.005485 0.000000 0.000000 0.000000
# 3 -0.003659 -0.005485 0.015726 0.000000 0.000000 0.000000
# 4 0.000000 0.000000 0.000000 0.037294 0.000000 0.000000
# 5 0.000000 0.000000 0.000000 0.000000 0.020066 0.000000
# 6 0.000000 0.000000 0.000000 0.000000 0.000000 0.035061
#
#
# Mechanical properties :
#
#
# Convention : Reuss Voigt Hill
#
# Bulk Modulus (GPa) = 52.92752 53.63679 53.28216
# Shear Modulus (GPa) = 27.99433 30.42092 29.20763
#
# Velocity S-wave (km/s) = 3.77414 3.93431 3.85506
# Velocity P-wave (km/s) = 6.77664 6.92315 6.85028
#
# Compressibility (1/GPa) = 0.01889376
#
# Stress axis : x y z
#
# Youngs Moduli (GPa) = 56.82230 62.24028 63.59005
#
# Poissons Ratio (x) = 0.37995 0.23267
# Poissons Ratio (y) = 0.34687 0.34881
# Poissons Ratio (z) = 0.20791 0.34140
#
# Static dielectric constant tensor:
#      x y z
#    x 3.424510 0.000000 0.000000 
#    y 0.000000 3.697420 0.000000 
#    z 0.000000 0.000000 3.591970 
# 
# 
# High freq. dielectric constant tensor:
#      x y z
#    x 1.752570 0.000000 0.000000 
#    y 0.000000 1.769270 0.000000 
#    z 0.000000 0.000000 1.756480 
# 
# From -- ./inp_files/11670.got.cif
#   From: 2010.03.12/outbox.cif.g09.slc.cpg/sg47_6_cif.got.tgz:11670.got - 2010.04.14 03:12:58.
