data_PCOD8196239
_publ_section_title
;
Structure prediction by ZEFSAII (Michael W. Deem and Ramdas Pophale) SiO2 
 PCOD8196239
Probable space group: P M M M
;
_chemical_formula_sum "Si O2"
_cell_formula_units_Z 44
_cell_length_a 14.268932
_cell_length_b 18.054952
_cell_length_c 8.940044
_cell_angle_alpha 90.000000
_cell_angle_beta 90.000000
_cell_angle_gamma 90.000000
_cell_volume 2303.177784
_symmetry_space_group_name_H-M "P M M M"
_symmetry_group_IT_number 47
_symmetry_cell_setting 'orthorhombic'
loop_
_space_group_symop_operation_xyz
x,y,z
-x,-y,z
x,-y,-z
-x,y,-z
-x,-y,-z
x,y,-z
-x,y,z
x,-y,z
loop_
_atom_site_type_symbol
_atom_site_label
_atom_site_fract_x
_atom_site_fract_y
_atom_site_fract_z
Si Si1 0.718747 0.416006 0.171651
Si Si2 0.607406 0.287476 0.676452
Si Si3 0.893879 0.359929 0.674059
Si Si4 0.103402 0.206965 0.829642
Si Si5 0.702798 0.148006 0.173589
Si Si6 0.606486 0.000000 0.821992
O O1 0.682617 0.500000 0.188398
O O2 0.649649 0.363634 0.262985
O O3 0.824429 0.412148 0.234086
O O4 0.718946 0.390358 0.000000
O O5 0.618761 0.287139 0.500000
O O6 0.500000 0.282720 0.727061
O O7 0.661286 0.217554 0.741082
O O8 0.870612 0.367411 0.500000
O O9 0.877720 0.275004 0.719752
O O10 0.000000 0.384980 0.709578
O O11 0.184286 0.145809 0.802740
O O12 0.000000 0.172109 0.798760
O O13 0.109253 0.236646 0.000000
O O14 0.659437 0.072564 0.240428
O O15 0.676179 0.156091 0.000000
O O16 0.500000 0.000000 0.762449
O O17 0.609604 0.000000 0.000000
#
# Coordination Sequence:
#
# PCOD8196239 Si02
#       6
#     8   8   8   8   8   4
#     4  11  24  40  58  82 112 147 188 234 282 335
#     4  11  24  40  59  83 110 143 186 236 289 343
#     4  10  20  34  55  83 114 149 187 228 277 333
#     4   9  17  30  51  80 112 146 186 230 275 328
#     4  10  19  34  58  84 112 150 191 231 279 335
#     4   9  18  32  52  82 116 149 191 241 285 328
#
# _framework density 19.104040000000001
#
# number of rings (size 3 to 8) (size 9 to 14) (size 15 to 20)
#    0.000    1.909    1.818    2.182    0.000    5.455 
#    0.000    4.545    0.000    4.364    0.000    0.000 
#    0.000    4.364    0.000    0.000    0.000    0.000 
#
# Total GULP energy -545614.121934 kJ/mol
# GULP energy per Si atom -12400.320953 kJ/mol
# Density = 1.906056 g / cm^3
# Si number density = 19.104040 Si / 1000 Ang^3
#
#
#
# Elastic Constant Matrix: (Units=GPa)
#
#
# Indices 1 2 3 4 5 6 
#
# 1 142.1064 64.1688 38.2820 0.0000 0.0000 0.0000
# 2 64.1688 104.9317 25.6770 0.0000 0.0000 0.0000
# 3 38.2820 25.6770 52.9472 0.0000 0.0000 0.0000
# 4 0.0000 0.0000 0.0000 -3.0720 0.0000 0.0000
# 5 0.0000 0.0000 0.0000 0.0000 27.0096 0.0000
# 6 0.0000 0.0000 0.0000 0.0000 0.0000 24.6966
#
#
#
# Elastic Compliance Matrix: (Units=1/GPa)
#
#
# Indices 1 2 3 4 5 6 
#
# 1 0.010877 -0.005364 -0.005263 0.000000 0.000000 0.000000
# 2 -0.005364 0.013458 -0.002649 0.000000 0.000000 0.000000
# 3 -0.005263 -0.002649 0.023976 0.000000 0.000000 0.000000
# 4 0.000000 0.000000 0.000000 -0.325521 0.000000 0.000000
# 5 0.000000 0.000000 0.000000 0.000000 0.037024 0.000000
# 6 0.000000 0.000000 0.000000 0.000000 0.000000 0.040491
#
#
# Mechanical properties :
#
#
# Convention : Reuss Voigt Hill
#
# Bulk Modulus (GPa) = 45.95395 61.80453 53.87924
# Shear Modulus (GPa) = -30.14033 21.18400 -4.47816
#
# Velocity S-wave (km/s) = -3.97633 3.33359 -1.53270
# Velocity P-wave (km/s) = 1.73931 6.87306 5.01319
#
# Compressibility (1/GPa) = 0.02176091
#
# Stress axis : x y z
#
# Youngs Moduli (GPa) = 91.93943 74.30466 41.70759
#
# Poissons Ratio (x) = 0.39854 0.21951
# Poissons Ratio (y) = 0.49312 0.11047
# Poissons Ratio (z) = 0.48388 0.19680
#
# Static dielectric constant tensor:
#      x y z
#    x 3.862920 0.000000 0.000000 
#    y 0.000000 3.360110 0.000000 
#    z 0.000000 0.000000 3.446130 
# 
# 
# High freq. dielectric constant tensor:
#      x y z
#    x 1.759960 0.000000 0.000000 
#    y 0.000000 1.722740 0.000000 
#    z 0.000000 0.000000 1.736320 
# 
# From -- ./inp_files/6114.got.cif
#   From: 2010.03.12/outbox.cif.g09.slc.cpg/sg47_4_cif.got.tgz:6114.got - 2010.04.14 03:12:58.
