data_PCOD8196193
_publ_section_title
;
Structure prediction by ZEFSAII (Michael W. Deem and Ramdas Pophale) SiO2 
 PCOD8196193
Probable space group: P M M M
;
_chemical_formula_sum "Si O2"
_cell_formula_units_Z 64
_cell_length_a 9.054788
_cell_length_b 24.938953
_cell_length_c 15.204311
_cell_angle_alpha 90.000000
_cell_angle_beta 90.000000
_cell_angle_gamma 90.000000
_cell_volume 3433.390869
_symmetry_space_group_name_H-M "P M M M"
_symmetry_group_IT_number 47
_symmetry_cell_setting 'orthorhombic'
loop_
_space_group_symop_operation_xyz
x,y,z
-x,-y,z
x,-y,-z
-x,y,-z
-x,-y,-z
x,y,-z
-x,y,z
x,-y,z
loop_
_atom_site_type_symbol
_atom_site_label
_atom_site_fract_x
_atom_site_fract_y
_atom_site_fract_z
Si Si1 0.175377 0.399087 0.405176
Si Si2 0.830098 0.937598 0.100351
Si Si3 0.173036 0.560639 0.221370
Si Si4 0.168132 0.745056 0.166971
Si Si5 0.668225 0.353778 0.900236
Si Si6 0.326990 0.175859 0.594759
Si Si7 0.675098 0.147814 0.214683
Si Si8 0.166779 0.281601 0.633255
O O1 0.229546 0.422784 0.500000
O O2 0.231926 0.433473 0.322122
O O3 0.232847 0.338093 0.398057
O O4 0.000000 0.398631 0.402326
O O5 0.725994 0.906160 0.167418
O O6 0.000000 0.923041 0.119326
O O7 0.801260 0.000000 0.116866
O O8 0.789516 0.922525 0.000000
O O9 0.204450 0.500000 0.190704
O O10 0.257887 0.600840 0.158649
O O11 0.000000 0.574631 0.215736
O O12 0.248881 0.703301 0.103248
O O13 0.251304 0.801929 0.165574
O O14 0.173583 0.718379 0.262013
O O15 0.000000 0.754414 0.135275
O O16 0.500000 0.345496 0.868838
O O17 0.675385 0.374398 0.000000
O O18 0.285544 0.147752 0.500000
O O19 0.500000 0.181797 0.603084
O O20 0.270965 0.144656 0.682351
O O21 0.263627 0.235330 0.591287
O O22 0.500000 0.153387 0.207551
O O23 0.000000 0.273212 0.599981
#
# Coordination Sequence:
#
# PCOD8196193 Si02
#       8
#     8   8   8   8   8   8   8   8
#     4   9  16  28  49  78 108 134 165 209 259 310
#     4   9  19  37  59  81 107 142 185 231 277 324
#     4  10  21  38  58  79 104 135 174 218 262 315
#     4  10  19  34  56  80 109 142 176 214 260 316
#     4  11  24  40  58  79 104 135 172 218 272 325
#     4   9  18  31  46  70 108 148 182 216 256 306
#     4  10  20  33  53  83 116 148 183 223 267 316
#     4   9  16  28  48  73 102 135 171 212 256 305
#
# _framework density 18.640464999999999
#
# number of rings (size 3 to 8) (size 9 to 14) (size 15 to 20)
#    0.000    2.375    1.250    1.875    0.000    4.500 
#    0.000    3.125    0.000    0.750    0.000    3.500 
#    0.000    0.000    0.000    0.000    0.000    0.000 
#
# Total GULP energy -793275.193207 kJ/mol
# GULP energy per Si atom -12394.924894 kJ/mol
# Density = 1.859804 g / cm^3
# Si number density = 18.640465 Si / 1000 Ang^3
#
#
#
# Elastic Constant Matrix: (Units=GPa)
#
#
# Indices 1 2 3 4 5 6 
#
# 1 60.7696 40.7535 45.5258 0.0000 0.0000 0.0000
# 2 40.7535 82.3607 53.9383 0.0000 0.0000 0.0000
# 3 45.5258 53.9383 105.9842 0.0000 0.0000 0.0000
# 4 0.0000 0.0000 0.0000 12.7151 0.0000 0.0000
# 5 0.0000 0.0000 0.0000 0.0000 19.9014 0.0000
# 6 0.0000 0.0000 0.0000 0.0000 0.0000 17.2999
#
#
#
# Elastic Compliance Matrix: (Units=1/GPa)
#
#
# Indices 1 2 3 4 5 6 
#
# 1 0.028103 -0.009000 -0.007492 0.000000 0.000000 0.000000
# 2 -0.009000 0.021094 -0.006869 0.000000 0.000000 0.000000
# 3 -0.007492 -0.006869 0.016149 0.000000 0.000000 0.000000
# 4 0.000000 0.000000 0.000000 0.078647 0.000000 0.000000
# 5 0.000000 0.000000 0.000000 0.000000 0.050248 0.000000
# 6 0.000000 0.000000 0.000000 0.000000 0.000000 0.057804
#
#
# Mechanical properties :
#
#
# Convention : Reuss Voigt Hill
#
# Bulk Modulus (GPa) = 53.69104 58.83885 56.26495
# Shear Modulus (GPa) = 16.39480 17.24306 16.81893
#
# Velocity S-wave (km/s) = 2.96890 3.04474 3.00706
# Velocity P-wave (km/s) = 6.37326 6.63281 6.50433
#
# Compressibility (1/GPa) = 0.01862508
#
# Stress axis : x y z
#
# Youngs Moduli (GPa) = 35.58281 47.40763 61.92172
#
# Poissons Ratio (x) = 0.42666 0.46390
# Poissons Ratio (y) = 0.32024 0.42536
# Poissons Ratio (z) = 0.26658 0.32566
#
# Static dielectric constant tensor:
#      x y z
#    x 3.313130 0.000000 0.000000 
#    y 0.000000 3.208780 0.000000 
#    z 0.000000 0.000000 3.760710 
# 
# 
# High freq. dielectric constant tensor:
#      x y z
#    x 1.707980 0.000000 0.000000 
#    y 0.000000 1.702010 0.000000 
#    z 0.000000 0.000000 1.735320 
# 
# From -- ./inp_files/7915.got.cif
#   From: 2010.03.12/outbox.cif.g09.slc.cpg/sg47_4_cif.got.tgz:7915.got - 2010.04.14 03:12:58.
