data_PCOD8196615
_publ_section_title
;
Structure prediction by ZEFSAII (Michael W. Deem and Ramdas Pophale) SiO2 
 PCOD8196615
Probable space group: P M M M
;
_chemical_formula_sum "Si O2"
_cell_formula_units_Z 36
_cell_length_a 9.383925
_cell_length_b 23.147286
_cell_length_c 9.499368
_cell_angle_alpha 90.000000
_cell_angle_beta 90.000000
_cell_angle_gamma 90.000000
_cell_volume 2063.380482
_symmetry_space_group_name_H-M "P M M M"
_symmetry_group_IT_number 47
_symmetry_cell_setting 'orthorhombic'
loop_
_space_group_symop_operation_xyz
x,y,z
-x,-y,z
x,-y,-z
-x,y,-z
-x,-y,-z
x,y,-z
-x,y,z
x,-y,z
loop_
_atom_site_type_symbol
_atom_site_label
_atom_site_fract_x
_atom_site_fract_y
_atom_site_fract_z
Si Si1 0.340150 0.936335 0.332841
Si Si2 0.329682 0.500000 0.342135
Si Si3 0.165395 0.827869 0.665616
Si Si4 0.331065 0.395853 0.844360
Si Si5 0.335718 0.265935 0.164877
O O1 0.337530 0.936749 0.500000
O O2 0.500000 0.922356 0.279420
O O3 0.233614 0.887411 0.275827
O O4 0.292789 0.000000 0.277666
O O5 0.500000 0.500000 0.342254
O O6 0.269123 0.500000 0.500000
O O7 0.269665 0.557113 0.264437
O O8 0.192978 0.820492 0.500000
O O9 0.235760 0.774570 0.744145
O O10 0.000000 0.829679 0.702694
O O11 0.500000 0.400523 0.851880
O O12 0.289363 0.331309 0.796436
O O13 0.268756 0.408841 0.000000
O O14 0.500000 0.254937 0.206097
O O15 0.312458 0.254146 0.000000
#
# Coordination Sequence:
#
# PCOD8196615 Si02
#       5
#     8   4   8   8   8
#     4   8  14  26  45  68  93 122 156 192 230 274
#     4   9  15  21  33  59  92 119 144 179 226 276
#     4  10  20  31  45  69  98 126 156 191 235 284
#     4   8  14  25  40  58  83 116 151 186 226 273
#     4   9  18  32  49  68  90 121 162 201 236 277
#
# _framework density 17.447095999999998
#
# number of rings (size 3 to 8) (size 9 to 14) (size 15 to 20)
#    0.000    3.222    0.000    3.000    0.000    4.444 
#    0.000    4.444    0.000    0.667    0.000    5.444 
#    0.000    6.222    0.000    0.000    0.000    0.000 
#
# Total GULP energy -446201.608724 kJ/mol
# GULP energy per Si atom -12394.489131 kJ/mol
# Density = 1.740739 g / cm^3
# Si number density = 17.447096 Si / 1000 Ang^3
#
#
#
# Elastic Constant Matrix: (Units=GPa)
#
#
# Indices 1 2 3 4 5 6 
#
# 1 77.0392 72.5906 41.1158 0.0000 0.0000 0.0000
# 2 72.5906 177.2197 73.7089 0.0000 0.0000 0.0000
# 3 41.1158 73.7089 69.0127 0.0000 0.0000 0.0000
# 4 0.0000 0.0000 0.0000 8.3797 0.0000 0.0000
# 5 0.0000 0.0000 0.0000 0.0000 16.8747 0.0000
# 6 0.0000 0.0000 0.0000 0.0000 0.0000 2.1282
#
#
#
# Elastic Compliance Matrix: (Units=1/GPa)
#
#
# Indices 1 2 3 4 5 6 
#
# 1 0.022627 -0.006588 -0.006444 0.000000 0.000000 0.000000
# 2 -0.006588 0.012071 -0.008967 0.000000 0.000000 0.000000
# 3 -0.006444 -0.008967 0.027907 0.000000 0.000000 0.000000
# 4 0.000000 0.000000 0.000000 0.119336 0.000000 0.000000
# 5 0.000000 0.000000 0.000000 0.000000 0.059260 0.000000
# 6 0.000000 0.000000 0.000000 0.000000 0.000000 0.469888
#
#
# Mechanical properties :
#
#
# Convention : Reuss Voigt Hill
#
# Bulk Modulus (GPa) = 53.74684 77.56691 65.65687
# Shear Modulus (GPa) = 6.56779 14.53359 10.55069
#
# Velocity S-wave (km/s) = 1.94231 2.88932 2.46178
# Velocity P-wave (km/s) = 5.99188 7.46229 6.76714
#
# Compressibility (1/GPa) = 0.01860574
#
# Stress axis : x y z
#
# Youngs Moduli (GPa) = 44.19418 82.84385 35.83320
#
# Poissons Ratio (x) = 0.54578 0.23093
# Poissons Ratio (y) = 0.29115 0.32133
# Poissons Ratio (z) = 0.28481 0.74289
#
# Static dielectric constant tensor:
#      x y z
#    x 2.916630 0.000000 0.000000 
#    y 0.000000 3.619580 0.000000 
#    z 0.000000 0.000000 3.095660 
# 
# 
# High freq. dielectric constant tensor:
#      x y z
#    x 1.632330 0.000000 0.000000 
#    y 0.000000 1.692380 0.000000 
#    z 0.000000 0.000000 1.647190 
# 
# From -- ./inp_files/1398.got.cif
#   From: 2010.03.12/outbox.cif.g09.slc.cpg/sg47_1_cif.got.tgz:1398.got - 2010.04.14 03:12:58.
