data_PCOD8196107
_publ_section_title
;
Structure prediction by ZEFSAII (Michael W. Deem and Ramdas Pophale) SiO2 
 PCOD8196107
Probable space group: P M M M
;
_chemical_formula_sum "Si O2"
_cell_formula_units_Z 40
_cell_length_a 8.897921
_cell_length_b 21.530177
_cell_length_c 10.815630
_cell_angle_alpha 90.000000
_cell_angle_beta 90.000000
_cell_angle_gamma 90.000000
_cell_volume 2071.991491
_symmetry_space_group_name_H-M "P M M M"
_symmetry_group_IT_number 47
_symmetry_cell_setting 'orthorhombic'
loop_
_space_group_symop_operation_xyz
x,y,z
-x,-y,z
x,-y,-z
-x,y,-z
-x,-y,-z
x,y,-z
-x,y,z
x,-y,z
loop_
_atom_site_type_symbol
_atom_site_label
_atom_site_fract_x
_atom_site_fract_y
_atom_site_fract_z
Si Si1 0.823087 0.205327 0.500000
Si Si2 0.678131 0.867557 0.723064
Si Si3 0.328281 0.334337 0.500000
Si Si4 0.321829 0.000000 0.639342
Si Si5 0.673989 0.650266 0.229850
Si Si6 0.829077 0.230375 0.140302
Si Si7 0.321115 0.430416 0.000000
O O1 0.750872 0.173370 0.382607
O O2 0.786758 0.277826 0.500000
O O3 0.000000 0.195168 0.500000
O O4 0.500000 0.863880 0.715286
O O5 0.739727 0.835220 0.847631
O O6 0.733452 0.938959 0.712922
O O7 0.500000 0.309107 0.500000
O O8 0.302957 0.374204 0.372328
O O9 0.500000 0.000000 0.629823
O O10 0.254909 0.000000 0.500000
O O11 0.500000 0.662059 0.200596
O O12 0.756879 0.716133 0.223688
O O13 0.738151 0.602969 0.125904
O O14 0.000000 0.220486 0.183712
O O15 0.818868 0.252682 0.000000
O O16 0.254778 0.500000 0.000000
O O17 0.500000 0.432585 0.000000
#
# Coordination Sequence:
#
# PCOD8196107 Si02
#       7
#     4   8   4   4   8   8   4
#     4  12  22  31  49  81 116 147 178 225 287 338
#     4  11  21  36  57  79 107 144 186 233 279 337
#     4  10  20  32  50  83 118 148 185 235 285 338
#     4   9  18  34  55  78 105 139 184 231 279 334
#     4  10  19  33  56  83 113 150 191 233 281 335
#     4  11  23  37  54  80 113 144 183 237 290 340
#     4   9  18  34  57  85 115 152 199 242 275 321
#
# _framework density 19.305098000000001
#
# number of rings (size 3 to 8) (size 9 to 14) (size 15 to 20)
#    0.000    1.600    4.000    2.100    0.000    1.200 
#    0.000    3.500    0.000    7.200    0.000    0.000 
#    0.000    2.400    0.000    0.000    0.000    0.000 
#
# Total GULP energy -495761.369331 kJ/mol
# GULP energy per Si atom -12394.034233 kJ/mol
# Density = 1.926116 g / cm^3
# Si number density = 19.305098 Si / 1000 Ang^3
#
#
#
# Elastic Constant Matrix: (Units=GPa)
#
#
# Indices 1 2 3 4 5 6 
#
# 1 68.7454 27.8597 25.0606 0.0000 0.0000 0.0000
# 2 27.8597 119.6958 56.5776 0.0000 0.0000 0.0000
# 3 25.0606 56.5776 127.2508 0.0000 0.0000 0.0000
# 4 0.0000 0.0000 0.0000 34.0437 0.0000 0.0000
# 5 0.0000 0.0000 0.0000 0.0000 21.2075 0.0000
# 6 0.0000 0.0000 0.0000 0.0000 0.0000 3.2698
#
#
#
# Elastic Compliance Matrix: (Units=1/GPa)
#
#
# Indices 1 2 3 4 5 6 
#
# 1 0.016433 -0.002906 -0.001944 0.000000 0.000000 0.000000
# 2 -0.002906 0.011091 -0.004359 0.000000 0.000000 0.000000
# 3 -0.001944 -0.004359 0.010180 0.000000 0.000000 0.000000
# 4 0.000000 0.000000 0.000000 0.029374 0.000000 0.000000
# 5 0.000000 0.000000 0.000000 0.000000 0.047153 0.000000
# 6 0.000000 0.000000 0.000000 0.000000 0.000000 0.305831
#
#
# Mechanical properties :
#
#
# Convention : Reuss Voigt Hill
#
# Bulk Modulus (GPa) = 51.85302 59.40974 55.63138
# Shear Modulus (GPa) = 11.23827 25.45047 18.34437
#
# Velocity S-wave (km/s) = 2.41538 3.63482 3.08593
# Velocity P-wave (km/s) = 5.89040 6.96109 6.44801
#
# Compressibility (1/GPa) = 0.01928528
#
# Stress axis : x y z
#
# Youngs Moduli (GPa) = 60.85392 90.16081 98.23642
#
# Poissons Ratio (x) = 0.26199 0.19100
# Poissons Ratio (y) = 0.17683 0.42822
# Poissons Ratio (z) = 0.11832 0.39302
#
# Static dielectric constant tensor:
#      x y z
#    x 3.356990 0.000000 0.000000 
#    y 0.000000 3.547790 0.000000 
#    z 0.000000 0.000000 4.001600 
# 
# 
# High freq. dielectric constant tensor:
#      x y z
#    x 1.731850 0.000000 0.000000 
#    y 0.000000 1.727850 0.000000 
#    z 0.000000 0.000000 1.762270 
# 
# From -- ./inp_files/15154.got.cif
#   From: 2010.03.12/outbox.cif.g09.slc.cpg/sg47_8_cif.got.tgz:15154.got - 2010.04.14 03:12:58.
