data_PCOD8196562
_publ_section_title
;
Structure prediction by ZEFSAII (Michael W. Deem and Ramdas Pophale) SiO2 
 PCOD8196562
Probable space group: P M M M
;
_chemical_formula_sum "Si O2"
_cell_formula_units_Z 52
_cell_length_a 13.290135
_cell_length_b 25.156499
_cell_length_c 9.228551
_cell_angle_alpha 90.000000
_cell_angle_beta 90.000000
_cell_angle_gamma 90.000000
_cell_volume 3085.411613
_symmetry_space_group_name_H-M "P M M M"
_symmetry_group_IT_number 47
_symmetry_cell_setting 'orthorhombic'
loop_
_space_group_symop_operation_xyz
x,y,z
-x,-y,z
x,-y,-z
-x,y,-z
-x,-y,-z
x,y,-z
-x,y,z
x,-y,z
loop_
_atom_site_type_symbol
_atom_site_label
_atom_site_fract_x
_atom_site_fract_y
_atom_site_fract_z
Si Si1 0.782360 0.059613 0.673069
Si Si2 0.615557 0.857318 0.670447
Si Si3 0.890159 0.437073 0.661155
Si Si4 0.000000 0.063157 0.340973
Si Si5 0.619249 0.751514 0.837724
Si Si6 0.615408 0.653270 0.659855
Si Si7 0.300394 0.561779 0.168929
O O1 0.788707 0.059650 0.500000
O O2 0.690868 0.096725 0.726223
O O3 0.892811 0.079320 0.735041
O O4 0.758915 0.000000 0.729119
O O5 0.626820 0.847055 0.500000
O O6 0.500000 0.873130 0.708337
O O7 0.649987 0.804311 0.752038
O O8 0.859377 0.417269 0.500000
O O9 0.895607 0.500000 0.661157
O O10 0.809655 0.418250 0.779738
O O11 0.000000 0.413952 0.703487
O O12 0.000000 0.089474 0.500000
O O13 0.000000 0.000000 0.355426
O O14 0.500000 0.746226 0.846262
O O15 0.666101 0.700533 0.753837
O O16 0.664663 0.753324 0.000000
O O17 0.666078 0.649673 0.500000
O O18 0.500000 0.667801 0.639081
O O19 0.620541 0.596964 0.742999
O O20 0.319436 0.500000 0.206243
O O21 0.312411 0.572766 0.000000
#
# Coordination Sequence:
#
# PCOD8196562 Si02
#       7
#     8   8   8   4   8   8   8
#     4   8  13  21  35  58  88 120 151 183 219 257
#     4   9  16  25  39  62  90 115 141 178 224 270
#     4   8  14  26  44  64  86 113 145 180 215 252
#     4   7  10  18  32  52  81 115 151 187 216 245
#     4   9  17  30  47  64  83 109 143 181 219 263
#     4  10  20  33  49  67  87 114 149 188 227 265
#     4  10  20  31  44  66  95 123 149 178 217 268
#
# _framework density 16.853504999999998
#
# number of rings (size 3 to 8) (size 9 to 14) (size 15 to 20)
#    0.000    3.154    0.000    2.769    0.000    4.615 
#    0.000    4.615    0.000    0.462    2.000    2.692 
#    0.000    1.846    0.000    0.000    0.000    0.000 
#
# Total GULP energy -644218.319540 kJ/mol
# GULP energy per Si atom -12388.813837 kJ/mol
# Density = 1.681515 g / cm^3
# Si number density = 16.853505 Si / 1000 Ang^3
#
#
#
# Elastic Constant Matrix: (Units=GPa)
#
#
# Indices 1 2 3 4 5 6 
#
# 1 68.9437 43.2166 26.1565 0.0000 0.0000 0.0000
# 2 43.2166 98.6703 49.6463 0.0000 0.0000 0.0000
# 3 26.1565 49.6463 81.1907 0.0000 0.0000 0.0000
# 4 0.0000 0.0000 0.0000 14.2812 0.0000 0.0000
# 5 0.0000 0.0000 0.0000 0.0000 16.1425 0.0000
# 6 0.0000 0.0000 0.0000 0.0000 0.0000 5.9347
#
#
#
# Elastic Compliance Matrix: (Units=1/GPa)
#
#
# Indices 1 2 3 4 5 6 
#
# 1 0.020133 -0.008023 -0.001580 0.000000 0.000000 0.000000
# 2 -0.008023 0.017836 -0.008321 0.000000 0.000000 0.000000
# 3 -0.001580 -0.008321 0.017914 0.000000 0.000000 0.000000
# 4 0.000000 0.000000 0.000000 0.070022 0.000000 0.000000
# 5 0.000000 0.000000 0.000000 0.000000 0.061948 0.000000
# 6 0.000000 0.000000 0.000000 0.000000 0.000000 0.168501
#
#
# Mechanical properties :
#
#
# Convention : Reuss Voigt Hill
#
# Bulk Modulus (GPa) = 49.91594 54.09374 52.00484
# Shear Modulus (GPa) = 12.53504 15.92403 14.22954
#
# Velocity S-wave (km/s) = 2.73016 3.07718 2.90885
# Velocity P-wave (km/s) = 6.29446 6.69264 6.49660
#
# Compressibility (1/GPa) = 0.02003368
#
# Stress axis : x y z
#
# Youngs Moduli (GPa) = 49.66894 56.06720 55.82187
#
# Poissons Ratio (x) = 0.44983 0.08821
# Poissons Ratio (y) = 0.39850 0.46452
# Poissons Ratio (z) = 0.07849 0.46656
#
# Static dielectric constant tensor:
#      x y z
#    x 3.340430 0.000000 0.000000 
#    y 0.000000 3.008810 0.000000 
#    z 0.000000 0.000000 3.122320 
# 
# 
# High freq. dielectric constant tensor:
#      x y z
#    x 1.631760 0.000000 0.000000 
#    y 0.000000 1.624380 0.000000 
#    z 0.000000 0.000000 1.632200 
# 
# From -- ./inp_files/8054.got.cif
#   From: 2010.03.12/outbox.cif.g09.slc.cpg/sg47_5_cif.got.tgz:8054.got - 2010.04.14 03:12:58.
