data_PCOD8196219
_publ_section_title
;
Structure prediction by ZEFSAII (Michael W. Deem and Ramdas Pophale) SiO2 
 PCOD8196219
Probable space group: P M M M
;
_chemical_formula_sum "Si O2"
_cell_formula_units_Z 36
_cell_length_a 8.888804
_cell_length_b 12.718338
_cell_length_c 16.696871
_cell_angle_alpha 90.000000
_cell_angle_beta 90.000000
_cell_angle_gamma 90.000000
_cell_volume 1887.594853
_symmetry_space_group_name_H-M "P M M M"
_symmetry_group_IT_number 47
_symmetry_cell_setting 'orthorhombic'
loop_
_space_group_symop_operation_xyz
x,y,z
-x,-y,z
x,-y,-z
-x,y,-z
-x,-y,-z
x,y,-z
-x,y,z
x,-y,z
loop_
_atom_site_type_symbol
_atom_site_label
_atom_site_fract_x
_atom_site_fract_y
_atom_site_fract_z
Si Si1 0.326765 0.116748 0.250941
Si Si2 0.328156 0.500000 0.094568
Si Si3 0.822253 0.167207 0.412145
Si Si4 0.173896 0.388625 0.631605
Si Si5 0.826037 0.318948 0.809955
O O1 0.500000 0.150048 0.256897
O O2 0.261356 0.107507 0.341246
O O3 0.243428 0.201280 0.194622
O O4 0.308597 0.000000 0.212949
O O5 0.500000 0.500000 0.123798
O O6 0.251406 0.392345 0.124286
O O7 0.314582 0.500000 0.000000
O O8 0.789599 0.117057 0.500000
O O9 0.760761 0.287796 0.414468
O O10 0.000000 0.164321 0.392692
O O11 0.250915 0.500000 0.605718
O O12 0.198102 0.375561 0.725884
O O13 0.000000 0.396302 0.610453
O O14 0.000000 0.306674 0.832640
#
# Coordination Sequence:
#
# PCOD8196219 Si02
#       5
#     8   4   8   8   8
#     4  10  21  36  54  76 103 141 187 231 281 336
#     4  11  23  37  57  89 126 155 174 201 253 315
#     4   9  18  30  45  69 100 136 181 233 283 327
#     4   8  13  24  44  69  96 128 170 217 265 313
#     4  10  19  34  57  83 110 141 182 226 266 312
#
# _framework density 19.071891000000001
#
# number of rings (size 3 to 8) (size 9 to 14) (size 15 to 20)
#    0.000    2.556    1.111    3.000    0.000    4.000 
#    0.000    4.444    0.000    0.667    0.000    7.778 
#    0.000    0.000    0.000    0.000    0.000    0.000 
#
# Total GULP energy -446032.659660 kJ/mol
# GULP energy per Si atom -12389.796102 kJ/mol
# Density = 1.902848 g / cm^3
# Si number density = 19.071891 Si / 1000 Ang^3
#
#
#
# Elastic Constant Matrix: (Units=GPa)
#
#
# Indices 1 2 3 4 5 6 
#
# 1 110.1994 50.0987 39.8807 0.0000 0.0000 0.0000
# 2 50.0987 134.5371 28.5070 0.0000 0.0000 0.0000
# 3 39.8807 28.5070 57.9926 0.0000 0.0000 0.0000
# 4 0.0000 0.0000 0.0000 17.2100 0.0000 0.0000
# 5 0.0000 0.0000 0.0000 0.0000 22.6410 0.0000
# 6 0.0000 0.0000 0.0000 0.0000 0.0000 27.2162
#
#
#
# Elastic Compliance Matrix: (Units=1/GPa)
#
#
# Indices 1 2 3 4 5 6 
#
# 1 0.013323 -0.003371 -0.007505 0.000000 0.000000 0.000000
# 2 -0.003371 0.009150 -0.002180 0.000000 0.000000 0.000000
# 3 -0.007505 -0.002180 0.023476 0.000000 0.000000 0.000000
# 4 0.000000 0.000000 0.000000 0.058106 0.000000 0.000000
# 5 0.000000 0.000000 0.000000 0.000000 0.044168 0.000000
# 6 0.000000 0.000000 0.000000 0.000000 0.000000 0.036743
#
#
# Mechanical properties :
#
#
# Convention : Reuss Voigt Hill
#
# Bulk Modulus (GPa) = 50.40858 59.96687 55.18772
# Shear Modulus (GPa) = 22.96855 25.69630 24.33243
#
# Velocity S-wave (km/s) = 3.47409 3.67459 3.57575
# Velocity P-wave (km/s) = 6.52538 7.03664 6.78583
#
# Compressibility (1/GPa) = 0.01983789
#
# Stress axis : x y z
#
# Youngs Moduli (GPa) = 75.05823 109.28953 42.59659
#
# Poissons Ratio (x) = 0.36841 0.31969
# Poissons Ratio (y) = 0.25302 0.09284
# Poissons Ratio (z) = 0.56331 0.23821
#
# Static dielectric constant tensor:
#      x y z
#    x 3.352920 0.000000 0.000000 
#    y 0.000000 3.779470 0.000000 
#    z 0.000000 0.000000 3.161610 
# 
# 
# High freq. dielectric constant tensor:
#      x y z
#    x 1.719460 0.000000 0.000000 
#    y 0.000000 1.760310 0.000000 
#    z 0.000000 0.000000 1.702930 
# 
# From -- ./inp_files/26150.got.cif
#   From: 2010.03.12/outbox.cif.g09.slc.cpg/sg47_14_cif.got.tgz:26150.got - 2010.04.14 03:12:58.
