data_PCOD8196940
_publ_section_title
;
Structure prediction by ZEFSAII (Michael W. Deem and Ramdas Pophale) SiO2 
 PCOD8196940
Probable space group: P M M M
;
_chemical_formula_sum "Si O2"
_cell_formula_units_Z 44
_cell_length_a 9.176876
_cell_length_b 30.009037
_cell_length_c 8.128762
_cell_angle_alpha 90.000000
_cell_angle_beta 90.000000
_cell_angle_gamma 90.000000
_cell_volume 2238.573357
_symmetry_space_group_name_H-M "P M M M"
_symmetry_group_IT_number 47
_symmetry_cell_setting 'orthorhombic'
loop_
_space_group_symop_operation_xyz
x,y,z
-x,-y,z
x,-y,-z
-x,y,-z
-x,-y,-z
x,y,-z
-x,y,z
x,-y,z
loop_
_atom_site_type_symbol
_atom_site_label
_atom_site_fract_x
_atom_site_fract_y
_atom_site_fract_z
Si Si1 0.667465 0.947349 0.000000
Si Si2 0.668733 0.269276 0.313406
Si Si3 0.667289 0.452137 0.306809
Si Si4 0.171929 0.094590 0.312714
Si Si5 0.666635 0.639176 0.189224
Si Si6 0.836889 0.811958 0.813711
O O1 0.742769 0.931643 0.170146
O O2 0.500000 0.930588 0.000000
O O3 0.676217 0.000000 0.000000
O O4 0.695552 0.255378 0.500000
O O5 0.500000 0.271677 0.265245
O O6 0.738517 0.318386 0.281558
O O7 0.737835 0.231334 0.202110
O O8 0.679835 0.446860 0.500000
O O9 0.500000 0.453613 0.249236
O O10 0.738711 0.500000 0.252388
O O11 0.745092 0.408426 0.227797
O O12 0.213483 0.078875 0.500000
O O13 0.213059 0.146960 0.300370
O O14 0.000000 0.087680 0.281467
O O15 0.500000 0.634419 0.249799
O O16 0.679196 0.650467 0.000000
O O17 0.000000 0.797286 0.766715
O O18 0.827457 0.829590 0.000000
#
# Coordination Sequence:
#
# PCOD8196940 Si02
#       6
#     4   8   8   8   8   8
#     4  11  25  43  63  91 129 167 199 241 296 349
#     4  10  20  32  47  70 101 137 175 214 261 321
#     4   8  13  21  33  49  72 107 151 197 247 304
#     4  10  21  40  66  92 119 156 203 250 294 344
#     4   9  16  25  37  55  83 119 158 203 254 308
#     4  10  20  36  58  82 110 143 180 226 277 326
#
# _framework density 19.655376
#
# number of rings (size 3 to 8) (size 9 to 14) (size 15 to 20)
#    0.000    2.455    0.909    2.455    0.000    6.909 
#    0.000    3.636    0.000    0.000    0.000    0.000 
#    0.000    0.727    0.000    7.636    0.000   10.545 
#
# Total GULP energy -545180.122910 kJ/mol
# GULP energy per Si atom -12390.457339 kJ/mol
# Density = 1.961064 g / cm^3
# Si number density = 19.655376 Si / 1000 Ang^3
#
#
#
# Elastic Constant Matrix: (Units=GPa)
#
#
# Indices 1 2 3 4 5 6 
#
# 1 43.6730 37.7407 34.5204 0.0000 0.0000 0.0000
# 2 37.7407 118.6440 48.6907 0.0000 0.0000 0.0000
# 3 34.5204 48.6907 92.8053 0.0000 0.0000 0.0000
# 4 0.0000 0.0000 0.0000 33.4312 0.0000 0.0000
# 5 0.0000 0.0000 0.0000 0.0000 18.6836 0.0000
# 6 0.0000 0.0000 0.0000 0.0000 0.0000 -8.8663
#
#
#
# Elastic Compliance Matrix: (Units=1/GPa)
#
#
# Indices 1 2 3 4 5 6 
#
# 1 0.037462 -0.007899 -0.009790 0.000000 0.000000 0.000000
# 2 -0.007899 0.012407 -0.003571 0.000000 0.000000 0.000000
# 3 -0.009790 -0.003571 0.016291 0.000000 0.000000 0.000000
# 4 0.000000 0.000000 0.000000 0.029912 0.000000 0.000000
# 5 0.000000 0.000000 0.000000 0.000000 0.053523 0.000000
# 6 0.000000 0.000000 0.000000 0.000000 0.000000 -0.112787
#
#
# Mechanical properties :
#
#
# Convention : Reuss Voigt Hill
#
# Bulk Modulus (GPa) = 42.30384 55.22510 48.76447
# Shear Modulus (GPa) = 57.33432 17.59440 37.46436
#
# Velocity S-wave (km/s) = 5.40677 2.99514 4.37058
# Velocity P-wave (km/s) = 7.78119 6.33394 7.09457
#
# Compressibility (1/GPa) = 0.02363852
#
# Stress axis : x y z
#
# Youngs Moduli (GPa) = 26.69379 80.60117 61.38507
#
# Poissons Ratio (x) = 0.63665 0.60099
# Poissons Ratio (y) = 0.21085 0.21922
# Poissons Ratio (z) = 0.26134 0.28784
#
# Static dielectric constant tensor:
#      x y z
#    x 3.097770 0.000000 0.000000 
#    y 0.000000 3.822690 0.000000 
#    z 0.000000 0.000000 3.554780 
# 
# 
# High freq. dielectric constant tensor:
#      x y z
#    x 1.696930 0.000000 0.000000 
#    y 0.000000 1.786330 0.000000 
#    z 0.000000 0.000000 1.772630 
# 
# From -- ./inp_files/2248.got.cif
#   From: 2010.03.12/outbox.cif.g09.slc.cpg/sg47_2_cif.got.tgz:2248.got - 2010.04.14 03:12:58.
