data_PCOD8196144
_publ_section_title
;
Structure prediction by ZEFSAII (Michael W. Deem and Ramdas Pophale) SiO2 
 PCOD8196144
Probable space group: P M M M
;
_chemical_formula_sum "Si O2"
_cell_formula_units_Z 48
_cell_length_a 9.337851
_cell_length_b 19.387097
_cell_length_c 14.883282
_cell_angle_alpha 90.000000
_cell_angle_beta 90.000000
_cell_angle_gamma 90.000000
_cell_volume 2694.377441
_symmetry_space_group_name_H-M "P M M M"
_symmetry_group_IT_number 47
_symmetry_cell_setting 'orthorhombic'
loop_
_space_group_symop_operation_xyz
x,y,z
-x,-y,z
x,-y,-z
-x,y,-z
-x,-y,-z
x,y,-z
-x,y,z
x,-y,z
loop_
_atom_site_type_symbol
_atom_site_label
_atom_site_fract_x
_atom_site_fract_y
_atom_site_fract_z
Si Si1 0.333037 0.817166 0.724414
Si Si2 0.162303 0.635721 0.152195
Si Si3 0.837923 0.793166 0.898545
Si Si4 0.332693 0.661781 0.676108
Si Si5 0.162804 0.920539 0.395904
Si Si6 0.346219 0.577473 0.000000
Si Si7 0.331071 0.421058 0.500000
O O1 0.500000 0.829212 0.737563
O O2 0.263546 0.826042 0.823104
O O3 0.301567 0.743910 0.676095
O O4 0.272102 0.875819 0.660827
O O5 0.167696 0.711575 0.111406
O O6 0.235466 0.627871 0.248380
O O7 0.000000 0.608882 0.159233
O O8 0.252753 0.588593 0.087509
O O9 0.000000 0.819833 0.883347
O O10 0.786450 0.812560 0.000000
O O11 0.500000 0.648041 0.695657
O O12 0.281376 0.624271 0.585201
O O13 0.198410 0.909182 0.500000
O O14 0.000000 0.897538 0.375373
O O15 0.184318 0.000000 0.369335
O O16 0.393137 0.500000 0.000000
O O17 0.500000 0.619362 0.000000
O O18 0.267530 0.500000 0.500000
O O19 0.500000 0.427310 0.500000
#
# Coordination Sequence:
#
# PCOD8196144 Si02
#       7
#     8   8   8   8   8   4   4
#     4  10  20  31  50  81 112 140 171 217 268 313
#     4  10  19  34  53  74 100 129 166 215 266 313
#     4   9  17  32  53  75 102 136 173 212 256 309
#     4   9  19  34  52  77 105 136 176 220 264 312
#     4   9  19  36  56  78 107 144 182 218 259 312
#     4  11  23  35  49  71  99 133 170 209 260 325
#     4   9  18  34  55  73  96 137 182 220 259 309
#
# _framework density 17.814876000000002
#
# number of rings (size 3 to 8) (size 9 to 14) (size 15 to 20)
#    0.000    2.500    0.833    1.750    1.167    3.667 
#    0.000    2.917    0.000    1.000    0.000    3.500 
#    0.000    0.000    0.000    0.000    0.000    0.000 
#
# Total GULP energy -594997.622979 kJ/mol
# GULP energy per Si atom -12395.783812 kJ/mol
# Density = 1.777433 g / cm^3
# Si number density = 17.814876 Si / 1000 Ang^3
#
#
#
# Elastic Constant Matrix: (Units=GPa)
#
#
# Indices 1 2 3 4 5 6 
#
# 1 111.8235 44.8339 78.5890 0.0000 0.0000 0.0000
# 2 44.8339 64.8034 61.1622 0.0000 0.0000 0.0000
# 3 78.5890 61.1622 150.9656 0.0000 0.0000 0.0000
# 4 0.0000 0.0000 0.0000 41.2283 0.0000 0.0000
# 5 0.0000 0.0000 0.0000 0.0000 -25.7258 0.0000
# 6 0.0000 0.0000 0.0000 0.0000 0.0000 21.4074
#
#
#
# Elastic Compliance Matrix: (Units=1/GPa)
#
#
# Indices 1 2 3 4 5 6 
#
# 1 0.014994 -0.004868 -0.005833 0.000000 0.000000 0.000000
# 2 -0.004868 0.026565 -0.008229 0.000000 0.000000 0.000000
# 3 -0.005833 -0.008229 0.012994 0.000000 0.000000 0.000000
# 4 0.000000 0.000000 0.000000 0.024255 0.000000 0.000000
# 5 0.000000 0.000000 0.000000 0.000000 -0.038872 0.000000
# 6 0.000000 0.000000 0.000000 0.000000 0.000000 0.046713
#
#
# Mechanical properties :
#
#
# Convention : Reuss Voigt Hill
#
# Bulk Modulus (GPa) = 59.90130 77.41808 68.65969
# Shear Modulus (GPa) = 38.43944 16.91581 27.67763
#
# Velocity S-wave (km/s) = 4.65016 3.08479 3.94588
# Velocity P-wave (km/s) = 7.90755 7.49928 7.70612
#
# Compressibility (1/GPa) = 0.01669413
#
# Stress axis : x y z
#
# Youngs Moduli (GPa) = 66.69320 37.64301 76.95629
#
# Poissons Ratio (x) = 0.18325 0.44891
# Poissons Ratio (y) = 0.32466 0.63324
# Poissons Ratio (z) = 0.38904 0.30975
#
# Static dielectric constant tensor:
#      x y z
#    x 3.325560 0.000000 0.000000 
#    y 0.000000 3.079780 0.000000 
#    z 0.000000 0.000000 3.495320 
# 
# 
# High freq. dielectric constant tensor:
#      x y z
#    x 1.690790 0.000000 0.000000 
#    y 0.000000 1.663590 0.000000 
#    z 0.000000 0.000000 1.696770 
# 
# From -- ./inp_files/6490.got.cif
#   From: 2010.03.12/outbox.cif.g09.slc.cpg/sg47_4_cif.got.tgz:6490.got - 2010.04.14 03:12:58.
