data_PCOD8196784
_publ_section_title
;
Structure prediction by ZEFSAII (Michael W. Deem and Ramdas Pophale) SiO2 
 PCOD8196784
Probable space group: P M M M
;
_chemical_formula_sum "Si O2"
_cell_formula_units_Z 64
_cell_length_a 30.937386
_cell_length_b 9.155936
_cell_length_c 14.215466
_cell_angle_alpha 90.000000
_cell_angle_beta 90.000000
_cell_angle_gamma 90.000000
_cell_volume 4026.683223
_symmetry_space_group_name_H-M "P M M M"
_symmetry_group_IT_number 47
_symmetry_cell_setting 'orthorhombic'
loop_
_space_group_symop_operation_xyz
x,y,z
-x,-y,z
x,-y,-z
-x,y,-z
-x,-y,-z
x,y,-z
-x,y,z
x,-y,z
loop_
_atom_site_type_symbol
_atom_site_label
_atom_site_fract_x
_atom_site_fract_y
_atom_site_fract_z
Si Si1 0.185662 0.830279 0.893709
Si Si2 0.912964 0.173148 0.898385
Si Si3 0.547668 0.835874 0.388140
Si Si4 0.629405 0.663959 0.387919
Si Si5 0.048672 0.827134 0.293171
Si Si6 0.875917 0.668675 0.607885
Si Si7 0.713710 0.832936 0.388443
Si Si8 0.789972 0.672904 0.284302
O O1 0.136315 0.777022 0.884288
O O2 0.213736 0.734125 0.821728
O O3 0.190170 0.000000 0.866767
O O4 0.202410 0.802956 0.000000
O O5 0.941545 0.233423 0.812235
O O6 0.914915 0.000000 0.900801
O O7 0.930030 0.232802 0.000000
O O8 0.549934 0.836057 0.500000
O O9 0.500000 0.781244 0.355513
O O10 0.584748 0.730526 0.346928
O O11 0.555877 0.000000 0.351034
O O12 0.628198 0.663352 0.500000
O O13 0.634608 0.500000 0.348684
O O14 0.669150 0.761909 0.351876
O O15 0.081164 0.758305 0.367798
O O16 0.000000 0.781794 0.320361
O O17 0.054830 0.000000 0.296229
O O18 0.863569 0.698689 0.500000
O O19 0.886251 0.500000 0.626009
O O20 0.835868 0.720828 0.671426
O O21 0.716927 0.823000 0.500000
O O22 0.752982 0.742547 0.346884
O O23 0.715384 0.000000 0.353762
O O24 0.784036 0.500000 0.284644
#
# Coordination Sequence:
#
# PCOD8196784 Si02
#       8
#     8   8   8   8   8   8   8   8
#     4   9  17  31  52  74  95 119 145 173 208 257
#     4   8  14  27  48  72  96 118 138 165 204 250
#     4   8  13  21  33  49  71 103 145 191 235 277
#     4   9  16  25  37  54  79 110 145 189 236 277
#     4  10  20  33  51  74  95 114 142 180 215 251
#     4  10  22  38  52  66  87 118 150 179 216 261
#     4  10  20  32  46  64  87 118 154 190 231 277
#     4  11  21  33  51  72  93 115 144 185 225 265
#
# _framework density 15.893974999999999
#
# number of rings (size 3 to 8) (size 9 to 14) (size 15 to 20)
#    0.000    2.625    1.250    2.625    0.000    4.750 
#    0.000    3.750    0.000    0.375    0.000    0.875 
#    0.000    0.000    0.000    0.000    0.000    0.625 
#
# Total GULP energy -793387.282076 kJ/mol
# GULP energy per Si atom -12396.676282 kJ/mol
# Density = 1.585780 g / cm^3
# Si number density = 15.893975 Si / 1000 Ang^3
#
#
#
# Elastic Constant Matrix: (Units=GPa)
#
#
# Indices 1 2 3 4 5 6 
#
# 1 100.1801 51.5293 22.6730 0.0000 0.0000 0.0000
# 2 51.5293 78.2278 26.5199 0.0000 0.0000 0.0000
# 3 22.6730 26.5199 48.5236 0.0000 0.0000 0.0000
# 4 0.0000 0.0000 0.0000 17.8913 0.0000 0.0000
# 5 0.0000 0.0000 0.0000 0.0000 3.1356 0.0000
# 6 0.0000 0.0000 0.0000 0.0000 0.0000 26.4845
#
#
#
# Elastic Compliance Matrix: (Units=1/GPa)
#
#
# Indices 1 2 3 4 5 6 
#
# 1 0.015255 -0.009368 -0.002008 0.000000 0.000000 0.000000
# 2 -0.009368 0.021443 -0.007342 0.000000 0.000000 0.000000
# 3 -0.002008 -0.007342 0.025560 0.000000 0.000000 0.000000
# 4 0.000000 0.000000 0.000000 0.055893 0.000000 0.000000
# 5 0.000000 0.000000 0.000000 0.000000 0.318918 0.000000
# 6 0.000000 0.000000 0.000000 0.000000 0.000000 0.037758
#
#
# Mechanical properties :
#
#
# Convention : Reuss Voigt Hill
#
# Bulk Modulus (GPa) = 40.28806 47.59734 43.94270
# Shear Modulus (GPa) = 9.60549 17.91624 13.76086
#
# Velocity S-wave (km/s) = 2.46102 3.36107 2.94563
# Velocity P-wave (km/s) = 5.78606 6.71373 6.26709
#
# Compressibility (1/GPa) = 0.02482125
#
# Stress axis : x y z
#
# Youngs Moduli (GPa) = 65.55225 46.63555 39.12426
#
# Poissons Ratio (x) = 0.43687 0.07857
# Poissons Ratio (y) = 0.61408 0.28726
# Poissons Ratio (z) = 0.13164 0.34240
#
# Static dielectric constant tensor:
#      x y z
#    x 3.075770 0.000000 0.000000 
#    y 0.000000 2.991750 0.000000 
#    z 0.000000 0.000000 2.879410 
# 
# 
# High freq. dielectric constant tensor:
#      x y z
#    x 1.603100 0.000000 0.000000 
#    y 0.000000 1.605530 0.000000 
#    z 0.000000 0.000000 1.572540 
# 
# From -- ./inp_files/25883.got.cif
#   From: 2010.03.12/outbox.cif.g09.slc.cpg/sg47_13_cif.got.tgz:25883.got - 2010.04.14 03:12:58.
