data_PCOD8196091
_publ_section_title
;
Structure prediction by ZEFSAII (Michael W. Deem and Ramdas Pophale) SiO2 
 PCOD8196091
Probable space group: P M M M
;
_chemical_formula_sum "Si O2"
_cell_formula_units_Z 40
_cell_length_a 9.119018
_cell_length_b 11.931112
_cell_length_c 20.322377
_cell_angle_alpha 90.000000
_cell_angle_beta 90.000000
_cell_angle_gamma 90.000000
_cell_volume 2211.075127
_symmetry_space_group_name_H-M "P M M M"
_symmetry_group_IT_number 47
_symmetry_cell_setting 'orthorhombic'
loop_
_space_group_symop_operation_xyz
x,y,z
-x,-y,z
x,-y,-z
-x,y,-z
-x,-y,-z
x,y,-z
-x,y,z
x,-y,z
loop_
_atom_site_type_symbol
_atom_site_label
_atom_site_fract_x
_atom_site_fract_y
_atom_site_fract_z
Si Si1 0.830370 0.000000 0.736914
Si Si2 0.831133 0.214478 0.074654
Si Si3 0.173948 0.375145 0.189017
Si Si4 0.171174 0.240156 0.685167
Si Si5 0.672071 0.373656 0.575165
Si Si6 0.325975 0.000000 0.875195
O O1 0.794524 0.108640 0.693155
O O2 0.731036 0.000000 0.801033
O O3 0.000000 0.000000 0.759811
O O4 0.776102 0.313746 0.122235
O O5 0.730864 0.107180 0.085582
O O6 0.000000 0.182472 0.090477
O O7 0.814020 0.257101 0.000000
O O8 0.241866 0.500000 0.189780
O O9 0.234438 0.306356 0.251567
O O10 0.000000 0.381220 0.192117
O O11 0.248001 0.282687 0.619582
O O12 0.000000 0.263085 0.677644
O O13 0.716748 0.349730 0.500000
O O14 0.500000 0.359887 0.584806
O O15 0.720249 0.500000 0.594831
O O16 0.500000 0.000000 0.874680
#
# Coordination Sequence:
#
# PCOD8196091 Si02
#       6
#     4   8   8   8   8   4
#     4  10  20  37  58  79 108 141 174 215 266 322
#     4  10  20  35  55  76 104 143 179 215 267 325
#     4   9  17  30  51  80 108 133 170 220 267 312
#     4  10  19  33  56  81 107 138 175 223 268 308
#     4   9  19  36  56  79 111 148 180 213 256 308
#     4  12  23  35  54  78 105 135 176 230 271 308
#
# _framework density 18.090745999999999
#
# number of rings (size 3 to 8) (size 9 to 14) (size 15 to 20)
#    0.000    2.200    2.000    2.400    0.000    4.400 
#    0.000    3.500    0.000    3.600    0.000    1.400 
#    0.000    0.000    0.000    0.000    0.000    0.000 
#
# Total GULP energy -496050.755399 kJ/mol
# GULP energy per Si atom -12401.268885 kJ/mol
# Density = 1.804957 g / cm^3
# Si number density = 18.090746 Si / 1000 Ang^3
#
#
#
# Elastic Constant Matrix: (Units=GPa)
#
#
# Indices 1 2 3 4 5 6 
#
# 1 51.3682 37.9963 40.3565 0.0000 0.0000 0.0000
# 2 37.9963 157.1456 77.5279 0.0000 0.0000 0.0000
# 3 40.3565 77.5279 132.9141 0.0000 0.0000 0.0000
# 4 0.0000 0.0000 0.0000 37.7698 0.0000 0.0000
# 5 0.0000 0.0000 0.0000 0.0000 19.6415 0.0000
# 6 0.0000 0.0000 0.0000 0.0000 0.0000 14.4482
#
#
#
# Elastic Compliance Matrix: (Units=1/GPa)
#
#
# Indices 1 2 3 4 5 6 
#
# 1 0.026847 -0.003468 -0.006129 0.000000 0.000000 0.000000
# 2 -0.003468 0.009383 -0.004420 0.000000 0.000000 0.000000
# 3 -0.006129 -0.004420 0.011963 0.000000 0.000000 0.000000
# 4 0.000000 0.000000 0.000000 0.026476 0.000000 0.000000
# 5 0.000000 0.000000 0.000000 0.000000 0.050913 0.000000
# 6 0.000000 0.000000 0.000000 0.000000 0.000000 0.069213
#
#
# Mechanical properties :
#
#
# Convention : Reuss Voigt Hill
#
# Bulk Modulus (GPa) = 49.60435 72.57660 61.09047
# Shear Modulus (GPa) = 21.78201 26.74171 24.26186
#
# Velocity S-wave (km/s) = 3.47369 3.84891 3.66610
# Velocity P-wave (km/s) = 6.60061 7.74321 7.19463
#
# Compressibility (1/GPa) = 0.02015952
#
# Stress axis : x y z
#
# Youngs Moduli (GPa) = 37.24757 106.58095 83.59356
#
# Poissons Ratio (x) = 0.36960 0.51234
# Poissons Ratio (y) = 0.12917 0.36947
# Poissons Ratio (z) = 0.22829 0.47107
#
# Static dielectric constant tensor:
#      x y z
#    x 3.013890 0.000000 0.000000 
#    y 0.000000 3.527920 0.000000 
#    z 0.000000 0.000000 3.362900 
# 
# 
# High freq. dielectric constant tensor:
#      x y z
#    x 1.668420 0.000000 0.000000 
#    y 0.000000 1.705760 0.000000 
#    z 0.000000 0.000000 1.705410 
# 
# From -- ./inp_files/4080.got.cif
#   From: 2010.03.12/outbox.cif.g09.slc.cpg/sg47_3_cif.got.tgz:4080.got - 2010.04.14 03:12:58.
