data_PCOD8196334
_publ_section_title
;
Structure prediction by ZEFSAII (Michael W. Deem and Ramdas Pophale) SiO2 
 PCOD8196334
Probable space group: P M M M
;
_chemical_formula_sum "Si O2"
_cell_formula_units_Z 48
_cell_length_a 7.996948
_cell_length_b 15.616207
_cell_length_c 19.000551
_cell_angle_alpha 90.000000
_cell_angle_beta 90.000000
_cell_angle_gamma 90.000000
_cell_volume 2372.826721
_symmetry_space_group_name_H-M "P M M M"
_symmetry_group_IT_number 47
_symmetry_cell_setting 'orthorhombic'
loop_
_space_group_symop_operation_xyz
x,y,z
-x,-y,z
x,-y,-z
-x,y,-z
-x,-y,-z
x,y,-z
-x,y,z
x,-y,z
loop_
_atom_site_type_symbol
_atom_site_label
_atom_site_fract_x
_atom_site_fract_y
_atom_site_fract_z
Si Si1 0.694909 0.406556 0.334874
Si Si2 0.000000 0.900402 0.922850
Si Si3 0.303490 0.641918 0.815848
Si Si4 0.807806 0.752617 0.578215
Si Si5 0.300491 0.500000 0.921035
Si Si6 0.694562 0.903057 0.324343
Si Si7 0.695394 0.161651 0.168564
O O1 0.500000 0.413835 0.322734
O O2 0.763633 0.500000 0.360744
O O3 0.778064 0.384214 0.259191
O O4 0.722769 0.331486 0.390350
O O5 0.174268 0.878388 0.885148
O O6 0.000000 0.000000 0.932413
O O7 0.000000 0.856169 0.000000
O O8 0.500000 0.628481 0.811054
O O9 0.233034 0.583336 0.879128
O O10 0.258514 0.739124 0.831087
O O11 0.734039 0.768863 0.500000
O O12 0.786190 0.837910 0.624031
O O13 0.000000 0.730176 0.573838
O O14 0.500000 0.500000 0.925076
O O15 0.225210 0.500000 0.000000
O O16 0.500000 0.894816 0.340344
O O17 0.732509 0.879045 0.244226
O O18 0.758075 0.000000 0.338367
O O19 0.500000 0.145537 0.146940
#
# Coordination Sequence:
#
# PCOD8196334 Si02
#       7
#     8   4   8   8   4   8   8
#     4  10  19  35  61  87 114 151 199 252 301 354
#     4  11  26  44  62  89 124 164 207 255 316 374
#     4   9  16  30  55  85 117 154 193 242 299 356
#     4  11  25  41  57  83 121 162 202 249 306 369
#     4   9  16  26  46  83 124 155 189 234 291 362
#     4  10  21  38  63  93 120 152 198 254 313 370
#     4  10  21  39  65  94 123 158 208 260 307 368
#
# _framework density 20.229039
#
# number of rings (size 3 to 8) (size 9 to 14) (size 15 to 20)
#    0.000    2.000    2.500    1.000    1.167    4.667 
#    0.000    5.833    0.000    0.500    0.000    1.167 
#    0.000    0.000    0.000    0.000    0.000    0.000 
#
# Total GULP energy -594944.341685 kJ/mol
# GULP energy per Si atom -12394.673785 kJ/mol
# Density = 2.018300 g / cm^3
# Si number density = 20.229039 Si / 1000 Ang^3
#
#
#
# Elastic Constant Matrix: (Units=GPa)
#
#
# Indices 1 2 3 4 5 6 
#
# 1 49.1845 25.7497 35.5347 0.0000 0.0000 0.0000
# 2 25.7497 149.9424 60.9916 0.0000 0.0000 0.0000
# 3 35.5347 60.9916 131.7433 0.0000 0.0000 0.0000
# 4 0.0000 0.0000 0.0000 40.3322 0.0000 0.0000
# 5 0.0000 0.0000 0.0000 0.0000 3.8970 0.0000
# 6 0.0000 0.0000 0.0000 0.0000 0.0000 10.8898
#
#
#
# Elastic Compliance Matrix: (Units=1/GPa)
#
#
# Indices 1 2 3 4 5 6 
#
# 1 0.025714 -0.001965 -0.006026 0.000000 0.000000 0.000000
# 2 -0.001965 0.008367 -0.003343 0.000000 0.000000 0.000000
# 3 -0.006026 -0.003343 0.010764 0.000000 0.000000 0.000000
# 4 0.000000 0.000000 0.000000 0.024794 0.000000 0.000000
# 5 0.000000 0.000000 0.000000 0.000000 0.256610 0.000000
# 6 0.000000 0.000000 0.000000 0.000000 0.000000 0.091829
#
#
# Mechanical properties :
#
#
# Convention : Reuss Voigt Hill
#
# Bulk Modulus (GPa) = 45.09416 63.93578 54.51497
# Shear Modulus (GPa) = 11.15727 24.93006 18.04366
#
# Velocity S-wave (km/s) = 2.35105 3.51435 2.98982
# Velocity P-wave (km/s) = 5.45070 6.93845 6.23908
#
# Compressibility (1/GPa) = 0.02217582
#
# Stress axis : x y z
#
# Youngs Moduli (GPa) = 38.88938 119.52242 92.90357
#
# Poissons Ratio (x) = 0.23481 0.55986
# Poissons Ratio (y) = 0.07640 0.31062
# Poissons Ratio (z) = 0.23436 0.39962
#
# Static dielectric constant tensor:
#      x y z
#    x 3.376040 0.000000 0.000000 
#    y 0.000000 3.994890 0.000000 
#    z 0.000000 0.000000 3.903690 
# 
# 
# High freq. dielectric constant tensor:
#      x y z
#    x 1.765530 0.000000 0.000000 
#    y 0.000000 1.806580 0.000000 
#    z 0.000000 0.000000 1.787880 
# 
# From -- ./inp_files/26534.got.cif
#   From: 2010.03.12/outbox.cif.g09.slc.cpg/sg47_14_cif.got.tgz:26534.got - 2010.04.14 03:12:58.
