data_PCOD8196981
_publ_section_title
;
Structure prediction by ZEFSAII (Michael W. Deem and Ramdas Pophale) SiO2 
 PCOD8196981
Probable space group: P M M M
;
_chemical_formula_sum "Si O2"
_cell_formula_units_Z 52
_cell_length_a 14.852307
_cell_length_b 9.118817
_cell_length_c 22.394106
_cell_angle_alpha 90.000000
_cell_angle_beta 90.000000
_cell_angle_gamma 90.000000
_cell_volume 3032.956262
_symmetry_space_group_name_H-M "P M M M"
_symmetry_group_IT_number 47
_symmetry_cell_setting 'orthorhombic'
loop_
_space_group_symop_operation_xyz
x,y,z
-x,-y,z
x,-y,-z
-x,y,-z
-x,-y,-z
x,y,-z
-x,y,z
x,-y,z
loop_
_atom_site_type_symbol
_atom_site_label
_atom_site_fract_x
_atom_site_fract_y
_atom_site_fract_z
Si Si1 0.293759 0.166672 0.718563
Si Si2 0.900731 0.166820 0.245822
Si Si3 0.500000 0.173404 0.068638
Si Si4 0.327341 0.829444 0.856193
Si Si5 0.604266 0.328916 0.617080
Si Si6 0.607081 0.834315 0.500000
Si Si7 0.000000 0.841497 0.932634
Si Si8 0.147671 0.673159 0.871018
O O1 0.185831 0.197045 0.712181
O O2 0.332993 0.196511 0.784833
O O3 0.342335 0.278833 0.675158
O O4 0.315865 0.000000 0.699501
O O5 0.895554 0.278965 0.191588
O O6 0.000000 0.187281 0.277069
O O7 0.890796 0.000000 0.221787
O O8 0.414655 0.226090 0.107657
O O9 0.500000 0.000000 0.064605
O O10 0.500000 0.236596 0.000000
O O11 0.247684 0.731201 0.881576
O O12 0.307998 0.000000 0.869048
O O13 0.500000 0.289966 0.627030
O O14 0.619049 0.500000 0.606891
O O15 0.643560 0.246690 0.558977
O O16 0.500000 0.828239 0.500000
O O17 0.643577 0.000000 0.500000
O O18 0.087752 0.744660 0.921709
O O19 0.000000 0.000000 0.897345
O O20 0.000000 0.885501 0.000000
O O21 0.146301 0.500000 0.875937
#
# Coordination Sequence:
#
# PCOD8196981 Si02
#       8
#     8   8   4   8   8   4   4   8
#     4   9  18  30  48  75 102 132 171 212 252 300
#     4   9  17  32  54  74  98 131 166 204 250 304
#     4   9  18  34  57  79  95 122 173 224 257 297
#     4   9  19  35  54  75 100 132 171 215 259 305
#     4  10  20  32  47  71 106 143 175 210 253 301
#     4   9  17  31  51  73  98 135 178 215 249 294
#     4  11  23  37  53  71  93 125 163 200 243 302
#     4  11  21  33  51  75 101 126 154 198 254 311
#
# _framework density 17.144988999999999
#
# number of rings (size 3 to 8) (size 9 to 14) (size 15 to 20)
#    0.000    2.385    0.769    3.231    1.077    5.538 
#    0.000    1.923    0.000    0.462    0.000    0.538 
#    0.000    4.308    0.000    0.000    0.000    0.000 
#
# Total GULP energy -644482.363839 kJ/mol
# GULP energy per Si atom -12393.891612 kJ/mol
# Density = 1.710597 g / cm^3
# Si number density = 17.144989 Si / 1000 Ang^3
#
#
#
# Elastic Constant Matrix: (Units=GPa)
#
#
# Indices 1 2 3 4 5 6 
#
# 1 119.3366 55.6356 55.0398 0.0000 0.0000 0.0000
# 2 55.6356 109.0636 45.6790 0.0000 0.0000 0.0000
# 3 55.0398 45.6790 87.6440 0.0000 0.0000 0.0000
# 4 0.0000 0.0000 0.0000 7.0018 0.0000 0.0000
# 5 0.0000 0.0000 0.0000 0.0000 9.8637 0.0000
# 6 0.0000 0.0000 0.0000 0.0000 0.0000 33.4506
#
#
#
# Elastic Compliance Matrix: (Units=1/GPa)
#
#
# Indices 1 2 3 4 5 6 
#
# 1 0.013114 -0.004145 -0.006075 0.000000 0.000000 0.000000
# 2 -0.004145 0.013040 -0.004193 0.000000 0.000000 0.000000
# 3 -0.006075 -0.004193 0.017410 0.000000 0.000000 0.000000
# 4 0.000000 0.000000 0.000000 0.142820 0.000000 0.000000
# 5 0.000000 0.000000 0.000000 0.000000 0.101382 0.000000
# 6 0.000000 0.000000 0.000000 0.000000 0.000000 0.029895
#
#
# Mechanical properties :
#
#
# Convention : Reuss Voigt Hill
#
# Bulk Modulus (GPa) = 67.85463 69.86143 68.85803
# Shear Modulus (GPa) = 14.22880 20.70922 17.46901
#
# Velocity S-wave (km/s) = 2.88394 3.47924 3.19548
# Velocity P-wave (km/s) = 7.12407 7.54825 7.33922
#
# Compressibility (1/GPa) = 0.01473739
#
# Stress axis : x y z
#
# Youngs Moduli (GPa) = 76.25324 76.68886 57.43775
#
# Poissons Ratio (x) = 0.31791 0.34894
# Poissons Ratio (y) = 0.31610 0.24083
# Poissons Ratio (z) = 0.46324 0.32154
#
# Static dielectric constant tensor:
#      x y z
#    x 3.408900 0.000000 0.000000 
#    y 0.000000 3.116730 0.000000 
#    z 0.000000 0.000000 3.028760 
# 
# 
# High freq. dielectric constant tensor:
#      x y z
#    x 1.659070 0.000000 0.000000 
#    y 0.000000 1.659790 0.000000 
#    z 0.000000 0.000000 1.635610 
# 
# From -- ./inp_files/30939.got.cif
#   From: 2010.03.12/outbox.cif.g09.slc.cpg/sg47_16_cif.got.tgz:30939.got - 2010.04.14 03:12:58.
