data_PCOD8196932
_publ_section_title
;
Structure prediction by ZEFSAII (Michael W. Deem and Ramdas Pophale) SiO2 
 PCOD8196932
Probable space group: P M M M
;
_chemical_formula_sum "Si O2"
_cell_formula_units_Z 44
_cell_length_a 9.348268
_cell_length_b 29.958332
_cell_length_c 7.876155
_cell_angle_alpha 90.000000
_cell_angle_beta 90.000000
_cell_angle_gamma 90.000000
_cell_volume 2205.784284
_symmetry_space_group_name_H-M "P M M M"
_symmetry_group_IT_number 47
_symmetry_cell_setting 'orthorhombic'
loop_
_space_group_symop_operation_xyz
x,y,z
-x,-y,z
x,-y,-z
-x,y,-z
-x,-y,-z
x,y,-z
-x,y,z
x,-y,z
loop_
_atom_site_type_symbol
_atom_site_label
_atom_site_fract_x
_atom_site_fract_y
_atom_site_fract_z
Si Si1 0.837888 0.858240 0.807323
Si Si2 0.343893 0.778167 0.694891
Si Si3 0.664520 0.447236 0.000000
Si Si4 0.830776 0.048004 0.306343
Si Si5 0.169324 0.598420 0.303554
Si Si6 0.157242 0.300847 0.700170
O O1 0.741393 0.824375 0.703070
O O2 0.773786 0.908641 0.794216
O O3 0.000000 0.856814 0.734484
O O4 0.834848 0.842520 0.000000
O O5 0.365231 0.766015 0.500000
O O6 0.500000 0.783237 0.782245
O O7 0.260388 0.736699 0.782389
O O8 0.742941 0.431578 0.172167
O O9 0.670815 0.500000 0.000000
O O10 0.500000 0.430362 0.000000
O O11 0.782680 0.053656 0.500000
O O12 0.000000 0.046465 0.289573
O O13 0.770888 0.000000 0.236249
O O14 0.209073 0.586594 0.500000
O O15 0.213300 0.649415 0.261199
O O16 0.000000 0.591364 0.276297
O O17 0.145236 0.293930 0.500000
O O18 0.000000 0.294244 0.781146
#
# Coordination Sequence:
#
# PCOD8196932 Si02
#       6
#     8   8   4   8   8   8
#     4  10  20  32  47  70 100 134 170 206 251 308
#     4  10  20  33  51  75 102 135 174 214 259 312
#     4  11  25  41  57  85 125 165 203 241 288 349
#     4   8  14  26  46  71  95 120 156 205 258 308
#     4   9  19  38  64  91 117 150 196 249 301 349
#     4   8  15  31  56  83 108 135 173 222 274 326
#
# _framework density 19.947554
#
# number of rings (size 3 to 8) (size 9 to 14) (size 15 to 20)
#    0.000    2.818    0.000    3.000    0.000    4.727 
#    1.636    5.455    0.000    0.545    0.000    3.818 
#    0.000    0.000    0.000    0.000    0.000    0.000 
#
# Total GULP energy -545196.305289 kJ/mol
# GULP energy per Si atom -12390.825120 kJ/mol
# Density = 1.990215 g / cm^3
# Si number density = 19.947554 Si / 1000 Ang^3
#
#
#
# Elastic Constant Matrix: (Units=GPa)
#
#
# Indices 1 2 3 4 5 6 
#
# 1 98.0973 64.5586 34.2568 0.0000 0.0000 0.0000
# 2 64.5586 131.2533 34.3259 0.0000 0.0000 0.0000
# 3 34.2568 34.3259 61.9794 0.0000 0.0000 0.0000
# 4 0.0000 0.0000 0.0000 7.4801 0.0000 0.0000
# 5 0.0000 0.0000 0.0000 0.0000 14.5928 0.0000
# 6 0.0000 0.0000 0.0000 0.0000 0.0000 6.9836
#
#
#
# Elastic Compliance Matrix: (Units=1/GPa)
#
#
# Indices 1 2 3 4 5 6 
#
# 1 0.016488 -0.006697 -0.005405 0.000000 0.000000 0.000000
# 2 -0.006697 0.011629 -0.002739 0.000000 0.000000 0.000000
# 3 -0.005405 -0.002739 0.020639 0.000000 0.000000 0.000000
# 4 0.000000 0.000000 0.000000 0.133689 0.000000 0.000000
# 5 0.000000 0.000000 0.000000 0.000000 0.068527 0.000000
# 6 0.000000 0.000000 0.000000 0.000000 0.000000 0.143192
#
#
# Mechanical properties :
#
#
# Convention : Reuss Voigt Hill
#
# Bulk Modulus (GPa) = 52.42381 61.95696 57.19039
# Shear Modulus (GPa) = 11.62242 16.35721 13.98982
#
# Velocity S-wave (km/s) = 2.41643 2.86669 2.65114
# Velocity P-wave (km/s) = 5.84152 6.48726 6.17284
#
# Compressibility (1/GPa) = 0.01907530
#
# Stress axis : x y z
#
# Youngs Moduli (GPa) = 60.64878 85.99179 48.45293
#
# Poissons Ratio (x) = 0.57585 0.26187
# Poissons Ratio (y) = 0.40614 0.13272
# Poissons Ratio (z) = 0.32778 0.23555
#
# Static dielectric constant tensor:
#      x y z
#    x 3.657250 0.000000 0.000000 
#    y 0.000000 3.506480 0.000000 
#    z 0.000000 0.000000 3.352770 
# 
# 
# High freq. dielectric constant tensor:
#      x y z
#    x 1.745370 0.000000 0.000000 
#    y 0.000000 1.790310 0.000000 
#    z 0.000000 0.000000 1.756910 
# 
# From -- ./inp_files/1973.got.cif
#   From: 2010.03.12/outbox.cif.g09.slc.cpg/sg47_1_cif.got.tgz:1973.got - 2010.04.14 03:12:58.
