data_PCOD8196400
_publ_section_title
;
Structure prediction by ZEFSAII (Michael W. Deem and Ramdas Pophale) SiO2 
 PCOD8196400
Probable space group: P M M M
;
_chemical_formula_sum "Si O2"
_cell_formula_units_Z 52
_cell_length_a 14.272982
_cell_length_b 22.044303
_cell_length_c 9.288415
_cell_angle_alpha 90.000000
_cell_angle_beta 90.000000
_cell_angle_gamma 90.000000
_cell_volume 2922.487761
_symmetry_space_group_name_H-M "P M M M"
_symmetry_group_IT_number 47
_symmetry_cell_setting 'orthorhombic'
loop_
_space_group_symop_operation_xyz
x,y,z
-x,-y,z
x,-y,-z
-x,y,-z
-x,-y,-z
x,y,-z
-x,y,z
x,-y,z
loop_
_atom_site_type_symbol
_atom_site_label
_atom_site_fract_x
_atom_site_fract_y
_atom_site_fract_z
Si Si1 0.891454 0.819251 0.665597
Si Si2 0.225251 0.933345 0.667067
Si Si3 0.389517 0.571161 0.500000
Si Si4 0.728707 0.340527 0.340837
Si Si5 0.605219 0.890782 0.167111
Si Si6 0.391861 0.751038 0.836711
Si Si7 0.892335 0.697257 0.170038
O O1 0.865210 0.804913 0.500000
O O2 0.840816 0.879585 0.725781
O O3 0.862977 0.762463 0.765124
O O4 0.000000 0.833332 0.681688
O O5 0.243193 0.923054 0.500000
O O6 0.325176 0.932560 0.744171
O O7 0.179770 0.000000 0.695310
O O8 0.372806 0.500000 0.500000
O O9 0.500000 0.587285 0.500000
O O10 0.337819 0.599582 0.358000
O O11 0.761795 0.319491 0.500000
O O12 0.668220 0.287536 0.272588
O O13 0.822059 0.352010 0.243402
O O14 0.500000 0.907867 0.213149
O O15 0.625373 0.820710 0.202277
O O16 0.620244 0.903849 0.000000
O O17 0.500000 0.733763 0.817525
O O18 0.359824 0.737187 0.000000
O O19 0.000000 0.680847 0.208636
O O20 0.876801 0.698200 0.000000
#
# Coordination Sequence:
#
# PCOD8196400 Si02
#       7
#     8   8   4   8   8   8   8
#     4   9  18  33  53  75 102 133 166 208 260 317
#     4  10  21  34  47  66  92 124 167 213 257 307
#     4   9  20  38  57  81 115 151 183 216 252 290
#     4  10  20  30  53  81 107 141 180 216 252 302
#     4   9  19  34  49  66  91 125 162 204 260 319
#     4   9  17  30  49  75 106 133 163 212 271 326
#     4  10  20  34  53  80 113 142 170 213 271 325
#
# _framework density 17.793061000000002
#
# number of rings (size 3 to 8) (size 9 to 14) (size 15 to 20)
#    0.462    2.077    0.000    3.231    0.000    5.846 
#    0.000    4.615    0.000    2.769    0.000    9.692 
#    0.000    0.000    0.000    0.000    0.000    0.000 
#
# Total GULP energy -644513.080963 kJ/mol
# GULP energy per Si atom -12394.482326 kJ/mol
# Density = 1.775256 g / cm^3
# Si number density = 17.793061 Si / 1000 Ang^3
#
#
#
# Elastic Constant Matrix: (Units=GPa)
#
#
# Indices 1 2 3 4 5 6 
#
# 1 95.9025 54.6643 40.9211 0.0000 0.0000 0.0000
# 2 54.6643 64.8753 32.8660 0.0000 0.0000 0.0000
# 3 40.9211 32.8660 71.6766 0.0000 0.0000 0.0000
# 4 0.0000 0.0000 0.0000 10.2935 0.0000 0.0000
# 5 0.0000 0.0000 0.0000 0.0000 34.4455 0.0000
# 6 0.0000 0.0000 0.0000 0.0000 0.0000 22.6666
#
#
#
# Elastic Compliance Matrix: (Units=1/GPa)
#
#
# Indices 1 2 3 4 5 6 
#
# 1 0.021431 -0.015448 -0.005152 0.000000 0.000000 0.000000
# 2 -0.015448 0.031213 -0.005493 0.000000 0.000000 0.000000
# 3 -0.005152 -0.005493 0.019411 0.000000 0.000000 0.000000
# 4 0.000000 0.000000 0.000000 0.097149 0.000000 0.000000
# 5 0.000000 0.000000 0.000000 0.000000 0.029031 0.000000
# 6 0.000000 0.000000 0.000000 0.000000 0.000000 0.044118
#
#
# Mechanical properties :
#
#
# Convention : Reuss Voigt Hill
#
# Bulk Modulus (GPa) = 50.32588 54.37301 52.34944
# Shear Modulus (GPa) = 16.60237 20.41465 18.50851
#
# Velocity S-wave (km/s) = 3.05795 3.39091 3.22873
# Velocity P-wave (km/s) = 6.38854 6.77908 6.58671
#
# Compressibility (1/GPa) = 0.01987049
#
# Stress axis : x y z
#
# Youngs Moduli (GPa) = 46.66215 32.03771 51.51590
#
# Poissons Ratio (x) = 0.49491 0.26540
# Poissons Ratio (y) = 0.72082 0.28298
# Poissons Ratio (z) = 0.24039 0.17598
#
# Static dielectric constant tensor:
#      x y z
#    x 3.497790 0.000000 0.000000 
#    y 0.000000 3.102990 0.000000 
#    z 0.000000 0.000000 3.221460 
# 
# 
# High freq. dielectric constant tensor:
#      x y z
#    x 1.701050 0.000000 0.000000 
#    y 0.000000 1.655140 0.000000 
#    z 0.000000 0.000000 1.682200 
# 
# From -- ./inp_files/7618.got.cif
#   From: 2010.03.12/outbox.cif.g09.slc.cpg/sg47_4_cif.got.tgz:7618.got - 2010.04.14 03:12:58.
