data_PCOD8196968
_publ_section_title
;
Structure prediction by ZEFSAII (Michael W. Deem and Ramdas Pophale) SiO2 
 PCOD8196968
Probable space group: P M M M
;
_chemical_formula_sum "Si O2"
_cell_formula_units_Z 44
_cell_length_a 9.220010
_cell_length_b 7.704605
_cell_length_c 30.321970
_cell_angle_alpha 90.000000
_cell_angle_beta 90.000000
_cell_angle_gamma 90.000000
_cell_volume 2153.967688
_symmetry_space_group_name_H-M "P M M M"
_symmetry_group_IT_number 47
_symmetry_cell_setting 'orthorhombic'
loop_
_space_group_symop_operation_xyz
x,y,z
-x,-y,z
x,-y,-z
-x,y,-z
-x,-y,-z
x,y,-z
-x,y,z
x,-y,z
loop_
_atom_site_type_symbol
_atom_site_label
_atom_site_fract_x
_atom_site_fract_y
_atom_site_fract_z
Si Si1 0.670082 0.301063 0.386722
Si Si2 0.162510 0.794185 0.131304
Si Si3 0.162588 0.294135 0.700728
Si Si4 0.337279 0.793656 0.951335
Si Si5 0.328375 0.000000 0.548993
Si Si6 0.660951 0.298064 0.217068
O O1 0.500000 0.280766 0.376951
O O2 0.708046 0.500000 0.399599
O O3 0.753947 0.238537 0.343324
O O4 0.722091 0.175040 0.426049
O O5 0.230315 0.718569 0.085989
O O6 0.258804 0.730650 0.171396
O O7 0.000000 0.719775 0.136281
O O8 0.160688 0.000000 0.130204
O O9 0.156100 0.500000 0.704406
O O10 0.246932 0.214186 0.742885
O O11 0.000000 0.216618 0.699865
O O12 0.500000 0.725512 0.941963
O O13 0.336752 0.000000 0.949789
O O14 0.285989 0.730659 0.000000
O O15 0.500000 0.000000 0.545411
O O16 0.259155 0.000000 0.500000
O O17 0.500000 0.213391 0.215268
O O18 0.644888 0.500000 0.226446
#
# Coordination Sequence:
#
# PCOD8196968 Si02
#       6
#     8   8   8   8   4   8
#     4   9  17  31  52  76 103 137 177 219 263 314
#     4  10  20  32  47  71 102 131 162 203 251 304
#     4   9  17  31  52  75  99 129 166 207 250 299
#     4   8  14  26  45  67  91 123 163 205 250 300
#     4   9  18  32  51  79 111 139 175 223 268 311
#     4  10  20  34  53  75  99 131 170 208 251 306
#
# _framework density 20.427420000000001
#
# number of rings (size 3 to 8) (size 9 to 14) (size 15 to 20)
#    0.000    2.818    0.000    2.182    0.000    5.091 
#    1.636    4.091    0.000    1.636    0.000    6.364 
#    0.000    0.000    0.000    0.000    0.000    0.000 
#
# Total GULP energy -545445.073525 kJ/mol
# GULP energy per Si atom -12396.478944 kJ/mol
# Density = 2.038093 g / cm^3
# Si number density = 20.427420 Si / 1000 Ang^3
#
#
#
# Elastic Constant Matrix: (Units=GPa)
#
#
# Indices 1 2 3 4 5 6 
#
# 1 143.3452 21.0635 91.1208 0.0000 0.0000 0.0000
# 2 21.0635 45.1015 35.6151 0.0000 0.0000 0.0000
# 3 91.1208 35.6151 197.0139 0.0000 0.0000 0.0000
# 4 0.0000 0.0000 0.0000 26.2379 0.0000 0.0000
# 5 0.0000 0.0000 0.0000 0.0000 13.0789 0.0000
# 6 0.0000 0.0000 0.0000 0.0000 0.0000 11.9337
#
#
#
# Elastic Compliance Matrix: (Units=1/GPa)
#
#
# Indices 1 2 3 4 5 6 
#
# 1 0.009935 -0.001180 -0.004382 0.000000 0.000000 0.000000
# 2 -0.001180 0.026004 -0.004155 0.000000 0.000000 0.000000
# 3 -0.004382 -0.004155 0.007854 0.000000 0.000000 0.000000
# 4 0.000000 0.000000 0.000000 0.038113 0.000000 0.000000
# 5 0.000000 0.000000 0.000000 0.000000 0.076459 0.000000
# 6 0.000000 0.000000 0.000000 0.000000 0.000000 0.083796
#
#
# Mechanical properties :
#
#
# Convention : Reuss Voigt Hill
#
# Bulk Modulus (GPa) = 41.05197 75.67326 58.36262
# Shear Modulus (GPa) = 18.53816 26.09420 22.31618
#
# Velocity S-wave (km/s) = 3.01577 3.57797 3.30883
# Velocity P-wave (km/s) = 5.68037 7.36169 6.57499
#
# Compressibility (1/GPa) = 0.02435937
#
# Stress axis : x y z
#
# Youngs Moduli (GPa) = 100.65583 38.45493 127.33123
#
# Poissons Ratio (x) = 0.04537 0.55793
# Poissons Ratio (y) = 0.11875 0.52910
# Poissons Ratio (z) = 0.44104 0.15979
#
# Static dielectric constant tensor:
#      x y z
#    x 3.882790 0.000000 0.000000 
#    y 0.000000 3.417180 0.000000 
#    z 0.000000 0.000000 3.938580 
# 
# 
# High freq. dielectric constant tensor:
#      x y z
#    x 1.791080 0.000000 0.000000 
#    y 0.000000 1.769590 0.000000 
#    z 0.000000 0.000000 1.803320 
# 
# From -- ./inp_files/33917.got.cif
#   From: 2010.03.12/outbox.cif.g09.slc.cpg/sg47_17_cif.got.tgz:33917.got - 2010.04.14 03:12:58.
