data_PCOD8196820
_publ_section_title
;
Structure prediction by ZEFSAII (Michael W. Deem and Ramdas Pophale) SiO2 
 PCOD8196820
Probable space group: P M M M
;
_chemical_formula_sum "Si O2"
_cell_formula_units_Z 64
_cell_length_a 9.286677
_cell_length_b 23.246418
_cell_length_c 17.555069
_cell_angle_alpha 90.000000
_cell_angle_beta 90.000000
_cell_angle_gamma 90.000000
_cell_volume 3789.822974
_symmetry_space_group_name_H-M "P M M M"
_symmetry_group_IT_number 47
_symmetry_cell_setting 'orthorhombic'
loop_
_space_group_symop_operation_xyz
x,y,z
-x,-y,z
x,-y,-z
-x,y,-z
-x,-y,-z
x,y,-z
-x,y,z
x,-y,z
loop_
_atom_site_type_symbol
_atom_site_label
_atom_site_fract_x
_atom_site_fract_y
_atom_site_fract_z
Si Si1 0.666758 0.563588 0.727539
Si Si2 0.161940 0.239897 0.681346
Si Si3 0.669266 0.232782 0.914536
Si Si4 0.667078 0.152937 0.410652
Si Si5 0.160337 0.568167 0.583045
Si Si6 0.841477 0.150593 0.181893
Si Si7 0.830769 0.933514 0.305580
Si Si8 0.667552 0.681493 0.214931
O O1 0.500000 0.557462 0.710301
O O2 0.727654 0.500000 0.751967
O O3 0.735431 0.588374 0.650103
O O4 0.694895 0.612307 0.792265
O O5 0.251865 0.211973 0.612224
O O6 0.155907 0.194772 0.749030
O O7 0.242554 0.296322 0.712551
O O8 0.000000 0.255809 0.654121
O O9 0.500000 0.224656 0.913309
O O10 0.734189 0.172911 0.883250
O O11 0.717497 0.287463 0.863217
O O12 0.725680 0.244222 0.000000
O O13 0.684357 0.143452 0.500000
O O14 0.500000 0.157582 0.386449
O O15 0.738012 0.098035 0.369907
O O16 0.213478 0.591142 0.500000
O O17 0.157602 0.500000 0.581021
O O18 0.000000 0.591828 0.599508
O O19 0.792656 0.090320 0.220440
O O20 0.000000 0.145093 0.144959
O O21 0.000000 0.922871 0.322286
O O22 0.789129 0.000000 0.307562
O O23 0.500000 0.694800 0.230202
#
# Coordination Sequence:
#
# PCOD8196820 Si02
#       8
#     8   8   8   8   8   8   8   8
#     4   9  17  28  43  64  89 119 153 185 221 269
#     4   9  17  30  48  67  86 112 150 193 234 276
#     4   9  17  29  47  70  92 115 145 182 226 275
#     4  10  20  32  46  66  94 126 159 197 238 276
#     4   8  14  25  40  57  78 105 138 177 217 252
#     4   8  15  28  46  68  91 114 143 182 225 266
#     4   9  18  32  49  69  94 126 163 198 230 268
#     4   9  17  30  47  66  91 119 146 183 228 273
#
# _framework density 16.887332000000001
#
# number of rings (size 3 to 8) (size 9 to 14) (size 15 to 20)
#    0.000    3.125    0.000    1.875    0.000    5.500 
#    0.000    3.125    0.000    1.500    0.000    5.250 
#    0.000    0.000    0.000    9.375    0.000    9.750 
#
# Total GULP energy -793031.815706 kJ/mol
# GULP energy per Si atom -12391.122120 kJ/mol
# Density = 1.684890 g / cm^3
# Si number density = 16.887332 Si / 1000 Ang^3
#
#
#
# Elastic Constant Matrix: (Units=GPa)
#
#
# Indices 1 2 3 4 5 6 
#
# 1 66.2492 40.0926 42.4742 0.0000 0.0000 0.0000
# 2 40.0926 94.7173 51.4507 0.0000 0.0000 0.0000
# 3 42.4742 51.4507 91.6327 0.0000 0.0000 0.0000
# 4 0.0000 0.0000 0.0000 17.8047 0.0000 0.0000
# 5 0.0000 0.0000 0.0000 0.0000 19.2318 0.0000
# 6 0.0000 0.0000 0.0000 0.0000 0.0000 18.7248
#
#
#
# Elastic Compliance Matrix: (Units=1/GPa)
#
#
# Indices 1 2 3 4 5 6 
#
# 1 0.023500 -0.005799 -0.007637 0.000000 0.000000 0.000000
# 2 -0.005799 0.016622 -0.006645 0.000000 0.000000 0.000000
# 3 -0.007637 -0.006645 0.018184 0.000000 0.000000 0.000000
# 4 0.000000 0.000000 0.000000 0.056165 0.000000 0.000000
# 5 0.000000 0.000000 0.000000 0.000000 0.051997 0.000000
# 6 0.000000 0.000000 0.000000 0.000000 0.000000 0.053405
#
#
# Mechanical properties :
#
#
# Convention : Reuss Voigt Hill
#
# Bulk Modulus (GPa) = 55.11326 57.84823 56.48074
# Shear Modulus (GPa) = 18.79109 19.05771 18.92440
#
# Velocity S-wave (km/s) = 3.33938 3.36299 3.35121
# Velocity P-wave (km/s) = 6.89749 7.02918 6.96365
#
# Compressibility (1/GPa) = 0.01814446
#
# Stress axis : x y z
#
# Youngs Moduli (GPa) = 42.55299 60.16139 54.99285
#
# Poissons Ratio (x) = 0.34887 0.41998
# Poissons Ratio (y) = 0.24676 0.36543
# Poissons Ratio (z) = 0.32497 0.39978
#
# Static dielectric constant tensor:
#      x y z
#    x 3.301400 0.000000 0.000000 
#    y 0.000000 3.292390 0.000000 
#    z 0.000000 0.000000 3.154440 
# 
# 
# High freq. dielectric constant tensor:
#      x y z
#    x 1.652110 0.000000 0.000000 
#    y 0.000000 1.640440 0.000000 
#    z 0.000000 0.000000 1.623070 
# 
# From -- ./inp_files/27141.got.cif
#   From: 2010.03.12/outbox.cif.g09.slc.cpg/sg47_14_cif.got.tgz:27141.got - 2010.04.14 03:12:58.
