data_PCOD8196228
_publ_section_title
;
Structure prediction by ZEFSAII (Michael W. Deem and Ramdas Pophale) SiO2 
 PCOD8196228
Probable space group: P M M M
;
_chemical_formula_sum "Si O2"
_cell_formula_units_Z 40
_cell_length_a 24.590178
_cell_length_b 9.226896
_cell_length_c 9.906431
_cell_angle_alpha 90.000000
_cell_angle_beta 90.000000
_cell_angle_gamma 90.000000
_cell_volume 2247.680185
_symmetry_space_group_name_H-M "P M M M"
_symmetry_group_IT_number 47
_symmetry_cell_setting 'orthorhombic'
loop_
_space_group_symop_operation_xyz
x,y,z
-x,-y,z
x,-y,-z
-x,y,-z
-x,-y,-z
x,y,-z
-x,y,z
x,-y,z
loop_
_atom_site_type_symbol
_atom_site_label
_atom_site_fract_x
_atom_site_fract_y
_atom_site_fract_z
Si Si1 0.059545 0.162552 0.839866
Si Si2 0.376750 0.671286 0.239970
Si Si3 0.559345 0.671122 0.500000
Si Si4 0.164307 0.328613 0.845213
Si Si5 0.563406 0.172198 0.000000
Si Si6 0.739576 0.328218 0.346431
O O1 0.107288 0.267238 0.788353
O O2 0.000000 0.214979 0.786632
O O3 0.071110 0.000000 0.787537
O O4 0.058666 0.164463 0.000000
O O5 0.382208 0.500000 0.208885
O O6 0.408452 0.723058 0.370964
O O7 0.314413 0.716924 0.264789
O O8 0.404205 0.763938 0.124835
O O9 0.554379 0.500000 0.500000
O O10 0.500000 0.744012 0.500000
O O11 0.160873 0.500000 0.839261
O O12 0.210700 0.269095 0.744379
O O13 0.176131 0.277929 0.000000
O O14 0.500000 0.221848 0.000000
O O15 0.567502 0.000000 0.000000
O O16 0.741211 0.264125 0.500000
O O17 0.741573 0.500000 0.358099
#
# Coordination Sequence:
#
# PCOD8196228 Si02
#       6
#     8   8   4   8   4   8
#     4   8  14  26  44  66  94 127 162 202 248 292
#     4  10  19  34  58  82 102 131 171 213 254 300
#     4   9  16  28  51  83 107 121 158 217 258 290
#     4   9  17  27  44  72 101 128 161 200 242 292
#     4  11  25  41  53  73 109 143 168 203 256 311
#     4   9  17  31  51  76 104 132 162 203 255 301
#
# _framework density 17.796125
#
# number of rings (size 3 to 8) (size 9 to 14) (size 15 to 20)
#    0.000    2.800    1.000    1.500    1.400    2.000 
#    0.000    3.500    0.000    4.200    0.000    4.200 
#    0.000    0.000    0.000    0.000    0.000    0.000 
#
# Total GULP energy -495691.062439 kJ/mol
# GULP energy per Si atom -12392.276561 kJ/mol
# Density = 1.775562 g / cm^3
# Si number density = 17.796125 Si / 1000 Ang^3
#
#
#
# Elastic Constant Matrix: (Units=GPa)
#
#
# Indices 1 2 3 4 5 6 
#
# 1 185.7294 40.9162 77.5922 0.0000 0.0000 0.0000
# 2 40.9162 33.3680 33.8628 0.0000 0.0000 0.0000
# 3 77.5922 33.8628 114.1243 0.0000 0.0000 0.0000
# 4 0.0000 0.0000 0.0000 5.6348 0.0000 0.0000
# 5 0.0000 0.0000 0.0000 0.0000 30.5226 0.0000
# 6 0.0000 0.0000 0.0000 0.0000 0.0000 19.8241
#
#
#
# Elastic Compliance Matrix: (Units=1/GPa)
#
#
# Indices 1 2 3 4 5 6 
#
# 1 0.008386 -0.006434 -0.003792 0.000000 0.000000 0.000000
# 2 -0.006434 0.047818 -0.009814 0.000000 0.000000 0.000000
# 3 -0.003792 -0.009814 0.014253 0.000000 0.000000 0.000000
# 4 0.000000 0.000000 0.000000 0.177470 0.000000 0.000000
# 5 0.000000 0.000000 0.000000 0.000000 0.032763 0.000000
# 6 0.000000 0.000000 0.000000 0.000000 0.000000 0.050444
#
#
# Mechanical properties :
#
#
# Convention : Reuss Voigt Hill
#
# Bulk Modulus (GPa) = 32.92110 70.88490 51.90300
# Shear Modulus (GPa) = 13.11168 23.25300 18.18234
#
# Velocity S-wave (km/s) = 2.71730 3.61866 3.19988
# Velocity P-wave (km/s) = 5.32768 7.57481 6.54835
#
# Compressibility (1/GPa) = 0.03037566
#
# Stress axis : x y z
#
# Youngs Moduli (GPa) = 119.24603 20.91257 70.16199
#
# Poissons Ratio (x) = 0.13456 0.26608
# Poissons Ratio (y) = 0.76728 0.68856
# Poissons Ratio (z) = 0.45223 0.20523
#
# Static dielectric constant tensor:
#      x y z
#    x 3.827470 0.000000 0.000000 
#    y 0.000000 2.959300 0.000000 
#    z 0.000000 0.000000 3.264220 
# 
# 
# High freq. dielectric constant tensor:
#      x y z
#    x 1.708440 0.000000 0.000000 
#    y 0.000000 1.646630 0.000000 
#    z 0.000000 0.000000 1.673200 
# 
# From -- ./inp_files/12985.got.cif
#   From: 2010.03.12/outbox.cif.g09.slc.cpg/sg47_7_cif.got.tgz:12985.got - 2010.04.14 03:12:58.
