data_PCOD8196800
_publ_section_title
;
Structure prediction by ZEFSAII (Michael W. Deem and Ramdas Pophale) SiO2 
 PCOD8196800
Probable space group: P M M M
;
_chemical_formula_sum "Si O2"
_cell_formula_units_Z 44
_cell_length_a 9.389388
_cell_length_b 28.405026
_cell_length_c 9.127432
_cell_angle_alpha 90.000000
_cell_angle_beta 90.000000
_cell_angle_gamma 90.000000
_cell_volume 2434.339147
_symmetry_space_group_name_H-M "P M M M"
_symmetry_group_IT_number 47
_symmetry_cell_setting 'orthorhombic'
loop_
_space_group_symop_operation_xyz
x,y,z
-x,-y,z
x,-y,-z
-x,y,-z
-x,-y,-z
x,y,-z
-x,y,z
x,-y,z
loop_
_atom_site_type_symbol
_atom_site_label
_atom_site_fract_x
_atom_site_fract_y
_atom_site_fract_z
Si Si1 0.342469 0.585986 0.826134
Si Si2 0.159248 0.500000 0.175149
Si Si3 0.335120 0.691624 0.828844
Si Si4 0.163088 0.771509 0.326439
Si Si5 0.159873 0.052156 0.325737
Si Si6 0.660652 0.138912 0.325298
O O1 0.500000 0.575643 0.763182
O O2 0.235683 0.546803 0.762518
O O3 0.293743 0.638459 0.781436
O O4 0.348162 0.582768 0.000000
O O5 0.000000 0.500000 0.236997
O O6 0.161055 0.500000 0.000000
O O7 0.500000 0.701877 0.790463
O O8 0.232354 0.724918 0.738260
O O9 0.307619 0.699606 0.000000
O O10 0.172697 0.768404 0.500000
O O11 0.249233 0.816743 0.267323
O O12 0.000000 0.775822 0.273975
O O13 0.160341 0.054201 0.500000
O O14 0.267553 0.091239 0.262307
O O15 0.000000 0.062878 0.269159
O O16 0.208354 0.000000 0.273247
O O17 0.660378 0.138056 0.500000
O O18 0.500000 0.142376 0.264136
#
# Coordination Sequence:
#
# PCOD8196800 Si02
#       6
#     8   4   8   8   8   8
#     4   8  14  25  40  58  83 114 143 173 214 262
#     4   9  15  21  33  57  86 113 142 175 210 252
#     4   9  18  32  49  69  92 118 150 188 228 268
#     4  10  20  32  46  65  90 121 155 188 224 269
#     4   8  13  21  33  50  75 107 139 172 215 266
#     4   9  16  25  38  56  79 109 145 184 222 260
#
# _framework density 18.074721
#
# number of rings (size 3 to 8) (size 9 to 14) (size 15 to 20)
#    0.000    3.182    0.000    3.000    0.000    5.818 
#    0.000    3.636    0.000    0.000    0.000    0.636 
#    0.000    5.818    0.000    7.636    0.000   10.545 
#
# Total GULP energy -545379.101911 kJ/mol
# GULP energy per Si atom -12394.979589 kJ/mol
# Density = 1.803358 g / cm^3
# Si number density = 18.074721 Si / 1000 Ang^3
#
#
#
# Elastic Constant Matrix: (Units=GPa)
#
#
# Indices 1 2 3 4 5 6 
#
# 1 159.6843 112.4421 15.1058 0.0000 0.0000 0.0000
# 2 112.4421 176.7499 14.2785 0.0000 0.0000 0.0000
# 3 15.1058 14.2785 5.2314 0.0000 0.0000 0.0000
# 4 0.0000 0.0000 0.0000 37.2956 0.0000 0.0000
# 5 0.0000 0.0000 0.0000 0.0000 14.9827 0.0000
# 6 0.0000 0.0000 0.0000 0.0000 0.0000 38.9186
#
#
#
# Elastic Compliance Matrix: (Units=1/GPa)
#
#
# Indices 1 2 3 4 5 6 
#
# 1 0.012617 -0.006521 -0.018633 0.000000 0.000000 0.000000
# 2 -0.006521 0.010629 -0.010179 0.000000 0.000000 0.000000
# 3 -0.018633 -0.010179 0.272736 0.000000 0.000000 0.000000
# 4 0.000000 0.000000 0.000000 0.026813 0.000000 0.000000
# 5 0.000000 0.000000 0.000000 0.000000 0.066744 0.000000
# 6 0.000000 0.000000 0.000000 0.000000 0.000000 0.025695
#
#
# Mechanical properties :
#
#
# Convention : Reuss Voigt Hill
#
# Bulk Modulus (GPa) = 4.43822 69.47984 36.95903
# Shear Modulus (GPa) = 8.91259 31.56199 20.23729
#
# Velocity S-wave (km/s) = 2.22299 4.18328 3.34974
# Velocity P-wave (km/s) = 3.00827 7.86492 5.95427
#
# Compressibility (1/GPa) = 0.22531578
#
# Stress axis : x y z
#
# Youngs Moduli (GPa) = 79.25868 94.08582 3.66654
#
# Poissons Ratio (x) = 0.61356 0.06832
# Poissons Ratio (y) = 0.51686 0.03732
# Poissons Ratio (z) = 1.47680 0.95771
#
# Static dielectric constant tensor:
#      x y z
#    x 3.568730 0.000000 0.000000 
#    y 0.000000 3.656550 0.000000 
#    z 0.000000 0.000000 2.594690 
# 
# 
# High freq. dielectric constant tensor:
#      x y z
#    x 1.706140 0.000000 0.000000 
#    y 0.000000 1.718970 0.000000 
#    z 0.000000 0.000000 1.618260 
# 
# From -- ./inp_files/2049.got.cif
#   From: 2010.03.12/outbox.cif.g09.slc.cpg/sg47_2_cif.got.tgz:2049.got - 2010.04.14 03:12:58.
