data_PCOD8196847
_publ_section_title
;
Structure prediction by ZEFSAII (Michael W. Deem and Ramdas Pophale) SiO2 
 PCOD8196847
Probable space group: P M M M
;
_chemical_formula_sum "Si O2"
_cell_formula_units_Z 64
_cell_length_a 14.450280
_cell_length_b 28.699842
_cell_length_c 8.924253
_cell_angle_alpha 90.000000
_cell_angle_beta 90.000000
_cell_angle_gamma 90.000000
_cell_volume 3701.072923
_symmetry_space_group_name_H-M "P M M M"
_symmetry_group_IT_number 47
_symmetry_cell_setting 'orthorhombic'
loop_
_space_group_symop_operation_xyz
x,y,z
-x,-y,z
x,-y,-z
-x,y,-z
-x,-y,-z
x,y,-z
-x,y,z
x,-y,z
loop_
_atom_site_type_symbol
_atom_site_label
_atom_site_fract_x
_atom_site_fract_y
_atom_site_fract_z
Si Si1 0.605795 0.599480 0.672211
Si Si2 0.106524 0.735657 0.824033
Si Si3 0.390410 0.051002 0.332234
Si Si4 0.898045 0.369307 0.822739
Si Si5 0.607437 0.143189 0.175265
Si Si6 0.238752 0.447925 0.825589
Si Si7 0.721384 0.224476 0.323093
Si Si8 0.608039 0.304498 0.171770
O O1 0.628010 0.610751 0.500000
O O2 0.500000 0.584728 0.693782
O O3 0.666223 0.556703 0.733319
O O4 0.631413 0.644117 0.771737
O O5 0.136279 0.682679 0.780406
O O6 0.173534 0.771225 0.737374
O O7 0.000000 0.744848 0.776826
O O8 0.118698 0.743753 0.000000
O O9 0.354195 0.062249 0.500000
O O10 0.500000 0.049020 0.333791
O O11 0.358033 0.091285 0.218665
O O12 0.352519 0.000000 0.280236
O O13 0.831762 0.409557 0.758249
O O14 0.000000 0.377467 0.754038
O O15 0.903855 0.373903 0.000000
O O16 0.500000 0.151128 0.221748
O O17 0.673231 0.178456 0.261194
O O18 0.620418 0.150860 0.000000
O O19 0.199041 0.500000 0.800286
O O20 0.258727 0.438891 0.000000
O O21 0.724041 0.221470 0.500000
O O22 0.662559 0.268680 0.273258
O O23 0.500000 0.293247 0.187728
O O24 0.641065 0.299979 0.000000
#
# Coordination Sequence:
#
# PCOD8196847 Si02
#       8
#     8   8   8   8   8   8   8   8
#     4  10  21  36  52  69  90 119 156 195 235 278
#     4   9  18  34  55  74  93 123 163 203 242 288
#     4   8  14  26  44  65  92 129 171 213 256 299
#     4   8  15  30  52  75  96 118 146 182 225 274
#     4  10  20  32  46  67  98 136 177 217 253 291
#     4  10  20  32  49  74  99 123 152 186 225 271
#     4  12  23  32  47  71 101 134 164 199 244 293
#     4  10  20  34  52  72  95 124 158 196 237 284
#
# _framework density 17.292283000000001
#
# number of rings (size 3 to 8) (size 9 to 14) (size 15 to 20)
#    0.000    2.375    0.000    4.500    0.000    6.000 
#    0.000    3.750    0.000    1.125    0.000    0.875 
#    0.000    0.500    0.000    5.250    0.000    2.500 
#
# Total GULP energy -793472.108722 kJ/mol
# GULP energy per Si atom -12398.001699 kJ/mol
# Density = 1.725292 g / cm^3
# Si number density = 17.292283 Si / 1000 Ang^3
#
#
#
# Elastic Constant Matrix: (Units=GPa)
#
#
# Indices 1 2 3 4 5 6 
#
# 1 75.9465 60.2402 46.3779 0.0000 0.0000 0.0000
# 2 60.2402 98.1965 47.4736 0.0000 0.0000 0.0000
# 3 46.3779 47.4736 82.5829 0.0000 0.0000 0.0000
# 4 0.0000 0.0000 0.0000 25.3689 0.0000 0.0000
# 5 0.0000 0.0000 0.0000 0.0000 18.5986 0.0000
# 6 0.0000 0.0000 0.0000 0.0000 0.0000 17.7301
#
#
#
# Elastic Compliance Matrix: (Units=1/GPa)
#
#
# Indices 1 2 3 4 5 6 
#
# 1 0.029413 -0.013929 -0.008511 0.000000 0.000000 0.000000
# 2 -0.013929 0.020700 -0.004077 0.000000 0.000000 0.000000
# 3 -0.008511 -0.004077 0.019232 0.000000 0.000000 0.000000
# 4 0.000000 0.000000 0.000000 0.039418 0.000000 0.000000
# 5 0.000000 0.000000 0.000000 0.000000 0.053768 0.000000
# 6 0.000000 0.000000 0.000000 0.000000 0.000000 0.056401
#
#
# Mechanical properties :
#
#
# Convention : Reuss Voigt Hill
#
# Bulk Modulus (GPa) = 61.30755 62.76770 62.03762
# Shear Modulus (GPa) = 18.02434 19.18182 18.60308
#
# Velocity S-wave (km/s) = 3.23202 3.33418 3.28350
# Velocity P-wave (km/s) = 7.03268 7.15537 7.09429
#
# Compressibility (1/GPa) = 0.01631121
#
# Stress axis : x y z
#
# Youngs Moduli (GPa) = 33.99869 48.30968 51.99610
#
# Poissons Ratio (x) = 0.67292 0.44252
# Poissons Ratio (y) = 0.47358 0.21198
# Poissons Ratio (z) = 0.28935 0.19695
#
# Static dielectric constant tensor:
#      x y z
#    x 3.242410 0.000000 0.000000 
#    y 0.000000 3.394920 0.000000 
#    z 0.000000 0.000000 3.124610 
# 
# 
# High freq. dielectric constant tensor:
#      x y z
#    x 1.648240 0.000000 0.000000 
#    y 0.000000 1.659410 0.000000 
#    z 0.000000 0.000000 1.659340 
# 
# From -- ./inp_files/8250.got.cif
#   From: 2010.03.12/outbox.cif.g09.slc.cpg/sg47_5_cif.got.tgz:8250.got - 2010.04.14 03:12:58.
