data_PCOD8196605
_publ_section_title
;
Structure prediction by ZEFSAII (Michael W. Deem and Ramdas Pophale) SiO2 
 PCOD8196605
Probable space group: P M M M
;
_chemical_formula_sum "Si O2"
_cell_formula_units_Z 56
_cell_length_a 9.104567
_cell_length_b 14.624594
_cell_length_c 23.122494
_cell_angle_alpha 90.000000
_cell_angle_beta 90.000000
_cell_angle_gamma 90.000000
_cell_volume 3078.773855
_symmetry_space_group_name_H-M "P M M M"
_symmetry_group_IT_number 47
_symmetry_cell_setting 'orthorhombic'
loop_
_space_group_symop_operation_xyz
x,y,z
-x,-y,z
x,-y,-z
-x,y,-z
-x,-y,-z
x,y,-z
-x,y,z
x,-y,z
loop_
_atom_site_type_symbol
_atom_site_label
_atom_site_fract_x
_atom_site_fract_y
_atom_site_fract_z
Si Si1 0.326884 0.395280 0.707541
Si Si2 0.174602 0.899895 0.884632
Si Si3 0.664784 0.392640 0.161838
Si Si4 0.825966 0.284334 0.063823
Si Si5 0.668931 0.103681 0.567756
Si Si6 0.825800 0.898887 0.755862
Si Si7 0.174725 0.230262 0.344392
O O1 0.500000 0.380689 0.700639
O O2 0.284754 0.500000 0.693535
O O3 0.278183 0.370528 0.773351
O O4 0.241364 0.331844 0.661715
O O5 0.230008 0.820078 0.927005
O O6 0.232244 0.875909 0.820136
O O7 0.000000 0.903983 0.883637
O O8 0.234602 0.000000 0.904384
O O9 0.500000 0.354881 0.153893
O O10 0.667330 0.500000 0.151772
O O11 0.767311 0.349139 0.113611
O O12 0.000000 0.288165 0.067727
O O13 0.772163 0.315779 0.000000
O O14 0.690593 0.118673 0.500000
O O15 0.500000 0.119428 0.585376
O O16 0.769955 0.178917 0.598516
O O17 0.716847 0.000000 0.584552
O O18 0.763256 0.826198 0.710543
O O19 0.000000 0.895475 0.754730
O O20 0.771309 0.000000 0.737725
O O21 0.000000 0.236937 0.346772
#
# Coordination Sequence:
#
# PCOD8196605 Si02
#       7
#     8   8   8   8   8   8   8
#     4   9  19  36  55  74  98 129 166 208 253 305
#     4   8  14  26  43  62  89 125 159 191 231 284
#     4   9  19  36  55  72  92 123 162 202 247 300
#     4  10  20  31  45  69  97 123 157 203 251 298
#     4   9  19  36  55  75 105 148 191 221 245 282
#     4   8  14  24  39  64  97 127 154 188 236 293
#     4  11  20  29  49  80 110 137 165 205 258 308
#
# _framework density 18.189059
#
# number of rings (size 3 to 8) (size 9 to 14) (size 15 to 20)
#    0.000    2.857    0.000    3.857    0.000    4.286 
#    0.000    5.000    0.000    0.857    0.000    8.000 
#    0.000    0.000    0.000    0.000    0.000    0.000 
#
# Total GULP energy -694085.337746 kJ/mol
# GULP energy per Si atom -12394.381031 kJ/mol
# Density = 1.814766 g / cm^3
# Si number density = 18.189059 Si / 1000 Ang^3
#
#
#
# Elastic Constant Matrix: (Units=GPa)
#
#
# Indices 1 2 3 4 5 6 
#
# 1 47.0674 39.5305 37.3445 0.0000 0.0000 0.0000
# 2 39.5305 95.4361 55.8025 0.0000 0.0000 0.0000
# 3 37.3445 55.8025 79.6585 0.0000 0.0000 0.0000
# 4 0.0000 0.0000 0.0000 28.1866 0.0000 0.0000
# 5 0.0000 0.0000 0.0000 0.0000 25.9607 0.0000
# 6 0.0000 0.0000 0.0000 0.0000 0.0000 21.1627
#
#
#
# Elastic Compliance Matrix: (Units=1/GPa)
#
#
# Indices 1 2 3 4 5 6 
#
# 1 0.037897 -0.008992 -0.011467 0.000000 0.000000 0.000000
# 2 -0.008992 0.019881 -0.009712 0.000000 0.000000 0.000000
# 3 -0.011467 -0.009712 0.024733 0.000000 0.000000 0.000000
# 4 0.000000 0.000000 0.000000 0.035478 0.000000 0.000000
# 5 0.000000 0.000000 0.000000 0.000000 0.038520 0.000000
# 6 0.000000 0.000000 0.000000 0.000000 0.000000 0.047253
#
#
# Mechanical properties :
#
#
# Convention : Reuss Voigt Hill
#
# Bulk Modulus (GPa) = 45.10837 54.16855 49.63846
# Shear Modulus (GPa) = 18.41668 21.02762 19.72215
#
# Velocity S-wave (km/s) = 3.18545 3.40377 3.29642
# Velocity P-wave (km/s) = 6.19541 6.73001 6.46824
#
# Compressibility (1/GPa) = 0.02216884
#
# Stress axis : x y z
#
# Youngs Moduli (GPa) = 26.38754 50.29805 40.43237
#
# Poissons Ratio (x) = 0.45230 0.46363
# Poissons Ratio (y) = 0.23729 0.39267
# Poissons Ratio (z) = 0.30258 0.48848
#
# Static dielectric constant tensor:
#      x y z
#    x 3.024910 0.000000 0.000000 
#    y 0.000000 3.487880 0.000000 
#    z 0.000000 0.000000 3.331780 
# 
# 
# High freq. dielectric constant tensor:
#      x y z
#    x 1.670690 0.000000 0.000000 
#    y 0.000000 1.709580 0.000000 
#    z 0.000000 0.000000 1.693980 
# 
# From -- ./inp_files/21564.got.cif
#   From: 2010.03.12/outbox.cif.g09.slc.cpg/sg47_11_cif.got.tgz:21564.got - 2010.04.14 03:12:58.
