data_PCOD8196955
_publ_section_title
;
Structure prediction by ZEFSAII (Michael W. Deem and Ramdas Pophale) SiO2 
 PCOD8196955
Probable space group: P M M M
;
_chemical_formula_sum "Si O2"
_cell_formula_units_Z 44
_cell_length_a 9.541532
_cell_length_b 8.886501
_cell_length_c 28.634088
_cell_angle_alpha 90.000000
_cell_angle_beta 90.000000
_cell_angle_gamma 90.000000
_cell_volume 2427.908193
_symmetry_space_group_name_H-M "P M M M"
_symmetry_group_IT_number 47
_symmetry_cell_setting 'orthorhombic'
loop_
_space_group_symop_operation_xyz
x,y,z
-x,-y,z
x,-y,-z
-x,y,-z
-x,-y,-z
x,y,-z
-x,y,z
x,-y,z
loop_
_atom_site_type_symbol
_atom_site_label
_atom_site_fract_x
_atom_site_fract_y
_atom_site_fract_z
Si Si1 0.339497 0.177224 0.232837
Si Si2 0.839322 0.321516 0.313732
Si Si3 0.157715 0.321145 0.948651
Si Si4 0.337716 0.326151 0.136617
Si Si5 0.666027 0.664387 0.500000
Si Si6 0.657614 0.680020 0.399813
O O1 0.500000 0.226796 0.242959
O O2 0.236969 0.253425 0.269362
O O3 0.292735 0.232036 0.181819
O O4 0.322132 0.000000 0.235836
O O5 0.827750 0.500000 0.310713
O O6 0.763647 0.260192 0.360492
O O7 0.000000 0.267617 0.314713
O O8 0.164762 0.500000 0.948243
O O9 0.256519 0.257014 0.907889
O O10 0.000000 0.265827 0.938839
O O11 0.206870 0.263285 0.000000
O O12 0.500000 0.306335 0.125285
O O13 0.298624 0.500000 0.145741
O O14 0.737963 0.500000 0.500000
O O15 0.500000 0.644618 0.500000
O O16 0.706897 0.746080 0.450867
O O17 0.500000 0.735490 0.387488
O O18 0.659169 0.500000 0.402710
#
# Coordination Sequence:
#
# PCOD8196955 Si02
#       6
#     8   8   8   8   4   8
#     4  10  21  36  52  69  91 122 160 200 242 287
#     4  10  20  32  47  70  98 126 158 195 235 281
#     4   8  14  25  42  66  95 123 150 182 221 266
#     4   9  17  29  47  71  95 118 148 189 234 277
#     4   7  10  18  35  61  90 119 152 187 224 268
#     4   8  13  23  41  64  91 123 156 190 228 271
#
# _framework density 18.122596999999999
#
# number of rings (size 3 to 8) (size 9 to 14) (size 15 to 20)
#    0.000    3.182    0.000    2.727    0.000    3.273 
#    0.000    4.091    0.000    3.273    0.000    4.455 
#    0.000    5.091    0.000    0.000    0.000    0.000 
#
# Total GULP energy -545254.766240 kJ/mol
# GULP energy per Si atom -12392.153778 kJ/mol
# Density = 1.808135 g / cm^3
# Si number density = 18.122597 Si / 1000 Ang^3
#
#
#
# Elastic Constant Matrix: (Units=GPa)
#
#
# Indices 1 2 3 4 5 6 
#
# 1 108.4201 19.7116 98.5930 0.0000 0.0000 0.0000
# 2 19.7116 9.6348 14.6292 0.0000 0.0000 0.0000
# 3 98.5930 14.6292 177.1805 0.0000 0.0000 0.0000
# 4 0.0000 0.0000 0.0000 -3.1721 0.0000 0.0000
# 5 0.0000 0.0000 0.0000 0.0000 13.4753 0.0000
# 6 0.0000 0.0000 0.0000 0.0000 0.0000 12.7769
#
#
#
# Elastic Compliance Matrix: (Units=1/GPa)
#
#
# Indices 1 2 3 4 5 6 
#
# 1 0.026547 -0.036452 -0.011762 0.000000 0.000000 0.000000
# 2 -0.036452 0.168721 0.006353 0.000000 0.000000 0.000000
# 3 -0.011762 0.006353 0.011665 0.000000 0.000000 0.000000
# 4 0.000000 0.000000 0.000000 -0.315251 0.000000 0.000000
# 5 0.000000 0.000000 0.000000 0.000000 0.074210 0.000000
# 6 0.000000 0.000000 0.000000 0.000000 0.000000 0.078266
#
#
# Mechanical properties :
#
#
# Convention : Reuss Voigt Hill
#
# Bulk Modulus (GPa) = 8.11624 62.34479 35.23051
# Shear Modulus (GPa) = 29.59449 15.43613 22.51531
#
# Velocity S-wave (km/s) = 4.04544 2.92166 3.52858
# Velocity P-wave (km/s) = 5.12924 6.77184 6.00695
#
# Compressibility (1/GPa) = 0.12320975
#
# Stress axis : x y z
#
# Youngs Moduli (GPa) = 37.66898 5.92695 85.72878
#
# Poissons Ratio (x) = 0.21605 1.00838
# Poissons Ratio (y) = 1.37312 -0.54466
# Poissons Ratio (z) = 0.44308 -0.03766
#
# Static dielectric constant tensor:
#      x y z
#    x 3.354670 0.000000 0.000000 
#    y 0.000000 2.815850 0.000000 
#    z 0.000000 0.000000 3.871740 
# 
# 
# High freq. dielectric constant tensor:
#      x y z
#    x 1.687590 0.000000 0.000000 
#    y 0.000000 1.643420 0.000000 
#    z 0.000000 0.000000 1.724940 
# 
# From -- ./inp_files/2290.got.cif
#   From: 2010.03.12/outbox.cif.g09.slc.cpg/sg47_2_cif.got.tgz:2290.got - 2010.04.14 03:12:58.
