data_PCOD8196924
_publ_section_title
;
Structure prediction by ZEFSAII (Michael W. Deem and Ramdas Pophale) SiO2 
 PCOD8196924
Probable space group: P M M M
;
_chemical_formula_sum "Si O2"
_cell_formula_units_Z 48
_cell_length_a 9.082585
_cell_length_b 13.746282
_cell_length_c 18.952729
_cell_angle_alpha 90.000000
_cell_angle_beta 90.000000
_cell_angle_gamma 90.000000
_cell_volume 2366.281851
_symmetry_space_group_name_H-M "P M M M"
_symmetry_group_IT_number 47
_symmetry_cell_setting 'orthorhombic'
loop_
_space_group_symop_operation_xyz
x,y,z
-x,-y,z
x,-y,-z
-x,y,-z
-x,-y,-z
x,y,-z
-x,y,z
x,-y,z
loop_
_atom_site_type_symbol
_atom_site_label
_atom_site_fract_x
_atom_site_fract_y
_atom_site_fract_z
Si Si1 0.171692 0.276060 0.079021
Si Si2 0.839538 0.394926 0.581800
Si Si3 0.329942 0.111707 0.848349
Si Si4 0.827469 0.392790 0.212236
Si Si5 0.671055 0.208743 0.579783
Si Si6 0.827827 0.804446 0.715633
O O1 0.258974 0.175423 0.089409
O O2 0.230383 0.354506 0.136061
O O3 0.000000 0.254022 0.092085
O O4 0.200216 0.315675 0.000000
O O5 0.859797 0.412262 0.500000
O O6 0.805712 0.500000 0.618008
O O7 0.704691 0.322228 0.593580
O O8 0.000000 0.355387 0.611167
O O9 0.500000 0.139569 0.839158
O O10 0.248987 0.131757 0.774842
O O11 0.309463 0.000000 0.869779
O O12 0.757100 0.500000 0.228248
O O13 0.790543 0.311737 0.272522
O O14 0.000000 0.405513 0.206447
O O15 0.718791 0.177227 0.500000
O O16 0.500000 0.187854 0.591167
O O17 0.765936 0.155548 0.640319
O O18 0.000000 0.824856 0.719626
#
# Coordination Sequence:
#
# PCOD8196924 Si02
#       6
#     8   8   8   8   8   8
#     4   9  18  32  52  81 113 143 178 220 262 303
#     4   8  14  25  40  58  83 118 161 206 249 296
#     4  10  21  37  57  79 104 137 174 212 261 320
#     4   8  15  29  49  74 104 139 180 221 258 298
#     4  10  20  32  47  69  98 132 169 212 266 324
#     4  10  20  34  54  78 103 134 174 220 267 315
#
# _framework density 20.284990000000001
#
# number of rings (size 3 to 8) (size 9 to 14) (size 15 to 20)
#    0.000    2.833    0.000    3.000    0.000    4.333 
#    0.000    6.667    0.000   12.500    0.000    8.167 
#    0.000    0.000    0.000    0.000    0.000    0.000 
#
# Total GULP energy -594647.677069 kJ/mol
# GULP energy per Si atom -12388.493272 kJ/mol
# Density = 2.023882 g / cm^3
# Si number density = 20.284990 Si / 1000 Ang^3
#
#
#
# Elastic Constant Matrix: (Units=GPa)
#
#
# Indices 1 2 3 4 5 6 
#
# 1 70.4100 14.4975 31.8948 0.0000 0.0000 0.0000
# 2 14.4975 48.2078 6.0293 0.0000 0.0000 0.0000
# 3 31.8948 6.0293 119.4178 0.0000 0.0000 0.0000
# 4 0.0000 0.0000 0.0000 9.6821 0.0000 0.0000
# 5 0.0000 0.0000 0.0000 0.0000 28.5560 0.0000
# 6 0.0000 0.0000 0.0000 0.0000 0.0000 22.3379
#
#
#
# Elastic Compliance Matrix: (Units=1/GPa)
#
#
# Indices 1 2 3 4 5 6 
#
# 1 0.017116 -0.004605 -0.004339 0.000000 0.000000 0.000000
# 2 -0.004605 0.022114 0.000113 0.000000 0.000000 0.000000
# 3 -0.004339 0.000113 0.009527 0.000000 0.000000 0.000000
# 4 0.000000 0.000000 0.000000 0.103284 0.000000 0.000000
# 5 0.000000 0.000000 0.000000 0.000000 0.035019 0.000000
# 6 0.000000 0.000000 0.000000 0.000000 0.000000 0.044767
#
#
# Mechanical properties :
#
#
# Convention : Reuss Voigt Hill
#
# Bulk Modulus (GPa) = 32.15775 38.09766 35.12770
# Shear Modulus (GPa) = 19.24165 24.48947 21.86556
#
# Velocity S-wave (km/s) = 3.08322 3.47835 3.28673
# Velocity P-wave (km/s) = 5.34438 5.91218 5.63544
#
# Compressibility (1/GPa) = 0.03109671
#
# Stress axis : x y z
#
# Youngs Moduli (GPa) = 58.42442 45.22002 104.96347
#
# Poissons Ratio (x) = 0.20822 0.45544
# Poissons Ratio (y) = 0.26902 -0.01189
# Poissons Ratio (z) = 0.25350 -0.00512
#
# Static dielectric constant tensor:
#      x y z
#    x 3.463460 0.000000 0.000000 
#    y 0.000000 3.632370 0.000000 
#    z 0.000000 0.000000 3.890210 
# 
# 
# High freq. dielectric constant tensor:
#      x y z
#    x 1.766810 0.000000 0.000000 
#    y 0.000000 1.762120 0.000000 
#    z 0.000000 0.000000 1.805870 
# 
# From -- ./inp_files/29456.got.cif
#   From: 2010.03.12/outbox.cif.g09.slc.cpg/sg47_15_cif.got.tgz:29456.got - 2010.04.14 03:12:58.
