data_PCOD8196739
_publ_section_title
;
Structure prediction by ZEFSAII (Michael W. Deem and Ramdas Pophale) SiO2 
 PCOD8196739
Probable space group: P M M M
;
_chemical_formula_sum "Si O2"
_cell_formula_units_Z 56
_cell_length_a 9.284186
_cell_length_b 15.311415
_cell_length_c 24.914138
_cell_angle_alpha 90.000000
_cell_angle_beta 90.000000
_cell_angle_gamma 90.000000
_cell_volume 3541.644991
_symmetry_space_group_name_H-M "P M M M"
_symmetry_group_IT_number 47
_symmetry_cell_setting 'orthorhombic'
loop_
_space_group_symop_operation_xyz
x,y,z
-x,-y,z
x,-y,-z
-x,y,-z
-x,-y,-z
x,y,-z
-x,y,z
x,-y,z
loop_
_atom_site_type_symbol
_atom_site_label
_atom_site_fract_x
_atom_site_fract_y
_atom_site_fract_z
Si Si1 0.832412 0.899581 0.648255
Si Si2 0.331489 0.781488 0.936667
Si Si3 0.168385 0.760835 0.560821
Si Si4 0.662317 0.595548 0.563769
Si Si5 0.337157 0.103796 0.247785
Si Si6 0.666976 0.407912 0.063073
Si Si7 0.166366 0.896837 0.855859
O O1 0.787905 0.844370 0.596059
O O2 0.741142 0.863449 0.698337
O O3 0.000000 0.888479 0.662715
O O4 0.795425 0.000000 0.635229
O O5 0.500000 0.794046 0.922717
O O6 0.273907 0.685553 0.915793
O O7 0.236760 0.854611 0.908239
O O8 0.307350 0.791381 0.000000
O O9 0.221745 0.778999 0.500000
O O10 0.239740 0.673871 0.586174
O O11 0.000000 0.743953 0.562106
O O12 0.669110 0.596108 0.500000
O O13 0.500000 0.611499 0.583788
O O14 0.716340 0.500000 0.584394
O O15 0.500000 0.140497 0.246105
O O16 0.249411 0.139000 0.196560
O O17 0.336583 0.000000 0.247043
O O18 0.500000 0.409571 0.077116
O O19 0.735880 0.500000 0.086279
O O20 0.690406 0.408088 0.000000
O O21 0.000000 0.869790 0.851077
O O22 0.183998 0.000000 0.861792
#
# Coordination Sequence:
#
# PCOD8196739 Si02
#       7
#     8   8   8   8   8   8   8
#     4   9  17  29  44  62  87 117 145 174 209 249
#     4   9  17  28  43  65  91 117 145 176 210 250
#     4   9  17  27  40  62  90 118 147 175 205 247
#     4   8  14  25  40  57  79 109 143 178 216 254
#     4   9  17  30  48  66  81 101 138 186 224 252
#     4   7  10  19  37  60  84 109 138 172 207 242
#     4  10  20  32  45  61  84 115 147 178 214 255
#
# _framework density 15.811862
#
# number of rings (size 3 to 8) (size 9 to 14) (size 15 to 20)
#    0.000    3.286    0.000    2.571    0.000    4.286 
#    0.000    4.286    0.000    0.429    0.000    7.000 
#    0.000    5.714    0.000    0.000    0.000    0.000 
#
# Total GULP energy -693776.708588 kJ/mol
# GULP energy per Si atom -12388.869796 kJ/mol
# Density = 1.577587 g / cm^3
# Si number density = 15.811862 Si / 1000 Ang^3
#
#
#
# Elastic Constant Matrix: (Units=GPa)
#
#
# Indices 1 2 3 4 5 6 
#
# 1 74.1611 46.5407 45.3456 0.0000 0.0000 0.0000
# 2 46.5407 83.8048 46.3097 0.0000 0.0000 0.0000
# 3 45.3456 46.3097 72.1614 0.0000 0.0000 0.0000
# 4 0.0000 0.0000 0.0000 2.5336 0.0000 0.0000
# 5 0.0000 0.0000 0.0000 0.0000 22.3799 0.0000
# 6 0.0000 0.0000 0.0000 0.0000 0.0000 18.6371
#
#
#
# Elastic Compliance Matrix: (Units=1/GPa)
#
#
# Indices 1 2 3 4 5 6 
#
# 1 0.024973 -0.008053 -0.010525 0.000000 0.000000 0.000000
# 2 -0.008053 0.021086 -0.008472 0.000000 0.000000 0.000000
# 3 -0.010525 -0.008472 0.025908 0.000000 0.000000 0.000000
# 4 0.000000 0.000000 0.000000 0.394693 0.000000 0.000000
# 5 0.000000 0.000000 0.000000 0.000000 0.044683 0.000000
# 6 0.000000 0.000000 0.000000 0.000000 0.000000 0.053657
#
#
# Mechanical properties :
#
#
# Convention : Reuss Voigt Hill
#
# Bulk Modulus (GPa) = 55.96416 56.27991 56.12203
# Shear Modulus (GPa) = 7.99929 14.83887 11.41908
#
# Velocity S-wave (km/s) = 2.25167 3.06676 2.69026
# Velocity P-wave (km/s) = 6.49851 6.94340 6.72463
#
# Compressibility (1/GPa) = 0.01786858
#
# Stress axis : x y z
#
# Youngs Moduli (GPa) = 40.04270 47.42505 38.59754
#
# Poissons Ratio (x) = 0.38190 0.40624
# Poissons Ratio (y) = 0.32245 0.32698
# Poissons Ratio (z) = 0.42145 0.40177
#
# Static dielectric constant tensor:
#      x y z
#    x 2.964040 0.000000 0.000000 
#    y 0.000000 3.304440 0.000000 
#    z 0.000000 0.000000 2.783080 
# 
# 
# High freq. dielectric constant tensor:
#      x y z
#    x 1.595610 0.000000 0.000000 
#    y 0.000000 1.603800 0.000000 
#    z 0.000000 0.000000 1.571330 
# 
# From -- ./inp_files/34388.got.cif
#   From: 2010.03.12/outbox.cif.g09.slc.cpg/sg47_18_cif.got.tgz:34388.got - 2010.04.14 03:12:58.
