data_PCOD8196391
_publ_section_title
;
Structure prediction by ZEFSAII (Michael W. Deem and Ramdas Pophale) SiO2 
 PCOD8196391
Probable space group: P M M M
;
_chemical_formula_sum "Si O2"
_cell_formula_units_Z 52
_cell_length_a 9.835959
_cell_length_b 15.269142
_cell_length_c 24.342847
_cell_angle_alpha 90.000000
_cell_angle_beta 90.000000
_cell_angle_gamma 90.000000
_cell_volume 3655.970756
_symmetry_space_group_name_H-M "P M M M"
_symmetry_group_IT_number 47
_symmetry_cell_setting 'orthorhombic'
loop_
_space_group_symop_operation_xyz
x,y,z
-x,-y,z
x,-y,-z
-x,y,-z
-x,-y,-z
x,y,-z
-x,y,z
x,-y,z
loop_
_atom_site_type_symbol
_atom_site_label
_atom_site_fract_x
_atom_site_fract_y
_atom_site_fract_z
Si Si1 0.771115 0.898844 0.123152
Si Si2 0.847867 0.104048 0.438636
Si Si3 0.500000 0.897623 0.061343
Si Si4 0.852298 0.258991 0.938598
Si Si5 0.153240 0.898073 0.753658
Si Si6 0.653054 0.596886 0.934793
Si Si7 0.344735 0.895416 0.657300
O O1 0.627382 0.869586 0.097852
O O2 0.872996 0.831569 0.094551
O O3 0.775149 0.882330 0.187982
O O4 0.809200 0.000000 0.109568
O O5 0.814173 0.138463 0.500000
O O6 0.732271 0.139577 0.397300
O O7 0.000000 0.135489 0.420946
O O8 0.845767 0.000000 0.438037
O O9 0.500000 0.000000 0.052385
O O10 0.500000 0.853420 0.000000
O O11 0.751434 0.328813 0.909599
O O12 0.000000 0.304072 0.940469
O O13 0.801045 0.235870 0.000000
O O14 0.256167 0.858123 0.708437
O O15 0.000000 0.856566 0.751307
O O16 0.136833 0.000000 0.741742
O O17 0.500000 0.621625 0.917817
O O18 0.690212 0.500000 0.911801
O O19 0.669570 0.595155 0.000000
O O20 0.500000 0.858953 0.659004
O O21 0.349324 0.000000 0.658752
#
# Coordination Sequence:
#
# PCOD8196391 Si02
#       7
#     8   8   4   8   8   8   8
#     4  10  20  31  43  56  75 102 130 158 188 229
#     4   8  13  21  32  45  62  84 108 134 170 219
#     4   9  18  30  42  56  71  91 120 154 191 227
#     4  10  20  30  42  62  82  99 121 151 188 228
#     4   9  17  28  40  50  64  90 121 150 181 217
#     4   8  15  29  47  63  78  97 119 143 176 222
#     4   9  16  23  33  48  65  83 108 145 182 216
#
# _framework density 14.223309
#
# number of rings (size 3 to 8) (size 9 to 14) (size 15 to 20)
#    0.000    3.000    0.000    2.308    2.154    4.308 
#    0.000    3.846    0.000    0.000    0.000    0.000 
#    0.000    0.000    0.000    0.000    0.000    0.000 
#
# Total GULP energy -644206.031511 kJ/mol
# GULP energy per Si atom -12388.577529 kJ/mol
# Density = 1.419094 g / cm^3
# Si number density = 14.223309 Si / 1000 Ang^3
#
#
#
# Elastic Constant Matrix: (Units=GPa)
#
#
# Indices 1 2 3 4 5 6 
#
# 1 114.1764 23.6702 57.8565 0.0000 0.0000 0.0000
# 2 23.6702 47.6592 16.2014 0.0000 0.0000 0.0000
# 3 57.8565 16.2014 88.0357 0.0000 0.0000 0.0000
# 4 0.0000 0.0000 0.0000 1.9990 0.0000 0.0000
# 5 0.0000 0.0000 0.0000 0.0000 21.1709 0.0000
# 6 0.0000 0.0000 0.0000 0.0000 0.0000 7.0361
#
#
#
# Elastic Compliance Matrix: (Units=1/GPa)
#
#
# Indices 1 2 3 4 5 6 
#
# 1 0.013820 -0.004028 -0.008341 0.000000 0.000000 0.000000
# 2 -0.004028 0.023557 -0.001688 0.000000 0.000000 0.000000
# 3 -0.008341 -0.001688 0.017151 0.000000 0.000000 0.000000
# 4 0.000000 0.000000 0.000000 0.500255 0.000000 0.000000
# 5 0.000000 0.000000 0.000000 0.000000 0.047235 0.000000
# 6 0.000000 0.000000 0.000000 0.000000 0.000000 0.142124
#
#
# Mechanical properties :
#
#
# Convention : Reuss Voigt Hill
#
# Bulk Modulus (GPa) = 37.85914 49.48083 43.66999
# Shear Modulus (GPa) = 6.40155 16.18406 11.29280
#
# Velocity S-wave (km/s) = 2.12380 3.37687 2.82079
# Velocity P-wave (km/s) = 5.71747 7.07590 6.43265
#
# Compressibility (1/GPa) = 0.02641370
#
# Stress axis : x y z
#
# Youngs Moduli (GPa) = 72.35747 42.45061 58.30404
#
# Poissons Ratio (x) = 0.17101 0.48633
# Poissons Ratio (y) = 0.29148 0.09841
# Poissons Ratio (z) = 0.60355 0.07165
#
# Static dielectric constant tensor:
#      x y z
#    x 3.075860 0.000000 0.000000 
#    y 0.000000 2.408780 0.000000 
#    z 0.000000 0.000000 2.777560 
# 
# 
# High freq. dielectric constant tensor:
#      x y z
#    x 1.562450 0.000000 0.000000 
#    y 0.000000 1.471950 0.000000 
#    z 0.000000 0.000000 1.522540 
# 
# From -- ./inp_files/33388.got.cif
#   From: 2010.03.12/outbox.cif.g09.slc.cpg/sg47_17_cif.got.tgz:33388.got - 2010.04.14 03:12:58.
