data_PCOD8196244
_publ_section_title
;
Structure prediction by ZEFSAII (Michael W. Deem and Ramdas Pophale) SiO2 
 PCOD8196244
Probable space group: P M M M
;
_chemical_formula_sum "Si O2"
_cell_formula_units_Z 52
_cell_length_a 25.055985
_cell_length_b 8.775781
_cell_length_c 11.852274
_cell_angle_alpha 90.000000
_cell_angle_beta 90.000000
_cell_angle_gamma 90.000000
_cell_volume 2606.147190
_symmetry_space_group_name_H-M "P M M M"
_symmetry_group_IT_number 47
_symmetry_cell_setting 'orthorhombic'
loop_
_space_group_symop_operation_xyz
x,y,z
-x,-y,z
x,-y,-z
-x,y,-z
-x,-y,-z
x,y,-z
-x,y,z
x,-y,z
loop_
_atom_site_type_symbol
_atom_site_label
_atom_site_fract_x
_atom_site_fract_y
_atom_site_fract_z
Si Si1 0.354340 0.326860 0.871030
Si Si2 0.810252 0.824954 0.000000
Si Si3 0.560186 0.821792 0.273136
Si Si4 0.079936 0.323977 0.000000
Si Si5 0.940993 0.678519 0.245495
Si Si6 0.159034 0.178221 0.631261
Si Si7 0.436589 0.671038 0.500000
Si Si8 0.759829 0.323722 0.207910
O O1 0.374409 0.500000 0.864645
O O2 0.403045 0.221429 0.832428
O O3 0.304123 0.304202 0.786457
O O4 0.338439 0.284840 0.000000
O O5 0.857826 0.706093 0.000000
O O6 0.776852 0.791557 0.889287
O O7 0.829574 0.000000 0.000000
O O8 0.500000 0.761515 0.250393
O O9 0.585081 0.750912 0.387153
O O10 0.559787 0.000000 0.289862
O O11 0.056116 0.257471 0.883407
O O12 0.066439 0.500000 0.000000
O O13 0.925244 0.500000 0.247576
O O14 0.896687 0.770981 0.313450
O O15 0.000000 0.704002 0.299186
O O16 0.155632 0.216080 0.500000
O O17 0.209931 0.271081 0.678874
O O18 0.167420 0.000000 0.654656
O O19 0.414926 0.500000 0.500000
O O20 0.500000 0.681063 0.500000
O O21 0.774268 0.500000 0.180858
#
# Coordination Sequence:
#
# PCOD8196244 Si02
#       8
#     8   4   8   4   8   8   4   8
#     4  10  22  40  61  87 119 155 197 242 292 352
#     4  12  22  33  59  93 120 152 192 235 296 359
#     4  10  21  37  58  87 123 160 199 245 298 351
#     4  10  19  34  58  88 121 154 189 237 292 347
#     4  10  21  37  60  89 120 156 198 242 291 351
#     4  11  25  43  61  85 119 157 197 245 301 355
#     4   9  17  33  59  85 111 151 201 245 286 337
#     4  11  22  41  65  88 116 152 197 246 294 349
#
# _framework density 19.952824
#
# number of rings (size 3 to 8) (size 9 to 14) (size 15 to 20)
#    0.000    1.615    2.308    2.538    0.000    6.462 
#    1.385    3.077    0.000    1.385    0.000    0.000 
#    0.000    0.000    0.000    0.000    0.000    0.000 
#
# Total GULP energy -644673.718783 kJ/mol
# GULP energy per Si atom -12397.571515 kJ/mol
# Density = 1.990741 g / cm^3
# Si number density = 19.952824 Si / 1000 Ang^3
#
#
#
# Elastic Constant Matrix: (Units=GPa)
#
#
# Indices 1 2 3 4 5 6 
#
# 1 108.8251 37.4348 51.3853 0.0000 0.0000 0.0000
# 2 37.4348 68.3228 41.6725 0.0000 0.0000 0.0000
# 3 51.3853 41.6725 114.7065 0.0000 0.0000 0.0000
# 4 0.0000 0.0000 0.0000 43.1304 0.0000 0.0000
# 5 0.0000 0.0000 0.0000 0.0000 12.8544 0.0000
# 6 0.0000 0.0000 0.0000 0.0000 0.0000 23.7079
#
#
#
# Elastic Compliance Matrix: (Units=1/GPa)
#
#
# Indices 1 2 3 4 5 6 
#
# 1 0.012629 -0.004456 -0.004038 0.000000 0.000000 0.000000
# 2 -0.004456 0.020375 -0.005406 0.000000 0.000000 0.000000
# 3 -0.004038 -0.005406 0.012491 0.000000 0.000000 0.000000
# 4 0.000000 0.000000 0.000000 0.023186 0.000000 0.000000
# 5 0.000000 0.000000 0.000000 0.000000 0.077794 0.000000
# 6 0.000000 0.000000 0.000000 0.000000 0.000000 0.042180
#
#
# Mechanical properties :
#
#
# Convention : Reuss Voigt Hill
#
# Bulk Modulus (GPa) = 56.51712 61.42662 58.97187
# Shear Modulus (GPa) = 22.48661 26.69598 24.59130
#
# Velocity S-wave (km/s) = 3.36071 3.66178 3.51447
# Velocity P-wave (km/s) = 6.59136 6.98075 6.78885
#
# Compressibility (1/GPa) = 0.01769375
#
# Stress axis : x y z
#
# Youngs Moduli (GPa) = 79.18381 49.07887 80.05771
#
# Poissons Ratio (x) = 0.21871 0.32331
# Poissons Ratio (y) = 0.35287 0.43279
# Poissons Ratio (z) = 0.31978 0.26532
#
# Static dielectric constant tensor:
#      x y z
#    x 3.571030 0.000000 0.000000 
#    y 0.000000 3.541890 0.000000 
#    z 0.000000 0.000000 3.443320 
# 
# 
# High freq. dielectric constant tensor:
#      x y z
#    x 1.774900 0.000000 0.000000 
#    y 0.000000 1.774710 0.000000 
#    z 0.000000 0.000000 1.773240 
# 
# From -- ./inp_files/19882.got.cif
#   From: 2010.03.12/outbox.cif.g09.slc.cpg/sg47_10_cif.got.tgz:19882.got - 2010.04.14 03:12:58.
