data_PCOD8196951
_publ_section_title
;
Structure prediction by ZEFSAII (Michael W. Deem and Ramdas Pophale) SiO2 
 PCOD8196951
Probable space group: P M M M
;
_chemical_formula_sum "Si O2"
_cell_formula_units_Z 52
_cell_length_a 9.516959
_cell_length_b 33.578325
_cell_length_c 9.091372
_cell_angle_alpha 90.000000
_cell_angle_beta 90.000000
_cell_angle_gamma 90.000000
_cell_volume 2905.271041
_symmetry_space_group_name_H-M "P M M M"
_symmetry_group_IT_number 47
_symmetry_cell_setting 'orthorhombic'
loop_
_space_group_symop_operation_xyz
x,y,z
-x,-y,z
x,-y,-z
-x,y,-z
-x,-y,-z
x,y,-z
-x,y,z
x,-y,z
loop_
_atom_site_type_symbol
_atom_site_label
_atom_site_fract_x
_atom_site_fract_y
_atom_site_fract_z
Si Si1 0.167530 0.077837 0.833661
Si Si2 0.832475 0.000000 0.333654
Si Si3 0.167332 0.689060 0.333927
Si Si4 0.337458 0.454043 0.332140
Si Si5 0.167608 0.766517 0.833726
Si Si6 0.837099 0.389519 0.828857
Si Si7 0.167517 0.155651 0.666300
O O1 0.225191 0.116834 0.750545
O O2 0.000000 0.077842 0.833977
O O3 0.225123 0.038942 0.749850
O O4 0.225309 0.077737 0.000000
O O5 0.774683 0.000000 0.500000
O O6 0.000000 0.000000 0.334007
O O7 0.225110 0.690160 0.500000
O O8 0.226722 0.727287 0.247173
O O9 0.222228 0.649024 0.256199
O O10 0.000000 0.690026 0.331576
O O11 0.296455 0.443939 0.500000
O O12 0.500000 0.444375 0.304422
O O13 0.305845 0.500000 0.298056
O O14 0.245188 0.428431 0.221584
O O15 0.225018 0.805240 0.748742
O O16 0.000000 0.766336 0.833270
O O17 0.225093 0.767203 0.000000
O O18 0.000000 0.396446 0.792577
O O19 0.811850 0.382108 0.000000
O O20 0.225330 0.155417 0.500000
O O21 0.000000 0.155603 0.666036
#
# Coordination Sequence:
#
# PCOD8196951 Si02
#       7
#     8   4   8   8   8   8   8
#     4   9  15  21  27  34  44  59  82 115 157 205
#     4   9  15  21  27  33  41  55  77 109 153 205
#     4   9  16  26  40  57  78 105 135 165 199 241
#     4   9  19  36  55  73  94 122 156 191 226 266
#     4   9  15  22  32  46  65  88 113 143 181 225
#     4  10  20  32  47  70  98 124 151 185 224 266
#     4   9  15  21  28  38  52  71  97 128 163 209
#
# _framework density 17.898503000000002
#
# number of rings (size 3 to 8) (size 9 to 14) (size 15 to 20)
#    0.000    2.846    0.000    3.000    0.000   10.154 
#    0.000    2.308    0.000    0.000    0.000    0.000 
#    0.000    0.000    0.000    0.000    0.000    0.000 
#
# Total GULP energy -644767.949016 kJ/mol
# GULP energy per Si atom -12399.383635 kJ/mol
# Density = 1.785776 g / cm^3
# Si number density = 17.898503 Si / 1000 Ang^3
#
#
#
# Elastic Constant Matrix: (Units=GPa)
#
#
# Indices 1 2 3 4 5 6 
#
# 1 12.9248 25.1181 20.6022 0.0000 0.0000 0.0000
# 2 25.1181 161.4142 93.3233 0.0000 0.0000 0.0000
# 3 20.6022 93.3233 170.2988 0.0000 0.0000 0.0000
# 4 0.0000 0.0000 0.0000 43.5600 0.0000 0.0000
# 5 0.0000 0.0000 0.0000 0.0000 10.8787 0.0000
# 6 0.0000 0.0000 0.0000 0.0000 0.0000 -0.7476
#
#
#
# Elastic Compliance Matrix: (Units=1/GPa)
#
#
# Indices 1 2 3 4 5 6 
#
# 1 0.114964 -0.014416 -0.006008 0.000000 0.000000 0.000000
# 2 -0.014416 0.010876 -0.004216 0.000000 0.000000 0.000000
# 3 -0.006008 -0.004216 0.008909 0.000000 0.000000 0.000000
# 4 0.000000 0.000000 0.000000 0.022957 0.000000 0.000000
# 5 0.000000 0.000000 0.000000 0.000000 0.091923 0.000000
# 6 0.000000 0.000000 0.000000 0.000000 0.000000 -1.337562
#
#
# Mechanical properties :
#
#
# Convention : Reuss Voigt Hill
#
# Bulk Modulus (GPa) = 11.70016 69.19168 40.44592
# Shear Modulus (GPa) = -4.94970 24.44450 9.74740
#
# Velocity S-wave (km/s) = -1.66476 3.69959 2.33618
# Velocity P-wave (km/s) = 1.68994 7.54924 5.47023
#
# Compressibility (1/GPa) = 0.08546895
#
# Stress axis : x y z
#
# Youngs Moduli (GPa) = 8.69836 91.94404 112.24309
#
# Poissons Ratio (x) = 1.32550 0.67434
# Poissons Ratio (y) = 0.12540 0.47322
# Poissons Ratio (z) = 0.05226 0.38764
#
# Static dielectric constant tensor:
#      x y z
#    x 2.460620 0.000000 0.000000 
#    y 0.000000 3.508830 0.000000 
#    z 0.000000 0.000000 3.510520 
# 
# 
# High freq. dielectric constant tensor:
#      x y z
#    x 1.595780 0.000000 0.000000 
#    y 0.000000 1.712460 0.000000 
#    z 0.000000 0.000000 1.711680 
# 
# From -- ./inp_files/4750.got.cif
#   From: 2010.03.12/outbox.cif.g09.slc.cpg/sg47_3_cif.got.tgz:4750.got - 2010.04.14 03:12:58.
