data_PCOD8196108
_publ_section_title
;
Structure prediction by ZEFSAII (Michael W. Deem and Ramdas Pophale) SiO2 
 PCOD8196108
Probable space group: P M M M
;
_chemical_formula_sum "Si O2"
_cell_formula_units_Z 40
_cell_length_a 7.670284
_cell_length_b 11.656658
_cell_length_c 21.550927
_cell_angle_alpha 90.000000
_cell_angle_beta 90.000000
_cell_angle_gamma 90.000000
_cell_volume 1926.865740
_symmetry_space_group_name_H-M "P M M M"
_symmetry_group_IT_number 47
_symmetry_cell_setting 'orthorhombic'
loop_
_space_group_symop_operation_xyz
x,y,z
-x,-y,z
x,-y,-z
-x,y,-z
-x,-y,-z
x,y,-z
-x,y,z
x,-y,z
loop_
_atom_site_type_symbol
_atom_site_label
_atom_site_fract_x
_atom_site_fract_y
_atom_site_fract_z
Si Si1 0.706459 0.241599 0.379929
Si Si2 0.293192 0.500000 0.931691
Si Si3 0.000000 0.864612 0.928631
Si Si4 0.706709 0.000000 0.429358
Si Si5 0.801604 0.630672 0.257133
Si Si6 0.301259 0.728345 0.132893
Si Si7 0.292610 0.372791 0.500000
O O1 0.500000 0.250176 0.372880
O O2 0.792969 0.300249 0.320954
O O3 0.777188 0.309451 0.439363
O O4 0.768538 0.110323 0.389816
O O5 0.500000 0.500000 0.933354
O O6 0.226229 0.388085 0.896751
O O7 0.211887 0.500000 0.000000
O O8 0.826145 0.827428 0.891435
O O9 0.000000 0.000000 0.928856
O O10 0.000000 0.818575 0.000000
O O11 0.500000 0.000000 0.435813
O O12 0.783232 0.000000 0.500000
O O13 0.724777 0.500000 0.263232
O O14 0.699135 0.707514 0.206832
O O15 0.000000 0.622606 0.235507
O O16 0.500000 0.757831 0.112472
O O17 0.215336 0.500000 0.500000
O O18 0.500000 0.372430 0.500000
#
# Coordination Sequence:
#
# PCOD8196108 Si02
#       7
#     8   4   4   4   8   8   4
#     4  10  19  33  56  84 115 154 203 258 315 382
#     4   9  18  33  61 101 132 158 203 261 323 389
#     4  11  26  47  69  97 135 177 223 272 317 371
#     4   9  16  32  57  85 115 149 199 262 321 377
#     4  11  23  40  60  86 125 168 208 257 325 397
#     4  11  22  41  68  98 133 173 217 266 324 388
#     4   9  16  27  48  80 111 143 194 257 316 377
#
# _framework density 20.759101000000001
#
# number of rings (size 3 to 8) (size 9 to 14) (size 15 to 20)
#    0.000    1.800    3.000    1.800    0.000    4.000 
#    1.800    3.000    0.000    2.400    0.000    0.000 
#    0.000    0.000    0.000    0.000    0.000    0.000 
#
# Total GULP energy -495941.020105 kJ/mol
# GULP energy per Si atom -12398.525503 kJ/mol
# Density = 2.071185 g / cm^3
# Si number density = 20.759101 Si / 1000 Ang^3
#
#
#
# Elastic Constant Matrix: (Units=GPa)
#
#
# Indices 1 2 3 4 5 6 
#
# 1 74.3869 27.7826 19.3827 0.0000 0.0000 0.0000
# 2 27.7826 134.9268 56.0498 0.0000 0.0000 0.0000
# 3 19.3827 56.0498 149.4301 0.0000 0.0000 0.0000
# 4 0.0000 0.0000 0.0000 34.4904 0.0000 0.0000
# 5 0.0000 0.0000 0.0000 0.0000 22.2208 0.0000
# 6 0.0000 0.0000 0.0000 0.0000 0.0000 21.3606
#
#
#
# Elastic Compliance Matrix: (Units=1/GPa)
#
#
# Indices 1 2 3 4 5 6 
#
# 1 0.014667 -0.002641 -0.000912 0.000000 0.000000 0.000000
# 2 -0.002641 0.009255 -0.003129 0.000000 0.000000 0.000000
# 3 -0.000912 -0.003129 0.007984 0.000000 0.000000 0.000000
# 4 0.000000 0.000000 0.000000 0.028994 0.000000 0.000000
# 5 0.000000 0.000000 0.000000 0.000000 0.045003 0.000000
# 6 0.000000 0.000000 0.000000 0.000000 0.000000 0.046815
#
#
# Mechanical properties :
#
#
# Convention : Reuss Voigt Hill
#
# Bulk Modulus (GPa) = 53.93062 62.79713 58.36388
# Shear Modulus (GPa) = 29.02541 32.64959 30.83750
#
# Velocity S-wave (km/s) = 3.74331 3.97014 3.85839
# Velocity P-wave (km/s) = 6.68721 7.16464 6.93004
#
# Compressibility (1/GPa) = 0.01854234
#
# Stress axis : x y z
#
# Youngs Moduli (GPa) = 68.17876 108.04887 125.25097
#
# Poissons Ratio (x) = 0.28540 0.11420
# Poissons Ratio (y) = 0.18009 0.39189
# Poissons Ratio (z) = 0.06216 0.33807
#
# Static dielectric constant tensor:
#      x y z
#    x 3.414260 0.000000 0.000000 
#    y 0.000000 3.852400 0.000000 
#    z 0.000000 0.000000 3.829670 
# 
# 
# High freq. dielectric constant tensor:
#      x y z
#    x 1.796780 0.000000 0.000000 
#    y 0.000000 1.807600 0.000000 
#    z 0.000000 0.000000 1.818700 
# 
# From -- ./inp_files/29399.got.cif
#   From: 2010.03.12/outbox.cif.g09.slc.cpg/sg47_15_cif.got.tgz:29399.got - 2010.04.14 03:12:58.
