data_PCOD8196714
_publ_section_title
;
Structure prediction by ZEFSAII (Michael W. Deem and Ramdas Pophale) SiO2 
 PCOD8196714
Probable space group: P M M M
;
_chemical_formula_sum "Si O2"
_cell_formula_units_Z 56
_cell_length_a 20.184443
_cell_length_b 25.407064
_cell_length_c 9.173103
_cell_angle_alpha 90.000000
_cell_angle_beta 90.000000
_cell_angle_gamma 90.000000
_cell_volume 4704.218883
_symmetry_space_group_name_H-M "P M M M"
_symmetry_group_IT_number 47
_symmetry_cell_setting 'orthorhombic'
loop_
_space_group_symop_operation_xyz
x,y,z
-x,-y,z
x,-y,-z
-x,y,-z
-x,-y,-z
x,y,-z
-x,y,z
x,-y,z
loop_
_atom_site_type_symbol
_atom_site_label
_atom_site_fract_x
_atom_site_fract_y
_atom_site_fract_z
Si Si1 0.301982 0.437330 0.663606
Si Si2 0.078766 0.058023 0.163811
Si Si3 0.079100 0.842381 0.663974
Si Si4 0.573088 0.437409 0.163817
Si Si5 0.078117 0.362510 0.331205
Si Si6 0.172174 0.437903 0.831579
Si Si7 0.921183 0.741064 0.164623
O O1 0.294056 0.415279 0.500000
O O2 0.304356 0.500000 0.662737
O O3 0.370156 0.414240 0.730917
O O4 0.240693 0.417748 0.761023
O O5 0.107480 0.103260 0.268857
O O6 0.000000 0.060520 0.164121
O O7 0.102000 0.000000 0.218040
O O8 0.104738 0.068203 0.000000
O O9 0.106104 0.837046 0.500000
O O10 0.106460 0.793580 0.758204
O O11 0.000000 0.842484 0.665256
O O12 0.500000 0.419245 0.218307
O O13 0.576718 0.500000 0.163635
O O14 0.585678 0.416654 0.000000
O O15 0.098655 0.360771 0.500000
O O16 0.111126 0.412049 0.252678
O O17 0.103922 0.309194 0.255206
O O18 0.000000 0.369168 0.312189
O O19 0.164047 0.500000 0.813271
O O20 0.171451 0.421001 0.000000
O O21 0.000000 0.742402 0.163233
O O22 0.893372 0.738231 0.000000
#
# Coordination Sequence:
#
# PCOD8196714 Si02
#       7
#     8   8   8   8   8   8   8
#     4   9  16  25  37  52  69  87 106 127 149 174
#     4   8  13  20  28  38  54  76  99 119 138 163
#     4   9  15  21  30  44  60  76  94 116 142 171
#     4   8  13  21  33  49  69  91 111 128 145 166
#     4  10  20  32  44  56  68  79  94 122 159 195
#     4  10  20  32  44  55  67  84 104 124 149 187
#     4   9  16  26  39  51  62  76  94 116 144 180
#
# _framework density 11.904208000000001
#
# number of rings (size 3 to 8) (size 9 to 14) (size 15 to 20)
#    0.000    3.000    0.000    3.000    0.000    7.714 
#    0.000    4.286    0.000    0.000    0.000    0.000 
#    0.000    0.000    0.000    0.000    0.000    0.000 
#
# Total GULP energy -694137.338278 kJ/mol
# GULP energy per Si atom -12395.309612 kJ/mol
# Density = 1.187711 g / cm^3
# Si number density = 11.904208 Si / 1000 Ang^3
#
#
#
# Elastic Constant Matrix: (Units=GPa)
#
#
# Indices 1 2 3 4 5 6 
#
# 1 33.3426 21.5939 32.4899 0.0000 0.0000 0.0000
# 2 21.5939 48.9008 41.3904 0.0000 0.0000 0.0000
# 3 32.4899 41.3904 111.2858 0.0000 0.0000 0.0000
# 4 0.0000 0.0000 0.0000 19.4961 0.0000 0.0000
# 5 0.0000 0.0000 0.0000 0.0000 15.2305 0.0000
# 6 0.0000 0.0000 0.0000 0.0000 0.0000 0.3190
#
#
#
# Elastic Compliance Matrix: (Units=1/GPa)
#
#
# Indices 1 2 3 4 5 6 
#
# 1 0.047264 -0.013415 -0.008809 0.000000 0.000000 0.000000
# 2 -0.013415 0.033652 -0.008600 0.000000 0.000000 0.000000
# 3 -0.008809 -0.008600 0.014756 0.000000 0.000000 0.000000
# 4 0.000000 0.000000 0.000000 0.051292 0.000000 0.000000
# 5 0.000000 0.000000 0.000000 0.000000 0.065658 0.000000
# 6 0.000000 0.000000 0.000000 0.000000 0.000000 3.134586
#
#
# Mechanical properties :
#
#
# Convention : Reuss Voigt Hill
#
# Bulk Modulus (GPa) = 29.39052 42.71971 36.05512
# Shear Modulus (GPa) = 1.46190 13.54611 7.50401
#
# Velocity S-wave (km/s) = 1.10938 3.37698 2.51343
# Velocity P-wave (km/s) = 5.13651 7.15328 6.22708
#
# Compressibility (1/GPa) = 0.03402457
#
# Stress axis : x y z
#
# Youngs Moduli (GPa) = 21.15796 29.71559 67.76773
#
# Poissons Ratio (x) = 0.39862 0.59699
# Poissons Ratio (y) = 0.28383 0.58279
# Poissons Ratio (z) = 0.18639 0.25555
#
# Static dielectric constant tensor:
#      x y z
#    x 2.201770 0.000000 0.000000 
#    y 0.000000 2.382640 0.000000 
#    z 0.000000 0.000000 2.706700 
# 
# 
# High freq. dielectric constant tensor:
#      x y z
#    x 1.397230 0.000000 0.000000 
#    y 0.000000 1.422770 0.000000 
#    z 0.000000 0.000000 1.470110 
# 
# From -- ./inp_files/11735.got.cif
#   From: 2010.03.12/outbox.cif.g09.slc.cpg/sg47_6_cif.got.tgz:11735.got - 2010.04.14 03:12:58.
