data_PCOD8196823
_publ_section_title
;
Structure prediction by ZEFSAII (Michael W. Deem and Ramdas Pophale) SiO2 
 PCOD8196823
Probable space group: P M M M
;
_chemical_formula_sum "Si O2"
_cell_formula_units_Z 44
_cell_length_a 20.647645
_cell_length_b 13.923286
_cell_length_c 9.286892
_cell_angle_alpha 90.000000
_cell_angle_beta 90.000000
_cell_angle_gamma 90.000000
_cell_volume 2669.824191
_symmetry_space_group_name_H-M "P M M M"
_symmetry_group_IT_number 47
_symmetry_cell_setting 'orthorhombic'
loop_
_space_group_symop_operation_xyz
x,y,z
-x,-y,z
x,-y,-z
-x,y,-z
-x,-y,-z
x,y,-z
-x,y,z
x,-y,z
loop_
_atom_site_type_symbol
_atom_site_label
_atom_site_fract_x
_atom_site_fract_y
_atom_site_fract_z
Si Si1 0.928721 0.385991 0.838503
Si Si2 0.622773 0.107679 0.163952
Si Si3 0.194396 0.387242 0.332568
Si Si4 0.687919 0.296564 0.834388
Si Si5 0.500000 0.114152 0.338975
Si Si6 0.427002 0.613508 0.662858
O O1 0.929369 0.500000 0.836413
O O2 0.873599 0.348164 0.730634
O O3 0.000000 0.348277 0.789826
O O4 0.913253 0.349453 0.000000
O O5 0.683002 0.180591 0.180639
O O6 0.564637 0.150057 0.260294
O O7 0.644172 0.000000 0.211971
O O8 0.597800 0.106009 0.000000
O O9 0.195264 0.363439 0.500000
O O10 0.203730 0.500000 0.302588
O O11 0.251819 0.330731 0.257705
O O12 0.621592 0.342384 0.778183
O O13 0.697751 0.327510 0.000000
O O14 0.500000 0.156087 0.500000
O O15 0.500000 0.000000 0.336532
O O16 0.405158 0.639975 0.500000
O O17 0.500000 0.652931 0.691136
O O18 0.426309 0.500000 0.682509
#
# Coordination Sequence:
#
# PCOD8196823 Si02
#       6
#     8   8   8   8   4   8
#     4   8  14  26  45  68  94 124 156 189 222 255
#     4   9  19  35  50  64  87 116 144 181 232 286
#     4  10  20  32  46  66  95 129 159 187 223 267
#     4  11  22  32  47  68  88 115 153 192 230 272
#     4   9  17  29  47  69  86 103 134 177 225 276
#     4   9  19  35  50  63  84 116 150 185 229 275
#
# _framework density 16.480485000000002
#
# number of rings (size 3 to 8) (size 9 to 14) (size 15 to 20)
#    0.000    2.636    0.000    3.000    1.273    6.909 
#    0.000    2.727    0.000    0.000    0.000    0.000 
#    0.000    0.727    0.000    8.364    0.000    2.727 
#
# Total GULP energy -545461.628542 kJ/mol
# GULP energy per Si atom -12396.855194 kJ/mol
# Density = 1.644298 g / cm^3
# Si number density = 16.480485 Si / 1000 Ang^3
#
#
#
# Elastic Constant Matrix: (Units=GPa)
#
#
# Indices 1 2 3 4 5 6 
#
# 1 128.1090 42.6059 75.2999 0.0000 0.0000 0.0000
# 2 42.6059 39.4049 38.0256 0.0000 0.0000 0.0000
# 3 75.2999 38.0256 113.3898 0.0000 0.0000 0.0000
# 4 0.0000 0.0000 0.0000 15.5422 0.0000 0.0000
# 5 0.0000 0.0000 0.0000 0.0000 30.6523 0.0000
# 6 0.0000 0.0000 0.0000 0.0000 0.0000 10.0916
#
#
#
# Elastic Compliance Matrix: (Units=1/GPa)
#
#
# Indices 1 2 3 4 5 6 
#
# 1 0.014969 -0.009746 -0.006672 0.000000 0.000000 0.000000
# 2 -0.009746 0.043865 -0.008238 0.000000 0.000000 0.000000
# 3 -0.006672 -0.008238 0.016013 0.000000 0.000000 0.000000
# 4 0.000000 0.000000 0.000000 0.064341 0.000000 0.000000
# 5 0.000000 0.000000 0.000000 0.000000 0.032624 0.000000
# 6 0.000000 0.000000 0.000000 0.000000 0.000000 0.099092
#
#
# Mechanical properties :
#
#
# Convention : Reuss Voigt Hill
#
# Bulk Modulus (GPa) = 39.16364 65.86293 52.51329
# Shear Modulus (GPa) = 15.21012 19.58871 17.39941
#
# Velocity S-wave (km/s) = 3.04125 3.45135 3.25277
# Velocity P-wave (km/s) = 6.01228 7.47886 6.78531
#
# Compressibility (1/GPa) = 0.02553389
#
# Stress axis : x y z
#
# Youngs Moduli (GPa) = 66.80468 22.79706 62.45087
#
# Poissons Ratio (x) = 0.22219 0.41668
# Poissons Ratio (y) = 0.65111 0.51447
# Poissons Ratio (z) = 0.44573 0.18780
#
# Static dielectric constant tensor:
#      x y z
#    x 3.207970 0.000000 0.000000 
#    y 0.000000 2.962250 0.000000 
#    z 0.000000 0.000000 3.257260 
# 
# 
# High freq. dielectric constant tensor:
#      x y z
#    x 1.620920 0.000000 0.000000 
#    y 0.000000 1.605170 0.000000 
#    z 0.000000 0.000000 1.644150 
# 
# From -- ./inp_files/10875.got.cif
#   From: 2010.03.12/outbox.cif.g09.slc.cpg/sg47_6_cif.got.tgz:10875.got - 2010.04.14 03:12:58.
