data_PCOD8196583
_publ_section_title
;
Structure prediction by ZEFSAII (Michael W. Deem and Ramdas Pophale) SiO2 
 PCOD8196583
Probable space group: P M M M
;
_chemical_formula_sum "Si O2"
_cell_formula_units_Z 64
_cell_length_a 9.392238
_cell_length_b 24.014504
_cell_length_c 18.649274
_cell_angle_alpha 90.000000
_cell_angle_beta 90.000000
_cell_angle_gamma 90.000000
_cell_volume 4206.342576
_symmetry_space_group_name_H-M "P M M M"
_symmetry_group_IT_number 47
_symmetry_cell_setting 'orthorhombic'
loop_
_space_group_symop_operation_xyz
x,y,z
-x,-y,z
x,-y,-z
-x,y,-z
-x,-y,-z
x,y,-z
-x,y,z
x,-y,z
loop_
_atom_site_type_symbol
_atom_site_label
_atom_site_fract_x
_atom_site_fract_y
_atom_site_fract_z
Si Si1 0.161429 0.268819 0.208978
Si Si2 0.164143 0.062939 0.792041
Si Si3 0.167844 0.672817 0.350645
Si Si4 0.664968 0.772949 0.583377
Si Si5 0.835131 0.162926 0.305050
Si Si6 0.665454 0.111376 0.081070
Si Si7 0.333571 0.761183 0.920084
Si Si8 0.168887 0.439194 0.580471
O O1 0.199351 0.316553 0.266825
O O2 0.191416 0.209121 0.244431
O O3 0.256557 0.277265 0.138492
O O4 0.000000 0.273948 0.183380
O O5 0.213477 0.103830 0.728011
O O6 0.249197 0.072383 0.865125
O O7 0.000000 0.074734 0.809925
O O8 0.189787 0.000000 0.765433
O O9 0.254349 0.715497 0.399931
O O10 0.222249 0.610440 0.368166
O O11 0.000000 0.681479 0.367048
O O12 0.680324 0.786898 0.500000
O O13 0.500000 0.767283 0.606010
O O14 0.736933 0.823952 0.626505
O O15 0.000000 0.162793 0.329470
O O16 0.500000 0.106216 0.099750
O O17 0.715971 0.175090 0.089335
O O18 0.694822 0.090868 0.000000
O O19 0.500000 0.755963 0.907168
O O20 0.293410 0.740357 0.000000
O O21 0.225959 0.428358 0.500000
O O22 0.223838 0.500000 0.607751
O O23 0.000000 0.439523 0.579451
#
# Coordination Sequence:
#
# PCOD8196583 Si02
#       8
#     8   8   8   8   8   8   8   8
#     4   9  16  26  41  62  85 110 140 173 213 256
#     4  10  20  33  48  65  85 108 138 177 215 255
#     4   9  17  28  43  65  93 120 147 180 215 250
#     4  10  20  31  45  67  90 111 139 176 215 256
#     4   9  18  32  47  64  85 109 138 170 211 261
#     4   9  18  31  45  62  85 113 144 175 207 249
#     4   9  17  28  42  60  82 110 142 173 208 252
#     4   8  13  22  39  63  89 120 157 187 207 236
#
# _framework density 15.215118
#
# number of rings (size 3 to 8) (size 9 to 14) (size 15 to 20)
#    0.000    2.875    1.250    2.625    0.000    5.000 
#    0.000    2.500    0.000    0.750    0.000    4.375 
#    0.000    0.500    0.000    6.250    0.000    1.000 
#
# Total GULP energy -793380.343404 kJ/mol
# GULP energy per Si atom -12396.567866 kJ/mol
# Density = 1.518049 g / cm^3
# Si number density = 15.215118 Si / 1000 Ang^3
#
#
#
# Elastic Constant Matrix: (Units=GPa)
#
#
# Indices 1 2 3 4 5 6 
#
# 1 53.4597 32.9150 48.2157 0.0000 0.0000 0.0000
# 2 32.9150 105.9259 60.2165 0.0000 0.0000 0.0000
# 3 48.2157 60.2165 101.0874 0.0000 0.0000 0.0000
# 4 0.0000 0.0000 0.0000 24.3883 0.0000 0.0000
# 5 0.0000 0.0000 0.0000 0.0000 28.3951 0.0000
# 6 0.0000 0.0000 0.0000 0.0000 0.0000 10.0345
#
#
#
# Elastic Compliance Matrix: (Units=1/GPa)
#
#
# Indices 1 2 3 4 5 6 
#
# 1 0.033100 -0.001981 -0.014608 0.000000 0.000000 0.000000
# 2 -0.001981 0.014393 -0.007629 0.000000 0.000000 0.000000
# 3 -0.014608 -0.007629 0.021404 0.000000 0.000000 0.000000
# 4 0.000000 0.000000 0.000000 0.041003 0.000000 0.000000
# 5 0.000000 0.000000 0.000000 0.000000 0.035217 0.000000
# 6 0.000000 0.000000 0.000000 0.000000 0.000000 0.099656
#
#
# Mechanical properties :
#
#
# Convention : Reuss Voigt Hill
#
# Bulk Modulus (GPa) = 48.87069 60.35191 54.61130
# Shear Modulus (GPa) = 16.66498 20.50530 18.58514
#
# Velocity S-wave (km/s) = 3.31311 3.67508 3.49878
# Velocity P-wave (km/s) = 6.84289 7.60001 7.23136
#
# Compressibility (1/GPa) = 0.02046216
#
# Stress axis : x y z
#
# Youngs Moduli (GPa) = 30.21120 69.47846 46.72004
#
# Poissons Ratio (x) = 0.13766 0.68247
# Poissons Ratio (y) = 0.05986 0.35641
# Poissons Ratio (z) = 0.44131 0.53003
#
# Static dielectric constant tensor:
#      x y z
#    x 2.813180 0.000000 0.000000 
#    y 0.000000 2.959980 0.000000 
#    z 0.000000 0.000000 2.886630 
# 
# 
# High freq. dielectric constant tensor:
#      x y z
#    x 1.573210 0.000000 0.000000 
#    y 0.000000 1.557300 0.000000 
#    z 0.000000 0.000000 1.575060 
# 
# From -- ./inp_files/27169.got.cif
#   From: 2010.03.12/outbox.cif.g09.slc.cpg/sg47_14_cif.got.tgz:27169.got - 2010.04.14 03:12:58.
