data_PCOD8196085
_publ_section_title
;
Structure prediction by ZEFSAII (Michael W. Deem and Ramdas Pophale) SiO2 
 PCOD8196085
Probable space group: P M M M
;
_chemical_formula_sum "Si O2"
_cell_formula_units_Z 52
_cell_length_a 19.622578
_cell_length_b 9.439292
_cell_length_c 14.902521
_cell_angle_alpha 90.000000
_cell_angle_beta 90.000000
_cell_angle_gamma 90.000000
_cell_volume 2760.293276
_symmetry_space_group_name_H-M "P M M M"
_symmetry_group_IT_number 47
_symmetry_cell_setting 'orthorhombic'
loop_
_space_group_symop_operation_xyz
x,y,z
-x,-y,z
x,-y,-z
-x,y,-z
-x,-y,-z
x,y,-z
-x,y,z
x,-y,z
loop_
_atom_site_type_symbol
_atom_site_label
_atom_site_fract_x
_atom_site_fract_y
_atom_site_fract_z
Si Si1 0.182568 0.835854 0.641708
Si Si2 0.127530 0.160463 0.163847
Si Si3 0.630467 0.334023 0.212505
Si Si4 0.000000 0.666769 0.896005
Si Si5 0.269286 0.838980 0.098999
Si Si6 0.075166 0.167475 0.500000
Si Si7 0.500000 0.331307 0.103554
Si Si8 0.683162 0.663769 0.599752
O O1 0.165474 0.806672 0.743861
O O2 0.116693 0.782401 0.587119
O O3 0.248521 0.751802 0.610968
O O4 0.197759 0.000000 0.621899
O O5 0.066779 0.269120 0.149349
O O6 0.187617 0.183630 0.091835
O O7 0.098278 0.000000 0.160699
O O8 0.635511 0.500000 0.195339
O O9 0.697604 0.264493 0.171045
O O10 0.564762 0.273105 0.159734
O O11 0.629227 0.299353 0.319953
O O12 0.000000 0.500000 0.880027
O O13 0.000000 0.707857 0.000000
O O14 0.284858 0.000000 0.129264
O O15 0.299357 0.808208 0.000000
O O16 0.000000 0.238521 0.500000
O O17 0.066459 0.000000 0.500000
O O18 0.500000 0.500000 0.102733
O O19 0.500000 0.274785 0.000000
O O20 0.651589 0.694721 0.500000
O O21 0.703607 0.500000 0.608052
#
# Coordination Sequence:
#
# PCOD8196085 Si02
#       8
#     8   8   8   4   8   4   4   8
#     4  10  19  33  56  80 102 136 180 223 269 324
#     4  10  21  36  56  79 104 137 181 227 278 332
#     4  10  20  35  56  81 110 147 188 227 272 328
#     4  11  25  41  55  74 103 142 186 228 274 333
#     4  10  20  34  54  81 110 138 175 227 280 329
#     4   9  18  30  49  77 105 130 169 222 266 311
#     4   9  18  34  56  82 112 147 189 233 276 329
#     4  10  20  34  53  79 112 144 177 224 281 329
#
# _framework density 18.838577000000001
#
# number of rings (size 3 to 8) (size 9 to 14) (size 15 to 20)
#    0.000    2.077    2.308    1.154    1.077    3.385 
#    0.000    0.769    0.000    4.154    0.000    0.000 
#    0.000    2.462    0.000    0.000    0.000    0.000 
#
# Total GULP energy -644567.808227 kJ/mol
# GULP energy per Si atom -12395.534774 kJ/mol
# Density = 1.879570 g / cm^3
# Si number density = 18.838577 Si / 1000 Ang^3
#
#
#
# Elastic Constant Matrix: (Units=GPa)
#
#
# Indices 1 2 3 4 5 6 
#
# 1 96.9837 30.8063 54.8172 0.0000 0.0000 0.0000
# 2 30.8063 44.3423 36.3443 0.0000 0.0000 0.0000
# 3 54.8172 36.3443 133.5362 0.0000 0.0000 0.0000
# 4 0.0000 0.0000 0.0000 19.6422 0.0000 0.0000
# 5 0.0000 0.0000 0.0000 0.0000 34.4652 0.0000
# 6 0.0000 0.0000 0.0000 0.0000 0.0000 17.4149
#
#
#
# Elastic Compliance Matrix: (Units=1/GPa)
#
#
# Indices 1 2 3 4 5 6 
#
# 1 0.014891 -0.006867 -0.004244 0.000000 0.000000 0.000000
# 2 -0.006867 0.032194 -0.005943 0.000000 0.000000 0.000000
# 3 -0.004244 -0.005943 0.010848 0.000000 0.000000 0.000000
# 4 0.000000 0.000000 0.000000 0.050911 0.000000 0.000000
# 5 0.000000 0.000000 0.000000 0.000000 0.029015 0.000000
# 6 0.000000 0.000000 0.000000 0.000000 0.000000 0.057422
#
#
# Mechanical properties :
#
#
# Convention : Reuss Voigt Hill
#
# Bulk Modulus (GPa) = 41.97263 57.64420 49.80842
# Shear Modulus (GPa) = 21.06766 24.49740 22.78253
#
# Velocity S-wave (km/s) = 3.34776 3.61000 3.48135
# Velocity P-wave (km/s) = 6.10507 6.93120 6.53121
#
# Compressibility (1/GPa) = 0.02382505
#
# Stress axis : x y z
#
# Youngs Moduli (GPa) = 67.15486 31.06182 92.18051
#
# Poissons Ratio (x) = 0.21330 0.39120
# Poissons Ratio (y) = 0.46115 0.54785
# Poissons Ratio (z) = 0.28499 0.18461
#
# Static dielectric constant tensor:
#      x y z
#    x 3.395010 0.000000 0.000000 
#    y 0.000000 3.221050 0.000000 
#    z 0.000000 0.000000 3.854570 
# 
# 
# High freq. dielectric constant tensor:
#      x y z
#    x 1.717150 0.000000 0.000000 
#    y 0.000000 1.706180 0.000000 
#    z 0.000000 0.000000 1.752610 
# 
# From -- ./inp_files/25112.got.cif
#   From: 2010.03.12/outbox.cif.g09.slc.cpg/sg47_13_cif.got.tgz:25112.got - 2010.04.14 03:12:58.
