data_PCOD8196616
_publ_section_title
;
Structure prediction by ZEFSAII (Michael W. Deem and Ramdas Pophale) SiO2 
 PCOD8196616
Probable space group: P M M M
;
_chemical_formula_sum "Si O2"
_cell_formula_units_Z 64
_cell_length_a 18.625205
_cell_length_b 9.338105
_cell_length_c 23.533606
_cell_angle_alpha 90.000000
_cell_angle_beta 90.000000
_cell_angle_gamma 90.000000
_cell_volume 4093.061712
_symmetry_space_group_name_H-M "P M M M"
_symmetry_group_IT_number 47
_symmetry_cell_setting 'orthorhombic'
loop_
_space_group_symop_operation_xyz
x,y,z
-x,-y,z
x,-y,-z
-x,y,-z
-x,-y,-z
x,y,-z
-x,y,z
x,-y,z
loop_
_atom_site_type_symbol
_atom_site_label
_atom_site_fract_x
_atom_site_fract_y
_atom_site_fract_z
Si Si1 0.207661 0.834521 0.935785
Si Si2 0.079837 0.667911 0.754194
Si Si3 0.304546 0.833764 0.166420
Si Si4 0.789664 0.162342 0.274828
Si Si5 0.583184 0.334821 0.768454
Si Si6 0.416678 0.336168 0.565321
Si Si7 0.081185 0.333847 0.116010
Si Si8 0.646688 0.831782 0.664697
O O1 0.272074 0.785988 0.894168
O O2 0.134357 0.750947 0.924683
O O3 0.190343 0.000000 0.924794
O O4 0.233426 0.805276 0.000000
O O5 0.090929 0.500000 0.749433
O O6 0.139761 0.742291 0.715048
O O7 0.089470 0.718758 0.819159
O O8 0.000000 0.710484 0.732819
O O9 0.244332 0.803501 0.213618
O O10 0.373648 0.736347 0.179351
O O11 0.328108 0.000000 0.167483
O O12 0.730714 0.196097 0.323029
O O13 0.815596 0.000000 0.278321
O O14 0.500000 0.322775 0.783907
O O15 0.606691 0.500000 0.760955
O O16 0.597814 0.250901 0.710112
O O17 0.396668 0.308346 0.500000
O O18 0.500000 0.303397 0.576201
O O19 0.399570 0.500000 0.582127
O O20 0.369308 0.228155 0.602321
O O21 0.100578 0.500000 0.111625
O O22 0.000000 0.305791 0.094999
O O23 0.628551 0.000000 0.668588
#
# Coordination Sequence:
#
# PCOD8196616 Si02
#       8
#     8   8   8   8   8   8   8   8
#     4  10  20  33  48  65  86 112 145 185 224 268
#     4   9  17  28  43  64  88 115 148 183 220 266
#     4   9  18  32  47  65  88 112 142 180 224 272
#     4   9  17  29  44  64  89 117 149 185 225 266
#     4  10  20  32  48  70  92 115 145 182 225 272
#     4   9  18  32  48  67  95 131 168 201 228 258
#     4   9  18  31  45  63  88 116 147 183 220 262
#     4  10  20  31  45  69  99 126 156 192 226 264
#
# _framework density 15.636215999999999
#
# number of rings (size 3 to 8) (size 9 to 14) (size 15 to 20)
#    0.000    2.625    1.250    3.000    0.000    7.000 
#    0.000    3.125    0.000    0.375    0.000    2.625 
#    0.000    0.500    0.000    5.500    0.000    4.000 
#
# Total GULP energy -793573.094161 kJ/mol
# GULP energy per Si atom -12399.579596 kJ/mol
# Density = 1.560063 g / cm^3
# Si number density = 15.636216 Si / 1000 Ang^3
#
#
#
# Elastic Constant Matrix: (Units=GPa)
#
#
# Indices 1 2 3 4 5 6 
#
# 1 98.1573 58.9092 49.0796 0.0000 0.0000 0.0000
# 2 58.9092 79.8781 44.5371 0.0000 0.0000 0.0000
# 3 49.0796 44.5371 81.7223 0.0000 0.0000 0.0000
# 4 0.0000 0.0000 0.0000 23.9273 0.0000 0.0000
# 5 0.0000 0.0000 0.0000 0.0000 23.5256 0.0000
# 6 0.0000 0.0000 0.0000 0.0000 0.0000 27.8995
#
#
#
# Elastic Compliance Matrix: (Units=1/GPa)
#
#
# Indices 1 2 3 4 5 6 
#
# 1 0.019968 -0.011549 -0.005698 0.000000 0.000000 0.000000
# 2 -0.011549 0.024663 -0.006505 0.000000 0.000000 0.000000
# 3 -0.005698 -0.006505 0.019204 0.000000 0.000000 0.000000
# 4 0.000000 0.000000 0.000000 0.041793 0.000000 0.000000
# 5 0.000000 0.000000 0.000000 0.000000 0.042507 0.000000
# 6 0.000000 0.000000 0.000000 0.000000 0.000000 0.035843
#
#
# Mechanical properties :
#
#
# Convention : Reuss Voigt Hill
#
# Bulk Modulus (GPa) = 61.23452 62.75663 61.99557
# Shear Modulus (GPa) = 21.10359 22.21927 21.66143
#
# Velocity S-wave (km/s) = 3.67776 3.77372 3.72605
# Velocity P-wave (km/s) = 7.56846 7.69484 7.63191
#
# Compressibility (1/GPa) = 0.01633066
#
# Stress axis : x y z
#
# Youngs Moduli (GPa) = 50.07996 40.54583 52.07320
#
# Poissons Ratio (x) = 0.46827 0.29672
# Poissons Ratio (y) = 0.57838 0.33874
# Poissons Ratio (z) = 0.28536 0.26375
#
# Static dielectric constant tensor:
#      x y z
#    x 2.919850 0.000000 0.000000 
#    y 0.000000 2.996320 0.000000 
#    z 0.000000 0.000000 2.811720 
# 
# 
# High freq. dielectric constant tensor:
#      x y z
#    x 1.591980 0.000000 0.000000 
#    y 0.000000 1.606030 0.000000 
#    z 0.000000 0.000000 1.570040 
# 
# From -- ./inp_files/10204.got.cif
#   From: 2010.03.12/outbox.cif.g09.slc.cpg/sg47_6_cif.got.tgz:10204.got - 2010.04.14 03:12:58.
