data_PCOD8196387
_publ_section_title
;
Structure prediction by ZEFSAII (Michael W. Deem and Ramdas Pophale) SiO2 
 PCOD8196387
Probable space group: P M M M
;
_chemical_formula_sum "Si O2"
_cell_formula_units_Z 52
_cell_length_a 14.890628
_cell_length_b 9.180454
_cell_length_c 22.652299
_cell_angle_alpha 90.000000
_cell_angle_beta 90.000000
_cell_angle_gamma 90.000000
_cell_volume 3096.631010
_symmetry_space_group_name_H-M "P M M M"
_symmetry_group_IT_number 47
_symmetry_cell_setting 'orthorhombic'
loop_
_space_group_symop_operation_xyz
x,y,z
-x,-y,z
x,-y,-z
-x,y,-z
-x,-y,-z
x,y,-z
-x,y,z
x,-y,z
loop_
_atom_site_type_symbol
_atom_site_label
_atom_site_fract_x
_atom_site_fract_y
_atom_site_fract_z
Si Si1 0.274094 0.329683 0.908812
Si Si2 0.605896 0.834360 0.323363
Si Si3 0.095477 0.335660 0.783312
Si Si4 0.393243 0.335952 0.564609
Si Si5 0.099009 0.169848 0.098382
Si Si6 0.712659 0.664052 0.230214
Si Si7 0.605959 0.829204 0.000000
O O1 0.276817 0.500000 0.924523
O O2 0.178568 0.263807 0.931622
O O3 0.287542 0.300733 0.839319
O O4 0.354011 0.246749 0.941801
O O5 0.500000 0.813202 0.319955
O O6 0.646650 0.759804 0.382198
O O7 0.645670 0.769524 0.263610
O O8 0.635121 0.000000 0.327011
O O9 0.104080 0.500000 0.811183
O O10 0.093176 0.214887 0.833576
O O11 0.185303 0.311381 0.744411
O O12 0.000000 0.324437 0.747577
O O13 0.361140 0.277897 0.500000
O O14 0.500000 0.331043 0.566708
O O15 0.358738 0.500000 0.573782
O O16 0.000000 0.198344 0.069263
O O17 0.124043 0.000000 0.093549
O O18 0.679701 0.500000 0.241965
O O19 0.500000 0.802780 0.000000
O O20 0.629601 0.000000 0.000000
#
# Coordination Sequence:
#
# PCOD8196387 Si02
#       7
#     8   8   8   8   8   8   4
#     4  10  21  37  56  75  95 122 157 196 235 278
#     4  10  20  30  41  62  93 127 159 192 229 267
#     4   8  14  26  44  66  92 121 153 188 228 276
#     4   8  14  26  44  63  84 115 154 192 229 270
#     4   9  16  27  47  75 103 127 149 178 223 279
#     4   9  18  31  48  70  94 122 153 187 229 272
#     4  11  25  43  60  75  92 117 151 196 246 289
#
# _framework density 16.792444
#
# number of rings (size 3 to 8) (size 9 to 14) (size 15 to 20)
#    0.000    2.846    0.000    3.000    0.000    6.462 
#    0.000    5.000    0.000    2.308    0.000    0.000 
#    0.000    0.615    0.000    7.077    0.000    2.462 
#
# Total GULP energy -644209.546299 kJ/mol
# GULP energy per Si atom -12388.645121 kJ/mol
# Density = 1.675422 g / cm^3
# Si number density = 16.792444 Si / 1000 Ang^3
#
#
#
# Elastic Constant Matrix: (Units=GPa)
#
#
# Indices 1 2 3 4 5 6 
#
# 1 59.2654 58.5590 33.6911 0.0000 0.0000 0.0000
# 2 58.5590 112.7956 50.2044 0.0000 0.0000 0.0000
# 3 33.6911 50.2044 77.5681 0.0000 0.0000 0.0000
# 4 0.0000 0.0000 0.0000 20.4592 0.0000 0.0000
# 5 0.0000 0.0000 0.0000 0.0000 -0.8052 0.0000
# 6 0.0000 0.0000 0.0000 0.0000 0.0000 25.2200
#
#
#
# Elastic Compliance Matrix: (Units=1/GPa)
#
#
# Indices 1 2 3 4 5 6 
#
# 1 0.035958 -0.016457 -0.004966 0.000000 0.000000 0.000000
# 2 -0.016457 0.019985 -0.005787 0.000000 0.000000 0.000000
# 3 -0.004966 -0.005787 0.018794 0.000000 0.000000 0.000000
# 4 0.000000 0.000000 0.000000 0.048878 0.000000 0.000000
# 5 0.000000 0.000000 0.000000 0.000000 -1.241903 0.000000
# 6 0.000000 0.000000 0.000000 0.000000 0.000000 0.039651
#
#
# Mechanical properties :
#
#
# Convention : Reuss Voigt Hill
#
# Bulk Modulus (GPa) = 49.22154 59.39311 54.30732
# Shear Modulus (GPa) = -4.91428 16.11978 5.60275
#
# Velocity S-wave (km/s) = -1.71255 3.10165 1.82858
# Velocity P-wave (km/s) = 5.04628 6.94786 6.07197
#
# Compressibility (1/GPa) = 0.02031631
#
# Stress axis : x y z
#
# Youngs Moduli (GPa) = 27.81047 50.03669 53.20718
#
# Poissons Ratio (x) = 0.82347 0.26424
# Poissons Ratio (y) = 0.45769 0.30791
# Poissons Ratio (z) = 0.13811 0.28956
#
# Static dielectric constant tensor:
#      x y z
#    x 3.278560 0.000000 0.000000 
#    y 0.000000 3.254450 0.000000 
#    z 0.000000 0.000000 2.966790 
# 
# 
# High freq. dielectric constant tensor:
#      x y z
#    x 1.635560 0.000000 0.000000 
#    y 0.000000 1.657020 0.000000 
#    z 0.000000 0.000000 1.610530 
# 
# From -- ./inp_files/25443.got.cif
#   From: 2010.03.12/outbox.cif.g09.slc.cpg/sg47_13_cif.got.tgz:25443.got - 2010.04.14 03:12:58.
