data_PCOD8196880
_publ_section_title
;
Structure prediction by ZEFSAII (Michael W. Deem and Ramdas Pophale) SiO2 
 PCOD8196880
Probable space group: P M M M
;
_chemical_formula_sum "Si O2"
_cell_formula_units_Z 52
_cell_length_a 8.903260
_cell_length_b 14.452554
_cell_length_c 25.002191
_cell_angle_alpha 90.000000
_cell_angle_beta 90.000000
_cell_angle_gamma 90.000000
_cell_volume 3217.153075
_symmetry_space_group_name_H-M "P M M M"
_symmetry_group_IT_number 47
_symmetry_cell_setting 'orthorhombic'
loop_
_space_group_symop_operation_xyz
x,y,z
-x,-y,z
x,-y,-z
-x,y,-z
-x,-y,-z
x,y,-z
-x,y,z
x,-y,z
loop_
_atom_site_type_symbol
_atom_site_label
_atom_site_fract_x
_atom_site_fract_y
_atom_site_fract_z
Si Si1 0.325395 0.895556 0.275002
Si Si2 0.177701 0.500000 0.061397
Si Si3 0.330078 0.397926 0.852072
Si Si4 0.828286 0.897242 0.386344
Si Si5 0.822483 0.718946 0.762811
Si Si6 0.176928 0.286384 0.441566
Si Si7 0.179075 0.604520 0.660324
O O1 0.500000 0.872682 0.269443
O O2 0.279655 0.882990 0.336367
O O3 0.232296 0.824776 0.238558
O O4 0.289181 0.000000 0.255716
O O5 0.246726 0.591683 0.090279
O O6 0.000000 0.500000 0.068130
O O7 0.227806 0.500000 0.000000
O O8 0.500000 0.362910 0.860957
O O9 0.328836 0.500000 0.824200
O O10 0.241832 0.325876 0.816117
O O11 0.785321 0.821403 0.430598
O O12 0.000000 0.881879 0.366599
O O13 0.808208 0.000000 0.411166
O O14 0.761930 0.663968 0.710627
O O15 0.000000 0.715390 0.765704
O O16 0.245421 0.312238 0.500000
O O17 0.244140 0.350990 0.394588
O O18 0.000000 0.301663 0.443379
O O19 0.240029 0.500000 0.665080
O O20 0.000000 0.606179 0.659624
#
# Coordination Sequence:
#
# PCOD8196880 Si02
#       7
#     8   4   8   8   8   8   8
#     4  10  20  32  47  67  91 119 151 191 244 304
#     4   9  17  31  51  75 107 147 186 217 246 279
#     4   9  19  31  46  72 105 139 173 208 246 286
#     4   9  16  28  45  64  85 108 140 183 236 298
#     4  11  19  30  49  69  95 126 161 204 245 294
#     4   9  16  26  40  61  86 110 143 187 238 295
#     4   9  17  27  40  62  88 116 148 188 240 287
#
# _framework density 16.163357999999999
#
# number of rings (size 3 to 8) (size 9 to 14) (size 15 to 20)
#    0.462    2.077    1.538    1.846    0.000    2.769 
#    0.000    3.077    0.000    0.462    0.000    2.154 
#    0.000    1.846    0.000    6.462    0.000    2.769 
#
# Total GULP energy -644481.362114 kJ/mol
# GULP energy per Si atom -12393.872348 kJ/mol
# Density = 1.612657 g / cm^3
# Si number density = 16.163358 Si / 1000 Ang^3
#
#
#
# Elastic Constant Matrix: (Units=GPa)
#
#
# Indices 1 2 3 4 5 6 
#
# 1 59.6755 32.3485 38.9904 0.0000 0.0000 0.0000
# 2 32.3485 97.7022 52.8355 0.0000 0.0000 0.0000
# 3 38.9904 52.8355 116.5750 0.0000 0.0000 0.0000
# 4 0.0000 0.0000 0.0000 19.4796 0.0000 0.0000
# 5 0.0000 0.0000 0.0000 0.0000 10.1537 0.0000
# 6 0.0000 0.0000 0.0000 0.0000 0.0000 19.9885
#
#
#
# Elastic Compliance Matrix: (Units=1/GPa)
#
#
# Indices 1 2 3 4 5 6 
#
# 1 0.022876 -0.004552 -0.005588 0.000000 0.000000 0.000000
# 2 -0.004552 0.014464 -0.005033 0.000000 0.000000 0.000000
# 3 -0.005588 -0.005033 0.012728 0.000000 0.000000 0.000000
# 4 0.000000 0.000000 0.000000 0.051336 0.000000 0.000000
# 5 0.000000 0.000000 0.000000 0.000000 0.098486 0.000000
# 6 0.000000 0.000000 0.000000 0.000000 0.000000 0.050029
#
#
# Mechanical properties :
#
#
# Convention : Reuss Voigt Hill
#
# Bulk Modulus (GPa) = 50.70508 58.03352 54.36930
# Shear Modulus (GPa) = 17.43133 19.90958 18.67045
#
# Velocity S-wave (km/s) = 3.28753 3.51347 3.40238
# Velocity P-wave (km/s) = 6.77119 7.24166 7.01037
#
# Compressibility (1/GPa) = 0.01972189
#
# Stress axis : x y z
#
# Youngs Moduli (GPa) = 43.71397 69.13643 78.56479
#
# Poissons Ratio (x) = 0.31472 0.43903
# Poissons Ratio (y) = 0.19899 0.39542
# Poissons Ratio (z) = 0.24428 0.34797
#
# Static dielectric constant tensor:
#      x y z
#    x 2.854290 0.000000 0.000000 
#    y 0.000000 3.206240 0.000000 
#    z 0.000000 0.000000 2.879520 
# 
# 
# High freq. dielectric constant tensor:
#      x y z
#    x 1.602800 0.000000 0.000000 
#    y 0.000000 1.618870 0.000000 
#    z 0.000000 0.000000 1.590580 
# 
# From -- ./inp_files/31972.got.cif
#   From: 2010.03.12/outbox.cif.g09.slc.cpg/sg47_16_cif.got.tgz:31972.got - 2010.04.14 03:12:58.
