data_PCOD8196827
_publ_section_title
;
Structure prediction by ZEFSAII (Michael W. Deem and Ramdas Pophale) SiO2 
 PCOD8196827
Probable space group: P M M M
;
_chemical_formula_sum "Si O2"
_cell_formula_units_Z 44
_cell_length_a 28.252711
_cell_length_b 9.879669
_cell_length_c 9.033600
_cell_angle_alpha 90.000000
_cell_angle_beta 90.000000
_cell_angle_gamma 90.000000
_cell_volume 2521.525579
_symmetry_space_group_name_H-M "P M M M"
_symmetry_group_IT_number 47
_symmetry_cell_setting 'orthorhombic'
loop_
_space_group_symop_operation_xyz
x,y,z
-x,-y,z
x,-y,-z
-x,y,-z
-x,-y,-z
x,y,-z
-x,y,z
x,-y,z
loop_
_atom_site_type_symbol
_atom_site_label
_atom_site_fract_x
_atom_site_fract_y
_atom_site_fract_z
Si Si1 0.631036 0.850717 0.175565
Si Si2 0.000000 0.338400 0.332864
Si Si3 0.552515 0.348753 0.176092
Si Si4 0.737904 0.842092 0.171621
Si Si5 0.187215 0.344184 0.673944
Si Si6 0.092365 0.660866 0.166535
O O1 0.592502 0.748721 0.245652
O O2 0.684110 0.805204 0.216504
O O3 0.620840 0.000000 0.240427
O O4 0.626138 0.855363 0.000000
O O5 0.953588 0.281109 0.250465
O O6 0.000000 0.500000 0.331454
O O7 0.000000 0.283310 0.500000
O O8 0.500000 0.299550 0.224549
O O9 0.561742 0.500000 0.236096
O O10 0.556021 0.348538 0.000000
O O11 0.770048 0.748835 0.273440
O O12 0.748134 0.000000 0.202609
O O13 0.747404 0.808202 0.000000
O O14 0.180368 0.329173 0.500000
O O15 0.197633 0.500000 0.718083
O O16 0.139470 0.290117 0.750488
O O17 0.090062 0.500000 0.165752
O O18 0.092885 0.718551 0.000000
#
# Coordination Sequence:
#
# PCOD8196827 Si02
#       6
#     8   4   8   8   8   8
#     4   8  14  24  37  54  77 106 142 183 223 264
#     4   9  15  23  37  59  90 125 156 189 232 277
#     4   8  13  20  30  48  77 111 144 177 215 262
#     4   9  18  32  48  66  89 118 154 194 234 279
#     4  10  20  32  46  67  94 121 152 192 236 281
#     4   9  16  26  41  62  89 121 156 192 231 276
#
# _framework density 17.449753999999999
#
# number of rings (size 3 to 8) (size 9 to 14) (size 15 to 20)
#    0.000    3.182    0.000    3.000    0.000    5.818 
#    0.000    3.636    0.000    0.000    0.000    0.636 
#    0.000    5.818    0.000    8.000    0.000   13.091 
#
# Total GULP energy -545405.326277 kJ/mol
# GULP energy per Si atom -12395.575597 kJ/mol
# Density = 1.741004 g / cm^3
# Si number density = 17.449754 Si / 1000 Ang^3
#
#
#
# Elastic Constant Matrix: (Units=GPa)
#
#
# Indices 1 2 3 4 5 6 
#
# 1 163.5529 68.3878 52.4974 0.0000 0.0000 0.0000
# 2 68.3878 59.3795 29.6997 0.0000 0.0000 0.0000
# 3 52.4974 29.6997 74.0964 0.0000 0.0000 0.0000
# 4 0.0000 0.0000 0.0000 14.4899 0.0000 0.0000
# 5 0.0000 0.0000 0.0000 0.0000 5.1167 0.0000
# 6 0.0000 0.0000 0.0000 0.0000 0.0000 5.7295
#
#
#
# Elastic Compliance Matrix: (Units=1/GPa)
#
#
# Indices 1 2 3 4 5 6 
#
# 1 0.012635 -0.012601 -0.003901 0.000000 0.000000 0.000000
# 2 -0.012601 0.033630 -0.004552 0.000000 0.000000 0.000000
# 3 -0.003901 -0.004552 0.018085 0.000000 0.000000 0.000000
# 4 0.000000 0.000000 0.000000 0.069014 0.000000 0.000000
# 5 0.000000 0.000000 0.000000 0.000000 0.195437 0.000000
# 6 0.000000 0.000000 0.000000 0.000000 0.000000 0.174535
#
#
# Mechanical properties :
#
#
# Convention : Reuss Voigt Hill
#
# Bulk Modulus (GPa) = 44.96108 66.46650 55.71379
# Shear Modulus (GPa) = 9.04390 14.83016 11.93703
#
# Velocity S-wave (km/s) = 2.27905 2.91843 2.61833
# Velocity P-wave (km/s) = 5.72253 7.03770 6.41392
#
# Compressibility (1/GPa) = 0.02224146
#
# Stress axis : x y z
#
# Youngs Moduli (GPa) = 79.14222 29.73517 55.29542
#
# Poissons Ratio (x) = 0.37469 0.21573
# Poissons Ratio (y) = 0.99727 0.25171
# Poissons Ratio (z) = 0.30877 0.13535
#
# Static dielectric constant tensor:
#      x y z
#    x 3.489570 0.000000 0.000000 
#    y 0.000000 3.135130 0.000000 
#    z 0.000000 0.000000 2.938800 
# 
# 
# High freq. dielectric constant tensor:
#      x y z
#    x 1.689340 0.000000 0.000000 
#    y 0.000000 1.639020 0.000000 
#    z 0.000000 0.000000 1.641020 
# 
# From -- ./inp_files/2098.got.cif
#   From: 2010.03.12/outbox.cif.g09.slc.cpg/sg47_2_cif.got.tgz:2098.got - 2010.04.14 03:12:58.
