data_PCOD8196576
_publ_section_title
;
Structure prediction by ZEFSAII (Michael W. Deem and Ramdas Pophale) SiO2 
 PCOD8196576
Probable space group: P M M M
;
_chemical_formula_sum "Si O2"
_cell_formula_units_Z 44
_cell_length_a 7.731661
_cell_length_b 30.041874
_cell_length_c 9.637279
_cell_angle_alpha 90.000000
_cell_angle_beta 90.000000
_cell_angle_gamma 90.000000
_cell_volume 2238.485348
_symmetry_space_group_name_H-M "P M M M"
_symmetry_group_IT_number 47
_symmetry_cell_setting 'orthorhombic'
loop_
_space_group_symop_operation_xyz
x,y,z
-x,-y,z
x,-y,-z
-x,y,-z
-x,-y,-z
x,y,-z
-x,y,z
x,-y,z
loop_
_atom_site_type_symbol
_atom_site_label
_atom_site_fract_x
_atom_site_fract_y
_atom_site_fract_z
Si Si1 0.301006 0.385907 0.662752
Si Si2 0.295166 0.304565 0.153277
Si Si3 0.801464 0.873838 0.653025
Si Si4 0.794224 0.950507 0.155137
Si Si5 0.703914 0.794453 0.842211
Si Si6 0.000000 0.549506 0.335674
O O1 0.283394 0.377273 0.500000
O O2 0.500000 0.397763 0.702679
O O3 0.232743 0.341167 0.736754
O O4 0.175287 0.425596 0.712946
O O5 0.500000 0.303002 0.149341
O O6 0.228790 0.255327 0.194777
O O7 0.224994 0.317314 0.000000
O O8 0.714075 0.870057 0.500000
O O9 0.712542 0.913844 0.740807
O O10 0.790550 0.827587 0.734341
O O11 0.000000 0.886054 0.632997
O O12 0.000000 0.947008 0.152928
O O13 0.737120 0.000000 0.203484
O O14 0.723402 0.941077 0.000000
O O15 0.500000 0.797779 0.825388
O O16 0.758576 0.806490 0.000000
O O17 0.000000 0.500000 0.270095
O O18 0.000000 0.546265 0.500000
#
# Coordination Sequence:
#
# PCOD8196576 Si02
#       6
#     8   8   8   8   8   4
#     4   9  17  30  50  74  98 129 168 207 251 300
#     4   8  15  30  51  72  94 122 158 199 241 287
#     4  10  20  31  44  68 100 128 155 192 241 293
#     4   8  14  26  45  66  87 117 158 200 241 286
#     4   9  18  33  52  71  92 124 164 200 239 291
#     4   9  18  32  49  73 105 135 167 211 254 293
#
# _framework density 19.656148000000002
#
# number of rings (size 3 to 8) (size 9 to 14) (size 15 to 20)
#    0.000    3.182    0.000    2.182    0.000    2.909 
#    1.636    5.909    0.000    1.636    0.000    6.364 
#    0.000    0.000    0.000    0.000    0.000    0.000 
#
# Total GULP energy -545282.150801 kJ/mol
# GULP energy per Si atom -12392.776155 kJ/mol
# Density = 1.961141 g / cm^3
# Si number density = 19.656148 Si / 1000 Ang^3
#
#
#
# Elastic Constant Matrix: (Units=GPa)
#
#
# Indices 1 2 3 4 5 6 
#
# 1 44.1073 33.3998 23.2119 0.0000 0.0000 0.0000
# 2 33.3998 177.5268 89.2840 0.0000 0.0000 0.0000
# 3 23.2119 89.2840 110.7095 0.0000 0.0000 0.0000
# 4 0.0000 0.0000 0.0000 31.4149 0.0000 0.0000
# 5 0.0000 0.0000 0.0000 0.0000 12.1472 0.0000
# 6 0.0000 0.0000 0.0000 0.0000 0.0000 44.9155
#
#
#
# Elastic Compliance Matrix: (Units=1/GPa)
#
#
# Indices 1 2 3 4 5 6 
#
# 1 0.026883 -0.003740 -0.002620 0.000000 0.000000 0.000000
# 2 -0.003740 0.009997 -0.007278 0.000000 0.000000 0.000000
# 3 -0.002620 -0.007278 0.015452 0.000000 0.000000 0.000000
# 4 0.000000 0.000000 0.000000 0.031832 0.000000 0.000000
# 5 0.000000 0.000000 0.000000 0.000000 0.082323 0.000000
# 6 0.000000 0.000000 0.000000 0.000000 0.000000 0.022264
#
#
# Mechanical properties :
#
#
# Convention : Reuss Voigt Hill
#
# Bulk Modulus (GPa) = 39.91239 69.34834 54.63037
# Shear Modulus (GPa) = 22.28371 30.12540 26.20455
#
# Velocity S-wave (km/s) = 3.37066 3.91912 3.65519
# Velocity P-wave (km/s) = 5.95801 7.47239 6.75775
#
# Compressibility (1/GPa) = 0.02505487
#
# Stress axis : x y z
#
# Youngs Moduli (GPa) = 37.19831 100.02997 64.71803
#
# Poissons Ratio (x) = 0.37410 0.16958
# Poissons Ratio (y) = 0.13912 0.47103
# Poissons Ratio (z) = 0.09747 0.72803
#
# Static dielectric constant tensor:
#      x y z
#    x 3.262790 0.000000 0.000000 
#    y 0.000000 3.921350 0.000000 
#    z 0.000000 0.000000 3.764750 
# 
# 
# High freq. dielectric constant tensor:
#      x y z
#    x 1.739240 0.000000 0.000000 
#    y 0.000000 1.767160 0.000000 
#    z 0.000000 0.000000 1.750380 
# 
# From -- ./inp_files/2003.got.cif
#   From: 2010.03.12/outbox.cif.g09.slc.cpg/sg47_2_cif.got.tgz:2003.got - 2010.04.14 03:12:58.
