data_PCOD8196668
_publ_section_title
;
Structure prediction by ZEFSAII (Michael W. Deem and Ramdas Pophale) SiO2 
 PCOD8196668
Probable space group: P M M M
;
_chemical_formula_sum "Si O2"
_cell_formula_units_Z 60
_cell_length_a 15.194868
_cell_length_b 9.606123
_cell_length_c 23.831956
_cell_angle_alpha 90.000000
_cell_angle_beta 90.000000
_cell_angle_gamma 90.000000
_cell_volume 3478.602168
_symmetry_space_group_name_H-M "P M M M"
_symmetry_group_IT_number 47
_symmetry_cell_setting 'orthorhombic'
loop_
_space_group_symop_operation_xyz
x,y,z
-x,-y,z
x,-y,-z
-x,y,-z
-x,-y,-z
x,y,-z
-x,y,z
x,-y,z
loop_
_atom_site_type_symbol
_atom_site_label
_atom_site_fract_x
_atom_site_fract_y
_atom_site_fract_z
Si Si1 0.100411 0.337884 0.856119
Si Si2 0.747873 0.335308 0.062246
Si Si3 0.500000 0.335948 0.560973
Si Si4 0.690870 0.662048 0.565828
Si Si5 0.753609 0.161271 0.339532
Si Si6 0.100630 0.160230 0.748500
Si Si7 0.600062 0.839324 0.744282
Si Si8 0.600420 0.661871 0.852981
O O1 0.114436 0.500000 0.842389
O O2 0.162520 0.288153 0.906895
O O3 0.128208 0.253425 0.801137
O O4 0.000000 0.305937 0.873710
O O5 0.745774 0.500000 0.056932
O O6 0.662586 0.284484 0.096809
O O7 0.745787 0.268087 0.000000
O O8 0.500000 0.500000 0.552394
O O9 0.500000 0.264455 0.500000
O O10 0.407164 0.294734 0.589422
O O11 0.701245 0.698200 0.500000
O O12 0.709765 0.500000 0.575965
O O13 0.758502 0.751294 0.602828
O O14 0.839319 0.202544 0.303925
O O15 0.665771 0.201397 0.305429
O O16 0.754211 0.000000 0.355878
O O17 0.000000 0.187727 0.730935
O O18 0.116677 0.000000 0.765405
O O19 0.500000 0.809263 0.724347
O O20 0.624934 0.746951 0.797671
O O21 0.612404 0.000000 0.761583
O O22 0.500000 0.688786 0.871601
O O23 0.617381 0.500000 0.839541
#
# Coordination Sequence:
#
# PCOD8196668 Si02
#       8
#     8   8   4   8   8   8   8   8
#     4   9  17  29  47  70  92 115 147 186 227 276
#     4   9  17  28  43  65  92 119 147 184 229 271
#     4   7  12  26  45  63  87 121 157 185 210 251
#     4   9  18  32  49  69  95 128 161 190 224 267
#     4  10  20  31  47  71  95 121 154 192 231 274
#     4   9  18  33  51  70  93 121 153 190 234 280
#     4   9  18  31  45  64  93 123 147 179 229 281
#     4   9  17  29  45  64  85 113 153 193 223 260
#
# _framework density 17.248307
#
# number of rings (size 3 to 8) (size 9 to 14) (size 15 to 20)
#    0.000    3.000    0.000    1.600    0.933    1.867 
#    0.000    2.667    0.000    3.200    0.000    6.533 
#    0.000    0.000    0.000    0.000    0.000    0.000 
#
# Total GULP energy -743720.035336 kJ/mol
# GULP energy per Si atom -12395.333922 kJ/mol
# Density = 1.720905 g / cm^3
# Si number density = 17.248307 Si / 1000 Ang^3
#
#
#
# Elastic Constant Matrix: (Units=GPa)
#
#
# Indices 1 2 3 4 5 6 
#
# 1 86.3396 32.5658 62.2951 0.0000 0.0000 0.0000
# 2 32.5658 45.7322 51.7585 0.0000 0.0000 0.0000
# 3 62.2951 51.7585 120.2953 0.0000 0.0000 0.0000
# 4 0.0000 0.0000 0.0000 5.7352 0.0000 0.0000
# 5 0.0000 0.0000 0.0000 0.0000 22.6752 0.0000
# 6 0.0000 0.0000 0.0000 0.0000 0.0000 18.2133
#
#
#
# Elastic Compliance Matrix: (Units=1/GPa)
#
#
# Indices 1 2 3 4 5 6 
#
# 1 0.018988 -0.004664 -0.007826 0.000000 0.000000 0.000000
# 2 -0.004664 0.043767 -0.016416 0.000000 0.000000 0.000000
# 3 -0.007826 -0.016416 0.019429 0.000000 0.000000 0.000000
# 4 0.000000 0.000000 0.000000 0.174363 0.000000 0.000000
# 5 0.000000 0.000000 0.000000 0.000000 0.044101 0.000000
# 6 0.000000 0.000000 0.000000 0.000000 0.000000 0.054905
#
#
# Mechanical properties :
#
#
# Convention : Reuss Voigt Hill
#
# Bulk Modulus (GPa) = 41.03151 60.62288 50.82719
# Shear Modulus (GPa) = 11.86272 16.37458 14.11865
#
# Velocity S-wave (km/s) = 2.62537 3.08449 2.86414
# Velocity P-wave (km/s) = 5.74721 6.92162 6.36157
#
# Compressibility (1/GPa) = 0.02437151
#
# Stress axis : x y z
#
# Youngs Moduli (GPa) = 52.66461 22.84846 51.46945
#
# Poissons Ratio (x) = 0.10656 0.40282
# Poissons Ratio (y) = 0.24561 0.84492
# Poissons Ratio (z) = 0.41218 0.37508
#
# Static dielectric constant tensor:
#      x y z
#    x 3.365350 0.000000 0.000000 
#    y 0.000000 3.010050 0.000000 
#    z 0.000000 0.000000 3.140120 
# 
# 
# High freq. dielectric constant tensor:
#      x y z
#    x 1.668680 0.000000 0.000000 
#    y 0.000000 1.643570 0.000000 
#    z 0.000000 0.000000 1.653700 
# 
# From -- ./inp_files/31218.got.cif
#   From: 2010.03.12/outbox.cif.g09.slc.cpg/sg47_16_cif.got.tgz:31218.got - 2010.04.14 03:12:58.
