data_PCOD8196251
_publ_section_title
;
Structure prediction by ZEFSAII (Michael W. Deem and Ramdas Pophale) SiO2 
 PCOD8196251
Probable space group: P M M M
;
_chemical_formula_sum "Si O2"
_cell_formula_units_Z 44
_cell_length_a 18.027543
_cell_length_b 9.009597
_cell_length_c 14.166994
_cell_angle_alpha 90.000000
_cell_angle_beta 90.000000
_cell_angle_gamma 90.000000
_cell_volume 2301.015878
_symmetry_space_group_name_H-M "P M M M"
_symmetry_group_IT_number 47
_symmetry_cell_setting 'orthorhombic'
loop_
_space_group_symop_operation_xyz
x,y,z
-x,-y,z
x,-y,-z
-x,y,-z
-x,-y,-z
x,y,-z
-x,y,z
x,-y,z
loop_
_atom_site_type_symbol
_atom_site_label
_atom_site_fract_x
_atom_site_fract_y
_atom_site_fract_z
Si Si1 0.642490 0.175066 0.219892
Si Si2 0.500000 0.823599 0.894310
Si Si3 0.209828 0.827087 0.108693
Si Si4 0.083614 0.670888 0.221674
Si Si5 0.697619 0.327275 0.606616
Si Si6 0.854096 0.827107 0.606569
O O1 0.573004 0.233194 0.159527
O O2 0.717200 0.221399 0.165530
O O3 0.638679 0.257300 0.320927
O O4 0.637927 0.000000 0.236755
O O5 0.500000 0.000000 0.899614
O O6 0.500000 0.757119 0.000000
O O7 0.138819 0.738269 0.144864
O O8 0.193479 0.000000 0.123089
O O9 0.223616 0.787557 0.000000
O O10 0.104072 0.500000 0.237857
O O11 0.087954 0.754237 0.322086
O O12 0.000000 0.689481 0.183162
O O13 0.668819 0.300464 0.500000
O O14 0.708933 0.500000 0.627487
O O15 0.774837 0.245658 0.623921
O O16 0.882449 0.799975 0.500000
O O17 0.846036 0.000000 0.629514
#
# Coordination Sequence:
#
# PCOD8196251 Si02
#       6
#     8   4   8   8   8   8
#     4  10  19  34  59  88 116 149 188 231 279 333
#     4   9  18  34  58  89 122 152 185 231 284 333
#     4  10  21  37  58  83 109 143 190 238 284 336
#     4  11  24  39  55  79 113 151 190 233 282 337
#     4  10  20  34  55  83 115 151 188 228 278 336
#     4  10  20  35  57  84 112 144 185 233 283 337
#
# _framework density 19.121988999999999
#
# number of rings (size 3 to 8) (size 9 to 14) (size 15 to 20)
#    0.000    1.909    1.818    2.182    0.000    6.909 
#    0.000    4.545    0.000    4.909    0.000    0.000 
#    0.000    0.000    0.000    0.000    0.000    0.000 
#
# Total GULP energy -545719.488189 kJ/mol
# GULP energy per Si atom -12402.715641 kJ/mol
# Density = 1.907847 g / cm^3
# Si number density = 19.121989 Si / 1000 Ang^3
#
#
#
# Elastic Constant Matrix: (Units=GPa)
#
#
# Indices 1 2 3 4 5 6 
#
# 1 111.4082 47.6991 62.5792 0.0000 0.0000 0.0000
# 2 47.6991 85.8307 55.4802 0.0000 0.0000 0.0000
# 3 62.5792 55.4802 134.6246 0.0000 0.0000 0.0000
# 4 0.0000 0.0000 0.0000 25.4737 0.0000 0.0000
# 5 0.0000 0.0000 0.0000 0.0000 28.2793 0.0000
# 6 0.0000 0.0000 0.0000 0.0000 0.0000 9.7789
#
#
#
# Elastic Compliance Matrix: (Units=1/GPa)
#
#
# Indices 1 2 3 4 5 6 
#
# 1 0.013388 -0.004658 -0.004303 0.000000 0.000000 0.000000
# 2 -0.004658 0.017502 -0.005047 0.000000 0.000000 0.000000
# 3 -0.004303 -0.005047 0.011509 0.000000 0.000000 0.000000
# 4 0.000000 0.000000 0.000000 0.039256 0.000000 0.000000
# 5 0.000000 0.000000 0.000000 0.000000 0.035362 0.000000
# 6 0.000000 0.000000 0.000000 0.000000 0.000000 0.102261
#
#
# Mechanical properties :
#
#
# Convention : Reuss Voigt Hill
#
# Bulk Modulus (GPa) = 69.54045 73.70896 71.62471
# Shear Modulus (GPa) = 19.83426 23.78003 21.80714
#
# Velocity S-wave (km/s) = 3.22413 3.53029 3.38068
# Velocity P-wave (km/s) = 7.09265 7.43288 7.26476
#
# Compressibility (1/GPa) = 0.01438012
#
# Stress axis : x y z
#
# Youngs Moduli (GPa) = 74.69514 57.13535 86.89142
#
# Poissons Ratio (x) = 0.26616 0.37393
# Poissons Ratio (y) = 0.34795 0.43858
# Poissons Ratio (z) = 0.32145 0.28839
#
# Static dielectric constant tensor:
#      x y z
#    x 3.355100 0.000000 0.000000 
#    y 0.000000 3.424210 0.000000 
#    z 0.000000 0.000000 3.704460 
# 
# 
# High freq. dielectric constant tensor:
#      x y z
#    x 1.728430 0.000000 0.000000 
#    y 0.000000 1.736970 0.000000 
#    z 0.000000 0.000000 1.757040 
# 
# From -- ./inp_files/6066.got.cif
#   From: 2010.03.12/outbox.cif.g09.slc.cpg/sg47_4_cif.got.tgz:6066.got - 2010.04.14 03:12:58.
