data_PCOD8196734
_publ_section_title
;
Structure prediction by ZEFSAII (Michael W. Deem and Ramdas Pophale) SiO2 
 PCOD8196734
Probable space group: P M M M
;
_chemical_formula_sum "Si O2"
_cell_formula_units_Z 44
_cell_length_a 25.928017
_cell_length_b 9.089860
_cell_length_c 12.322209
_cell_angle_alpha 90.000000
_cell_angle_beta 90.000000
_cell_angle_gamma 90.000000
_cell_volume 2904.123411
_symmetry_space_group_name_H-M "P M M M"
_symmetry_group_IT_number 47
_symmetry_cell_setting 'orthorhombic'
loop_
_space_group_symop_operation_xyz
x,y,z
-x,-y,z
x,-y,-z
-x,y,-z
-x,-y,-z
x,y,-z
-x,y,z
x,-y,z
loop_
_atom_site_type_symbol
_atom_site_label
_atom_site_fract_x
_atom_site_fract_y
_atom_site_fract_z
Si Si1 0.763896 0.665239 0.370860
Si Si2 0.445392 0.825133 0.378298
Si Si3 0.061308 0.166362 0.000000
Si Si4 0.335049 0.833965 0.369990
Si Si5 0.865608 0.169977 0.372057
Si Si6 0.939314 0.670719 0.214860
O O1 0.762024 0.667070 0.500000
O O2 0.770104 0.500000 0.326237
O O3 0.710737 0.732418 0.323994
O O4 0.811829 0.762146 0.329804
O O5 0.447821 0.762263 0.500000
O O6 0.500000 0.776666 0.319567
O O7 0.390889 0.773165 0.324651
O O8 0.442486 0.000000 0.382530
O O9 0.081615 0.251150 0.893923
O O10 0.000000 0.166760 0.000000
O O11 0.082892 0.000000 0.000000
O O12 0.336653 0.830886 0.500000
O O13 0.324538 0.000000 0.329726
O O14 0.871674 0.191011 0.500000
O O15 0.912853 0.255517 0.318293
O O16 0.867085 0.000000 0.338305
O O17 0.924650 0.500000 0.208447
O O18 0.000000 0.693952 0.228977
#
# Coordination Sequence:
#
# PCOD8196734 Si02
#       6
#     8   8   4   8   8   8
#     4   9  16  25  36  49  67  92 122 156 194 235
#     4   7   9  13  22  37  55  74 100 138 182 223
#     4   9  17  31  51  71  89 109 135 165 194 227
#     4   8  12  18  29  43  58  79 110 147 185 225
#     4  10  20  32  45  61  82 108 138 171 205 242
#     4  10  20  33  49  68  89 111 134 162 199 242
#
# _framework density 15.150871
#
# number of rings (size 3 to 8) (size 9 to 14) (size 15 to 20)
#    0.000    3.182    0.000    3.545    0.000    5.818 
#    0.000    1.818    0.000    0.545    0.000    3.818 
#    0.000    0.000    0.000    0.000    0.000    0.000 
#
# Total GULP energy -545080.372147 kJ/mol
# GULP energy per Si atom -12388.190276 kJ/mol
# Density = 1.511639 g / cm^3
# Si number density = 15.150871 Si / 1000 Ang^3
#
#
#
# Elastic Constant Matrix: (Units=GPa)
#
#
# Indices 1 2 3 4 5 6 
#
# 1 98.2089 59.6438 29.1824 0.0000 0.0000 0.0000
# 2 59.6438 108.0310 26.7180 0.0000 0.0000 0.0000
# 3 29.1824 26.7180 25.0759 0.0000 0.0000 0.0000
# 4 0.0000 0.0000 0.0000 16.6172 0.0000 0.0000
# 5 0.0000 0.0000 0.0000 0.0000 0.8521 0.0000
# 6 0.0000 0.0000 0.0000 0.0000 0.0000 16.0396
#
#
#
# Elastic Compliance Matrix: (Units=1/GPa)
#
#
# Indices 1 2 3 4 5 6 
#
# 1 0.018518 -0.006645 -0.014470 0.000000 0.000000 0.000000
# 2 -0.006645 0.014953 -0.008199 0.000000 0.000000 0.000000
# 3 -0.014470 -0.008199 0.065455 0.000000 0.000000 0.000000
# 4 0.000000 0.000000 0.000000 0.060178 0.000000 0.000000
# 5 0.000000 0.000000 0.000000 0.000000 1.173579 0.000000
# 6 0.000000 0.000000 0.000000 0.000000 0.000000 0.062346
#
#
# Mechanical properties :
#
#
# Convention : Reuss Voigt Hill
#
# Bulk Modulus (GPa) = 24.81564 51.37825 38.09695
# Shear Modulus (GPa) = 3.40811 14.41988 8.91399
#
# Velocity S-wave (km/s) = 1.50144 3.08840 2.42822
# Velocity P-wave (km/s) = 4.40685 6.83391 5.74990
#
# Compressibility (1/GPa) = 0.04029717
#
# Stress axis : x y z
#
# Youngs Moduli (GPa) = 54.00244 66.87608 15.27765
#
# Poissons Ratio (x) = 0.44438 0.22107
# Poissons Ratio (y) = 0.35884 0.12526
# Poissons Ratio (z) = 0.78143 0.54833
#
# Static dielectric constant tensor:
#      x y z
#    x 3.293060 0.000000 0.000000 
#    y 0.000000 2.954700 0.000000 
#    z 0.000000 0.000000 2.354400 
# 
# 
# High freq. dielectric constant tensor:
#      x y z
#    x 1.593640 0.000000 0.000000 
#    y 0.000000 1.578650 0.000000 
#    z 0.000000 0.000000 1.498600 
# 
# From -- ./inp_files/19463.got.cif
#   From: 2010.03.12/outbox.cif.g09.slc.cpg/sg47_10_cif.got.tgz:19463.got - 2010.04.14 03:12:58.
