data_PCOD8196183
_publ_section_title
;
Structure prediction by ZEFSAII (Michael W. Deem and Ramdas Pophale) SiO2 
 PCOD8196183
Probable space group: P M M M
;
_chemical_formula_sum "Si O2"
_cell_formula_units_Z 56
_cell_length_a 15.191741
_cell_length_b 8.785647
_cell_length_c 21.322387
_cell_angle_alpha 90.000000
_cell_angle_beta 90.000000
_cell_angle_gamma 90.000000
_cell_volume 2845.883507
_symmetry_space_group_name_H-M "P M M M"
_symmetry_group_IT_number 47
_symmetry_cell_setting 'orthorhombic'
loop_
_space_group_symop_operation_xyz
x,y,z
-x,-y,z
x,-y,-z
-x,y,-z
-x,-y,-z
x,y,-z
-x,y,z
x,-y,z
loop_
_atom_site_type_symbol
_atom_site_label
_atom_site_fract_x
_atom_site_fract_y
_atom_site_fract_z
Si Si1 0.595823 0.327786 0.241463
Si Si2 0.647898 0.177026 0.873069
Si Si3 0.603715 0.671179 0.000000
Si Si4 0.096567 0.680156 0.000000
Si Si5 0.098141 0.676920 0.733919
Si Si6 0.267752 0.822507 0.325115
Si Si7 0.599004 0.819074 0.429272
Si Si8 0.174327 0.322141 0.133208
O O1 0.500000 0.317302 0.274525
O O2 0.632625 0.500000 0.245576
O O3 0.581614 0.275277 0.169684
O O4 0.665997 0.210138 0.268479
O O5 0.745273 0.214066 0.848613
O O6 0.625043 0.000000 0.868737
O O7 0.640723 0.234980 0.942918
O O8 0.643061 0.500000 0.000000
O O9 0.500000 0.666446 0.000000
O O10 0.140821 0.734546 0.065005
O O11 0.091105 0.500000 0.000000
O O12 0.000000 0.752649 0.000000
O O13 0.105952 0.500000 0.719705
O O14 0.171931 0.752100 0.688833
O O15 0.107778 0.706089 0.808872
O O16 0.000000 0.736565 0.715525
O O17 0.321471 0.754042 0.385547
O O18 0.252416 0.000000 0.333266
O O19 0.618952 0.764547 0.500000
O O20 0.500000 0.762222 0.409503
O O21 0.599583 0.000000 0.424787
O O22 0.201314 0.500000 0.130021
#
# Coordination Sequence:
#
# PCOD8196183 Si02
#       8
#     8   8   4   4   8   8   8   8
#     4  11  23  38  56  79 111 151 190 228 276 337
#     4  12  24  37  55  79 107 138 179 233 288 341
#     4  11  24  41  58  74  98 139 188 232 281 345
#     4   9  17  30  52  80 100 123 172 230 279 333
#     4  10  21  37  57  80 111 155 201 241 288 349
#     4  11  21  34  57  88 118 149 189 237 288 337
#     4   8  15  30  54  86 123 158 190 228 279 340
#     4  10  19  34  56  78 105 140 181 231 289 351
#
# _framework density 19.677544999999999
#
# number of rings (size 3 to 8) (size 9 to 14) (size 15 to 20)
#    0.000    1.714    1.429    4.500    0.000    6.571 
#    0.000    0.000    0.000    3.857    0.000    8.000 
#    0.000    0.000    0.000    0.000    0.000    0.000 
#
# Total GULP energy -693886.288098 kJ/mol
# GULP energy per Si atom -12390.826573 kJ/mol
# Density = 1.963276 g / cm^3
# Si number density = 19.677545 Si / 1000 Ang^3
#
#
#
# Elastic Constant Matrix: (Units=GPa)
#
#
# Indices 1 2 3 4 5 6 
#
# 1 142.8092 33.1219 58.7432 0.0000 0.0000 0.0000
# 2 33.1219 57.9125 20.7158 0.0000 0.0000 0.0000
# 3 58.7432 20.7158 113.5020 0.0000 0.0000 0.0000
# 4 0.0000 0.0000 0.0000 17.5098 0.0000 0.0000
# 5 0.0000 0.0000 0.0000 0.0000 31.3416 0.0000
# 6 0.0000 0.0000 0.0000 0.0000 0.0000 6.2142
#
#
#
# Elastic Compliance Matrix: (Units=1/GPa)
#
#
# Indices 1 2 3 4 5 6 
#
# 1 0.009696 -0.004012 -0.004286 0.000000 0.000000 0.000000
# 2 -0.004012 0.020134 -0.001598 0.000000 0.000000 0.000000
# 3 -0.004286 -0.001598 0.011320 0.000000 0.000000 0.000000
# 4 0.000000 0.000000 0.000000 0.057111 0.000000 0.000000
# 5 0.000000 0.000000 0.000000 0.000000 0.031907 0.000000
# 6 0.000000 0.000000 0.000000 0.000000 0.000000 0.160921
#
#
# Mechanical properties :
#
#
# Convention : Reuss Voigt Hill
#
# Bulk Modulus (GPa) = 46.82210 59.93171 53.37691
# Shear Modulus (GPa) = 15.72329 24.45598 20.08964
#
# Velocity S-wave (km/s) = 2.82981 3.52921 3.19869
# Velocity P-wave (km/s) = 5.87566 6.86514 6.38959
#
# Compressibility (1/GPa) = 0.02135744
#
# Stress axis : x y z
#
# Youngs Moduli (GPa) = 103.13698 49.66763 88.33745
#
# Poissons Ratio (x) = 0.19928 0.37860
# Poissons Ratio (y) = 0.41381 0.14118
# Poissons Ratio (z) = 0.44202 0.07938
#
# Static dielectric constant tensor:
#      x y z
#    x 3.804830 0.000000 0.000000 
#    y 0.000000 3.278040 0.000000 
#    z 0.000000 0.000000 3.690700 
# 
# 
# High freq. dielectric constant tensor:
#      x y z
#    x 1.770140 0.000000 0.000000 
#    y 0.000000 1.739550 0.000000 
#    z 0.000000 0.000000 1.757950 
# 
# From -- ./inp_files/31097.got.cif
#   From: 2010.03.12/outbox.cif.g09.slc.cpg/sg47_16_cif.got.tgz:31097.got - 2010.04.14 03:12:58.
