data_PCOD8196297
_publ_section_title
;
Structure prediction by ZEFSAII (Michael W. Deem and Ramdas Pophale) SiO2 
 PCOD8196297
Probable space group: P M M M
;
_chemical_formula_sum "Si O2"
_cell_formula_units_Z 56
_cell_length_a 22.161359
_cell_length_b 15.036058
_cell_length_c 8.944199
_cell_angle_alpha 90.000000
_cell_angle_beta 90.000000
_cell_angle_gamma 90.000000
_cell_volume 2980.381333
_symmetry_space_group_name_H-M "P M M M"
_symmetry_group_IT_number 47
_symmetry_cell_setting 'orthorhombic'
loop_
_space_group_symop_operation_xyz
x,y,z
-x,-y,z
x,-y,-z
-x,y,-z
-x,-y,-z
x,y,-z
-x,y,z
x,-y,z
loop_
_atom_site_type_symbol
_atom_site_label
_atom_site_fract_x
_atom_site_fract_y
_atom_site_fract_z
Si Si1 0.659443 0.643538 0.676203
Si Si2 0.500000 0.102095 0.823640
Si Si3 0.837402 0.772592 0.177047
Si Si4 0.432499 0.500000 0.678468
Si Si5 0.378969 0.161937 0.324388
Si Si6 0.207761 0.399375 0.676435
Si Si7 0.070588 0.899365 0.327873
Si Si8 0.732498 0.098058 0.829425
O O1 0.661496 0.631160 0.500000
O O2 0.604286 0.585015 0.739418
O O3 0.646836 0.743241 0.724832
O O4 0.724166 0.612454 0.739779
O O5 0.558215 0.148952 0.757113
O O6 0.500000 0.000000 0.773857
O O7 0.500000 0.113185 0.000000
O O8 0.835481 0.673297 0.245671
O O9 0.896434 0.825104 0.229642
O O10 0.779387 0.829092 0.232778
O O11 0.839148 0.764932 0.000000
O O12 0.500000 0.500000 0.746923
O O13 0.436737 0.500000 0.500000
O O14 0.389508 0.151893 0.500000
O O15 0.328349 0.093667 0.268543
O O16 0.205443 0.382141 0.500000
O O17 0.185892 0.500000 0.714511
O O18 0.089326 0.886765 0.500000
O O19 0.000000 0.883075 0.306242
O O20 0.087254 0.000000 0.276079
O O21 0.762385 0.000000 0.817684
O O22 0.714842 0.119969 0.000000
#
# Coordination Sequence:
#
# PCOD8196297 Si02
#       8
#     8   4   8   4   8   8   8   8
#     4   9  17  30  48  76 107 132 166 219 276 329
#     4  11  25  43  57  68  93 136 178 217 271 343
#     4  11  22  35  55  85 121 156 193 235 283 341
#     4   9  16  26  46  74 104 134 163 206 273 340
#     4  11  22  35  55  80 103 128 172 230 278 323
#     4  10  19  35  58  81 110 149 193 239 287 341
#     4   9  19  37  61  89 122 160 200 240 282 332
#     4  10  21  36  52  74 109 149 183 217 268 332
#
# _framework density 18.789542999999998
#
# number of rings (size 3 to 8) (size 9 to 14) (size 15 to 20)
#    0.000    2.000    2.143    2.357    1.000    4.571 
#    0.000    0.714    0.000    0.429    0.000    3.500 
#    0.000    0.000    0.000    0.000    0.000    0.000 
#
# Total GULP energy -694353.500928 kJ/mol
# GULP energy per Si atom -12399.169659 kJ/mol
# Density = 1.874678 g / cm^3
# Si number density = 18.789543 Si / 1000 Ang^3
#
#
#
# Elastic Constant Matrix: (Units=GPa)
#
#
# Indices 1 2 3 4 5 6 
#
# 1 83.8692 48.0740 31.1825 0.0000 0.0000 0.0000
# 2 48.0740 128.5772 42.6197 0.0000 0.0000 0.0000
# 3 31.1825 42.6197 53.1149 0.0000 0.0000 0.0000
# 4 0.0000 0.0000 0.0000 21.3268 0.0000 0.0000
# 5 0.0000 0.0000 0.0000 0.0000 25.4747 0.0000
# 6 0.0000 0.0000 0.0000 0.0000 0.0000 29.5344
#
#
#
# Elastic Compliance Matrix: (Units=1/GPa)
#
#
# Indices 1 2 3 4 5 6 
#
# 1 0.016686 -0.004076 -0.006525 0.000000 0.000000 0.000000
# 2 -0.004076 0.011591 -0.006908 0.000000 0.000000 0.000000
# 3 -0.006525 -0.006908 0.028201 0.000000 0.000000 0.000000
# 4 0.000000 0.000000 0.000000 0.046889 0.000000 0.000000
# 5 0.000000 0.000000 0.000000 0.000000 0.039255 0.000000
# 6 0.000000 0.000000 0.000000 0.000000 0.000000 0.033859
#
#
# Mechanical properties :
#
#
# Convention : Reuss Voigt Hill
#
# Bulk Modulus (GPa) = 46.59921 56.59041 51.59481
# Shear Modulus (GPa) = 22.86735 24.84616 23.85676
#
# Velocity S-wave (km/s) = 3.49237 3.64034 3.56713
# Velocity P-wave (km/s) = 6.41223 6.91758 6.66969
#
# Compressibility (1/GPa) = 0.02145959
#
# Stress axis : x y z
#
# Youngs Moduli (GPa) = 59.93170 86.27309 35.45955
#
# Poissons Ratio (x) = 0.35162 0.23139
# Poissons Ratio (y) = 0.24426 0.24496
# Poissons Ratio (z) = 0.39108 0.59598
#
# Static dielectric constant tensor:
#      x y z
#    x 3.334770 0.000000 0.000000 
#    y 0.000000 3.593900 0.000000 
#    z 0.000000 0.000000 3.163730 
# 
# 
# High freq. dielectric constant tensor:
#      x y z
#    x 1.718000 0.000000 0.000000 
#    y 0.000000 1.739110 0.000000 
#    z 0.000000 0.000000 1.706150 
# 
# From -- ./inp_files/11373.got.cif
#   From: 2010.03.12/outbox.cif.g09.slc.cpg/sg47_6_cif.got.tgz:11373.got - 2010.04.14 03:12:58.
