data_PCOD8196524
_publ_section_title
;
Structure prediction by ZEFSAII (Michael W. Deem and Ramdas Pophale) SiO2 
 PCOD8196524
Probable space group: P M M M
;
_chemical_formula_sum "Si O2"
_cell_formula_units_Z 64
_cell_length_a 30.731807
_cell_length_b 9.127773
_cell_length_c 14.132381
_cell_angle_alpha 90.000000
_cell_angle_beta 90.000000
_cell_angle_gamma 90.000000
_cell_volume 3964.316000
_symmetry_space_group_name_H-M "P M M M"
_symmetry_group_IT_number 47
_symmetry_cell_setting 'orthorhombic'
loop_
_space_group_symop_operation_xyz
x,y,z
-x,-y,z
x,-y,-z
-x,y,-z
-x,-y,-z
x,y,-z
-x,y,z
x,-y,z
loop_
_atom_site_type_symbol
_atom_site_label
_atom_site_fract_x
_atom_site_fract_y
_atom_site_fract_z
Si Si1 0.705945 0.174085 0.393906
Si Si2 0.241437 0.670279 0.107500
Si Si3 0.952121 0.835838 0.387734
Si Si4 0.868163 0.330945 0.611680
Si Si5 0.550280 0.331407 0.391683
Si Si6 0.622598 0.826625 0.279289
Si Si7 0.341486 0.669213 0.107616
Si Si8 0.790846 0.173957 0.716940
O O1 0.706736 0.238706 0.500000
O O2 0.662836 0.232814 0.341999
O O3 0.748336 0.231090 0.338884
O O4 0.705735 0.000000 0.396525
O O5 0.235570 0.500000 0.132015
O O6 0.291508 0.717797 0.120939
O O7 0.211228 0.766135 0.176137
O O8 0.226653 0.701678 0.000000
O O9 0.952790 0.836163 0.500000
O O10 0.915400 0.723424 0.351904
O O11 0.000000 0.786571 0.350319
O O12 0.941468 0.000000 0.351134
O O13 0.862663 0.305388 0.500000
O O14 0.862980 0.500000 0.639137
O O15 0.832629 0.235697 0.664734
O O16 0.559920 0.287735 0.500000
O O17 0.500000 0.304397 0.367583
O O18 0.562776 0.500000 0.374263
O O19 0.577813 0.229009 0.323170
O O20 0.627513 0.766226 0.173309
O O21 0.621598 0.000000 0.275536
O O22 0.347041 0.500000 0.135016
O O23 0.356221 0.696589 0.000000
O O24 0.793764 0.000000 0.718908
#
# Coordination Sequence:
#
# PCOD8196524 Si02
#       8
#     8   8   8   8   8   8   8   8
#     4   9  18  30  42  62  94 128 158 189 227 272
#     4   9  18  33  51  69  92 122 156 198 243 284
#     4   8  14  26  44  64  86 116 157 202 245 288
#     4  10  20  31  43  63  93 129 167 203 240 285
#     4   9  19  36  55  74  98 129 163 196 232 279
#     4  11  20  31  50  76 102 126 156 198 242 282
#     4   9  18  33  52  72  96 127 160 194 235 285
#     4  11  20  31  47  66  93 129 163 198 237 280
#
# _framework density 16.144020999999999
#
# number of rings (size 3 to 8) (size 9 to 14) (size 15 to 20)
#    0.000    2.500    1.250    3.375    0.000    3.000 
#    0.000    3.125    0.000    3.375    0.000    2.625 
#    0.000    0.500    0.000    5.250    0.000    2.500 
#
# Total GULP energy -793587.249564 kJ/mol
# GULP energy per Si atom -12399.800774 kJ/mol
# Density = 1.610728 g / cm^3
# Si number density = 16.144021 Si / 1000 Ang^3
#
#
#
# Elastic Constant Matrix: (Units=GPa)
#
#
# Indices 1 2 3 4 5 6 
#
# 1 93.9170 46.3052 44.6037 0.0000 0.0000 0.0000
# 2 46.3052 75.3834 45.5052 0.0000 0.0000 0.0000
# 3 44.6037 45.5052 84.5600 0.0000 0.0000 0.0000
# 4 0.0000 0.0000 0.0000 24.4091 0.0000 0.0000
# 5 0.0000 0.0000 0.0000 0.0000 9.9645 0.0000
# 6 0.0000 0.0000 0.0000 0.0000 0.0000 27.1006
#
#
#
# Elastic Compliance Matrix: (Units=1/GPa)
#
#
# Indices 1 2 3 4 5 6 
#
# 1 0.016497 -0.007229 -0.004812 0.000000 0.000000 0.000000
# 2 -0.007229 0.022816 -0.008465 0.000000 0.000000 0.000000
# 3 -0.004812 -0.008465 0.018919 0.000000 0.000000 0.000000
# 4 0.000000 0.000000 0.000000 0.040968 0.000000 0.000000
# 5 0.000000 0.000000 0.000000 0.000000 0.100356 0.000000
# 6 0.000000 0.000000 0.000000 0.000000 0.000000 0.036900
#
#
# Mechanical properties :
#
#
# Convention : Reuss Voigt Hill
#
# Bulk Modulus (GPa) = 58.06866 58.52098 58.29482
# Shear Modulus (GPa) = 17.65488 20.12460 18.88974
#
# Velocity S-wave (km/s) = 3.31053 3.53451 3.42435
# Velocity P-wave (km/s) = 7.11759 7.27908 7.19879
#
# Compressibility (1/GPa) = 0.01722099
#
# Stress axis : x y z
#
# Youngs Moduli (GPa) = 60.61672 43.82900 52.85591
#
# Poissons Ratio (x) = 0.31684 0.25433
# Poissons Ratio (y) = 0.43820 0.44743
# Poissons Ratio (z) = 0.29167 0.37101
#
# Static dielectric constant tensor:
#      x y z
#    x 3.078650 0.000000 0.000000 
#    y 0.000000 2.955360 0.000000 
#    z 0.000000 0.000000 2.931930 
# 
# 
# High freq. dielectric constant tensor:
#      x y z
#    x 1.610430 0.000000 0.000000 
#    y 0.000000 1.617230 0.000000 
#    z 0.000000 0.000000 1.601170 
# 
# From -- ./inp_files/25880.got.cif
#   From: 2010.03.12/outbox.cif.g09.slc.cpg/sg47_13_cif.got.tgz:25880.got - 2010.04.14 03:12:58.
