data_PCOD8196026
_publ_section_title
;
Structure prediction by ZEFSAII (Michael W. Deem and Ramdas Pophale) SiO2 
 PCOD8196026
Probable space group: P M M M
;
_chemical_formula_sum "Si O2"
_cell_formula_units_Z 48
_cell_length_a 20.719406
_cell_length_b 14.008022
_cell_length_c 8.918401
_cell_angle_alpha 90.000000
_cell_angle_beta 90.000000
_cell_angle_gamma 90.000000
_cell_volume 2588.457934
_symmetry_space_group_name_H-M "P M M M"
_symmetry_group_IT_number 47
_symmetry_cell_setting 'orthorhombic'
loop_
_space_group_symop_operation_xyz
x,y,z
-x,-y,z
x,-y,-z
-x,y,-z
-x,-y,-z
x,y,-z
-x,y,z
x,-y,z
loop_
_atom_site_type_symbol
_atom_site_label
_atom_site_fract_x
_atom_site_fract_y
_atom_site_fract_z
Si Si1 0.745626 0.888043 0.327566
Si Si2 0.500000 0.892676 0.178498
Si Si3 0.325972 0.392099 0.675245
Si Si4 0.131965 0.800571 0.825135
Si Si5 0.000000 0.108068 0.177969
Si Si6 0.192289 0.393641 0.171701
Si Si7 0.626602 0.214611 0.177520
O O1 0.739449 0.856709 0.500000
O O2 0.814902 0.857894 0.266461
O O3 0.690383 0.837589 0.233000
O O4 0.737255 0.000000 0.307174
O O5 0.436533 0.839316 0.239429
O O6 0.500000 0.000000 0.242849
O O7 0.500000 0.894151 0.000000
O O8 0.331373 0.373348 0.500000
O O9 0.345006 0.500000 0.718210
O O10 0.252846 0.369766 0.723817
O O11 0.375243 0.322558 0.760590
O O12 0.062729 0.835032 0.763983
O O13 0.137726 0.686148 0.797654
O O14 0.140503 0.825513 0.000000
O O15 0.000000 0.000000 0.241987
O O16 0.000000 0.105638 0.000000
O O17 0.164554 0.500000 0.206745
O O18 0.216329 0.387754 0.000000
O O19 0.627251 0.216823 0.000000
#
# Coordination Sequence:
#
# PCOD8196026 Si02
#       7
#     8   4   8   8   4   8   8
#     4  11  23  36  52  78 110 140 178 230 278 326
#     4   9  20  38  58  81 110 144 183 225 272 327
#     4  10  20  34  54  81 113 147 180 219 271 326
#     4  10  19  33  54  78 104 142 185 227 275 325
#     4   9  18  32  50  74 106 143 187 233 275 326
#     4   9  17  30  50  78 108 138 177 224 272 323
#     4  11  21  36  59  84 109 142 182 227 274 323
#
# _framework density 18.543859999999999
#
# number of rings (size 3 to 8) (size 9 to 14) (size 15 to 20)
#    0.000    2.000    1.667    2.500    0.000    3.667 
#    0.000    2.917    0.000    9.500    0.000    0.000 
#    0.000    4.000    0.000    0.000    0.000    0.000 
#
# Total GULP energy -595242.684249 kJ/mol
# GULP energy per Si atom -12400.889255 kJ/mol
# Density = 1.850165 g / cm^3
# Si number density = 18.543860 Si / 1000 Ang^3
#
#
#
# Elastic Constant Matrix: (Units=GPa)
#
#
# Indices 1 2 3 4 5 6 
#
# 1 127.2661 75.7055 35.4961 0.0000 0.0000 0.0000
# 2 75.7055 147.5437 43.7426 0.0000 0.0000 0.0000
# 3 35.4961 43.7426 61.0660 0.0000 0.0000 0.0000
# 4 0.0000 0.0000 0.0000 27.7299 0.0000 0.0000
# 5 0.0000 0.0000 0.0000 0.0000 -2.1765 0.0000
# 6 0.0000 0.0000 0.0000 0.0000 0.0000 35.1596
#
#
#
# Elastic Compliance Matrix: (Units=1/GPa)
#
#
# Indices 1 2 3 4 5 6 
#
# 1 0.011781 -0.005097 -0.003197 0.000000 0.000000 0.000000
# 2 -0.005097 0.010810 -0.004781 0.000000 0.000000 0.000000
# 3 -0.003197 -0.004781 0.021659 0.000000 0.000000 0.000000
# 4 0.000000 0.000000 0.000000 0.036062 0.000000 0.000000
# 5 0.000000 0.000000 0.000000 0.000000 -0.459461 0.000000
# 6 0.000000 0.000000 0.000000 0.000000 0.000000 0.028442
#
#
# Mechanical properties :
#
#
# Convention : Reuss Voigt Hill
#
# Bulk Modulus (GPa) = 55.24742 71.75156 63.49949
# Shear Modulus (GPa) = -15.69744 24.20471 4.25364
#
# Velocity S-wave (km/s) = -2.91263 3.61677 1.51618
# Velocity P-wave (km/s) = 4.30654 7.49788 6.11410
#
# Compressibility (1/GPa) = 0.01810039
#
# Stress axis : x y z
#
# Youngs Moduli (GPa) = 84.87962 92.50279 46.17103
#
# Poissons Ratio (x) = 0.47151 0.14761
# Poissons Ratio (y) = 0.43266 0.22074
# Poissons Ratio (z) = 0.27135 0.44224
#
# Static dielectric constant tensor:
#      x y z
#    x 3.358570 0.000000 0.000000 
#    y 0.000000 3.815940 0.000000 
#    z 0.000000 0.000000 3.299050 
# 
# 
# High freq. dielectric constant tensor:
#      x y z
#    x 1.698650 0.000000 0.000000 
#    y 0.000000 1.741780 0.000000 
#    z 0.000000 0.000000 1.706690 
# 
# From -- ./inp_files/9231.got.cif
#   From: 2010.03.12/outbox.cif.g09.slc.cpg/sg47_5_cif.got.tgz:9231.got - 2010.04.14 03:12:58.
