data_PCOD8196424
_publ_section_title
;
Structure prediction by ZEFSAII (Michael W. Deem and Ramdas Pophale) SiO2 
 PCOD8196424
Probable space group: P M M M
;
_chemical_formula_sum "Si O2"
_cell_formula_units_Z 44
_cell_length_a 17.626378
_cell_length_b 20.297341
_cell_length_c 9.296348
_cell_angle_alpha 90.000000
_cell_angle_beta 90.000000
_cell_angle_gamma 90.000000
_cell_volume 3325.941454
_symmetry_space_group_name_H-M "P M M M"
_symmetry_group_IT_number 47
_symmetry_cell_setting 'orthorhombic'
loop_
_space_group_symop_operation_xyz
x,y,z
-x,-y,z
x,-y,-z
-x,y,-z
-x,-y,-z
x,y,-z
-x,y,z
x,-y,z
loop_
_atom_site_type_symbol
_atom_site_label
_atom_site_fract_x
_atom_site_fract_y
_atom_site_fract_z
Si Si1 0.145701 0.578378 0.663420
Si Si2 0.590136 0.071875 0.160900
Si Si3 0.293341 0.422309 0.166319
Si Si4 0.588558 0.661471 0.332395
Si Si5 0.409907 0.808197 0.341229
Si Si6 0.000000 0.421437 0.163778
O O1 0.144690 0.605916 0.500000
O O2 0.143614 0.500000 0.660829
O O3 0.220579 0.603435 0.745384
O O4 0.073425 0.605453 0.751345
O O5 0.500000 0.078222 0.160210
O O6 0.626435 0.132849 0.247696
O O7 0.612973 0.000000 0.226399
O O8 0.621941 0.076927 0.000000
O O9 0.303209 0.500000 0.183258
O O10 0.367725 0.389393 0.232288
O O11 0.283585 0.402321 0.000000
O O12 0.609020 0.650783 0.500000
O O13 0.500000 0.648850 0.307169
O O14 0.611364 0.735615 0.282713
O O15 0.376079 0.816847 0.500000
O O16 0.500000 0.814415 0.346192
O O17 0.000000 0.500000 0.161021
O O18 0.000000 0.394417 0.000000
#
# Coordination Sequence:
#
# PCOD8196424 Si02
#       6
#     8   8   8   8   8   4
#     4   9  16  26  40  56  73  93 115 137 166 208
#     4   8  13  20  30  46  67  87 105 127 159 200
#     4  10  20  31  41  54  71  89 113 149 190 226
#     4   9  18  31  43  53  66  87 117 152 189 227
#     4   8  14  24  36  49  64  82 107 139 172 207
#     4   9  15  23  37  57  79  97 111 131 162 201
#
# _framework density 13.229336999999999
#
# number of rings (size 3 to 8) (size 9 to 14) (size 15 to 20)
#    0.000    3.182    0.000    3.000    0.000    6.182 
#    0.000    5.455    0.000    0.000    0.000    0.000 
#    0.000    0.000    0.000    0.000    0.000    0.000 
#
# Total GULP energy -545280.746396 kJ/mol
# GULP energy per Si atom -12392.744236 kJ/mol
# Density = 1.319923 g / cm^3
# Si number density = 13.229337 Si / 1000 Ang^3
#
#
#
# Elastic Constant Matrix: (Units=GPa)
#
#
# Indices 1 2 3 4 5 6 
#
# 1 54.4370 27.2975 43.8839 0.0000 0.0000 0.0000
# 2 27.2975 43.6967 37.9187 0.0000 0.0000 0.0000
# 3 43.8839 37.9187 100.8198 0.0000 0.0000 0.0000
# 4 0.0000 0.0000 0.0000 21.2931 0.0000 0.0000
# 5 0.0000 0.0000 0.0000 0.0000 20.5457 0.0000
# 6 0.0000 0.0000 0.0000 0.0000 0.0000 0.2394
#
#
#
# Elastic Compliance Matrix: (Units=1/GPa)
#
#
# Indices 1 2 3 4 5 6 
#
# 1 0.031869 -0.011685 -0.009477 0.000000 0.000000 0.000000
# 2 -0.011685 0.038257 -0.009303 0.000000 0.000000 0.000000
# 3 -0.009477 -0.009303 0.017542 0.000000 0.000000 0.000000
# 4 0.000000 0.000000 0.000000 0.046964 0.000000 0.000000
# 5 0.000000 0.000000 0.000000 0.000000 0.048672 0.000000
# 6 0.000000 0.000000 0.000000 0.000000 0.000000 4.177182
#
#
# Mechanical properties :
#
#
# Convention : Reuss Voigt Hill
#
# Bulk Modulus (GPa) = 37.39744 46.35042 41.87393
# Shear Modulus (GPa) = 1.12858 14.40586 7.76722
#
# Velocity S-wave (km/s) = 0.92463 3.30348 2.42569
# Velocity P-wave (km/s) = 5.42862 7.04718 6.29018
#
# Compressibility (1/GPa) = 0.02673980
#
# Stress axis : x y z
#
# Youngs Moduli (GPa) = 31.37844 26.13893 57.00466
#
# Poissons Ratio (x) = 0.30543 0.54023
# Poissons Ratio (y) = 0.36666 0.53029
# Poissons Ratio (z) = 0.29737 0.24316
#
# Static dielectric constant tensor:
#      x y z
#    x 2.374630 0.000000 0.000000 
#    y 0.000000 2.578030 0.000000 
#    z 0.000000 0.000000 2.881530 
# 
# 
# High freq. dielectric constant tensor:
#      x y z
#    x 1.459480 0.000000 0.000000 
#    y 0.000000 1.473580 0.000000 
#    z 0.000000 0.000000 1.516160 
# 
# From -- ./inp_files/9434.got.cif
#   From: 2010.03.12/outbox.cif.g09.slc.cpg/sg47_5_cif.got.tgz:9434.got - 2010.04.14 03:12:58.
