data_PCOD8196052
_publ_section_title
;
Structure prediction by ZEFSAII (Michael W. Deem and Ramdas Pophale) SiO2 
 PCOD8196052
Probable space group: P M M M
;
_chemical_formula_sum "Si O2"
_cell_formula_units_Z 52
_cell_length_a 14.076852
_cell_length_b 23.002547
_cell_length_c 8.933830
_cell_angle_alpha 90.000000
_cell_angle_beta 90.000000
_cell_angle_gamma 90.000000
_cell_volume 2892.804973
_symmetry_space_group_name_H-M "P M M M"
_symmetry_group_IT_number 47
_symmetry_cell_setting 'orthorhombic'
loop_
_space_group_symop_operation_xyz
x,y,z
-x,-y,z
x,-y,-z
-x,y,-z
-x,-y,-z
x,y,-z
-x,y,z
x,-y,z
loop_
_atom_site_type_symbol
_atom_site_label
_atom_site_fract_x
_atom_site_fract_y
_atom_site_fract_z
Si Si1 0.893310 0.500000 0.822006
Si Si2 0.781571 0.166577 0.675862
Si Si3 0.890348 0.933112 0.171695
Si Si4 0.392120 0.661171 0.325661
Si Si5 0.219800 0.612333 0.175955
Si Si6 0.889698 0.729228 0.826520
Si Si7 0.607661 0.783822 0.175165
O O1 0.838368 0.556951 0.764409
O O2 0.000000 0.500000 0.755601
O O3 0.898706 0.500000 0.000000
O O4 0.769542 0.170239 0.500000
O O5 0.826374 0.105058 0.719388
O O6 0.848442 0.218618 0.729697
O O7 0.677501 0.169630 0.750403
O O8 0.000000 0.922147 0.211479
O O9 0.863240 0.000000 0.198552
O O10 0.871146 0.915388 0.000000
O O11 0.373401 0.671203 0.500000
O O12 0.500000 0.640591 0.295272
O O13 0.321157 0.612719 0.260376
O O14 0.369565 0.720894 0.241514
O O15 0.160411 0.669369 0.218902
O O16 0.238777 0.607898 0.000000
O O17 0.000000 0.722204 0.789715
O O18 0.872459 0.744014 0.000000
O O19 0.500000 0.803032 0.210510
O O20 0.627831 0.780387 0.000000
#
# Coordination Sequence:
#
# PCOD8196052 Si02
#       7
#     4   8   8   8   8   8   8
#     4   9  18  34  56  81 106 136 181 229 270 317
#     4  12  23  33  51  81 115 146 176 217 272 325
#     4   9  19  37  59  80 106 146 192 231 266 310
#     4  10  20  34  53  78 108 139 171 215 273 330
#     4  10  19  33  55  79 104 139 180 224 271 320
#     4  10  20  33  50  74 105 141 180 222 268 318
#     4  10  20  35  56  80 106 139 180 223 268 322
#
# _framework density 17.975633999999999
#
# number of rings (size 3 to 8) (size 9 to 14) (size 15 to 20)
#    0.000    1.923    1.538    3.692    0.000    6.462 
#    0.000    1.538    0.000    4.615    0.000    3.231 
#    0.000    0.000    0.000    0.000    0.000    0.000 
#
# Total GULP energy -644975.097900 kJ/mol
# GULP energy per Si atom -12403.367267 kJ/mol
# Density = 1.793472 g / cm^3
# Si number density = 17.975634 Si / 1000 Ang^3
#
#
#
# Elastic Constant Matrix: (Units=GPa)
#
#
# Indices 1 2 3 4 5 6 
#
# 1 136.8091 62.8646 54.2067 0.0000 0.0000 0.0000
# 2 62.8646 100.4067 42.7538 0.0000 0.0000 0.0000
# 3 54.2067 42.7538 81.0608 0.0000 0.0000 0.0000
# 4 0.0000 0.0000 0.0000 5.4597 0.0000 0.0000
# 5 0.0000 0.0000 0.0000 0.0000 22.8955 0.0000
# 6 0.0000 0.0000 0.0000 0.0000 0.0000 30.3008
#
#
#
# Elastic Compliance Matrix: (Units=1/GPa)
#
#
# Indices 1 2 3 4 5 6 
#
# 1 0.011700 -0.005150 -0.005107 0.000000 0.000000 0.000000
# 2 -0.005150 0.015111 -0.004526 0.000000 0.000000 0.000000
# 3 -0.005107 -0.004526 0.018139 0.000000 0.000000 0.000000
# 4 0.000000 0.000000 0.000000 0.183162 0.000000 0.000000
# 5 0.000000 0.000000 0.000000 0.000000 0.043677 0.000000
# 6 0.000000 0.000000 0.000000 0.000000 0.000000 0.033002
#
#
# Mechanical properties :
#
#
# Convention : Reuss Voigt Hill
#
# Bulk Modulus (GPa) = 65.00891 70.88078 67.94485
# Shear Modulus (GPa) = 14.72816 22.29464 18.51140
#
# Velocity S-wave (km/s) = 2.86552 3.52557 3.21254
# Velocity P-wave (km/s) = 6.86963 7.48933 7.18616
#
# Compressibility (1/GPa) = 0.01538251
#
# Stress axis : x y z
#
# Youngs Moduli (GPa) = 85.47188 66.17522 55.13021
#
# Poissons Ratio (x) = 0.34083 0.28157
# Poissons Ratio (y) = 0.44022 0.24952
# Poissons Ratio (z) = 0.43653 0.29951
#
# Static dielectric constant tensor:
#      x y z
#    x 3.533980 0.000000 0.000000 
#    y 0.000000 3.206120 0.000000 
#    z 0.000000 0.000000 3.213200 
# 
# 
# High freq. dielectric constant tensor:
#      x y z
#    x 1.708290 0.000000 0.000000 
#    y 0.000000 1.678320 0.000000 
#    z 0.000000 0.000000 1.688220 
# 
# From -- ./inp_files/6948.got.cif
#   From: 2010.03.12/outbox.cif.g09.slc.cpg/sg47_4_cif.got.tgz:6948.got - 2010.04.14 03:12:58.
