data_PCOD8196908
_publ_section_title
;
Structure prediction by ZEFSAII (Michael W. Deem and Ramdas Pophale) SiO2 
 PCOD8196908
Probable space group: P M M M
;
_chemical_formula_sum "Si O2"
_cell_formula_units_Z 52
_cell_length_a 14.446298
_cell_length_b 24.893797
_cell_length_c 7.914008
_cell_angle_alpha 90.000000
_cell_angle_beta 90.000000
_cell_angle_gamma 90.000000
_cell_volume 2846.060959
_symmetry_space_group_name_H-M "P M M M"
_symmetry_group_IT_number 47
_symmetry_cell_setting 'orthorhombic'
loop_
_space_group_symop_operation_xyz
x,y,z
-x,-y,z
x,-y,-z
-x,y,-z
-x,-y,-z
x,y,-z
-x,y,z
x,-y,z
loop_
_atom_site_type_symbol
_atom_site_label
_atom_site_fract_x
_atom_site_fract_y
_atom_site_fract_z
Si Si1 0.109765 0.559915 0.000000
Si Si2 0.397443 0.883083 0.195153
Si Si3 0.397429 0.765428 0.307463
Si Si4 0.206118 0.734078 0.192629
Si Si5 0.217038 0.941018 0.200369
Si Si6 0.104095 0.840494 0.798791
Si Si7 0.893066 0.368260 0.310680
O O1 0.144155 0.589891 0.170219
O O2 0.152537 0.500000 0.000000
O O3 0.000000 0.556383 0.000000
O O4 0.500000 0.907439 0.224532
O O5 0.382992 0.829282 0.301390
O O6 0.322419 0.926929 0.252937
O O7 0.381784 0.867020 0.000000
O O8 0.389568 0.746563 0.500000
O O9 0.500000 0.750703 0.234982
O O10 0.317691 0.735129 0.203129
O O11 0.164061 0.789794 0.264550
O O12 0.165813 0.686039 0.303258
O O13 0.175291 0.724785 0.000000
O O14 0.148133 0.895644 0.273999
O O15 0.192641 0.000000 0.275505
O O16 0.207801 0.942837 0.000000
O O17 0.000000 0.835303 0.728729
O O18 0.105452 0.842115 0.000000
O O19 0.881532 0.392690 0.500000
O O20 0.000000 0.354104 0.273802
#
# Coordination Sequence:
#
# PCOD8196908 Si02
#       7
#     4   8   8   8   8   8   8
#     4   9  18  34  54  78 113 155 194 228 264 305
#     4   9  16  28  45  64  86 112 147 192 248 314
#     4  10  20  32  47  69  96 125 159 202 255 317
#     4  11  19  31  51  72 101 135 169 213 262 315
#     4   9  16  26  40  61  87 113 149 198 250 308
#     4   9  17  27  41  64  91 122 158 199 254 311
#     4  10  20  33  51  79 113 148 188 229 267 308
#
# _framework density 18.270868
#
# number of rings (size 3 to 8) (size 9 to 14) (size 15 to 20)
#    0.000    2.385    2.308    1.385    0.000    2.462 
#    0.000    4.615    0.000    0.462    0.000    2.154 
#    0.000    2.462    0.000    3.231    0.000    0.154 
#
# Total GULP energy -644624.945222 kJ/mol
# GULP energy per Si atom -12396.633562 kJ/mol
# Density = 1.822928 g / cm^3
# Si number density = 18.270868 Si / 1000 Ang^3
#
#
#
# Elastic Constant Matrix: (Units=GPa)
#
#
# Indices 1 2 3 4 5 6 
#
# 1 110.3047 48.2967 18.7459 0.0000 0.0000 0.0000
# 2 48.2967 112.5521 31.4858 0.0000 0.0000 0.0000
# 3 18.7459 31.4858 59.9237 0.0000 0.0000 0.0000
# 4 0.0000 0.0000 0.0000 10.0328 0.0000 0.0000
# 5 0.0000 0.0000 0.0000 0.0000 15.0150 0.0000
# 6 0.0000 0.0000 0.0000 0.0000 0.0000 15.4153
#
#
#
# Elastic Compliance Matrix: (Units=1/GPa)
#
#
# Indices 1 2 3 4 5 6 
#
# 1 0.011230 -0.004497 -0.001150 0.000000 0.000000 0.000000
# 2 -0.004497 0.012217 -0.005012 0.000000 0.000000 0.000000
# 3 -0.001150 -0.005012 0.019681 0.000000 0.000000 0.000000
# 4 0.000000 0.000000 0.000000 0.099673 0.000000 0.000000
# 5 0.000000 0.000000 0.000000 0.000000 0.066600 0.000000
# 6 0.000000 0.000000 0.000000 0.000000 0.000000 0.064871
#
#
# Mechanical properties :
#
#
# Convention : Reuss Voigt Hill
#
# Bulk Modulus (GPa) = 45.85243 53.31526 49.58384
# Shear Modulus (GPa) = 16.50924 20.37611 18.44267
#
# Velocity S-wave (km/s) = 3.00923 3.34312 3.18056
# Velocity P-wave (km/s) = 6.10117 6.64423 6.37848
#
# Compressibility (1/GPa) = 0.02180909
#
# Stress axis : x y z
#
# Youngs Moduli (GPa) = 89.04418 81.85529 50.80982
#
# Poissons Ratio (x) = 0.36812 0.05844
# Poissons Ratio (y) = 0.40045 0.25467
# Poissons Ratio (z) = 0.10242 0.41027
#
# Static dielectric constant tensor:
#      x y z
#    x 3.457360 0.000000 0.000000 
#    y 0.000000 3.234680 0.000000 
#    z 0.000000 0.000000 3.139640 
# 
# 
# High freq. dielectric constant tensor:
#      x y z
#    x 1.700010 0.000000 0.000000 
#    y 0.000000 1.672830 0.000000 
#    z 0.000000 0.000000 1.691410 
# 
# From -- ./inp_files/7591.got.cif
#   From: 2010.03.12/outbox.cif.g09.slc.cpg/sg47_4_cif.got.tgz:7591.got - 2010.04.14 03:12:58.
