data_PCOD8196925
_publ_section_title
;
Structure prediction by ZEFSAII (Michael W. Deem and Ramdas Pophale) SiO2 
 PCOD8196925
Probable space group: P M M M
;
_chemical_formula_sum "Si O2"
_cell_formula_units_Z 52
_cell_length_a 8.032076
_cell_length_b 18.377931
_cell_length_c 18.644198
_cell_angle_alpha 90.000000
_cell_angle_beta 90.000000
_cell_angle_gamma 90.000000
_cell_volume 2752.124853
_symmetry_space_group_name_H-M "P M M M"
_symmetry_group_IT_number 47
_symmetry_cell_setting 'orthorhombic'
loop_
_space_group_symop_operation_xyz
x,y,z
-x,-y,z
x,-y,-z
-x,y,-z
-x,-y,-z
x,y,-z
-x,y,z
x,-y,z
loop_
_atom_site_type_symbol
_atom_site_label
_atom_site_fract_x
_atom_site_fract_y
_atom_site_fract_z
Si Si1 0.193179 0.775712 0.921656
Si Si2 0.309675 0.918877 0.851804
Si Si3 0.304741 0.917314 0.419774
Si Si4 0.188568 0.153225 0.282333
Si Si5 0.311504 0.415490 0.677030
Si Si6 0.000000 0.413800 0.580896
Si Si7 0.195378 0.696894 0.217283
O O1 0.212820 0.859788 0.898964
O O2 0.266658 0.720662 0.861343
O O3 0.000000 0.759508 0.927353
O O4 0.276881 0.762165 0.000000
O O5 0.500000 0.916942 0.875760
O O6 0.298891 0.899549 0.767271
O O7 0.236269 0.000000 0.864897
O O8 0.255994 0.892992 0.500000
O O9 0.500000 0.909894 0.407555
O O10 0.209800 0.864752 0.365628
O O11 0.247286 0.000000 0.406569
O O12 0.236303 0.237340 0.271713
O O13 0.000000 0.141137 0.257138
O O14 0.500000 0.402624 0.646768
O O15 0.283239 0.500000 0.693979
O O16 0.169309 0.387478 0.621291
O O17 0.291035 0.373410 0.752609
O O18 0.000000 0.500000 0.576778
O O19 0.000000 0.381416 0.500000
O O20 0.000000 0.679594 0.213494
#
# Coordination Sequence:
#
# PCOD8196925 Si02
#       7
#     8   8   8   8   8   4   8
#     4   9  19  35  54  77 104 135 173 217 265 317
#     4  10  20  32  47  69  98 133 172 214 262 317
#     4   9  18  32  48  66  92 128 168 211 260 311
#     4  10  20  32  49  72  96 126 168 216 261 311
#     4  10  20  34  57  87 113 144 187 225 263 318
#     4   9  18  34  56  82 115 149 176 215 267 309
#     4   9  18  34  54  75 104 140 173 214 268 320
#
# _framework density 18.894493000000001
#
# number of rings (size 3 to 8) (size 9 to 14) (size 15 to 20)
#    0.000    2.538    0.769    2.769    0.000    7.692 
#    0.000    4.615    0.000    0.462    0.000    3.231 
#    0.000    0.000    0.000    0.000    0.000    0.000 
#
# Total GULP energy -644534.876252 kJ/mol
# GULP energy per Si atom -12394.901466 kJ/mol
# Density = 1.885149 g / cm^3
# Si number density = 18.894493 Si / 1000 Ang^3
#
#
#
# Elastic Constant Matrix: (Units=GPa)
#
#
# Indices 1 2 3 4 5 6 
#
# 1 64.7973 29.6351 33.7834 0.0000 0.0000 0.0000
# 2 29.6351 71.2099 54.2574 0.0000 0.0000 0.0000
# 3 33.7834 54.2574 146.3140 0.0000 0.0000 0.0000
# 4 0.0000 0.0000 0.0000 20.3246 0.0000 0.0000
# 5 0.0000 0.0000 0.0000 0.0000 18.2626 0.0000
# 6 0.0000 0.0000 0.0000 0.0000 0.0000 22.1842
#
#
#
# Elastic Compliance Matrix: (Units=1/GPa)
#
#
# Indices 1 2 3 4 5 6 
#
# 1 0.019505 -0.006531 -0.002082 0.000000 0.000000 0.000000
# 2 -0.006531 0.021760 -0.006561 0.000000 0.000000 0.000000
# 3 -0.002082 -0.006561 0.009748 0.000000 0.000000 0.000000
# 4 0.000000 0.000000 0.000000 0.049202 0.000000 0.000000
# 5 0.000000 0.000000 0.000000 0.000000 0.054757 0.000000
# 6 0.000000 0.000000 0.000000 0.000000 0.000000 0.045077
#
#
# Mechanical properties :
#
#
# Convention : Reuss Voigt Hill
#
# Bulk Modulus (GPa) = 48.39011 57.51924 52.95467
# Shear Modulus (GPa) = 21.07159 23.13063 22.10111
#
# Velocity S-wave (km/s) = 3.34312 3.50265 3.42382
# Velocity P-wave (km/s) = 6.36932 6.84591 6.61191
#
# Compressibility (1/GPa) = 0.02066538
#
# Stress axis : x y z
#
# Youngs Moduli (GPa) = 51.26854 45.95507 102.58088
#
# Poissons Ratio (x) = 0.30014 0.21354
# Poissons Ratio (y) = 0.33485 0.67307
# Poissons Ratio (z) = 0.10673 0.30153
#
# Static dielectric constant tensor:
#      x y z
#    x 3.385620 0.000000 0.000000 
#    y 0.000000 3.277240 0.000000 
#    z 0.000000 0.000000 3.785970 
# 
# 
# High freq. dielectric constant tensor:
#      x y z
#    x 1.729860 0.000000 0.000000 
#    y 0.000000 1.708450 0.000000 
#    z 0.000000 0.000000 1.729010 
# 
# From -- ./inp_files/26749.got.cif
#   From: 2010.03.12/outbox.cif.g09.slc.cpg/sg47_14_cif.got.tgz:26749.got - 2010.04.14 03:12:58.
