data_PCOD8196393
_publ_section_title
;
Structure prediction by ZEFSAII (Michael W. Deem and Ramdas Pophale) SiO2 
 PCOD8196393
Probable space group: P M M M
;
_chemical_formula_sum "Si O2"
_cell_formula_units_Z 64
_cell_length_a 18.056340
_cell_length_b 20.028999
_cell_length_c 8.943064
_cell_angle_alpha 90.000000
_cell_angle_beta 90.000000
_cell_angle_gamma 90.000000
_cell_volume 3234.262814
_symmetry_space_group_name_H-M "P M M M"
_symmetry_group_IT_number 47
_symmetry_cell_setting 'orthorhombic'
loop_
_space_group_symop_operation_xyz
x,y,z
-x,-y,z
x,-y,-z
-x,y,-z
-x,-y,-z
x,y,-z
-x,y,z
x,-y,z
loop_
_atom_site_type_symbol
_atom_site_label
_atom_site_fract_x
_atom_site_fract_y
_atom_site_fract_z
Si Si1 0.582779 0.207046 0.328354
Si Si2 0.626232 0.922737 0.175568
Si Si3 0.770765 0.076374 0.335784
Si Si4 0.131740 0.748113 0.166606
Si Si5 0.082858 0.600520 0.169266
Si Si6 0.767718 0.574542 0.327895
Si Si7 0.920819 0.871341 0.675748
Si Si8 0.706638 0.298053 0.176207
O O1 0.608025 0.200475 0.500000
O O2 0.500000 0.237374 0.316187
O O3 0.576632 0.132154 0.258640
O O4 0.638159 0.257631 0.245570
O O5 0.709450 0.899545 0.218437
O O6 0.608107 0.000000 0.223808
O O7 0.614904 0.915375 0.000000
O O8 0.763642 0.112344 0.500000
O O9 0.851115 0.087657 0.259950
O O10 0.757909 0.000000 0.365303
O O11 0.087707 0.679823 0.172518
O O12 0.090778 0.794393 0.284878
O O13 0.217651 0.740814 0.213915
O O14 0.127142 0.778925 0.000000
O O15 0.147203 0.570787 0.272044
O O16 0.000000 0.579314 0.223955
O O17 0.095617 0.574872 0.000000
O O18 0.768863 0.596700 0.500000
O O19 0.734009 0.500000 0.308688
O O20 0.715215 0.626655 0.240123
O O21 0.923238 0.880707 0.500000
O O22 0.000000 0.896389 0.742176
O O23 0.693802 0.304380 0.000000
#
# Coordination Sequence:
#
# PCOD8196393 Si02
#       8
#     8   8   8   8   8   8   8   8
#     4  11  24  40  60  88 120 150 179 216 266 325
#     4  10  21  37  58  84 114 148 186 227 268 316
#     4   9  18  33  51  68  91 129 174 219 269 324
#     4   9  18  32  49  70  96 129 171 215 262 317
#     4   9  18  32  49  71 103 144 188 233 281 332
#     4  10  21  36  55  81 113 149 189 234 285 339
#     4  10  20  30  42  65  94 125 167 220 274 323
#     4  10  21  38  61  85 110 144 185 229 274 325
#
# _framework density 19.788125999999998
#
# number of rings (size 3 to 8) (size 9 to 14) (size 15 to 20)
#    0.000    2.250    0.000    3.375    0.000    9.500 
#    0.000    3.750    0.000    0.375    0.000    5.250 
#    0.000    0.000    0.000    0.000    0.000    0.000 
#
# Total GULP energy -793044.666384 kJ/mol
# GULP energy per Si atom -12391.322912 kJ/mol
# Density = 1.974309 g / cm^3
# Si number density = 19.788126 Si / 1000 Ang^3
#
#
#
# Elastic Constant Matrix: (Units=GPa)
#
#
# Indices 1 2 3 4 5 6 
#
# 1 102.2678 35.7245 34.3029 0.0000 0.0000 0.0000
# 2 35.7245 64.6636 37.0104 0.0000 0.0000 0.0000
# 3 34.3029 37.0104 84.4318 0.0000 0.0000 0.0000
# 4 0.0000 0.0000 0.0000 18.4217 0.0000 0.0000
# 5 0.0000 0.0000 0.0000 0.0000 23.5193 0.0000
# 6 0.0000 0.0000 0.0000 0.0000 0.0000 5.4890
#
#
#
# Elastic Compliance Matrix: (Units=1/GPa)
#
#
# Indices 1 2 3 4 5 6 
#
# 1 0.012579 -0.005372 -0.002756 0.000000 0.000000 0.000000
# 2 -0.005372 0.022938 -0.007872 0.000000 0.000000 0.000000
# 3 -0.002756 -0.007872 0.016414 0.000000 0.000000 0.000000
# 4 0.000000 0.000000 0.000000 0.054284 0.000000 0.000000
# 5 0.000000 0.000000 0.000000 0.000000 0.042518 0.000000
# 6 0.000000 0.000000 0.000000 0.000000 0.000000 0.182182
#
#
# Mechanical properties :
#
#
# Convention : Reuss Voigt Hill
#
# Bulk Modulus (GPa) = 50.17268 51.71540 50.94404
# Shear Modulus (GPa) = 13.52957 19.10770 16.31864
#
# Velocity S-wave (km/s) = 2.61764 3.11081 2.87482
# Velocity P-wave (km/s) = 5.87759 6.25253 6.06796
#
# Compressibility (1/GPa) = 0.01993117
#
# Stress axis : x y z
#
# Youngs Moduli (GPa) = 79.49583 43.59491 60.92254
#
# Poissons Ratio (x) = 0.23421 0.16789
# Poissons Ratio (y) = 0.42708 0.47960
# Poissons Ratio (z) = 0.21907 0.34319
#
# Static dielectric constant tensor:
#      x y z
#    x 3.794400 0.000000 0.000000 
#    y 0.000000 3.517170 0.000000 
#    z 0.000000 0.000000 3.639900 
# 
# 
# High freq. dielectric constant tensor:
#      x y z
#    x 1.764690 0.000000 0.000000 
#    y 0.000000 1.761340 0.000000 
#    z 0.000000 0.000000 1.767410 
# 
# From -- ./inp_files/10024.got.cif
#   From: 2010.03.12/outbox.cif.g09.slc.cpg/sg47_6_cif.got.tgz:10024.got - 2010.04.14 03:12:58.
