data_PCOD8196915
_publ_section_title
;
Structure prediction by ZEFSAII (Michael W. Deem and Ramdas Pophale) SiO2 
 PCOD8196915
Probable space group: P M M M
;
_chemical_formula_sum "Si O2"
_cell_formula_units_Z 48
_cell_length_a 9.106230
_cell_length_b 31.166400
_cell_length_c 9.464884
_cell_angle_alpha 90.000000
_cell_angle_beta 90.000000
_cell_angle_gamma 90.000000
_cell_volume 2686.213647
_symmetry_space_group_name_H-M "P M M M"
_symmetry_group_IT_number 47
_symmetry_cell_setting 'orthorhombic'
loop_
_space_group_symop_operation_xyz
x,y,z
-x,-y,z
x,-y,-z
-x,y,-z
-x,-y,-z
x,y,-z
-x,y,z
x,-y,z
loop_
_atom_site_type_symbol
_atom_site_label
_atom_site_fract_x
_atom_site_fract_y
_atom_site_fract_z
Si Si1 0.830737 0.720804 0.833309
Si Si2 0.169812 0.880772 0.336419
Si Si3 0.327696 0.205495 0.336543
Si Si4 0.332954 0.950646 0.836044
Si Si5 0.325494 0.454578 0.158246
Si Si6 0.334883 0.637114 0.831368
O O1 0.739187 0.757095 0.756505
O O2 0.772512 0.674683 0.779501
O O3 0.000000 0.724798 0.790626
O O4 0.806655 0.725958 0.000000
O O5 0.199861 0.890036 0.500000
O O6 0.259294 0.839293 0.284924
O O7 0.221070 0.922234 0.251928
O O8 0.000000 0.872026 0.304932
O O9 0.288979 0.214042 0.500000
O O10 0.500000 0.203485 0.309805
O O11 0.500000 0.940676 0.790043
O O12 0.294851 0.000000 0.804959
O O13 0.311582 0.940131 0.000000
O O14 0.500000 0.452404 0.152020
O O15 0.277138 0.500000 0.234794
O O16 0.275355 0.409242 0.229599
O O17 0.261743 0.456480 0.000000
O O18 0.500000 0.647010 0.776554
O O19 0.336090 0.633992 0.000000
#
# Coordination Sequence:
#
# PCOD8196915 Si02
#       6
#     8   8   8   8   8   8
#     4  10  20  32  47  69  97 128 160 194 236 287
#     4  10  21  36  54  77 104 132 162 198 242 291
#     4  10  21  37  56  75  95 123 161 203 245 288
#     4   9  19  36  56  78 105 137 172 207 241 278
#     4   7   9  14  27  49  76 107 145 187 229 272
#     4   8  13  22  37  57  83 116 153 193 234 275
#
# _framework density 17.869019000000002
#
# number of rings (size 3 to 8) (size 9 to 14) (size 15 to 20)
#    0.000    3.000    0.000    3.500    0.000    4.667 
#    0.000    2.500    0.000    0.500    0.000    3.500 
#    0.000    0.667    0.000    7.667    0.000    8.833 
#
# Total GULP energy -594784.589308 kJ/mol
# GULP energy per Si atom -12391.345611 kJ/mol
# Density = 1.782835 g / cm^3
# Si number density = 17.869019 Si / 1000 Ang^3
#
#
#
# Elastic Constant Matrix: (Units=GPa)
#
#
# Indices 1 2 3 4 5 6 
#
# 1 84.7030 64.9552 30.6646 0.0000 0.0000 0.0000
# 2 64.9552 156.3341 45.7763 0.0000 0.0000 0.0000
# 3 30.6646 45.7763 31.0022 0.0000 0.0000 0.0000
# 4 0.0000 0.0000 0.0000 -18.0190 0.0000 0.0000
# 5 0.0000 0.0000 0.0000 0.0000 22.8571 0.0000
# 6 0.0000 0.0000 0.0000 0.0000 0.0000 5.2633
#
#
#
# Elastic Compliance Matrix: (Units=1/GPa)
#
#
# Indices 1 2 3 4 5 6 
#
# 1 0.019996 -0.004434 -0.013232 0.000000 0.000000 0.000000
# 2 -0.004434 0.012252 -0.013704 0.000000 0.000000 0.000000
# 3 -0.013232 -0.013704 0.065579 0.000000 0.000000 0.000000
# 4 0.000000 0.000000 0.000000 -0.055497 0.000000 0.000000
# 5 0.000000 0.000000 0.000000 0.000000 0.043750 0.000000
# 6 0.000000 0.000000 0.000000 0.000000 0.000000 0.189995
#
#
# Mechanical properties :
#
#
# Convention : Reuss Voigt Hill
#
# Bulk Modulus (GPa) = 28.50102 61.64795 45.07448
# Shear Modulus (GPa) = 14.26489 10.72984 12.49737
#
# Velocity S-wave (km/s) = 2.82849 2.45311 2.64746
# Velocity P-wave (km/s) = 5.16253 6.52675 5.88431
#
# Compressibility (1/GPa) = 0.03508646
#
# Stress axis : x y z
#
# Youngs Moduli (GPa) = 50.00916 81.62201 15.24883
#
# Poissons Ratio (x) = 0.36190 0.20177
# Poissons Ratio (y) = 0.22173 0.20898
# Poissons Ratio (z) = 0.66171 1.11859
#
# Static dielectric constant tensor:
#      x y z
#    x 3.204260 0.000000 0.000000 
#    y 0.000000 3.778900 0.000000 
#    z 0.000000 0.000000 2.882740 
# 
# 
# High freq. dielectric constant tensor:
#      x y z
#    x 1.677970 0.000000 0.000000 
#    y 0.000000 1.717450 0.000000 
#    z 0.000000 0.000000 1.640300 
# 
# From -- ./inp_files/2461.got.cif
#   From: 2010.03.12/outbox.cif.g09.slc.cpg/sg47_2_cif.got.tgz:2461.got - 2010.04.14 03:12:58.
