data_PCOD8196033
_publ_section_title
;
Structure prediction by ZEFSAII (Michael W. Deem and Ramdas Pophale) SiO2 
 PCOD8196033
Probable space group: P M M M
;
_chemical_formula_sum "Si O2"
_cell_formula_units_Z 48
_cell_length_a 9.947982
_cell_length_b 8.902408
_cell_length_c 29.635290
_cell_angle_alpha 90.000000
_cell_angle_beta 90.000000
_cell_angle_gamma 90.000000
_cell_volume 2624.530756
_symmetry_space_group_name_H-M "P M M M"
_symmetry_group_IT_number 47
_symmetry_cell_setting 'orthorhombic'
loop_
_space_group_symop_operation_xyz
x,y,z
-x,-y,z
x,-y,-z
-x,y,-z
-x,-y,-z
x,y,-z
-x,y,z
x,-y,z
loop_
_atom_site_type_symbol
_atom_site_label
_atom_site_fract_x
_atom_site_fract_y
_atom_site_fract_z
Si Si1 0.000000 0.678277 0.051133
Si Si2 0.253416 0.321726 0.892190
Si Si3 0.844486 0.676671 0.727728
Si Si4 0.158536 0.833843 0.636192
Si Si5 0.500000 0.678156 0.049643
Si Si6 0.159855 0.331218 0.549507
Si Si7 0.656122 0.178157 0.198662
O O1 0.875048 0.734830 0.080324
O O2 0.000000 0.500000 0.046942
O O3 0.000000 0.745441 0.000000
O O4 0.253060 0.500000 0.884127
O O5 0.372940 0.264176 0.923319
O O6 0.265410 0.242087 0.844371
O O7 0.824453 0.500000 0.733758
O O8 0.805365 0.722641 0.676981
O O9 0.739213 0.762935 0.758893
O O10 0.000000 0.721680 0.738745
O O11 0.221477 0.770524 0.589519
O O12 0.000000 0.844719 0.630775
O O13 0.218477 0.000000 0.645371
O O14 0.500000 0.500000 0.045633
O O15 0.500000 0.750714 0.000000
O O16 0.203282 0.268765 0.500000
O O17 0.214790 0.500000 0.555623
O O18 0.000000 0.333150 0.552992
O O19 0.500000 0.233445 0.200192
O O20 0.661722 0.000000 0.197811
#
# Coordination Sequence:
#
# PCOD8196033 Si02
#       7
#     4   8   8   8   4   8   8
#     4   9  18  32  53  83 113 137 167 211 256 297
#     4  10  19  33  54  79 107 136 170 212 254 300
#     4  10  21  36  56  79 102 132 173 219 266 316
#     4   9  16  26  41  64  96 131 168 211 261 316
#     4   9  16  28  51  79 103 133 173 213 252 293
#     4   8  13  21  34  54  85 128 174 216 258 305
#     4  11  24  40  56  76 106 140 174 214 263 315
#
# _framework density 18.288983000000002
#
# number of rings (size 3 to 8) (size 9 to 14) (size 15 to 20)
#    0.000    2.500    0.833    2.500    1.167    6.333 
#    0.000    1.667    0.000    3.000    0.000    0.000 
#    0.000    0.667    0.000    7.000    0.000    9.667 
#
# Total GULP energy -594943.035173 kJ/mol
# GULP energy per Si atom -12394.646566 kJ/mol
# Density = 1.824736 g / cm^3
# Si number density = 18.288983 Si / 1000 Ang^3
#
#
#
# Elastic Constant Matrix: (Units=GPa)
#
#
# Indices 1 2 3 4 5 6 
#
# 1 94.2985 25.5135 55.3734 0.0000 0.0000 0.0000
# 2 25.5135 59.5263 36.6684 0.0000 0.0000 0.0000
# 3 55.3734 36.6684 150.8448 0.0000 0.0000 0.0000
# 4 0.0000 0.0000 0.0000 -1.2481 0.0000 0.0000
# 5 0.0000 0.0000 0.0000 0.0000 13.5331 0.0000
# 6 0.0000 0.0000 0.0000 0.0000 0.0000 19.6009
#
#
#
# Elastic Compliance Matrix: (Units=1/GPa)
#
#
# Indices 1 2 3 4 5 6 
#
# 1 0.014064 -0.003349 -0.004349 0.000000 0.000000 0.000000
# 2 -0.003349 0.020556 -0.003767 0.000000 0.000000 0.000000
# 3 -0.004349 -0.003767 0.009141 0.000000 0.000000 0.000000
# 4 0.000000 0.000000 0.000000 -0.801226 0.000000 0.000000
# 5 0.000000 0.000000 0.000000 0.000000 0.073893 0.000000
# 6 0.000000 0.000000 0.000000 0.000000 0.000000 0.051018
#
#
# Mechanical properties :
#
#
# Convention : Reuss Voigt Hill
#
# Bulk Modulus (GPa) = 48.00585 59.97556 53.99070
# Shear Modulus (GPa) = -8.29627 18.85148 5.27760
#
# Velocity S-wave (km/s) = -2.13215 3.21402 1.70057
# Velocity P-wave (km/s) = 4.49934 6.82918 5.78281
#
# Compressibility (1/GPa) = 0.02083080
#
# Stress axis : x y z
#
# Youngs Moduli (GPa) = 71.10119 48.64875 109.39154
#
# Poissons Ratio (x) = 0.16294 0.47571
# Poissons Ratio (y) = 0.23814 0.41211
# Poissons Ratio (z) = 0.30920 0.18327
#
# Static dielectric constant tensor:
#      x y z
#    x 3.161370 0.000000 0.000000 
#    y 0.000000 3.282150 0.000000 
#    z 0.000000 0.000000 3.679660 
# 
# 
# High freq. dielectric constant tensor:
#      x y z
#    x 1.668970 0.000000 0.000000 
#    y 0.000000 1.692570 0.000000 
#    z 0.000000 0.000000 1.728980 
# 
# From -- ./inp_files/34060.got.cif
#   From: 2010.03.12/outbox.cif.g09.slc.cpg/sg47_18_cif.got.tgz:34060.got - 2010.04.14 03:12:58.
