data_PCOD8196233
_publ_section_title
;
Structure prediction by ZEFSAII (Michael W. Deem and Ramdas Pophale) SiO2 
 PCOD8196233
Probable space group: P M M M
;
_chemical_formula_sum "Si O2"
_cell_formula_units_Z 48
_cell_length_a 9.045499
_cell_length_b 9.922835
_cell_length_c 29.127797
_cell_angle_alpha 90.000000
_cell_angle_beta 90.000000
_cell_angle_gamma 90.000000
_cell_volume 2614.423503
_symmetry_space_group_name_H-M "P M M M"
_symmetry_group_IT_number 47
_symmetry_cell_setting 'orthorhombic'
loop_
_space_group_symop_operation_xyz
x,y,z
-x,-y,z
x,-y,-z
-x,y,-z
-x,-y,-z
x,y,-z
-x,y,z
x,-y,z
loop_
_atom_site_type_symbol
_atom_site_label
_atom_site_fract_x
_atom_site_fract_y
_atom_site_fract_z
Si Si1 0.825381 0.653755 0.783534
Si Si2 0.825204 0.000000 0.550217
Si Si3 0.175436 0.153181 0.702789
Si Si4 0.825172 0.741901 0.604725
Si Si5 0.324762 0.500000 0.446986
Si Si6 0.830287 0.154128 0.946626
Si Si7 0.672606 0.654168 0.877581
O O1 0.780137 0.500000 0.770591
O O2 0.765510 0.757361 0.745157
O O3 0.753504 0.699093 0.831170
O O4 0.000000 0.665828 0.788795
O O5 0.771242 0.871312 0.577356
O O6 0.751865 0.000000 0.500000
O O7 0.000000 0.000000 0.546484
O O8 0.223946 0.233524 0.657191
O O9 0.000000 0.142764 0.703604
O O10 0.240339 0.000000 0.704582
O O11 0.735289 0.624528 0.581374
O O12 0.000000 0.713366 0.600882
O O13 0.500000 0.500000 0.446302
O O14 0.267391 0.500000 0.500000
O O15 0.724238 0.252420 0.918970
O O16 0.000000 0.188841 0.935307
O O17 0.795959 0.000000 0.932936
O O18 0.797416 0.177029 0.000000
O O19 0.500000 0.673837 0.869843
O O20 0.712245 0.500000 0.889936
#
# Coordination Sequence:
#
# PCOD8196233 Si02
#       7
#     8   4   8   8   4   8   8
#     4   9  18  32  52  76 104 141 182 220 263 315
#     4   9  16  28  51  83 111 133 165 213 266 315
#     4   9  17  31  53  83 111 133 165 217 273 320
#     4  10  19  34  58  84 108 135 173 220 266 316
#     4  11  25  41  53  73 109 147 181 217 260 313
#     4   9  19  36  57  81 109 142 182 227 274 324
#     4  10  21  36  53  77 111 147 184 225 269 317
#
# _framework density 18.359688999999999
#
# number of rings (size 3 to 8) (size 9 to 14) (size 15 to 20)
#    0.000    2.500    0.833    1.750    1.167    4.000 
#    0.000    5.417    0.000    2.500    0.000    0.000 
#    0.000    0.000    0.000    0.000    0.000    0.000 
#
# Total GULP energy -595112.947295 kJ/mol
# GULP energy per Si atom -12398.186402 kJ/mol
# Density = 1.831790 g / cm^3
# Si number density = 18.359689 Si / 1000 Ang^3
#
#
#
# Elastic Constant Matrix: (Units=GPa)
#
#
# Indices 1 2 3 4 5 6 
#
# 1 35.3060 34.9179 33.2590 0.0000 0.0000 0.0000
# 2 34.9179 129.2331 75.8982 0.0000 0.0000 0.0000
# 3 33.2590 75.8982 128.1837 0.0000 0.0000 0.0000
# 4 0.0000 0.0000 0.0000 39.8934 0.0000 0.0000
# 5 0.0000 0.0000 0.0000 0.0000 13.5276 0.0000
# 6 0.0000 0.0000 0.0000 0.0000 0.0000 15.2695
#
#
#
# Elastic Compliance Matrix: (Units=1/GPa)
#
#
# Indices 1 2 3 4 5 6 
#
# 1 0.041795 -0.007549 -0.006374 0.000000 0.000000 0.000000
# 2 -0.007549 0.013227 -0.005873 0.000000 0.000000 0.000000
# 3 -0.006374 -0.005873 0.012933 0.000000 0.000000 0.000000
# 4 0.000000 0.000000 0.000000 0.025067 0.000000 0.000000
# 5 0.000000 0.000000 0.000000 0.000000 0.073923 0.000000
# 6 0.000000 0.000000 0.000000 0.000000 0.000000 0.065490
#
#
# Mechanical properties :
#
#
# Convention : Reuss Voigt Hill
#
# Bulk Modulus (GPa) = 35.25925 64.54145 49.90035
# Shear Modulus (GPa) = 17.76324 23.64795 20.70559
#
# Velocity S-wave (km/s) = 3.11386 3.59282 3.36188
# Velocity P-wave (km/s) = 5.67226 7.24164 6.50446
#
# Compressibility (1/GPa) = 0.02836135
#
# Stress axis : x y z
#
# Youngs Moduli (GPa) = 23.92657 75.60398 77.32374
#
# Poissons Ratio (x) = 0.57073 0.49289
# Poissons Ratio (y) = 0.18062 0.45412
# Poissons Ratio (z) = 0.15252 0.44402
#
# Static dielectric constant tensor:
#      x y z
#    x 3.044520 0.000000 0.000000 
#    y 0.000000 3.520870 0.000000 
#    z 0.000000 0.000000 3.558070 
# 
# 
# High freq. dielectric constant tensor:
#      x y z
#    x 1.677590 0.000000 0.000000 
#    y 0.000000 1.721950 0.000000 
#    z 0.000000 0.000000 1.723230 
# 
# From -- ./inp_files/34183.got.cif
#   From: 2010.03.12/outbox.cif.g09.slc.cpg/sg47_18_cif.got.tgz:34183.got - 2010.04.14 03:12:58.
