data_PCOD8196641
_publ_section_title
;
Structure prediction by ZEFSAII (Michael W. Deem and Ramdas Pophale) SiO2 
 PCOD8196641
Probable space group: P M M M
;
_chemical_formula_sum "Si O2"
_cell_formula_units_Z 52
_cell_length_a 18.840230
_cell_length_b 15.622956
_cell_length_c 9.485776
_cell_angle_alpha 90.000000
_cell_angle_beta 90.000000
_cell_angle_gamma 90.000000
_cell_volume 2792.044108
_symmetry_space_group_name_H-M "P M M M"
_symmetry_group_IT_number 47
_symmetry_cell_setting 'orthorhombic'
loop_
_space_group_symop_operation_xyz
x,y,z
-x,-y,z
x,-y,-z
-x,y,-z
-x,-y,-z
x,y,-z
-x,y,z
x,-y,z
loop_
_atom_site_type_symbol
_atom_site_label
_atom_site_fract_x
_atom_site_fract_y
_atom_site_fract_z
Si Si1 0.824330 0.902792 0.167390
Si Si2 0.581010 0.687710 0.166028
Si Si3 0.578305 0.000000 0.168420
Si Si4 0.671468 0.152785 0.832434
Si Si5 0.838051 0.599068 0.667059
Si Si6 0.083114 0.256257 0.836668
Si Si7 0.681916 0.598360 0.652228
O O1 0.749808 0.865570 0.227294
O O2 0.883587 0.834432 0.216084
O O3 0.838688 0.000000 0.225661
O O4 0.820707 0.908637 0.000000
O O5 0.500000 0.705382 0.214789
O O6 0.636327 0.759447 0.220150
O O7 0.615046 0.605915 0.241785
O O8 0.582677 0.674449 0.000000
O O9 0.618879 0.918348 0.227280
O O10 0.500000 0.000000 0.232899
O O11 0.575589 0.000000 0.000000
O O12 0.672679 0.151386 0.000000
O O13 0.849653 0.609116 0.500000
O O14 0.852653 0.500000 0.712277
O O15 0.891126 0.661976 0.748614
O O16 0.758429 0.631011 0.710039
O O17 0.000000 0.246545 0.813995
O O18 0.103145 0.271890 0.000000
O O19 0.664005 0.641326 0.500000
O O20 0.695550 0.500000 0.625358
#
# Coordination Sequence:
#
# PCOD8196641 Si02
#       7
#     8   8   4   8   8   8   8
#     4   9  16  28  47  70  98 136 180 217 252 301
#     4  10  20  31  45  71 106 138 168 207 256 305
#     4   9  14  20  34  58  90 124 154 191 241 289
#     4   9  15  25  41  64  94 128 165 204 244 289
#     4   9  19  37  59  80 102 132 172 215 260 314
#     4  10  21  34  50  78 112 141 170 208 256 309
#     4   9  19  36  55  73  94 125 169 215 254 299
#
# _framework density 18.624348999999999
#
# number of rings (size 3 to 8) (size 9 to 14) (size 15 to 20)
#    0.000    2.692    0.769    2.308    0.000    5.846 
#    0.000    6.154    0.000    0.462    0.000    1.615 
#    0.000    1.846    0.000    0.000    0.000    0.000 
#
# Total GULP energy -644278.072547 kJ/mol
# GULP energy per Si atom -12389.962934 kJ/mol
# Density = 1.858196 g / cm^3
# Si number density = 18.624349 Si / 1000 Ang^3
#
#
#
# Elastic Constant Matrix: (Units=GPa)
#
#
# Indices 1 2 3 4 5 6 
#
# 1 143.2400 64.0429 39.3699 0.0000 0.0000 0.0000
# 2 64.0429 90.7988 28.4894 0.0000 0.0000 0.0000
# 3 39.3699 28.4894 29.0395 0.0000 0.0000 0.0000
# 4 0.0000 0.0000 0.0000 3.8209 0.0000 0.0000
# 5 0.0000 0.0000 0.0000 0.0000 21.3762 0.0000
# 6 0.0000 0.0000 0.0000 0.0000 0.0000 23.9149
#
#
#
# Elastic Compliance Matrix: (Units=1/GPa)
#
#
# Indices 1 2 3 4 5 6 
#
# 1 0.012565 -0.005082 -0.012050 0.000000 0.000000 0.000000
# 2 -0.005082 0.017966 -0.010736 0.000000 0.000000 0.000000
# 3 -0.012050 -0.010736 0.061305 0.000000 0.000000 0.000000
# 4 0.000000 0.000000 0.000000 0.261716 0.000000 0.000000
# 5 0.000000 0.000000 0.000000 0.000000 0.046781 0.000000
# 6 0.000000 0.000000 0.000000 0.000000 0.000000 0.041815
#
#
# Mechanical properties :
#
#
# Convention : Reuss Voigt Hill
#
# Bulk Modulus (GPa) = 27.70012 58.54250 43.12131
# Shear Modulus (GPa) = 9.80550 18.56749 14.18650
#
# Velocity S-wave (km/s) = 2.29702 3.16087 2.76292
# Velocity P-wave (km/s) = 4.68406 6.69500 5.77769
#
# Compressibility (1/GPa) = 0.03610093
#
# Stress axis : x y z
#
# Youngs Moduli (GPa) = 79.58438 55.65929 16.31193
#
# Poissons Ratio (x) = 0.28286 0.19655
# Poissons Ratio (y) = 0.40444 0.17513
# Poissons Ratio (z) = 0.95896 0.59758
#
# Static dielectric constant tensor:
#      x y z
#    x 3.535570 0.000000 0.000000 
#    y 0.000000 3.565700 0.000000 
#    z 0.000000 0.000000 2.918770 
# 
# 
# High freq. dielectric constant tensor:
#      x y z
#    x 1.732080 0.000000 0.000000 
#    y 0.000000 1.728270 0.000000 
#    z 0.000000 0.000000 1.669640 
# 
# From -- ./inp_files/10974.got.cif
#   From: 2010.03.12/outbox.cif.g09.slc.cpg/sg47_6_cif.got.tgz:10974.got - 2010.04.14 03:12:58.
