data_PCOD8196326
_publ_section_title
;
Structure prediction by ZEFSAII (Michael W. Deem and Ramdas Pophale) SiO2 
 PCOD8196326
Probable space group: P M M M
;
_chemical_formula_sum "Si O2"
_cell_formula_units_Z 48
_cell_length_a 20.336910
_cell_length_b 14.089536
_cell_length_c 8.885981
_cell_angle_alpha 90.000000
_cell_angle_beta 90.000000
_cell_angle_gamma 90.000000
_cell_volume 2546.167897
_symmetry_space_group_name_H-M "P M M M"
_symmetry_group_IT_number 47
_symmetry_cell_setting 'orthorhombic'
loop_
_space_group_symop_operation_xyz
x,y,z
-x,-y,z
x,-y,-z
-x,y,-z
-x,-y,-z
x,y,-z
-x,y,z
x,-y,z
loop_
_atom_site_type_symbol
_atom_site_label
_atom_site_fract_x
_atom_site_fract_y
_atom_site_fract_z
Si Si1 0.623384 0.703995 0.824687
Si Si2 0.166914 0.107519 0.174893
Si Si3 0.238941 0.389924 0.827116
Si Si4 0.000000 0.609701 0.822784
Si Si5 0.878265 0.286412 0.323579
Si Si6 0.500000 0.392684 0.322362
Si Si7 0.315984 0.103513 0.178713
O O1 0.686432 0.638955 0.793643
O O2 0.563843 0.662597 0.731467
O O3 0.637289 0.811383 0.765110
O O4 0.604502 0.704226 0.000000
O O5 0.120185 0.177043 0.269851
O O6 0.241547 0.119779 0.234794
O O7 0.142634 0.000000 0.201188
O O8 0.162270 0.135196 0.000000
O O9 0.230297 0.500000 0.790989
O O10 0.191636 0.331413 0.719016
O O11 0.220856 0.366599 0.000000
O O12 0.064730 0.656458 0.757011
O O13 0.000000 0.500000 0.776926
O O14 0.000000 0.623825 0.000000
O O15 0.889788 0.291491 0.500000
O O16 0.500000 0.500000 0.257172
O O17 0.500000 0.394936 0.500000
O O18 0.341880 0.000000 0.235710
O O19 0.313654 0.104193 0.000000
#
# Coordination Sequence:
#
# PCOD8196326 Si02
#       7
#     8   8   8   4   8   4   8
#     4  10  19  35  60  85 109 142 191 241 280 328
#     4   9  17  34  61  88 116 152 193 235 279 333
#     4  10  20  35  57  84 112 144 191 245 286 332
#     4  11  25  45  66  83 108 153 205 250 288 335
#     4  12  24  37  57  87 123 155 186 232 291 353
#     4  11  25  41  54  73 110 154 191 233 292 355
#     4   8  14  28  55  88 115 140 178 231 282 326
#
# _framework density 18.851859000000001
#
# number of rings (size 3 to 8) (size 9 to 14) (size 15 to 20)
#    0.000    2.000    1.667    4.000    0.000    5.333 
#    0.000    0.833    0.000    5.500    0.000    0.000 
#    0.000    0.000    0.000    0.000    0.000    0.000 
#
# Total GULP energy -595202.419710 kJ/mol
# GULP energy per Si atom -12400.050411 kJ/mol
# Density = 1.880895 g / cm^3
# Si number density = 18.851859 Si / 1000 Ang^3
#
#
#
# Elastic Constant Matrix: (Units=GPa)
#
#
# Indices 1 2 3 4 5 6 
#
# 1 84.0498 58.6297 40.1524 0.0000 0.0000 0.0000
# 2 58.6297 155.7289 51.1856 0.0000 0.0000 0.0000
# 3 40.1524 51.1856 43.3744 0.0000 0.0000 0.0000
# 4 0.0000 0.0000 0.0000 17.2447 0.0000 0.0000
# 5 0.0000 0.0000 0.0000 0.0000 80.8447 0.0000
# 6 0.0000 0.0000 0.0000 0.0000 0.0000 24.3252
#
#
#
# Elastic Compliance Matrix: (Units=1/GPa)
#
#
# Indices 1 2 3 4 5 6 
#
# 1 0.021952 -0.002590 -0.017265 0.000000 0.000000 0.000000
# 2 -0.002590 0.010796 -0.010343 0.000000 0.000000 0.000000
# 3 -0.017265 -0.010343 0.051243 0.000000 0.000000 0.000000
# 4 0.000000 0.000000 0.000000 0.057989 0.000000 0.000000
# 5 0.000000 0.000000 0.000000 0.000000 0.012369 0.000000
# 6 0.000000 0.000000 0.000000 0.000000 0.000000 0.041110
#
#
# Mechanical properties :
#
#
# Convention : Reuss Voigt Hill
#
# Bulk Modulus (GPa) = 42.38072 64.78762 53.58417
# Shear Modulus (GPa) = 18.95947 33.36195 26.16071
#
# Velocity S-wave (km/s) = 3.17473 4.21133 3.72923
# Velocity P-wave (km/s) = 5.99736 7.62157 6.85772
#
# Compressibility (1/GPa) = 0.02359564
#
# Stress axis : x y z
#
# Youngs Moduli (GPa) = 45.55314 92.62750 19.51479
#
# Poissons Ratio (x) = 0.23990 0.33693
# Poissons Ratio (y) = 0.11798 0.20183
# Poissons Ratio (z) = 0.78649 0.95801
#
# Static dielectric constant tensor:
#      x y z
#    x 2.748630 0.000000 0.000000 
#    y 0.000000 4.008590 0.000000 
#    z 0.000000 0.000000 3.204740 
# 
# 
# High freq. dielectric constant tensor:
#      x y z
#    x 1.716630 0.000000 0.000000 
#    y 0.000000 1.756750 0.000000 
#    z 0.000000 0.000000 1.705330 
# 
# From -- ./inp_files/9214.got.cif
#   From: 2010.03.12/outbox.cif.g09.slc.cpg/sg47_5_cif.got.tgz:9214.got - 2010.04.14 03:12:58.
