data_PCOD8196886
_publ_section_title
;
Structure prediction by ZEFSAII (Michael W. Deem and Ramdas Pophale) SiO2 
 PCOD8196886
Probable space group: P M M M
;
_chemical_formula_sum "Si O2"
_cell_formula_units_Z 48
_cell_length_a 18.119142
_cell_length_b 17.985429
_cell_length_c 8.654952
_cell_angle_alpha 90.000000
_cell_angle_beta 90.000000
_cell_angle_gamma 90.000000
_cell_volume 2820.480449
_symmetry_space_group_name_H-M "P M M M"
_symmetry_group_IT_number 47
_symmetry_cell_setting 'orthorhombic'
loop_
_space_group_symop_operation_xyz
x,y,z
-x,-y,z
x,-y,-z
-x,y,-z
-x,-y,-z
x,y,-z
-x,y,z
x,-y,z
loop_
_atom_site_type_symbol
_atom_site_label
_atom_site_fract_x
_atom_site_fract_y
_atom_site_fract_z
Si Si1 0.302102 0.182436 0.821406
Si Si2 0.084073 0.206199 0.181612
Si Si3 0.690922 0.582787 0.320477
Si Si4 0.196854 0.701663 0.678780
Si Si5 0.417099 0.702515 0.183146
Si Si6 0.809025 0.084745 0.319116
O O1 0.112749 0.281865 0.731317
O O2 0.242385 0.246501 0.794486
O O3 0.379986 0.218553 0.765904
O O4 0.305076 0.159729 0.000000
O O5 0.130171 0.133623 0.231320
O O6 0.000000 0.193539 0.232553
O O7 0.091183 0.218058 0.000000
O O8 0.672322 0.579154 0.500000
O O9 0.691208 0.500000 0.248050
O O10 0.773037 0.617986 0.294892
O O11 0.626995 0.631571 0.244662
O O12 0.208285 0.725224 0.500000
O O13 0.274830 0.889245 0.724441
O O14 0.500000 0.700931 0.249780
O O15 0.416442 0.697066 0.000000
O O16 0.821152 0.094181 0.500000
O O17 0.818923 0.000000 0.266046
#
# Coordination Sequence:
#
# PCOD8196886 Si02
#       6
#     8   8   8   8   8   8
#     4   9  16  28  47  66  86 116 152 187 221 260
#     4  10  20  32  47  68  93 119 147 182 222 264
#     4   9  18  31  46  67  94 121 151 187 225 266
#     4   9  16  28  47  66  86 116 152 187 221 260
#     4   9  18  31  46  67  94 121 151 187 225 266
#     4  10  20  32  47  68  93 119 147 182 222 264
#
# _framework density 17.018377999999998
#
# number of rings (size 3 to 8) (size 9 to 14) (size 15 to 20)
#    0.000    2.667    0.000    4.000    0.000    5.333 
#    0.000    3.333    0.000    1.000    0.000    7.000 
#    0.000    0.000    0.000    0.000    0.000    0.000 
#
# Total GULP energy -594681.630139 kJ/mol
# GULP energy per Si atom -12389.200628 kJ/mol
# Density = 1.697964 g / cm^3
# Si number density = 17.018378 Si / 1000 Ang^3
#
#
#
# Elastic Constant Matrix: (Units=GPa)
#
#
# Indices 1 2 3 4 5 6 
#
# 1 117.3400 84.4256 32.2203 0.0000 0.0000 0.0000
# 2 84.4256 78.5560 23.4028 0.0000 0.0000 0.0000
# 3 32.2203 23.4028 36.3953 0.0000 0.0000 0.0000
# 4 0.0000 0.0000 0.0000 17.8290 0.0000 0.0000
# 5 0.0000 0.0000 0.0000 0.0000 19.5578 0.0000
# 6 0.0000 0.0000 0.0000 0.0000 0.0000 20.3132
#
#
#
# Elastic Compliance Matrix: (Units=1/GPa)
#
#
# Indices 1 2 3 4 5 6 
#
# 1 0.040148 -0.040274 -0.009645 0.000000 0.000000 0.000000
# 2 -0.040274 0.056147 -0.000449 0.000000 0.000000 0.000000
# 3 -0.009645 -0.000449 0.036304 0.000000 0.000000 0.000000
# 4 0.000000 0.000000 0.000000 0.056088 0.000000 0.000000
# 5 0.000000 0.000000 0.000000 0.000000 0.051131 0.000000
# 6 0.000000 0.000000 0.000000 0.000000 0.000000 0.049229
#
#
# Mechanical properties :
#
#
# Convention : Reuss Voigt Hill
#
# Bulk Modulus (GPa) = 31.38626 56.93208 44.15917
# Shear Modulus (GPa) = 12.48737 17.68951 15.08844
#
# Velocity S-wave (km/s) = 2.71174 3.22753 2.98081
# Velocity P-wave (km/s) = 5.31858 6.88587 6.15233
#
# Compressibility (1/GPa) = 0.03186108
#
# Stress axis : x y z
#
# Youngs Moduli (GPa) = 24.90795 17.81042 27.54522
#
# Poissons Ratio (x) = 0.71730 0.26569
# Poissons Ratio (y) = 1.00315 0.01238
# Poissons Ratio (z) = 0.24025 0.00800
#
# Static dielectric constant tensor:
#      x y z
#    x 3.552740 0.000000 0.000000 
#    y 0.000000 3.391580 0.000000 
#    z 0.000000 0.000000 3.163490 
# 
# 
# High freq. dielectric constant tensor:
#      x y z
#    x 1.643750 0.000000 0.000000 
#    y 0.000000 1.639400 0.000000 
#    z 0.000000 0.000000 1.662450 
# 
# From -- ./inp_files/18489.got.cif
#   From: 2010.03.12/outbox.cif.g09.slc.cpg/sg47_10_cif.got.tgz:18489.got - 2010.04.14 03:12:58.
