data_PCOD8196063
_publ_section_title
;
Structure prediction by ZEFSAII (Michael W. Deem and Ramdas Pophale) SiO2 
 PCOD8196063
Probable space group: P M M M
;
_chemical_formula_sum "Si O2"
_cell_formula_units_Z 48
_cell_length_a 14.088407
_cell_length_b 20.658280
_cell_length_c 9.020342
_cell_angle_alpha 90.000000
_cell_angle_beta 90.000000
_cell_angle_gamma 90.000000
_cell_volume 2625.300691
_symmetry_space_group_name_H-M "P M M M"
_symmetry_group_IT_number 47
_symmetry_cell_setting 'orthorhombic'
loop_
_space_group_symop_operation_xyz
x,y,z
-x,-y,z
x,-y,-z
-x,y,-z
-x,-y,-z
x,y,-z
-x,y,z
x,-y,z
loop_
_atom_site_type_symbol
_atom_site_label
_atom_site_fract_x
_atom_site_fract_y
_atom_site_fract_z
Si Si1 0.110711 0.254443 0.173031
Si Si2 0.106116 0.000000 0.176648
Si Si3 0.782398 0.124701 0.174806
Si Si4 0.112040 0.500000 0.832630
Si Si5 0.603374 0.572690 0.675648
Si Si6 0.392798 0.073685 0.673883
Si Si7 0.199748 0.622594 0.324001
O O1 0.162982 0.189142 0.223407
O O2 0.155681 0.311224 0.268081
O O3 0.000000 0.247210 0.210201
O O4 0.126245 0.269104 0.000000
O O5 0.158817 0.063645 0.236912
O O6 0.000000 0.000000 0.241362
O O7 0.103444 0.000000 0.000000
O O8 0.677451 0.123170 0.244318
O O9 0.771975 0.120934 0.000000
O O10 0.144099 0.436636 0.746415
O O11 0.000000 0.500000 0.838191
O O12 0.153292 0.500000 0.000000
O O13 0.601034 0.569963 0.500000
O O14 0.500000 0.597780 0.734050
O O15 0.622274 0.500000 0.736384
O O16 0.689352 0.619091 0.726926
O O17 0.375892 0.079079 0.500000
O O18 0.500000 0.094180 0.714686
O O19 0.374161 0.000000 0.727331
O O20 0.189309 0.618240 0.500000
#
# Coordination Sequence:
#
# PCOD8196063 Si02
#       7
#     8   4   8   4   8   8   8
#     4  10  22  39  55  74 108 151 183 213 268 333
#     4   9  16  28  50  79 104 128 171 229 276 315
#     4  10  19  33  55  81 105 136 182 230 269 314
#     4  11  23  37  54  77 108 144 179 221 276 331
#     4   8  14  28  52  80 107 133 164 208 263 315
#     4   9  18  33  53  78 110 145 176 214 272 334
#     4  11  21  35  57  84 108 137 182 230 266 308
#
# _framework density 18.283619999999999
#
# number of rings (size 3 to 8) (size 9 to 14) (size 15 to 20)
#    0.000    2.333    1.667    2.750    0.000    6.000 
#    0.000    1.667    0.000    7.500    0.000    0.000 
#    0.000    0.000    0.000    0.000    0.000    0.000 
#
# Total GULP energy -595089.262214 kJ/mol
# GULP energy per Si atom -12397.692963 kJ/mol
# Density = 1.824201 g / cm^3
# Si number density = 18.283620 Si / 1000 Ang^3
#
#
#
# Elastic Constant Matrix: (Units=GPa)
#
#
# Indices 1 2 3 4 5 6 
#
# 1 157.5761 78.6288 49.2725 0.0000 0.0000 0.0000
# 2 78.6288 133.5173 51.9126 0.0000 0.0000 0.0000
# 3 49.2725 51.9126 51.1381 0.0000 0.0000 0.0000
# 4 0.0000 0.0000 0.0000 46.6283 0.0000 0.0000
# 5 0.0000 0.0000 0.0000 0.0000 24.9648 0.0000
# 6 0.0000 0.0000 0.0000 0.0000 0.0000 -4.9320
#
#
#
# Elastic Compliance Matrix: (Units=1/GPa)
#
#
# Indices 1 2 3 4 5 6 
#
# 1 0.010003 -0.003541 -0.006043 0.000000 0.000000 0.000000
# 2 -0.003541 0.013627 -0.010422 0.000000 0.000000 0.000000
# 3 -0.006043 -0.010422 0.035957 0.000000 0.000000 0.000000
# 4 0.000000 0.000000 0.000000 0.021446 0.000000 0.000000
# 5 0.000000 0.000000 0.000000 0.000000 0.040056 0.000000
# 6 0.000000 0.000000 0.000000 0.000000 0.000000 -0.202756
#
#
# Mechanical properties :
#
#
# Convention : Reuss Voigt Hill
#
# Bulk Modulus (GPa) = 51.08494 77.98439 64.53466
# Shear Modulus (GPa) = -142.32671 24.16006 -59.08332
#
# Velocity S-wave (km/s) = -8.83249 3.63906 -5.69079
# Velocity P-wave (km/s) = 8.71873 7.77188 2.79410
#
# Compressibility (1/GPa) = 0.01957524
#
# Stress axis : x y z
#
# Youngs Moduli (GPa) = 99.97312 73.38405 27.81105
#
# Poissons Ratio (x) = 0.25985 0.16807
# Poissons Ratio (y) = 0.35400 0.28983
# Poissons Ratio (z) = 0.60415 0.76477
#
# Static dielectric constant tensor:
#      x y z
#    x 3.767980 0.000000 0.000000 
#    y 0.000000 3.084760 0.000000 
#    z 0.000000 0.000000 3.119920 
# 
# 
# High freq. dielectric constant tensor:
#      x y z
#    x 1.728770 0.000000 0.000000 
#    y 0.000000 1.694790 0.000000 
#    z 0.000000 0.000000 1.682780 
# 
# From -- ./inp_files/6415.got.cif
#   From: 2010.03.12/outbox.cif.g09.slc.cpg/sg47_4_cif.got.tgz:6415.got - 2010.04.14 03:12:58.
