data_PCOD8196260
_publ_section_title
;
Structure prediction by ZEFSAII (Michael W. Deem and Ramdas Pophale) SiO2 
 PCOD8196260
Probable space group: P M M M
;
_chemical_formula_sum "Si O2"
_cell_formula_units_Z 48
_cell_length_a 9.750565
_cell_length_b 14.547836
_cell_length_c 17.494311
_cell_angle_alpha 90.000000
_cell_angle_beta 90.000000
_cell_angle_gamma 90.000000
_cell_volume 2481.561377
_symmetry_space_group_name_H-M "P M M M"
_symmetry_group_IT_number 47
_symmetry_cell_setting 'orthorhombic'
loop_
_space_group_symop_operation_xyz
x,y,z
-x,-y,z
x,-y,-z
-x,y,-z
-x,-y,-z
x,y,-z
-x,y,z
x,-y,z
loop_
_atom_site_type_symbol
_atom_site_label
_atom_site_fract_x
_atom_site_fract_y
_atom_site_fract_z
Si Si1 0.852450 0.500000 0.412429
Si Si2 0.162658 0.773550 0.141503
Si Si3 0.345221 0.845072 0.412019
Si Si4 0.844952 0.101606 0.717835
Si Si5 0.349488 0.641646 0.350202
Si Si6 0.657412 0.393938 0.827006
Si Si7 0.162190 0.896800 0.000000
O O1 0.885218 0.500000 0.500000
O O2 0.768949 0.409591 0.394043
O O3 0.000000 0.500000 0.368784
O O4 0.206193 0.822928 0.220885
O O5 0.242165 0.676832 0.129398
O O6 0.211313 0.841468 0.074502
O O7 0.000000 0.754413 0.138420
O O8 0.294532 0.847052 0.500000
O O9 0.500000 0.884106 0.407187
O O10 0.245780 0.904194 0.358816
O O11 0.339379 0.744709 0.377052
O O12 0.000000 0.125889 0.693407
O O13 0.839229 0.000000 0.755978
O O14 0.500000 0.601718 0.371077
O O15 0.323694 0.628703 0.261291
O O16 0.500000 0.377727 0.852736
O O17 0.700131 0.500000 0.843663
O O18 0.000000 0.904888 0.000000
O O19 0.225897 0.000000 0.000000
#
# Coordination Sequence:
#
# PCOD8196260 Si02
#       7
#     4   8   8   8   8   8   4
#     4  11  23  33  45  73 109 140 179 238 299 345
#     4  10  20  36  61  90 117 148 186 231 279 331
#     4  10  21  36  54  76 103 140 189 240 285 331
#     4  10  21  36  55  81 112 146 184 228 285 346
#     4  10  19  35  55  73  99 142 192 237 284 341
#     4  10  20  36  58  83 112 149 190 231 279 335
#     4   9  18  36  64  95 124 152 185 227 276 333
#
# _framework density 19.342659999999999
#
# number of rings (size 3 to 8) (size 9 to 14) (size 15 to 20)
#    0.000    2.000    2.500    1.250    0.000    6.000 
#    0.000    2.500    0.000    4.500    0.000    0.000 
#    0.000    0.000    0.000    0.000    0.000    0.000 
#
# Total GULP energy -594967.569690 kJ/mol
# GULP energy per Si atom -12395.157702 kJ/mol
# Density = 1.929864 g / cm^3
# Si number density = 19.342660 Si / 1000 Ang^3
#
#
#
# Elastic Constant Matrix: (Units=GPa)
#
#
# Indices 1 2 3 4 5 6 
#
# 1 85.6791 53.6594 34.4755 0.0000 0.0000 0.0000
# 2 53.6594 128.7597 48.3420 0.0000 0.0000 0.0000
# 3 34.4755 48.3420 79.7650 0.0000 0.0000 0.0000
# 4 0.0000 0.0000 0.0000 24.2869 0.0000 0.0000
# 5 0.0000 0.0000 0.0000 0.0000 19.6567 0.0000
# 6 0.0000 0.0000 0.0000 0.0000 0.0000 26.9027
#
#
#
# Elastic Compliance Matrix: (Units=1/GPa)
#
#
# Indices 1 2 3 4 5 6 
#
# 1 0.016671 -0.005492 -0.003877 0.000000 0.000000 0.000000
# 2 -0.005492 0.011863 -0.004816 0.000000 0.000000 0.000000
# 3 -0.003877 -0.004816 0.017131 0.000000 0.000000 0.000000
# 4 0.000000 0.000000 0.000000 0.041175 0.000000 0.000000
# 5 0.000000 0.000000 0.000000 0.000000 0.050873 0.000000
# 6 0.000000 0.000000 0.000000 0.000000 0.000000 0.037171
#
#
# Mechanical properties :
#
#
# Convention : Reuss Voigt Hill
#
# Bulk Modulus (GPa) = 57.81840 63.01751 60.41795
# Shear Modulus (GPa) = 23.92120 24.68438 24.30279
#
# Velocity S-wave (km/s) = 3.52050 3.57622 3.54847
# Velocity P-wave (km/s) = 6.81775 7.05002 6.93486
#
# Compressibility (1/GPa) = 0.01729553
#
# Stress axis : x y z
#
# Youngs Moduli (GPa) = 59.98458 84.29375 58.37236
#
# Poissons Ratio (x) = 0.46293 0.22631
# Poissons Ratio (y) = 0.32943 0.28113
# Poissons Ratio (z) = 0.23256 0.40597
#
# Static dielectric constant tensor:
#      x y z
#    x 3.557740 0.000000 0.000000 
#    y 0.000000 3.546420 0.000000 
#    z 0.000000 0.000000 3.394350 
# 
# 
# High freq. dielectric constant tensor:
#      x y z
#    x 1.742650 0.000000 0.000000 
#    y 0.000000 1.762670 0.000000 
#    z 0.000000 0.000000 1.737230 
# 
# From -- ./inp_files/6453.got.cif
#   From: 2010.03.12/outbox.cif.g09.slc.cpg/sg47_4_cif.got.tgz:6453.got - 2010.04.14 03:12:58.
