data_PCOD8196793
_publ_section_title
;
Structure prediction by ZEFSAII (Michael W. Deem and Ramdas Pophale) SiO2 
 PCOD8196793
Probable space group: P M M M
;
_chemical_formula_sum "Si O2"
_cell_formula_units_Z 48
_cell_length_a 9.486550
_cell_length_b 8.894528
_cell_length_c 31.094038
_cell_angle_alpha 90.000000
_cell_angle_beta 90.000000
_cell_angle_gamma 90.000000
_cell_volume 2623.664697
_symmetry_space_group_name_H-M "P M M M"
_symmetry_group_IT_number 47
_symmetry_cell_setting 'orthorhombic'
loop_
_space_group_symop_operation_xyz
x,y,z
-x,-y,z
x,-y,-z
-x,y,-z
-x,-y,-z
x,y,-z
-x,y,z
x,-y,z
loop_
_atom_site_type_symbol
_atom_site_label
_atom_site_fract_x
_atom_site_fract_y
_atom_site_fract_z
Si Si1 0.660301 0.821714 0.706704
Si Si2 0.840467 0.179377 0.373817
Si Si3 0.836742 0.324154 0.219587
Si Si4 0.658124 0.178812 0.452244
Si Si5 0.155490 0.678419 0.876706
Si Si6 0.657604 0.678720 0.047159
O O1 0.500000 0.760123 0.704071
O O2 0.749876 0.759519 0.666340
O O3 0.733899 0.767955 0.750039
O O4 0.659424 0.000000 0.706261
O O5 0.768147 0.242783 0.417338
O O6 0.000000 0.242026 0.370827
O O7 0.841761 0.000000 0.374048
O O8 0.815135 0.500000 0.227988
O O9 0.790810 0.280001 0.171042
O O10 0.000000 0.279988 0.227698
O O11 0.702804 0.234204 0.500000
O O12 0.500000 0.235869 0.441351
O O13 0.659003 0.000000 0.450775
O O14 0.150500 0.500000 0.881000
O O15 0.252221 0.750264 0.914022
O O16 0.000000 0.745324 0.883569
O O17 0.500000 0.741732 0.051933
O O18 0.656597 0.500000 0.051066
O O19 0.718345 0.724869 0.000000
#
# Coordination Sequence:
#
# PCOD8196793 Si02
#       6
#     8   8   8   8   8   8
#     4  10  20  32  46  65  89 117 150 186 222 263
#     4   9  16  25  38  56  79 109 143 178 217 259
#     4   9  18  32  48  66  89 116 147 184 224 265
#     4   8  13  21  33  50  75 107 139 171 210 256
#     4   8  14  24  37  54  77 105 136 170 209 252
#     4   8  13  20  30  47  73 104 136 168 202 243
#
# _framework density 18.295020999999998
#
# number of rings (size 3 to 8) (size 9 to 14) (size 15 to 20)
#    0.000    3.333    0.000    3.000    0.000    4.667 
#    0.000    5.000    0.000    0.000    0.000    0.000 
#    0.000    1.333    0.000   14.333    0.000   21.667 
#
# Total GULP energy -594833.378083 kJ/mol
# GULP energy per Si atom -12392.362043 kJ/mol
# Density = 1.825338 g / cm^3
# Si number density = 18.295021 Si / 1000 Ang^3
#
#
#
# Elastic Constant Matrix: (Units=GPa)
#
#
# Indices 1 2 3 4 5 6 
#
# 1 136.9985 8.7806 101.6673 0.0000 0.0000 0.0000
# 2 8.7806 2.8064 7.9447 0.0000 0.0000 0.0000
# 3 101.6673 7.9447 175.2953 0.0000 0.0000 0.0000
# 4 0.0000 0.0000 0.0000 17.8819 0.0000 0.0000
# 5 0.0000 0.0000 0.0000 0.0000 43.0753 0.0000
# 6 0.0000 0.0000 0.0000 0.0000 0.0000 13.0061
#
#
#
# Elastic Compliance Matrix: (Units=1/GPa)
#
#
# Indices 1 2 3 4 5 6 
#
# 1 0.014101 -0.024054 -0.007088 0.000000 0.000000 0.000000
# 2 -0.024054 0.449812 -0.006436 0.000000 0.000000 0.000000
# 3 -0.007088 -0.006436 0.010107 0.000000 0.000000 0.000000
# 4 0.000000 0.000000 0.000000 0.055922 0.000000 0.000000
# 5 0.000000 0.000000 0.000000 0.000000 0.023215 0.000000
# 6 0.000000 0.000000 0.000000 0.000000 0.000000 0.076887
#
#
# Mechanical properties :
#
#
# Convention : Reuss Voigt Hill
#
# Bulk Modulus (GPa) = 2.50711 61.32061 31.91386
# Shear Modulus (GPa) = 5.96548 27.90651 16.93600
#
# Velocity S-wave (km/s) = 1.80770 3.90982 3.04586
# Velocity P-wave (km/s) = 2.39383 7.34661 5.46366
#
# Compressibility (1/GPa) = 0.39886520
#
# Stress axis : x y z
#
# Youngs Moduli (GPa) = 70.91586 2.22315 98.93779
#
# Poissons Ratio (x) = 0.05347 0.70129
# Poissons Ratio (y) = 1.70578 0.63675
# Poissons Ratio (z) = 0.50267 0.01431
#
# Static dielectric constant tensor:
#      x y z
#    x 3.661880 0.000000 0.000000 
#    y 0.000000 2.594740 0.000000 
#    z 0.000000 0.000000 3.739040 
# 
# 
# High freq. dielectric constant tensor:
#      x y z
#    x 1.712070 0.000000 0.000000 
#    y 0.000000 1.625850 0.000000 
#    z 0.000000 0.000000 1.728270 
# 
# From -- ./inp_files/14071.got.cif
#   From: 2010.03.12/outbox.cif.g09.slc.cpg/sg47_8_cif.got.tgz:14071.got - 2010.04.14 03:12:58.
