data_PCOD8196844
_publ_section_title
;
Structure prediction by ZEFSAII (Michael W. Deem and Ramdas Pophale) SiO2 
 PCOD8196844
Probable space group: P M M M
;
_chemical_formula_sum "Si O2"
_cell_formula_units_Z 48
_cell_length_a 19.968183
_cell_length_b 15.122252
_cell_length_c 9.211766
_cell_angle_alpha 90.000000
_cell_angle_beta 90.000000
_cell_angle_gamma 90.000000
_cell_volume 2781.620744
_symmetry_space_group_name_H-M "P M M M"
_symmetry_group_IT_number 47
_symmetry_cell_setting 'orthorhombic'
loop_
_space_group_symop_operation_xyz
x,y,z
-x,-y,z
x,-y,-z
-x,y,-z
-x,-y,-z
x,y,-z
-x,y,z
x,-y,z
loop_
_atom_site_type_symbol
_atom_site_label
_atom_site_fract_x
_atom_site_fract_y
_atom_site_fract_z
Si Si1 0.733417 0.284364 0.165188
Si Si2 0.746682 0.094098 0.163923
Si Si3 0.369806 0.396334 0.332181
Si Si4 0.000000 0.598515 0.827818
Si Si5 0.500000 0.605177 0.164099
Si Si6 0.110234 0.733270 0.831080
Si Si7 0.118607 0.096887 0.330915
O O1 0.704015 0.183977 0.188371
O O2 0.696646 0.349695 0.274019
O O3 0.812115 0.285856 0.204127
O O4 0.721457 0.316440 0.000000
O O5 0.804899 0.092203 0.280856
O O6 0.705977 0.000000 0.178068
O O7 0.777361 0.101243 0.000000
O O8 0.380254 0.373498 0.500000
O O9 0.360384 0.500000 0.306855
O O10 0.434140 0.359437 0.245786
O O11 0.933603 0.650543 0.774918
O O12 0.000000 0.500000 0.758847
O O13 0.000000 0.590600 0.000000
O O14 0.500000 0.500000 0.167247
O O15 0.500000 0.641652 0.000000
O O16 0.083084 0.822475 0.753031
O O17 0.098248 0.748533 0.000000
O O18 0.116319 0.118994 0.500000
O O19 0.085038 0.000000 0.300426
#
# Coordination Sequence:
#
# PCOD8196844 Si02
#       7
#     8   8   8   4   4   8   8
#     4   9  17  28  45  71  97 121 153 192 233 276
#     4   8  14  26  44  66  93 123 154 190 231 274
#     4  10  20  32  46  67  97 130 159 188 226 273
#     4   9  18  34  54  71  86 112 157 207 248 285
#     4   9  17  31  51  71  92 121 156 193 231 274
#     4   9  18  32  50  70  91 118 154 197 241 282
#     4   9  16  26  43  67  93 120 147 179 226 282
#
# _framework density 17.256128
#
# number of rings (size 3 to 8) (size 9 to 14) (size 15 to 20)
#    0.000    3.000    0.000    2.250    0.000    6.333 
#    0.000    2.500    0.000    3.500    0.000    0.583 
#    0.000    4.667    0.000    0.000    0.000    0.000 
#
# Total GULP energy -594665.112670 kJ/mol
# GULP energy per Si atom -12388.856514 kJ/mol
# Density = 1.721685 g / cm^3
# Si number density = 17.256128 Si / 1000 Ang^3
#
#
#
# Elastic Constant Matrix: (Units=GPa)
#
#
# Indices 1 2 3 4 5 6 
#
# 1 70.3479 50.7144 40.6415 0.0000 0.0000 0.0000
# 2 50.7144 120.3184 59.2790 0.0000 0.0000 0.0000
# 3 40.6415 59.2790 82.0597 0.0000 0.0000 0.0000
# 4 0.0000 0.0000 0.0000 25.9696 0.0000 0.0000
# 5 0.0000 0.0000 0.0000 0.0000 11.6051 0.0000
# 6 0.0000 0.0000 0.0000 0.0000 0.0000 2.5447
#
#
#
# Elastic Compliance Matrix: (Units=1/GPa)
#
#
# Indices 1 2 3 4 5 6 
#
# 1 0.022556 -0.006216 -0.006681 0.000000 0.000000 0.000000
# 2 -0.006216 0.014617 -0.007481 0.000000 0.000000 0.000000
# 3 -0.006681 -0.007481 0.020899 0.000000 0.000000 0.000000
# 4 0.000000 0.000000 0.000000 0.038507 0.000000 0.000000
# 5 0.000000 0.000000 0.000000 0.000000 0.086169 0.000000
# 6 0.000000 0.000000 0.000000 0.000000 0.000000 0.392977
#
#
# Mechanical properties :
#
#
# Convention : Reuss Voigt Hill
#
# Bulk Modulus (GPa) = 57.74657 63.77732 60.76194
# Shear Modulus (GPa) = 8.03534 16.16327 12.09931
#
# Velocity S-wave (km/s) = 2.16024 3.06382 2.65082
# Velocity P-wave (km/s) = 6.30549 7.03957 6.68262
#
# Compressibility (1/GPa) = 0.01731705
#
# Stress axis : x y z
#
# Youngs Moduli (GPa) = 44.33462 68.41466 47.84911
#
# Poissons Ratio (x) = 0.42524 0.31968
# Poissons Ratio (y) = 0.27557 0.35794
# Poissons Ratio (z) = 0.29620 0.51178
#
# Static dielectric constant tensor:
#      x y z
#    x 2.901960 0.000000 0.000000 
#    y 0.000000 3.602930 0.000000 
#    z 0.000000 0.000000 3.157270 
# 
# 
# High freq. dielectric constant tensor:
#      x y z
#    x 1.621650 0.000000 0.000000 
#    y 0.000000 1.671460 0.000000 
#    z 0.000000 0.000000 1.661900 
# 
# From -- ./inp_files/9184.got.cif
#   From: 2010.03.12/outbox.cif.g09.slc.cpg/sg47_5_cif.got.tgz:9184.got - 2010.04.14 03:12:58.
