data_PCOD8196644
_publ_section_title
;
Structure prediction by ZEFSAII (Michael W. Deem and Ramdas Pophale) SiO2 
 PCOD8196644
Probable space group: P M M M
;
_chemical_formula_sum "Si O2"
_cell_formula_units_Z 44
_cell_length_a 8.046430
_cell_length_b 9.462982
_cell_length_c 30.290176
_cell_angle_alpha 90.000000
_cell_angle_beta 90.000000
_cell_angle_gamma 90.000000
_cell_volume 2306.391603
_symmetry_space_group_name_H-M "P M M M"
_symmetry_group_IT_number 47
_symmetry_cell_setting 'orthorhombic'
loop_
_space_group_symop_operation_xyz
x,y,z
-x,-y,z
x,-y,-z
-x,y,-z
-x,-y,-z
x,y,-z
-x,y,z
x,-y,z
loop_
_atom_site_type_symbol
_atom_site_label
_atom_site_fract_x
_atom_site_fract_y
_atom_site_fract_z
Si Si1 0.302228 0.158237 0.048922
Si Si2 0.686672 0.830993 0.394410
Si Si3 0.307692 0.344164 0.127402
Si Si4 0.809966 0.162359 0.793825
Si Si5 0.000000 0.831636 0.450135
Si Si6 0.306784 0.841569 0.702455
O O1 0.500000 0.156300 0.052089
O O2 0.224522 0.261354 0.086071
O O3 0.234548 0.000000 0.057699
O O4 0.246869 0.209501 0.000000
O O5 0.500000 0.781701 0.409492
O O6 0.831164 0.774371 0.426902
O O7 0.726601 0.768829 0.345284
O O8 0.686920 0.000000 0.392604
O O9 0.500000 0.362827 0.117140
O O10 0.225075 0.500000 0.131944
O O11 0.291629 0.256799 0.172308
O O12 0.786271 0.228138 0.744381
O O13 0.000000 0.170196 0.807780
O O14 0.744320 0.000000 0.795279
O O15 0.000000 0.774116 0.500000
O O16 0.000000 0.000000 0.449078
O O17 0.500000 0.838730 0.713406
O O18 0.237855 0.000000 0.698476
#
# Coordination Sequence:
#
# PCOD8196644 Si02
#       6
#     8   8   8   8   4   8
#     4   8  14  26  46  71  95 119 151 193 237 276
#     4   8  14  23  34  49  71 101 139 186 236 282
#     4  10  20  32  47  68  95 127 157 186 228 282
#     4  10  20  31  46  68  90 116 152 194 238 283
#     4   9  16  22  30  46  70 106 147 187 232 281
#     4   8  14  25  41  60  80 104 138 185 237 279
#
# _framework density 19.07742
#
# number of rings (size 3 to 8) (size 9 to 14) (size 15 to 20)
#    0.000    3.182    0.000    2.727    1.273    2.909 
#    0.000    3.636    0.000    0.545    0.000    3.818 
#    0.000    0.000    0.000    0.000    0.000    1.818 
#
# Total GULP energy -545115.419029 kJ/mol
# GULP energy per Si atom -12388.986796 kJ/mol
# Density = 1.903400 g / cm^3
# Si number density = 19.077420 Si / 1000 Ang^3
#
#
#
# Elastic Constant Matrix: (Units=GPa)
#
#
# Indices 1 2 3 4 5 6 
#
# 1 60.7927 17.8892 49.4593 0.0000 0.0000 0.0000
# 2 17.8892 59.8532 49.5740 0.0000 0.0000 0.0000
# 3 49.4593 49.5740 165.4014 0.0000 0.0000 0.0000
# 4 0.0000 0.0000 0.0000 1.9902 0.0000 0.0000
# 5 0.0000 0.0000 0.0000 0.0000 4.1707 0.0000
# 6 0.0000 0.0000 0.0000 0.0000 0.0000 5.8060
#
#
#
# Elastic Compliance Matrix: (Units=1/GPa)
#
#
# Indices 1 2 3 4 5 6 
#
# 1 0.021837 -0.001488 -0.006084 0.000000 0.000000 0.000000
# 2 -0.001488 0.022326 -0.006247 0.000000 0.000000 0.000000
# 3 -0.006084 -0.006247 0.009737 0.000000 0.000000 0.000000
# 4 0.000000 0.000000 0.000000 0.502463 0.000000 0.000000
# 5 0.000000 0.000000 0.000000 0.000000 0.239766 0.000000
# 6 0.000000 0.000000 0.000000 0.000000 0.000000 0.172234
#
#
# Mechanical properties :
#
#
# Convention : Reuss Voigt Hill
#
# Bulk Modulus (GPa) = 38.07522 57.76580 47.92051
# Shear Modulus (GPa) = 4.97634 13.66839 9.32236
#
# Velocity S-wave (km/s) = 1.61684 2.67960 2.21296
# Velocity P-wave (km/s) = 4.84635 6.31815 5.63055
#
# Compressibility (1/GPa) = 0.02626380
#
# Stress axis : x y z
#
# Youngs Moduli (GPa) = 45.79432 44.79062 102.69679
#
# Poissons Ratio (x) = 0.06663 0.62480
# Poissons Ratio (y) = 0.06812 0.64152
# Poissons Ratio (z) = 0.27861 0.27980
#
# Static dielectric constant tensor:
#      x y z
#    x 3.301200 0.000000 0.000000 
#    y 0.000000 3.107240 0.000000 
#    z 0.000000 0.000000 3.777920 
# 
# 
# High freq. dielectric constant tensor:
#      x y z
#    x 1.723920 0.000000 0.000000 
#    y 0.000000 1.669670 0.000000 
#    z 0.000000 0.000000 1.755160 
# 
# From -- ./inp_files/33879.got.cif
#   From: 2010.03.12/outbox.cif.g09.slc.cpg/sg47_17_cif.got.tgz:33879.got - 2010.04.14 03:12:58.
