data_PCOD8196818
_publ_section_title
;
Structure prediction by ZEFSAII (Michael W. Deem and Ramdas Pophale) SiO2 
 PCOD8196818
Probable space group: P M M M
;
_chemical_formula_sum "Si O2"
_cell_formula_units_Z 36
_cell_length_a 9.299026
_cell_length_b 9.186747
_cell_length_c 23.579996
_cell_angle_alpha 90.000000
_cell_angle_beta 90.000000
_cell_angle_gamma 90.000000
_cell_volume 2014.387164
_symmetry_space_group_name_H-M "P M M M"
_symmetry_group_IT_number 47
_symmetry_cell_setting 'orthorhombic'
loop_
_space_group_symop_operation_xyz
x,y,z
-x,-y,z
x,-y,-z
-x,y,-z
-x,-y,-z
x,y,-z
-x,y,z
x,-y,z
loop_
_atom_site_type_symbol
_atom_site_label
_atom_site_fract_x
_atom_site_fract_y
_atom_site_fract_z
Si Si1 0.661275 0.672890 0.062519
Si Si2 0.668710 0.168977 0.268992
Si Si3 0.342508 0.327144 0.500000
Si Si4 0.671631 0.336832 0.378656
Si Si5 0.834338 0.327874 0.830308
O O1 0.500000 0.728737 0.076098
O O2 0.662784 0.500000 0.062438
O O3 0.769467 0.731723 0.110382
O O4 0.709487 0.729290 0.000000
O O5 0.500000 0.199522 0.261217
O O6 0.724156 0.228403 0.329601
O O7 0.752188 0.252444 0.220502
O O8 0.706016 0.000000 0.265730
O O9 0.359251 0.500000 0.500000
O O10 0.500000 0.253593 0.500000
O O11 0.264533 0.283590 0.559688
O O12 0.500000 0.337016 0.383468
O O13 0.726090 0.500000 0.364089
O O14 0.812873 0.500000 0.824561
O O15 0.000000 0.282661 0.828525
#
# Coordination Sequence:
#
# PCOD8196818 Si02
#       5
#     8   8   4   8   8
#     4   8  14  26  46  72  99 124 150 184 229 279
#     4  10  20  32  46  66  93 126 163 199 236 279
#     4   7  10  18  35  61  90 117 146 183 230 280
#     4   8  13  23  41  64  90 120 153 190 232 278
#     4  10  20  32  48  71  96 124 159 196 235 279
#
# _framework density 17.871441000000001
#
# number of rings (size 3 to 8) (size 9 to 14) (size 15 to 20)
#    0.000    3.222    0.000    3.333    0.000    3.111 
#    0.000    2.778    0.000    4.000    0.000    5.444 
#    0.000    6.222    0.000    0.000    0.000    0.000 
#
# Total GULP energy -446029.235011 kJ/mol
# GULP energy per Si atom -12389.700973 kJ/mol
# Density = 1.783076 g / cm^3
# Si number density = 17.871441 Si / 1000 Ang^3
#
#
#
# Elastic Constant Matrix: (Units=GPa)
#
#
# Indices 1 2 3 4 5 6 
#
# 1 49.3267 23.2621 54.2955 0.0000 0.0000 0.0000
# 2 23.2621 30.2472 36.5086 0.0000 0.0000 0.0000
# 3 54.2955 36.5086 180.2639 0.0000 0.0000 0.0000
# 4 0.0000 0.0000 0.0000 -1.7375 0.0000 0.0000
# 5 0.0000 0.0000 0.0000 0.0000 -1.1812 0.0000
# 6 0.0000 0.0000 0.0000 0.0000 0.0000 13.9332
#
#
#
# Elastic Compliance Matrix: (Units=1/GPa)
#
#
# Indices 1 2 3 4 5 6 
#
# 1 0.037894 -0.020338 -0.007295 0.000000 0.000000 0.000000
# 2 -0.020338 0.054673 -0.004947 0.000000 0.000000 0.000000
# 3 -0.007295 -0.004947 0.008746 0.000000 0.000000 0.000000
# 4 0.000000 0.000000 0.000000 -0.575533 0.000000 0.000000
# 5 0.000000 0.000000 0.000000 0.000000 -0.846631 0.000000
# 6 0.000000 0.000000 0.000000 0.000000 0.000000 0.071771
#
#
# Mechanical properties :
#
#
# Convention : Reuss Voigt Hill
#
# Bulk Modulus (GPa) = 27.65942 54.21891 40.93916
# Shear Modulus (GPa) = -4.26669 11.92100 3.82716
#
# Velocity S-wave (km/s) = -1.54681 2.58552 1.46497
# Velocity P-wave (km/s) = 3.51003 6.27036 5.08122
#
# Compressibility (1/GPa) = 0.03615405
#
# Stress axis : x y z
#
# Youngs Moduli (GPa) = 26.38966 18.29041 114.33205
#
# Poissons Ratio (x) = 0.37199 0.83400
# Poissons Ratio (y) = 0.53672 0.56561
# Poissons Ratio (z) = 0.19250 0.09048
#
# Static dielectric constant tensor:
#      x y z
#    x 2.990930 0.000000 0.000000 
#    y 0.000000 2.960230 0.000000 
#    z 0.000000 0.000000 3.960080 
# 
# 
# High freq. dielectric constant tensor:
#      x y z
#    x 1.645290 0.000000 0.000000 
#    y 0.000000 1.648760 0.000000 
#    z 0.000000 0.000000 1.720330 
# 
# From -- ./inp_files/1460.got.cif
#   From: 2010.03.12/outbox.cif.g09.slc.cpg/sg47_1_cif.got.tgz:1460.got - 2010.04.14 03:12:58.
