data_PCOD8196209
_publ_section_title
;
Structure prediction by ZEFSAII (Michael W. Deem and Ramdas Pophale) SiO2 
 PCOD8196209
Probable space group: P M M M
;
_chemical_formula_sum "Si O2"
_cell_formula_units_Z 32
_cell_length_a 12.420969
_cell_length_b 7.935465
_cell_length_c 17.372759
_cell_angle_alpha 90.000000
_cell_angle_beta 90.000000
_cell_angle_gamma 90.000000
_cell_volume 1712.366226
_symmetry_space_group_name_H-M "P M M M"
_symmetry_group_IT_number 47
_symmetry_cell_setting 'orthorhombic'
loop_
_space_group_symop_operation_xyz
x,y,z
-x,-y,z
x,-y,-z
-x,y,-z
-x,-y,-z
x,y,-z
-x,y,z
x,-y,z
loop_
_atom_site_type_symbol
_atom_site_label
_atom_site_fract_x
_atom_site_fract_y
_atom_site_fract_z
Si Si1 0.711264 0.806304 0.586919
Si Si2 0.500000 0.823368 0.824508
Si Si3 0.500000 0.689669 0.666083
Si Si4 0.125499 0.000000 0.809364
Si Si5 0.877806 0.687927 0.701465
Si Si6 0.672344 0.000000 0.909117
O O1 0.693254 0.741312 0.500000
O O2 0.603418 0.785970 0.635573
O O3 0.805799 0.698673 0.625310
O O4 0.746281 0.000000 0.587624
O O5 0.500000 0.678738 0.760148
O O6 0.392034 0.831838 0.878438
O O7 0.500000 0.000000 0.775730
O O8 0.500000 0.500000 0.634871
O O9 0.155223 0.831685 0.762044
O O10 0.203241 0.000000 0.882977
O O11 0.000000 0.000000 0.835038
O O12 0.863036 0.500000 0.737713
O O13 0.000000 0.717456 0.675101
O O14 0.671680 0.000000 0.000000
#
# Coordination Sequence:
#
# PCOD8196209 Si02
#       6
#     8   4   4   4   8   4
#     4  11  23  37  54  76 109 148 187 235 287 331
#     4   8  18  33  57  75  98 137 176 219 263 311
#     4  12  23  35  54  80 110 144 188 232 275 329
#     4  10  19  34  57  81 112 144 179 225 270 325
#     4  10  21  37  58  82 109 146 192 235 275 322
#     4   9  18  33  57  83 107 137 176 218 266 328
#
# _framework density 18.687593
#
# number of rings (size 3 to 8) (size 9 to 14) (size 15 to 20)
#    0.750    1.000    1.250    4.500    0.000    4.250 
#    0.000    2.500    0.000    3.750    0.000    3.500 
#    0.000    0.000    0.000    0.000    0.000    0.000 
#
# Total GULP energy -396546.624165 kJ/mol
# GULP energy per Si atom -12392.082005 kJ/mol
# Density = 1.864506 g / cm^3
# Si number density = 18.687593 Si / 1000 Ang^3
#
#
#
# Elastic Constant Matrix: (Units=GPa)
#
#
# Indices 1 2 3 4 5 6 
#
# 1 116.7705 19.6616 61.9715 0.0000 0.0000 0.0000
# 2 19.6616 86.3738 23.6482 0.0000 0.0000 0.0000
# 3 61.9715 23.6482 122.9385 0.0000 0.0000 0.0000
# 4 0.0000 0.0000 0.0000 11.1189 0.0000 0.0000
# 5 0.0000 0.0000 0.0000 0.0000 65.7364 0.0000
# 6 0.0000 0.0000 0.0000 0.0000 0.0000 20.3756
#
#
#
# Elastic Compliance Matrix: (Units=1/GPa)
#
#
# Indices 1 2 3 4 5 6 
#
# 1 0.011793 -0.001116 -0.005730 0.000000 0.000000 0.000000
# 2 -0.001116 0.012327 -0.001809 0.000000 0.000000 0.000000
# 3 -0.005730 -0.001809 0.011370 0.000000 0.000000 0.000000
# 4 0.000000 0.000000 0.000000 0.089937 0.000000 0.000000
# 5 0.000000 0.000000 0.000000 0.000000 0.015212 0.000000
# 6 0.000000 0.000000 0.000000 0.000000 0.000000 0.049078
#
#
# Mechanical properties :
#
#
# Convention : Reuss Voigt Hill
#
# Bulk Modulus (GPa) = 55.00179 59.62727 57.31453
# Shear Modulus (GPa) = 23.46467 34.16627 28.81547
#
# Velocity S-wave (km/s) = 3.54733 4.28049 3.93104
# Velocity P-wave (km/s) = 6.80251 7.51044 7.16523
#
# Compressibility (1/GPa) = 0.01818122
#
# Stress axis : x y z
#
# Youngs Moduli (GPa) = 84.79920 81.12432 87.94743
#
# Poissons Ratio (x) = 0.09050 0.50393
# Poissons Ratio (y) = 0.09460 0.15908
# Poissons Ratio (z) = 0.48589 0.14674
#
# Static dielectric constant tensor:
#      x y z
#    x 3.724880 0.000000 0.000000 
#    y 0.000000 3.394850 0.000000 
#    z 0.000000 0.000000 3.141300 
# 
# 
# High freq. dielectric constant tensor:
#      x y z
#    x 1.738820 0.000000 0.000000 
#    y 0.000000 1.714130 0.000000 
#    z 0.000000 0.000000 1.699340 
# 
# From -- ./inp_files/27242.got.cif
#   From: 2010.03.12/outbox.cif.g09.slc.cpg/sg47_14_cif.got.tgz:27242.got - 2010.04.14 03:12:58.
