data_PCOD8196672
_publ_section_title
;
Structure prediction by ZEFSAII (Michael W. Deem and Ramdas Pophale) SiO2 
 PCOD8196672
Probable space group: P M M M
;
_chemical_formula_sum "Si O2"
_cell_formula_units_Z 48
_cell_length_a 7.771989
_cell_length_b 9.264307
_cell_length_c 34.620392
_cell_angle_alpha 90.000000
_cell_angle_beta 90.000000
_cell_angle_gamma 90.000000
_cell_volume 2492.740653
_symmetry_space_group_name_H-M "P M M M"
_symmetry_group_IT_number 47
_symmetry_cell_setting 'orthorhombic'
loop_
_space_group_symop_operation_xyz
x,y,z
-x,-y,z
x,-y,-z
-x,y,-z
-x,-y,-z
x,y,-z
-x,y,z
x,-y,z
loop_
_atom_site_type_symbol
_atom_site_label
_atom_site_fract_x
_atom_site_fract_y
_atom_site_fract_z
Si Si1 0.000000 0.170524 0.818550
Si Si2 0.000000 0.172817 0.095054
Si Si3 0.701852 0.336127 0.313954
Si Si4 0.302699 0.168957 0.763111
Si Si5 0.795311 0.661655 0.457368
Si Si6 0.308966 0.828393 0.043285
Si Si7 0.198145 0.158346 0.612855
O O1 0.174184 0.220822 0.796910
O O2 0.000000 0.236598 0.861597
O O3 0.000000 0.000000 0.821634
O O4 0.168894 0.233427 0.073177
O O5 0.000000 0.000000 0.095253
O O6 0.500000 0.331896 0.320320
O O7 0.770822 0.500000 0.312174
O O8 0.753408 0.255985 0.274693
O O9 0.788392 0.254661 0.349224
O O10 0.500000 0.203292 0.775343
O O11 0.279650 0.000000 0.754034
O O12 0.739368 0.717581 0.500000
O O13 0.724043 0.500000 0.450818
O O14 0.714210 0.763494 0.424123
O O15 0.000000 0.658722 0.454315
O O16 0.500000 0.775790 0.055729
O O17 0.302555 0.000000 0.043506
O O18 0.266279 0.773095 0.000000
O O19 0.000000 0.136842 0.603210
O O20 0.284077 0.000000 0.619018
#
# Coordination Sequence:
#
# PCOD8196672 Si02
#       7
#     4   4   8   8   8   8   8
#     4   9  18  29  43  64  87 117 159 201 244 298
#     4   9  15  22  33  51  75 105 146 197 243 282
#     4  10  21  36  53  72  93 119 154 196 241 289
#     4   9  18  33  50  67  92 124 155 194 245 297
#     4   8  14  26  44  66  95 130 164 197 233 275
#     4   8  13  20  30  46  71 106 148 194 242 286
#     4  10  20  31  47  74 102 127 156 192 236 286
#
# _framework density 19.255914000000001
#
# number of rings (size 3 to 8) (size 9 to 14) (size 15 to 20)
#    0.000    3.000    0.000    2.250    1.167    4.000 
#    0.000    5.000    0.000    0.500    0.000    3.500 
#    0.000    0.000    0.000    0.000    0.000    6.667 
#
# Total GULP energy -594930.105737 kJ/mol
# GULP energy per Si atom -12394.377203 kJ/mol
# Density = 1.921209 g / cm^3
# Si number density = 19.255914 Si / 1000 Ang^3
#
#
#
# Elastic Constant Matrix: (Units=GPa)
#
#
# Indices 1 2 3 4 5 6 
#
# 1 83.9536 26.0077 72.2969 0.0000 0.0000 0.0000
# 2 26.0077 77.0763 57.5479 0.0000 0.0000 0.0000
# 3 72.2969 57.5479 179.1412 0.0000 0.0000 0.0000
# 4 0.0000 0.0000 0.0000 2.7760 0.0000 0.0000
# 5 0.0000 0.0000 0.0000 0.0000 -40.2389 0.0000
# 6 0.0000 0.0000 0.0000 0.0000 0.0000 10.0559
#
#
#
# Elastic Compliance Matrix: (Units=1/GPa)
#
#
# Indices 1 2 3 4 5 6 
#
# 1 0.018300 -0.000869 -0.007106 0.000000 0.000000 0.000000
# 2 -0.000869 0.017109 -0.005145 0.000000 0.000000 0.000000
# 3 -0.007106 -0.005145 0.010103 0.000000 0.000000 0.000000
# 4 0.000000 0.000000 0.000000 0.360231 0.000000 0.000000
# 5 0.000000 0.000000 0.000000 0.000000 -0.024852 0.000000
# 6 0.000000 0.000000 0.000000 0.000000 0.000000 0.099444
#
#
# Mechanical properties :
#
#
# Convention : Reuss Voigt Hill
#
# Bulk Modulus (GPa) = 51.89245 72.43070 62.16158
# Shear Modulus (GPa) = 9.74657 6.80650 8.27654
#
# Velocity S-wave (km/s) = 2.25224 1.88214 2.07545
# Velocity P-wave (km/s) = 5.81126 6.51304 6.17213
#
# Compressibility (1/GPa) = 0.01927063
#
# Stress axis : x y z
#
# Youngs Moduli (GPa) = 54.64418 58.44806 98.98008
#
# Poissons Ratio (x) = 0.05080 0.70338
# Poissons Ratio (y) = 0.04750 0.50930
# Poissons Ratio (z) = 0.38832 0.30074
#
# Static dielectric constant tensor:
#      x y z
#    x 3.480620 0.000000 0.000000 
#    y 0.000000 3.366580 0.000000 
#    z 0.000000 0.000000 3.707340 
# 
# 
# High freq. dielectric constant tensor:
#      x y z
#    x 1.740410 0.000000 0.000000 
#    y 0.000000 1.706170 0.000000 
#    z 0.000000 0.000000 1.750630 
# 
# From -- ./inp_files/34132.got.cif
#   From: 2010.03.12/outbox.cif.g09.slc.cpg/sg47_18_cif.got.tgz:34132.got - 2010.04.14 03:12:58.
