data_PCOD8196990
_publ_section_title
;
Structure prediction by ZEFSAII (Michael W. Deem and Ramdas Pophale) SiO2 
 PCOD8196990
Probable space group: P M M M
;
_chemical_formula_sum "Si O2"
_cell_formula_units_Z 44
_cell_length_a 15.464436
_cell_length_b 17.708380
_cell_length_c 9.017972
_cell_angle_alpha 90.000000
_cell_angle_beta 90.000000
_cell_angle_gamma 90.000000
_cell_volume 2469.572617
_symmetry_space_group_name_H-M "P M M M"
_symmetry_group_IT_number 47
_symmetry_cell_setting 'orthorhombic'
loop_
_space_group_symop_operation_xyz
x,y,z
-x,-y,z
x,-y,-z
-x,y,-z
-x,-y,-z
x,y,-z
-x,y,z
x,-y,z
loop_
_atom_site_type_symbol
_atom_site_label
_atom_site_fract_x
_atom_site_fract_y
_atom_site_fract_z
Si Si1 0.734058 0.200945 0.333759
Si Si2 0.838291 0.415369 0.827632
Si Si3 0.500000 0.588975 0.833775
Si Si4 0.596602 0.085529 0.323523
Si Si5 0.904105 0.272310 0.326221
Si Si6 0.329396 0.368546 0.332216
O O1 0.748883 0.171402 0.500000
O O2 0.671894 0.139296 0.252787
O O3 0.830471 0.214502 0.262342
O O4 0.685032 0.279573 0.330204
O O5 0.876379 0.500000 0.805372
O O6 0.900354 0.354009 0.751379
O O7 0.743666 0.413197 0.756499
O O8 0.830508 0.395227 0.000000
O O9 0.500000 0.500000 0.838420
O O10 0.418687 0.618548 0.746444
O O11 0.500000 0.622261 0.000000
O O12 0.596070 0.094028 0.500000
O O13 0.500000 0.107613 0.265152
O O14 0.618276 0.000000 0.276128
O O15 0.884965 0.286198 0.500000
O O16 0.000000 0.238084 0.300110
O O17 0.331845 0.399422 0.500000
#
# Coordination Sequence:
#
# PCOD8196990 Si02
#       6
#     8   8   4   8   8   8
#     4   8  15  27  43  64  91 121 152 191 234 276
#     4  10  20  33  48  66  91 120 150 193 248 295
#     4  11  23  35  45  61  90 125 160 202 247 283
#     4   8  13  21  37  64  97 128 152 180 226 282
#     4   9  18  32  48  66  89 121 160 198 239 285
#     4  10  20  32  48  68  89 121 162 200 237 281
#
# _framework density 17.816848
#
# number of rings (size 3 to 8) (size 9 to 14) (size 15 to 20)
#    0.000    2.818    0.000    3.545    1.273    5.091 
#    0.000    1.818    0.000    0.545    0.000    3.818 
#    0.000   18.909    0.000    6.545    0.000    7.273 
#
# Total GULP energy -545203.079157 kJ/mol
# GULP energy per Si atom -12390.979072 kJ/mol
# Density = 1.777630 g / cm^3
# Si number density = 17.816848 Si / 1000 Ang^3
#
#
#
# Elastic Constant Matrix: (Units=GPa)
#
#
# Indices 1 2 3 4 5 6 
#
# 1 149.5249 60.0811 30.4872 0.0000 0.0000 0.0000
# 2 60.0811 82.6200 17.8770 0.0000 0.0000 0.0000
# 3 30.4872 17.8770 58.8769 0.0000 0.0000 0.0000
# 4 0.0000 0.0000 0.0000 0.9908 0.0000 0.0000
# 5 0.0000 0.0000 0.0000 0.0000 6.8253 0.0000
# 6 0.0000 0.0000 0.0000 0.0000 0.0000 17.7008
#
#
#
# Elastic Compliance Matrix: (Units=1/GPa)
#
#
# Indices 1 2 3 4 5 6 
#
# 1 0.009973 -0.006566 -0.003170 0.000000 0.000000 0.000000
# 2 -0.006566 0.017278 -0.001846 0.000000 0.000000 0.000000
# 3 -0.003170 -0.001846 0.019187 0.000000 0.000000 0.000000
# 4 0.000000 0.000000 0.000000 1.009264 0.000000 0.000000
# 5 0.000000 0.000000 0.000000 0.000000 0.146514 0.000000
# 6 0.000000 0.000000 0.000000 0.000000 0.000000 0.056495
#
#
# Mechanical properties :
#
#
# Convention : Reuss Voigt Hill
#
# Bulk Modulus (GPa) = 42.96961 56.43473 49.70217
# Shear Modulus (GPa) = 3.87707 17.27515 10.57611
#
# Velocity S-wave (km/s) = 1.47675 3.11721 2.43904
# Velocity P-wave (km/s) = 5.20360 6.68578 5.99071
#
# Compressibility (1/GPa) = 0.02327226
#
# Stress axis : x y z
#
# Youngs Moduli (GPa) = 100.27491 57.87736 52.11932
#
# Poissons Ratio (x) = 0.38003 0.16523
# Poissons Ratio (y) = 0.65841 0.09622
# Poissons Ratio (z) = 0.31790 0.10685
#
# Static dielectric constant tensor:
#      x y z
#    x 3.455870 0.000000 0.000000 
#    y 0.000000 3.253410 0.000000 
#    z 0.000000 0.000000 3.113010 
# 
# 
# High freq. dielectric constant tensor:
#      x y z
#    x 1.699740 0.000000 0.000000 
#    y 0.000000 1.667420 0.000000 
#    z 0.000000 0.000000 1.655760 
# 
# From -- ./inp_files/6157.got.cif
#   From: 2010.03.12/outbox.cif.g09.slc.cpg/sg47_4_cif.got.tgz:6157.got - 2010.04.14 03:12:58.
