data_PCOD8196015
_publ_section_title
;
Structure prediction by ZEFSAII (Michael W. Deem and Ramdas Pophale) SiO2 
 PCOD8196015
Probable space group: P M M M
;
_chemical_formula_sum "Si O2"
_cell_formula_units_Z 44
_cell_length_a 9.334884
_cell_length_b 29.842093
_cell_length_c 8.144288
_cell_angle_alpha 90.000000
_cell_angle_beta 90.000000
_cell_angle_gamma 90.000000
_cell_volume 2268.774477
_symmetry_space_group_name_H-M "P M M M"
_symmetry_group_IT_number 47
_symmetry_cell_setting 'orthorhombic'
loop_
_space_group_symop_operation_xyz
x,y,z
-x,-y,z
x,-y,-z
-x,y,-z
-x,-y,-z
x,y,-z
-x,y,z
x,-y,z
loop_
_atom_site_type_symbol
_atom_site_label
_atom_site_fract_x
_atom_site_fract_y
_atom_site_fract_z
Si Si1 0.329239 0.550998 0.500000
Si Si2 0.335275 0.858566 0.687515
Si Si3 0.330185 0.048461 0.185865
Si Si4 0.670217 0.396185 0.182392
Si Si5 0.338974 0.302645 0.687681
Si Si6 0.162257 0.221972 0.187801
O O1 0.275897 0.500000 0.500000
O O2 0.500000 0.554250 0.500000
O O3 0.267518 0.573717 0.332177
O O4 0.320992 0.843772 0.500000
O O5 0.500000 0.855613 0.747122
O O6 0.275371 0.909382 0.707736
O O7 0.241246 0.825413 0.795945
O O8 0.500000 0.046983 0.193332
O O9 0.271946 0.000000 0.251967
O O10 0.277365 0.055562 0.000000
O O11 0.500000 0.398951 0.189812
O O12 0.718320 0.344574 0.206444
O O13 0.723749 0.412062 0.000000
O O14 0.338774 0.318676 0.500000
O O15 0.500000 0.289056 0.742338
O O16 0.238223 0.259932 0.705775
O O17 0.000000 0.216632 0.250852
O O18 0.167313 0.237207 0.000000
#
# Coordination Sequence:
#
# PCOD8196015 Si02
#       6
#     4   8   8   8   8   8
#     4   9  16  26  40  64 101 139 175 215 258 309
#     4  10  20  33  51  76 103 132 167 205 249 303
#     4   8  14  26  46  72 100 129 161 199 243 290
#     4   9  16  27  44  67  97 134 174 215 259 306
#     4  10  19  33  54  77 101 131 171 216 259 309
#     4  11  24  38  51  71 100 133 170 212 258 309
#
# _framework density 19.393730999999999
#
# number of rings (size 3 to 8) (size 9 to 14) (size 15 to 20)
#    0.000    2.455    0.909    2.727    0.000    6.545 
#    0.000    3.636    0.000    0.545    0.000    3.818 
#    0.000    1.455    0.000    3.818    0.000    3.636 
#
# Total GULP energy -545368.392777 kJ/mol
# GULP energy per Si atom -12394.736199 kJ/mol
# Density = 1.934959 g / cm^3
# Si number density = 19.393731 Si / 1000 Ang^3
#
#
#
# Elastic Constant Matrix: (Units=GPa)
#
#
# Indices 1 2 3 4 5 6 
#
# 1 53.1634 37.2195 19.8325 0.0000 0.0000 0.0000
# 2 37.2195 134.7250 50.2956 0.0000 0.0000 0.0000
# 3 19.8325 50.2956 95.7819 0.0000 0.0000 0.0000
# 4 0.0000 0.0000 0.0000 32.4074 0.0000 0.0000
# 5 0.0000 0.0000 0.0000 0.0000 13.9284 0.0000
# 6 0.0000 0.0000 0.0000 0.0000 0.0000 -0.8739
#
#
#
# Elastic Compliance Matrix: (Units=1/GPa)
#
#
# Indices 1 2 3 4 5 6 
#
# 1 0.023572 -0.005834 -0.001818 0.000000 0.000000 0.000000
# 2 -0.005834 0.010676 -0.004398 0.000000 0.000000 0.000000
# 3 -0.001818 -0.004398 0.013126 0.000000 0.000000 0.000000
# 4 0.000000 0.000000 0.000000 0.030857 0.000000 0.000000
# 5 0.000000 0.000000 0.000000 0.000000 0.071796 0.000000
# 6 0.000000 0.000000 0.000000 0.000000 0.000000 -1.144314
#
#
# Mechanical properties :
#
#
# Convention : Reuss Voigt Hill
#
# Bulk Modulus (GPa) = 42.96322 55.37395 49.16858
# Shear Modulus (GPa) = -5.19518 20.84723 7.82603
#
# Velocity S-wave (km/s) = -1.63848 3.28220 2.01099
# Velocity P-wave (km/s) = 4.31529 6.55578 5.54977
#
# Compressibility (1/GPa) = 0.02327573
#
# Stress axis : x y z
#
# Youngs Moduli (GPa) = 42.42322 93.66777 76.18341
#
# Poissons Ratio (x) = 0.54641 0.13847
# Poissons Ratio (y) = 0.24748 0.33507
# Poissons Ratio (z) = 0.07711 0.41196
#
# Static dielectric constant tensor:
#      x y z
#    x 2.989530 0.000000 0.000000 
#    y 0.000000 3.776960 0.000000 
#    z 0.000000 0.000000 3.653530 
# 
# 
# High freq. dielectric constant tensor:
#      x y z
#    x 1.683700 0.000000 0.000000 
#    y 0.000000 1.764490 0.000000 
#    z 0.000000 0.000000 1.761470 
# 
# From -- ./inp_files/2281.got.cif
#   From: 2010.03.12/outbox.cif.g09.slc.cpg/sg47_2_cif.got.tgz:2281.got - 2010.04.14 03:12:58.
