data_PCOD8196684
_publ_section_title
;
Structure prediction by ZEFSAII (Michael W. Deem and Ramdas Pophale) SiO2 
 PCOD8196684
Probable space group: P M M M
;
_chemical_formula_sum "Si O2"
_cell_formula_units_Z 44
_cell_length_a 10.050611
_cell_length_b 17.017794
_cell_length_c 14.499747
_cell_angle_alpha 90.000000
_cell_angle_beta 90.000000
_cell_angle_gamma 90.000000
_cell_volume 2480.025527
_symmetry_space_group_name_H-M "P M M M"
_symmetry_group_IT_number 47
_symmetry_cell_setting 'orthorhombic'
loop_
_space_group_symop_operation_xyz
x,y,z
-x,-y,z
x,-y,-z
-x,y,-z
-x,-y,-z
x,y,-z
-x,y,z
x,-y,z
loop_
_atom_site_type_symbol
_atom_site_label
_atom_site_fract_x
_atom_site_fract_y
_atom_site_fract_z
Si Si1 0.850903 0.092674 0.395961
Si Si2 0.147432 0.587821 0.108834
Si Si3 0.651944 0.863991 0.759115
Si Si4 0.657183 0.000000 0.895994
Si Si5 0.657561 0.588279 0.601729
Si Si6 0.651943 0.317642 0.776601
O O1 0.822966 0.121440 0.500000
O O2 0.741794 0.131032 0.331050
O O3 0.000000 0.118068 0.365696
O O4 0.836962 0.000000 0.389836
O O5 0.177502 0.500000 0.145041
O O6 0.258852 0.646217 0.144210
O O7 0.000000 0.613994 0.142359
O O8 0.153248 0.589507 0.000000
O O9 0.500000 0.885979 0.732624
O O10 0.662173 0.775012 0.792050
O O11 0.703990 0.922243 0.839995
O O12 0.500000 0.000000 0.905612
O O13 0.719338 0.000000 0.000000
O O14 0.714464 0.610865 0.500000
O O15 0.500000 0.589864 0.596710
O O16 0.705558 0.500000 0.628685
O O17 0.706833 0.651926 0.677190
O O18 0.500000 0.345958 0.789467
#
# Coordination Sequence:
#
# PCOD8196684 Si02
#       6
#     8   8   8   4   8   8
#     4   9  18  33  53  75 100 133 170 210 258 306
#     4   9  19  36  55  74 100 136 173 208 255 315
#     4  10  20  33  51  76 103 133 171 214 261 311
#     4   9  18  34  52  67  92 132 171 207 254 315
#     4   8  14  26  44  66  96 133 165 194 237 293
#     4  10  20  31  49  79 106 129 166 217 262 300
#
# _framework density 17.741752999999999
#
# number of rings (size 3 to 8) (size 9 to 14) (size 15 to 20)
#    0.000    2.818    0.909    2.182    0.000    4.000 
#    0.000    5.455    0.000    1.636    0.000    2.545 
#    0.000    0.000    0.000    0.000    0.000    0.000 
#
# Total GULP energy -545352.512786 kJ/mol
# GULP energy per Si atom -12394.375291 kJ/mol
# Density = 1.770137 g / cm^3
# Si number density = 17.741753 Si / 1000 Ang^3
#
#
#
# Elastic Constant Matrix: (Units=GPa)
#
#
# Indices 1 2 3 4 5 6 
#
# 1 83.7899 37.6555 46.2235 0.0000 0.0000 0.0000
# 2 37.6555 93.0453 43.6744 0.0000 0.0000 0.0000
# 3 46.2235 43.6744 78.9018 0.0000 0.0000 0.0000
# 4 0.0000 0.0000 0.0000 18.5260 0.0000 0.0000
# 5 0.0000 0.0000 0.0000 0.0000 27.4041 0.0000
# 6 0.0000 0.0000 0.0000 0.0000 0.0000 17.2839
#
#
#
# Elastic Compliance Matrix: (Units=1/GPa)
#
#
# Indices 1 2 3 4 5 6 
#
# 1 0.018317 -0.003210 -0.008954 0.000000 0.000000 0.000000
# 2 -0.003210 0.015083 -0.006468 0.000000 0.000000 0.000000
# 3 -0.008954 -0.006468 0.021500 0.000000 0.000000 0.000000
# 4 0.000000 0.000000 0.000000 0.053978 0.000000 0.000000
# 5 0.000000 0.000000 0.000000 0.000000 0.036491 0.000000
# 6 0.000000 0.000000 0.000000 0.000000 0.000000 0.057857
#
#
# Mechanical properties :
#
#
# Convention : Reuss Voigt Hill
#
# Bulk Modulus (GPa) = 56.70463 56.76044 56.73254
# Shear Modulus (GPa) = 20.29493 21.18840 20.74166
#
# Velocity S-wave (km/s) = 3.38584 3.45957 3.42290
# Velocity P-wave (km/s) = 6.87864 6.92966 6.90420
#
# Compressibility (1/GPa) = 0.01763524
#
# Stress axis : x y z
#
# Youngs Moduli (GPa) = 54.59534 66.30156 46.51232
#
# Poissons Ratio (x) = 0.21283 0.41646
# Poissons Ratio (y) = 0.17525 0.30085
# Poissons Ratio (z) = 0.48883 0.42885
#
# Static dielectric constant tensor:
#      x y z
#    x 3.205030 0.000000 0.000000 
#    y 0.000000 3.280330 0.000000 
#    z 0.000000 0.000000 3.490100 
# 
# 
# High freq. dielectric constant tensor:
#      x y z
#    x 1.659420 0.000000 0.000000 
#    y 0.000000 1.681640 0.000000 
#    z 0.000000 0.000000 1.685110 
# 
# From -- ./inp_files/6059.got.cif
#   From: 2010.03.12/outbox.cif.g09.slc.cpg/sg47_4_cif.got.tgz:6059.got - 2010.04.14 03:12:58.
