data_PCOD8196564
_publ_section_title
;
Structure prediction by ZEFSAII (Michael W. Deem and Ramdas Pophale) SiO2 
 PCOD8196564
Probable space group: P M M M
;
_chemical_formula_sum "Si O2"
_cell_formula_units_Z 48
_cell_length_a 9.455495
_cell_length_b 9.679695
_cell_length_c 30.848542
_cell_angle_alpha 90.000000
_cell_angle_beta 90.000000
_cell_angle_gamma 90.000000
_cell_volume 2823.453146
_symmetry_space_group_name_H-M "P M M M"
_symmetry_group_IT_number 47
_symmetry_cell_setting 'orthorhombic'
loop_
_space_group_symop_operation_xyz
x,y,z
-x,-y,z
x,-y,-z
-x,y,-z
-x,-y,-z
x,y,-z
-x,y,z
x,-y,z
loop_
_atom_site_type_symbol
_atom_site_label
_atom_site_fract_x
_atom_site_fract_y
_atom_site_fract_z
Si Si1 0.159180 0.164916 0.361364
Si Si2 0.837096 0.659268 0.786610
Si Si3 0.832030 0.154569 0.454113
Si Si4 0.839266 0.340996 0.113281
Si Si5 0.333877 0.842942 0.951380
Si Si6 0.664865 0.837728 0.279504
O O1 0.215321 0.224679 0.408308
O O2 0.263865 0.216533 0.323903
O O3 0.000000 0.217904 0.351033
O O4 0.158822 0.000000 0.364390
O O5 0.807710 0.500000 0.774550
O O6 0.802435 0.686269 0.836741
O O7 0.733752 0.757821 0.760271
O O8 0.000000 0.696571 0.776468
O O9 0.785433 0.229477 0.500000
O O10 0.000000 0.147558 0.452087
O O11 0.769971 0.000000 0.455909
O O12 0.814687 0.500000 0.101630
O O13 0.738568 0.252305 0.083605
O O14 0.000000 0.297934 0.103827
O O15 0.500000 0.827365 0.945514
O O16 0.286622 0.000000 0.943070
O O17 0.289455 0.797975 0.000000
O O18 0.500000 0.802698 0.281730
O O19 0.692295 0.000000 0.272776
#
# Coordination Sequence:
#
# PCOD8196564 Si02
#       6
#     8   8   8   8   8   8
#     4   8  13  22  37  56  80 113 150 186 225 268
#     4   9  19  36  54  70  91 120 154 193 236 280
#     4   7   9  14  27  49  75 103 139 182 223 262
#     4   9  19  35  53  74  98 122 152 193 238 280
#     4   9  19  35  52  72 101 134 164 193 225 264
#     4  10  20  31  44  66  95 124 154 189 229 274
#
# _framework density 17.00046
#
# number of rings (size 3 to 8) (size 9 to 14) (size 15 to 20)
#    0.000    3.333    0.000    3.500    0.000    4.000 
#    0.000    7.500    0.000    0.500    0.000    3.500 
#    0.000    0.667    0.000    7.667    0.000    8.833 
#
# Total GULP energy -594664.329703 kJ/mol
# GULP energy per Si atom -12388.840202 kJ/mol
# Density = 1.696177 g / cm^3
# Si number density = 17.000460 Si / 1000 Ang^3
#
#
#
# Elastic Constant Matrix: (Units=GPa)
#
#
# Indices 1 2 3 4 5 6 
#
# 1 69.7334 31.2962 57.6417 0.0000 0.0000 0.0000
# 2 31.2962 37.3322 45.5211 0.0000 0.0000 0.0000
# 3 57.6417 45.5211 122.5049 0.0000 0.0000 0.0000
# 4 0.0000 0.0000 0.0000 -14.7314 0.0000 0.0000
# 5 0.0000 0.0000 0.0000 0.0000 -6.2847 0.0000
# 6 0.0000 0.0000 0.0000 0.0000 0.0000 25.0889
#
#
#
# Elastic Compliance Matrix: (Units=1/GPa)
#
#
# Indices 1 2 3 4 5 6 
#
# 1 0.026432 -0.012787 -0.007685 0.000000 0.000000 0.000000
# 2 -0.012787 0.055165 -0.014482 0.000000 0.000000 0.000000
# 3 -0.007685 -0.014482 0.017160 0.000000 0.000000 0.000000
# 4 0.000000 0.000000 0.000000 -0.067882 0.000000 0.000000
# 5 0.000000 0.000000 0.000000 0.000000 -0.159117 0.000000
# 6 0.000000 0.000000 0.000000 0.000000 0.000000 0.039858
#
#
# Mechanical properties :
#
#
# Convention : Reuss Voigt Hill
#
# Bulk Modulus (GPa) = 34.66406 55.38761 45.02583
# Shear Modulus (GPa) = -564.36773 7.15533 -278.60620
#
# Velocity S-wave (km/s) = -18.23987 2.05379 -12.81551
# Velocity P-wave (km/s) = 20.57075 6.18667 13.87229
#
# Compressibility (1/GPa) = 0.02884832
#
# Stress axis : x y z
#
# Youngs Moduli (GPa) = 37.83301 18.12759 58.27415
#
# Poissons Ratio (x) = 0.23180 0.44786
# Poissons Ratio (y) = 0.48378 0.84391
# Poissons Ratio (z) = 0.29076 0.26252
#
# Static dielectric constant tensor:
#      x y z
#    x 2.977060 0.000000 0.000000 
#    y 0.000000 2.788250 0.000000 
#    z 0.000000 0.000000 3.581180 
# 
# 
# High freq. dielectric constant tensor:
#      x y z
#    x 1.634940 0.000000 0.000000 
#    y 0.000000 1.610460 0.000000 
#    z 0.000000 0.000000 1.678790 
# 
# From -- ./inp_files/13805.got.cif
#   From: 2010.03.12/outbox.cif.g09.slc.cpg/sg47_7_cif.got.tgz:13805.got - 2010.04.14 03:12:58.
