data_PCOD8196631
_publ_section_title
;
Structure prediction by ZEFSAII (Michael W. Deem and Ramdas Pophale) SiO2 
 PCOD8196631
Probable space group: P M M M
;
_chemical_formula_sum "Si O2"
_cell_formula_units_Z 44
_cell_length_a 28.380037
_cell_length_b 8.942818
_cell_length_c 9.308071
_cell_angle_alpha 90.000000
_cell_angle_beta 90.000000
_cell_angle_gamma 90.000000
_cell_volume 2362.365203
_symmetry_space_group_name_H-M "P M M M"
_symmetry_group_IT_number 47
_symmetry_cell_setting 'orthorhombic'
loop_
_space_group_symop_operation_xyz
x,y,z
-x,-y,z
x,-y,-z
-x,y,-z
-x,-y,-z
x,y,-z
-x,y,z
x,-y,z
loop_
_atom_site_type_symbol
_atom_site_label
_atom_site_fract_x
_atom_site_fract_y
_atom_site_fract_z
Si Si1 0.221098 0.671613 0.668250
Si Si2 0.585023 0.677061 0.165454
Si Si3 0.500000 0.823313 0.666512
Si Si4 0.051979 0.177842 0.338730
Si Si5 0.326038 0.677299 0.341200
Si Si6 0.139396 0.822567 0.838862
O O1 0.211228 0.690531 0.500000
O O2 0.214560 0.500000 0.715410
O O3 0.273853 0.729728 0.705729
O O4 0.185659 0.773716 0.755322
O O5 0.578587 0.500000 0.182121
O O6 0.545689 0.757698 0.257788
O O7 0.635591 0.731735 0.225545
O O8 0.581038 0.726270 0.000000
O O9 0.500000 0.775105 0.500000
O O10 0.500000 0.000000 0.684403
O O11 0.061162 0.237062 0.500000
O O12 0.092390 0.244443 0.235848
O O13 0.000000 0.230467 0.285843
O O14 0.054075 0.000000 0.338021
O O15 0.338641 0.741380 0.500000
O O16 0.325439 0.500000 0.350878
O O17 0.137527 0.000000 0.838245
O O18 0.141180 0.759045 0.000000
#
# Coordination Sequence:
#
# PCOD8196631 Si02
#       6
#     8   8   4   8   8   8
#     4   9  18  33  53  75  98 128 167 206 244 289
#     4  10  20  34  55  82 106 129 162 203 247 295
#     4  11  24  39  54  74 102 137 174 207 242 288
#     4   8  14  26  45  67  90 120 160 203 245 289
#     4   8  15  30  52  76 100 127 163 206 246 285
#     4  10  20  31  45  70 102 132 162 198 243 295
#
# _framework density 18.625402000000001
#
# number of rings (size 3 to 8) (size 9 to 14) (size 15 to 20)
#    0.000    2.818    0.000    3.273    0.000    5.455 
#    0.000    4.545    0.000    1.636    0.000    3.818 
#    0.000    0.000    0.000    0.000    0.000    0.000 
#
# Total GULP energy -545445.767582 kJ/mol
# GULP energy per Si atom -12396.494718 kJ/mol
# Density = 1.858301 g / cm^3
# Si number density = 18.625402 Si / 1000 Ang^3
#
#
#
# Elastic Constant Matrix: (Units=GPa)
#
#
# Indices 1 2 3 4 5 6 
#
# 1 171.5002 25.4043 96.5350 0.0000 0.0000 0.0000
# 2 25.4043 18.7299 27.2965 0.0000 0.0000 0.0000
# 3 96.5350 27.2965 131.1028 0.0000 0.0000 0.0000
# 4 0.0000 0.0000 0.0000 21.0031 0.0000 0.0000
# 5 0.0000 0.0000 0.0000 0.0000 -13.0293 0.0000
# 6 0.0000 0.0000 0.0000 0.0000 0.0000 25.3747
#
#
#
# Elastic Compliance Matrix: (Units=1/GPa)
#
#
# Indices 1 2 3 4 5 6 
#
# 1 0.010177 -0.004138 -0.006632 0.000000 0.000000 0.000000
# 2 -0.004138 0.078331 -0.013262 0.000000 0.000000 0.000000
# 3 -0.006632 -0.013262 0.015272 0.000000 0.000000 0.000000
# 4 0.000000 0.000000 0.000000 0.047612 0.000000 0.000000
# 5 0.000000 0.000000 0.000000 0.000000 -0.076750 0.000000
# 6 0.000000 0.000000 0.000000 0.000000 0.000000 0.039409
#
#
# Mechanical properties :
#
#
# Convention : Reuss Voigt Hill
#
# Bulk Modulus (GPa) = 17.94814 68.86716 43.40765
# Shear Modulus (GPa) = 27.67198 18.14285 22.90741
#
# Velocity S-wave (km/s) = 3.85867 3.12443 3.51080
# Velocity P-wave (km/s) = 5.43229 7.07610 6.30797
#
# Compressibility (1/GPa) = 0.05571607
#
# Stress axis : x y z
#
# Youngs Moduli (GPa) = 98.26150 12.76626 65.47845
#
# Poissons Ratio (x) = 0.05283 0.43425
# Poissons Ratio (y) = 0.40662 0.86838
# Poissons Ratio (z) = 0.65167 0.16931
#
# Static dielectric constant tensor:
#      x y z
#    x 3.824600 0.000000 0.000000 
#    y 0.000000 2.949100 0.000000 
#    z 0.000000 0.000000 3.623490 
# 
# 
# High freq. dielectric constant tensor:
#      x y z
#    x 1.741630 0.000000 0.000000 
#    y 0.000000 1.673100 0.000000 
#    z 0.000000 0.000000 1.725890 
# 
# From -- ./inp_files/13611.got.cif
#   From: 2010.03.12/outbox.cif.g09.slc.cpg/sg47_7_cif.got.tgz:13611.got - 2010.04.14 03:12:58.
