data_PCOD8196689
_publ_section_title
;
Structure prediction by ZEFSAII (Michael W. Deem and Ramdas Pophale) SiO2 
 PCOD8196689
Probable space group: P M M M
;
_chemical_formula_sum "Si O2"
_cell_formula_units_Z 56
_cell_length_a 8.447465
_cell_length_b 23.778027
_cell_length_c 23.273868
_cell_angle_alpha 90.000000
_cell_angle_beta 90.000000
_cell_angle_gamma 90.000000
_cell_volume 4674.883405
_symmetry_space_group_name_H-M "P M M M"
_symmetry_group_IT_number 47
_symmetry_cell_setting 'orthorhombic'
loop_
_space_group_symop_operation_xyz
x,y,z
-x,-y,z
x,-y,-z
-x,y,-z
-x,-y,-z
x,y,-z
-x,y,z
x,-y,z
loop_
_atom_site_type_symbol
_atom_site_label
_atom_site_fract_x
_atom_site_fract_y
_atom_site_fract_z
Si Si1 0.824489 0.673749 0.931916
Si Si2 0.000000 0.066726 0.434294
Si Si3 0.188989 0.000000 0.934931
Si Si4 0.682591 0.936695 0.242333
Si Si5 0.184238 0.891821 0.131492
Si Si6 0.321041 0.560869 0.931691
Si Si7 0.321372 0.933122 0.372263
Si Si8 0.316156 0.211232 0.935766
O O1 0.770370 0.614147 0.904459
O O2 0.717024 0.726011 0.911815
O O3 0.000000 0.686457 0.909957
O O4 0.815796 0.667886 0.000000
O O5 0.832986 0.090068 0.407254
O O6 0.000000 0.086267 0.500000
O O7 0.000000 0.000000 0.427750
O O8 0.258208 0.944789 0.903092
O O9 0.000000 0.000000 0.933268
O O10 0.252444 0.000000 0.000000
O O11 0.500000 0.936475 0.224942
O O12 0.775709 0.896308 0.198871
O O13 0.705509 0.913432 0.306746
O O14 0.751695 0.000000 0.237655
O O15 0.246045 0.833223 0.107949
O O16 0.000000 0.892380 0.122074
O O17 0.500000 0.564991 0.909859
O O18 0.249068 0.500000 0.912003
O O19 0.315045 0.564065 0.000000
O O20 0.500000 0.912300 0.393143
O O21 0.324561 0.000000 0.375626
O O22 0.500000 0.201210 0.939186
O O23 0.241709 0.203940 0.000000
#
# Coordination Sequence:
#
# PCOD8196689 Si02
#       8
#     8   4   4   8   8   8   8   8
#     4   9  16  25  37  51  65  82 103 127 154 186
#     4   9  16  24  36  56  76  96 116 134 152 184
#     4   9  18  30  39  51  69  81  93 122 169 216
#     4   9  17  29  42  54  70  86 106 134 164 198
#     4  11  20  29  42  57  67  81 103 133 170 208
#     4   8  13  21  33  49  68  87 104 121 143 175
#     4   8  15  26  38  53  72  95 114 135 161 187
#     4  10  20  32  42  50  63  84 107 131 164 208
#
# _framework density 11.978908000000001
#
# number of rings (size 3 to 8) (size 9 to 14) (size 15 to 20)
#    0.000    2.857    0.714    3.000    1.000    3.714 
#    0.000    2.857    0.000    1.714    0.000    0.000 
#    0.000    0.000    0.000    0.000    0.000    0.000 
#
# Total GULP energy -693818.609487 kJ/mol
# GULP energy per Si atom -12389.618027 kJ/mol
# Density = 1.195164 g / cm^3
# Si number density = 11.978908 Si / 1000 Ang^3
#
#
#
# Elastic Constant Matrix: (Units=GPa)
#
#
# Indices 1 2 3 4 5 6 
#
# 1 58.6643 22.0681 27.7270 0.0000 0.0000 0.0000
# 2 22.0681 62.9336 26.0397 0.0000 0.0000 0.0000
# 3 27.7270 26.0397 46.2489 0.0000 0.0000 0.0000
# 4 0.0000 0.0000 0.0000 2.4213 0.0000 0.0000
# 5 0.0000 0.0000 0.0000 0.0000 14.8438 0.0000
# 6 0.0000 0.0000 0.0000 0.0000 0.0000 16.0862
#
#
#
# Elastic Compliance Matrix: (Units=1/GPa)
#
#
# Indices 1 2 3 4 5 6 
#
# 1 0.024285 -0.003248 -0.012730 0.000000 0.000000 0.000000
# 2 -0.003248 0.021150 -0.009961 0.000000 0.000000 0.000000
# 3 -0.012730 -0.009961 0.034862 0.000000 0.000000 0.000000
# 4 0.000000 0.000000 0.000000 0.412997 0.000000 0.000000
# 5 0.000000 0.000000 0.000000 0.000000 0.067368 0.000000
# 6 0.000000 0.000000 0.000000 0.000000 0.000000 0.062165
#
#
# Mechanical properties :
#
#
# Convention : Reuss Voigt Hill
#
# Bulk Modulus (GPa) = 35.18817 35.50181 35.34499
# Shear Modulus (GPa) = 7.30803 12.80441 10.05622
#
# Velocity S-wave (km/s) = 2.47265 3.27297 2.90055
# Velocity P-wave (km/s) = 6.13114 6.63207 6.38652
#
# Compressibility (1/GPa) = 0.02841864
#
# Stress axis : x y z
#
# Youngs Moduli (GPa) = 41.17791 47.28076 28.68421
#
# Poissons Ratio (x) = 0.15358 0.36516
# Poissons Ratio (y) = 0.13376 0.28572
# Poissons Ratio (z) = 0.52421 0.47096
#
# Static dielectric constant tensor:
#      x y z
#    x 2.638230 0.000000 0.000000 
#    y 0.000000 2.488880 0.000000 
#    z 0.000000 0.000000 2.242950 
# 
# 
# High freq. dielectric constant tensor:
#      x y z
#    x 1.465560 0.000000 0.000000 
#    y 0.000000 1.424560 0.000000 
#    z 0.000000 0.000000 1.406220 
# 
# From -- ./inp_files/30099.got.cif
#   From: 2010.03.12/outbox.cif.g09.slc.cpg/sg47_16_cif.got.tgz:30099.got - 2010.04.14 03:12:58.
