data_PCOD8196669
_publ_section_title
;
Structure prediction by ZEFSAII (Michael W. Deem and Ramdas Pophale) SiO2 
 PCOD8196669
Probable space group: P M M M
;
_chemical_formula_sum "Si O2"
_cell_formula_units_Z 52
_cell_length_a 14.069843
_cell_length_b 23.387236
_cell_length_c 9.484543
_cell_angle_alpha 90.000000
_cell_angle_beta 90.000000
_cell_angle_gamma 90.000000
_cell_volume 3120.933819
_symmetry_space_group_name_H-M "P M M M"
_symmetry_group_IT_number 47
_symmetry_cell_setting 'orthorhombic'
loop_
_space_group_symop_operation_xyz
x,y,z
-x,-y,z
x,-y,-z
-x,y,-z
-x,-y,-z
x,y,-z
-x,y,z
x,-y,z
loop_
_atom_site_type_symbol
_atom_site_label
_atom_site_fract_x
_atom_site_fract_y
_atom_site_fract_z
Si Si1 0.240789 0.816436 0.662053
Si Si2 0.826843 0.063586 0.658512
Si Si3 0.392093 0.759218 0.842284
Si Si4 0.110951 0.264922 0.833992
Si Si5 0.000000 0.067151 0.153765
Si Si6 0.606989 0.433191 0.337049
Si Si7 0.728819 0.351216 0.157408
O O1 0.232456 0.796249 0.500000
O O2 0.249053 0.885650 0.671034
O O3 0.339458 0.797637 0.728474
O O4 0.151737 0.789131 0.747116
O O5 0.867943 0.060498 0.500000
O O6 0.908292 0.085872 0.761259
O O7 0.787000 0.000000 0.700407
O O8 0.500000 0.757653 0.794063
O O9 0.353751 0.695345 0.839260
O O10 0.379573 0.784857 0.000000
O O11 0.171435 0.321917 0.792484
O O12 0.000000 0.274319 0.797012
O O13 0.125843 0.252189 0.000000
O O14 0.000000 0.000000 0.135474
O O15 0.000000 0.097239 0.000000
O O16 0.615532 0.416480 0.500000
O O17 0.500000 0.416837 0.283416
O O18 0.623574 0.500000 0.313952
O O19 0.693248 0.401951 0.257078
O O20 0.741942 0.376047 0.000000
#
# Coordination Sequence:
#
# PCOD8196669 Si02
#       7
#     8   8   8   8   4   8   8
#     4  10  20  31  47  72  95 118 155 197 234 279
#     4   9  18  32  46  61  89 125 153 184 233 285
#     4   9  18  33  51  70  95 125 154 189 237 287
#     4   9  19  35  51  67  93 129 160 192 238 284
#     4   9  17  27  41  63  85 109 147 187 220 263
#     4   9  18  31  46  68 100 133 159 186 228 279
#     4   9  17  30  49  72  94 119 157 195 229 273
#
# _framework density 16.661681000000002
#
# number of rings (size 3 to 8) (size 9 to 14) (size 15 to 20)
#    0.000    2.846    0.000    2.538    1.077    6.462 
#    0.000    0.769    0.000    0.923    0.000    6.462 
#    0.000    0.000    0.000    0.000    0.000    0.000 
#
# Total GULP energy -644332.303149 kJ/mol
# GULP energy per Si atom -12391.005830 kJ/mol
# Density = 1.662376 g / cm^3
# Si number density = 16.661681 Si / 1000 Ang^3
#
#
#
# Elastic Constant Matrix: (Units=GPa)
#
#
# Indices 1 2 3 4 5 6 
#
# 1 115.8365 41.9111 39.5652 0.0000 0.0000 0.0000
# 2 41.9111 72.9885 38.1811 0.0000 0.0000 0.0000
# 3 39.5652 38.1811 74.6750 0.0000 0.0000 0.0000
# 4 0.0000 0.0000 0.0000 20.4920 0.0000 0.0000
# 5 0.0000 0.0000 0.0000 0.0000 26.6175 0.0000
# 6 0.0000 0.0000 0.0000 0.0000 0.0000 18.2895
#
#
#
# Elastic Compliance Matrix: (Units=1/GPa)
#
#
# Indices 1 2 3 4 5 6 
#
# 1 0.011617 -0.004711 -0.003746 0.000000 0.000000 0.000000
# 2 -0.004711 0.020614 -0.008044 0.000000 0.000000 0.000000
# 3 -0.003746 -0.008044 0.019489 0.000000 0.000000 0.000000
# 4 0.000000 0.000000 0.000000 0.048800 0.000000 0.000000
# 5 0.000000 0.000000 0.000000 0.000000 0.037569 0.000000
# 6 0.000000 0.000000 0.000000 0.000000 0.000000 0.054676
#
#
# Mechanical properties :
#
#
# Convention : Reuss Voigt Hill
#
# Bulk Modulus (GPa) = 53.42540 55.86831 54.64686
# Shear Modulus (GPa) = 21.55123 22.66933 22.11028
#
# Velocity S-wave (km/s) = 3.60037 3.69259 3.64677
# Velocity P-wave (km/s) = 7.02980 7.19612 7.11344
#
# Compressibility (1/GPa) = 0.01871769
#
# Stress axis : x y z
#
# Youngs Moduli (GPa) = 86.08146 48.51174 51.31092
#
# Poissons Ratio (x) = 0.22853 0.19223
# Poissons Ratio (y) = 0.40551 0.41273
# Poissons Ratio (z) = 0.32249 0.39021
#
# Static dielectric constant tensor:
#      x y z
#    x 3.023610 0.000000 0.000000 
#    y 0.000000 2.993010 0.000000 
#    z 0.000000 0.000000 3.311480 
# 
# 
# High freq. dielectric constant tensor:
#      x y z
#    x 1.621810 0.000000 0.000000 
#    y 0.000000 1.629170 0.000000 
#    z 0.000000 0.000000 1.647990 
# 
# From -- ./inp_files/7594.got.cif
#   From: 2010.03.12/outbox.cif.g09.slc.cpg/sg47_4_cif.got.tgz:7594.got - 2010.04.14 03:12:58.
