data_PCOD8196069
_publ_section_title
;
Structure prediction by ZEFSAII (Michael W. Deem and Ramdas Pophale) SiO2 
 PCOD8196069
Probable space group: P M M M
;
_chemical_formula_sum "Si O2"
_cell_formula_units_Z 52
_cell_length_a 19.430550
_cell_length_b 15.630215
_cell_length_c 8.988358
_cell_angle_alpha 90.000000
_cell_angle_beta 90.000000
_cell_angle_gamma 90.000000
_cell_volume 2729.797348
_symmetry_space_group_name_H-M "P M M M"
_symmetry_group_IT_number 47
_symmetry_cell_setting 'orthorhombic'
loop_
_space_group_symop_operation_xyz
x,y,z
-x,-y,z
x,-y,-z
-x,y,-z
-x,-y,-z
x,y,-z
-x,y,z
x,-y,z
loop_
_atom_site_type_symbol
_atom_site_label
_atom_site_fract_x
_atom_site_fract_y
_atom_site_fract_z
Si Si1 0.668181 0.404205 0.176446
Si Si2 0.422870 0.751403 0.177306
Si Si3 0.075961 0.399309 0.664367
Si Si4 0.189393 0.865507 0.324107
Si Si5 0.077785 0.000000 0.323903
Si Si6 0.192418 0.314596 0.827146
Si Si7 0.328402 0.905557 0.171065
O O1 0.656058 0.500000 0.242801
O O2 0.610457 0.337697 0.234743
O O3 0.741988 0.368739 0.228106
O O4 0.665551 0.409526 0.000000
O O5 0.500000 0.757321 0.242115
O O6 0.379486 0.833009 0.236602
O O7 0.424235 0.753086 0.000000
O O8 0.101839 0.369211 0.500000
O O9 0.071932 0.500000 0.668471
O O10 0.125112 0.370061 0.796809
O O11 0.000000 0.360819 0.693453
O O12 0.195716 0.868293 0.500000
O O13 0.120961 0.916578 0.271422
O O14 0.184504 0.769694 0.268612
O O15 0.257326 0.908871 0.258932
O O16 0.071240 0.000000 0.500000
O O17 0.000000 0.000000 0.254723
O O18 0.198935 0.291179 0.000000
O O19 0.362928 0.000000 0.185018
O O20 0.311824 0.883223 0.000000
#
# Coordination Sequence:
#
# PCOD8196069 Si02
#       7
#     8   8   8   8   4   8   8
#     4   9  17  29  47  74 108 144 180 224 276 324
#     4   9  17  30  49  77 112 146 181 222 270 328
#     4   9  19  36  55  76 106 143 182 225 273 326
#     4  11  21  35  57  81 104 140 184 222 269 331
#     4   9  20  38  57  79 106 135 174 224 271 323
#     4  11  21  34  53  79 111 142 181 230 280 330
#     4  10  19  33  55  81 111 143 175 220 277 330
#
# _framework density 19.049032
#
# number of rings (size 3 to 8) (size 9 to 14) (size 15 to 20)
#    0.000    2.231    2.308    1.846    0.000    2.462 
#    0.000    5.385    0.000    3.692    0.000    1.077 
#    0.000    1.231    0.000    0.000    0.000    0.000 
#
# Total GULP energy -644577.043171 kJ/mol
# GULP energy per Si atom -12395.712369 kJ/mol
# Density = 1.900568 g / cm^3
# Si number density = 19.049032 Si / 1000 Ang^3
#
#
#
# Elastic Constant Matrix: (Units=GPa)
#
#
# Indices 1 2 3 4 5 6 
#
# 1 155.6425 81.1558 27.7797 0.0000 0.0000 0.0000
# 2 81.1558 144.2293 22.1840 0.0000 0.0000 0.0000
# 3 27.7797 22.1840 34.9754 0.0000 0.0000 0.0000
# 4 0.0000 0.0000 0.0000 22.3793 0.0000 0.0000
# 5 0.0000 0.0000 0.0000 0.0000 10.7863 0.0000
# 6 0.0000 0.0000 0.0000 0.0000 0.0000 33.0189
#
#
#
# Elastic Compliance Matrix: (Units=1/GPa)
#
#
# Indices 1 2 3 4 5 6 
#
# 1 0.009750 -0.004759 -0.004725 0.000000 0.000000 0.000000
# 2 -0.004759 0.010006 -0.002566 0.000000 0.000000 0.000000
# 3 -0.004725 -0.002566 0.033973 0.000000 0.000000 0.000000
# 4 0.000000 0.000000 0.000000 0.044684 0.000000 0.000000
# 5 0.000000 0.000000 0.000000 0.000000 0.092710 0.000000
# 6 0.000000 0.000000 0.000000 0.000000 0.000000 0.030286
#
#
# Mechanical properties :
#
#
# Convention : Reuss Voigt Hill
#
# Bulk Modulus (GPa) = 33.75370 66.34292 50.04831
# Shear Modulus (GPa) = 19.57817 26.81874 23.19845
#
# Velocity S-wave (km/s) = 3.20938 3.75624 3.49353
# Velocity P-wave (km/s) = 5.61171 7.32909 6.52713
#
# Compressibility (1/GPa) = 0.02962638
#
# Stress axis : x y z
#
# Youngs Moduli (GPa) = 102.56355 99.93801 29.43552
#
# Poissons Ratio (x) = 0.47565 0.13909
# Poissons Ratio (y) = 0.48814 0.07555
# Poissons Ratio (z) = 0.48465 0.25649
#
# Static dielectric constant tensor:
#      x y z
#    x 3.816630 0.000000 0.000000 
#    y 0.000000 3.756790 0.000000 
#    z 0.000000 0.000000 3.164510 
# 
# 
# High freq. dielectric constant tensor:
#      x y z
#    x 1.741550 0.000000 0.000000 
#    y 0.000000 1.754850 0.000000 
#    z 0.000000 0.000000 1.695220 
# 
# From -- ./inp_files/11036.got.cif
#   From: 2010.03.12/outbox.cif.g09.slc.cpg/sg47_6_cif.got.tgz:11036.got - 2010.04.14 03:12:58.
