data_PCOD8196143
_publ_section_title
;
Structure prediction by ZEFSAII (Michael W. Deem and Ramdas Pophale) SiO2 
 PCOD8196143
Probable space group: P M M M
;
_chemical_formula_sum "Si O2"
_cell_formula_units_Z 52
_cell_length_a 10.394211
_cell_length_b 13.836393
_cell_length_c 20.796164
_cell_angle_alpha 90.000000
_cell_angle_beta 90.000000
_cell_angle_gamma 90.000000
_cell_volume 2990.870790
_symmetry_space_group_name_H-M "P M M M"
_symmetry_group_IT_number 47
_symmetry_cell_setting 'orthorhombic'
loop_
_space_group_symop_operation_xyz
x,y,z
-x,-y,z
x,-y,-z
-x,y,-z
-x,-y,-z
x,y,-z
-x,y,z
x,-y,z
loop_
_atom_site_type_symbol
_atom_site_label
_atom_site_fract_x
_atom_site_fract_y
_atom_site_fract_z
Si Si1 0.500000 0.893923 0.179201
Si Si2 0.855805 0.792388 0.661482
Si Si3 0.775419 0.111079 0.788992
Si Si4 0.234737 0.297226 0.863476
Si Si5 0.147670 0.390738 0.260815
Si Si6 0.500000 0.736138 0.923206
Si Si7 0.000000 0.394582 0.074196
Si Si8 0.645845 0.889356 0.575472
O O1 0.622780 0.875993 0.224940
O O2 0.500000 0.838191 0.112162
O O3 0.500000 0.000000 0.150927
O O4 0.850738 0.858406 0.725316
O O5 0.829979 0.680074 0.678719
O O6 0.749335 0.822100 0.610134
O O7 0.000000 0.804850 0.632717
O O8 0.802297 0.184764 0.848058
O O9 0.811344 0.000000 0.807542
O O10 0.239399 0.358064 0.797320
O O11 0.370359 0.316779 0.899065
O O12 0.126218 0.334881 0.910139
O O13 0.180507 0.500000 0.282362
O O14 0.000000 0.381461 0.236505
O O15 0.500000 0.747289 0.000000
O O16 0.000000 0.500000 0.109640
O O17 0.000000 0.414254 0.000000
O O18 0.666774 0.877149 0.500000
O O19 0.500000 0.858919 0.594075
O O20 0.669943 0.000000 0.596288
#
# Coordination Sequence:
#
# PCOD8196143 Si02
#       8
#     4   8   8   8   8   4   4   8
#     4   8  16  31  48  69  92 130 175 201 233 292
#     4  10  20  31  49  80 107 130 167 211 254 295
#     4   9  18  30  48  74 105 133 162 201 248 299
#     4  10  19  34  53  73  98 130 164 202 252 304
#     4   9  17  33  56  76  98 130 167 209 254 302
#     4  10  20  33  49  70 100 128 155 205 258 298
#     4  11  22  36  55  73  89 121 171 212 244 300
#     4   9  19  35  53  74 105 146 181 204 234 285
#
# _framework density 17.386240999999998
#
# number of rings (size 3 to 8) (size 9 to 14) (size 15 to 20)
#    0.000    2.538    0.769    1.846    2.154    1.692 
#    1.385    2.308    0.000    5.077    0.000    3.231 
#    0.000    0.000    0.000    0.000    0.000    0.000 
#
# Total GULP energy -644451.818143 kJ/mol
# GULP energy per Si atom -12393.304195 kJ/mol
# Density = 1.734667 g / cm^3
# Si number density = 17.386241 Si / 1000 Ang^3
#
#
#
# Elastic Constant Matrix: (Units=GPa)
#
#
# Indices 1 2 3 4 5 6 
#
# 1 125.8968 53.7820 47.0118 0.0000 0.0000 0.0000
# 2 53.7820 126.1243 31.8299 0.0000 0.0000 0.0000
# 3 47.0118 31.8299 55.2494 0.0000 0.0000 0.0000
# 4 0.0000 0.0000 0.0000 20.2534 0.0000 0.0000
# 5 0.0000 0.0000 0.0000 0.0000 32.8847 0.0000
# 6 0.0000 0.0000 0.0000 0.0000 0.0000 75.6132
#
#
#
# Elastic Compliance Matrix: (Units=1/GPa)
#
#
# Indices 1 2 3 4 5 6 
#
# 1 0.012613 -0.003124 -0.008933 0.000000 0.000000 0.000000
# 2 -0.003124 0.010051 -0.003132 0.000000 0.000000 0.000000
# 3 -0.008933 -0.003132 0.027505 0.000000 0.000000 0.000000
# 4 0.000000 0.000000 0.000000 0.049374 0.000000 0.000000
# 5 0.000000 0.000000 0.000000 0.000000 0.030409 0.000000
# 6 0.000000 0.000000 0.000000 0.000000 0.000000 0.013225
#
#
# Mechanical properties :
#
#
# Convention : Reuss Voigt Hill
#
# Bulk Modulus (GPa) = 50.52733 63.61310 57.07021
# Shear Modulus (GPa) = 27.75396 37.39339 32.57367
#
# Velocity S-wave (km/s) = 3.99973 4.64264 4.33313
# Velocity P-wave (km/s) = 7.10318 8.08743 7.61123
#
# Compressibility (1/GPa) = 0.01979127
#
# Stress axis : x y z
#
# Youngs Moduli (GPa) = 79.28158 99.48837 36.35675
#
# Poissons Ratio (x) = 0.31082 0.32477
# Poissons Ratio (y) = 0.24769 0.11388
# Poissons Ratio (z) = 0.70820 0.31163
#
# Static dielectric constant tensor:
#      x y z
#    x 3.403880 0.000000 0.000000 
#    y 0.000000 3.366520 0.000000 
#    z 0.000000 0.000000 2.923660 
# 
# 
# High freq. dielectric constant tensor:
#      x y z
#    x 1.678290 0.000000 0.000000 
#    y 0.000000 1.670100 0.000000 
#    z 0.000000 0.000000 1.644410 
# 
# From -- ./inp_files/32027.got.cif
#   From: 2010.03.12/outbox.cif.g09.slc.cpg/sg47_17_cif.got.tgz:32027.got - 2010.04.14 03:12:58.
