data_PCOD8196235
_publ_section_title
;
Structure prediction by ZEFSAII (Michael W. Deem and Ramdas Pophale) SiO2 
 PCOD8196235
Probable space group: P M M M
;
_chemical_formula_sum "Si O2"
_cell_formula_units_Z 56
_cell_length_a 20.318369
_cell_length_b 9.129355
_cell_length_c 15.290920
_cell_angle_alpha 90.000000
_cell_angle_beta 90.000000
_cell_angle_gamma 90.000000
_cell_volume 2836.367853
_symmetry_space_group_name_H-M "P M M M"
_symmetry_group_IT_number 47
_symmetry_cell_setting 'orthorhombic'
loop_
_space_group_symop_operation_xyz
x,y,z
-x,-y,z
x,-y,-z
-x,y,-z
-x,-y,-z
x,y,-z
-x,y,z
x,-y,z
loop_
_atom_site_type_symbol
_atom_site_label
_atom_site_fract_x
_atom_site_fract_y
_atom_site_fract_z
Si Si1 0.925882 0.329023 0.720148
Si Si2 0.821104 0.831961 0.400650
Si Si3 0.118366 0.326193 0.094772
Si Si4 0.736820 0.333534 0.864930
Si Si5 0.610653 0.171005 0.093416
Si Si6 0.426983 0.172003 0.718185
Si Si7 0.700062 0.332165 0.333906
O O1 0.906141 0.500000 0.715352
O O2 0.875767 0.241574 0.660041
O O3 0.922955 0.271901 0.821138
O O4 0.000000 0.303231 0.686034
O O5 0.846428 0.820942 0.500000
O O6 0.750231 0.752652 0.396772
O O7 0.812179 0.000000 0.371324
O O8 0.116474 0.500000 0.093957
O O9 0.192973 0.271134 0.106004
O O10 0.091233 0.268130 0.000000
O O11 0.727374 0.500000 0.895294
O O12 0.682623 0.238842 0.912939
O O13 0.731527 0.319239 0.761154
O O14 0.572634 0.226661 0.179884
O O15 0.619804 0.000000 0.103059
O O16 0.574523 0.207895 0.000000
O O17 0.500000 0.205915 0.680839
O O18 0.372585 0.259292 0.662697
O O19 0.411080 0.000000 0.711612
O O20 0.692973 0.500000 0.364578
#
# Coordination Sequence:
#
# PCOD8196235 Si02
#       7
#     8   8   8   8   8   8   8
#     4  10  21  38  59  85 119 155 192 235 282 331
#     4  11  24  41  63  89 115 145 183 229 285 350
#     4   9  16  28  49  78 112 149 190 233 276 325
#     4   9  16  28  47  70 100 139 181 228 281 330
#     4   9  17  27  40  64  99 138 185 237 281 324
#     4   9  18  32  50  74 108 151 192 229 277 336
#     4  10  19  34  58  84 111 142 182 233 282 332
#
# _framework density 19.743561
#
# number of rings (size 3 to 8) (size 9 to 14) (size 15 to 20)
#    0.000    2.429    1.429    1.286    0.000    4.000 
#    0.000    4.286    0.000    0.857    0.000    8.000 
#    0.000    0.000    0.000    0.000    0.000    0.000 
#
# Total GULP energy -693975.166707 kJ/mol
# GULP energy per Si atom -12392.413691 kJ/mol
# Density = 1.969862 g / cm^3
# Si number density = 19.743561 Si / 1000 Ang^3
#
#
#
# Elastic Constant Matrix: (Units=GPa)
#
#
# Indices 1 2 3 4 5 6 
#
# 1 109.3650 42.2803 41.9195 0.0000 0.0000 0.0000
# 2 42.2803 52.2457 37.6388 0.0000 0.0000 0.0000
# 3 41.9195 37.6388 78.8618 0.0000 0.0000 0.0000
# 4 0.0000 0.0000 0.0000 19.4890 0.0000 0.0000
# 5 0.0000 0.0000 0.0000 0.0000 0.4577 0.0000
# 6 0.0000 0.0000 0.0000 0.0000 0.0000 26.4510
#
#
#
# Elastic Compliance Matrix: (Units=1/GPa)
#
#
# Indices 1 2 3 4 5 6 
#
# 1 0.013772 -0.008948 -0.003050 0.000000 0.000000 0.000000
# 2 -0.008948 0.034984 -0.011941 0.000000 0.000000 0.000000
# 3 -0.003050 -0.011941 0.020001 0.000000 0.000000 0.000000
# 4 0.000000 0.000000 0.000000 0.051311 0.000000 0.000000
# 5 0.000000 0.000000 0.000000 0.000000 2.184754 0.000000
# 6 0.000000 0.000000 0.000000 0.000000 0.000000 0.037806
#
#
# Mechanical properties :
#
#
# Convention : Reuss Voigt Hill
#
# Bulk Modulus (GPa) = 47.89400 53.79443 50.84421
# Shear Modulus (GPa) = 2.08554 17.18845 9.63699
#
# Velocity S-wave (km/s) = 1.02889 2.95377 2.21171
# Velocity P-wave (km/s) = 5.07170 6.24009 5.68599
#
# Compressibility (1/GPa) = 0.02087944
#
# Stress axis : x y z
#
# Youngs Moduli (GPa) = 72.61124 28.58471 49.99838
#
# Poissons Ratio (x) = 0.25577 0.15250
# Poissons Ratio (y) = 0.64971 0.59701
# Poissons Ratio (z) = 0.22147 0.34132
#
# Static dielectric constant tensor:
#      x y z
#    x 3.563820 0.000000 0.000000 
#    y 0.000000 3.413990 0.000000 
#    z 0.000000 0.000000 3.729430 
# 
# 
# High freq. dielectric constant tensor:
#      x y z
#    x 1.764890 0.000000 0.000000 
#    y 0.000000 1.742950 0.000000 
#    z 0.000000 0.000000 1.762840 
# 
# From -- ./inp_files/7257.got.cif
#   From: 2010.03.12/outbox.cif.g09.slc.cpg/sg47_4_cif.got.tgz:7257.got - 2010.04.14 03:12:58.
