data_PCOD8196321
_publ_section_title
;
Structure prediction by ZEFSAII (Michael W. Deem and Ramdas Pophale) SiO2 
 PCOD8196321
Probable space group: P M M M
;
_chemical_formula_sum "Si O2"
_cell_formula_units_Z 48
_cell_length_a 8.984662
_cell_length_b 9.803383
_cell_length_c 28.913458
_cell_angle_alpha 90.000000
_cell_angle_beta 90.000000
_cell_angle_gamma 90.000000
_cell_volume 2546.699772
_symmetry_space_group_name_H-M "P M M M"
_symmetry_group_IT_number 47
_symmetry_cell_setting 'orthorhombic'
loop_
_space_group_symop_operation_xyz
x,y,z
-x,-y,z
x,-y,-z
-x,y,-z
-x,-y,-z
x,y,-z
-x,y,z
x,-y,z
loop_
_atom_site_type_symbol
_atom_site_label
_atom_site_fract_x
_atom_site_fract_y
_atom_site_fract_z
Si Si1 0.171780 0.845043 0.054064
Si Si2 0.668854 0.843426 0.296622
Si Si3 0.676181 0.000000 0.448783
Si Si4 0.174963 0.500000 0.447879
Si Si5 0.174753 0.156794 0.796931
Si Si6 0.674003 0.738109 0.604954
Si Si7 0.676158 0.341564 0.126492
O O1 0.270670 0.733458 0.079982
O O2 0.000000 0.822996 0.067761
O O3 0.218770 0.000000 0.067633
O O4 0.196393 0.821446 0.000000
O O5 0.500000 0.817536 0.279746
O O6 0.779695 0.805643 0.255248
O O7 0.706858 0.748332 0.340312
O O8 0.687767 0.000000 0.312330
O O9 0.732102 0.128204 0.420383
O O10 0.500000 0.000000 0.452250
O O11 0.747299 0.000000 0.500000
O O12 0.243676 0.500000 0.500000
O O13 0.227144 0.625418 0.418021
O O14 0.000000 0.500000 0.451719
O O15 0.255811 0.262429 0.830184
O O16 0.000000 0.176057 0.802755
O O17 0.221431 0.000000 0.808323
O O18 0.500000 0.709619 0.596265
O O19 0.500000 0.332377 0.129442
O O20 0.728305 0.500000 0.126245
#
# Coordination Sequence:
#
# PCOD8196321 Si02
#       7
#     8   8   4   4   8   8   8
#     4   9  19  37  61  88 117 151 193 238 283 336
#     4   9  17  33  58  87 115 139 173 224 281 335
#     4   9  16  28  53  87 113 133 171 227 274 319
#     4  11  25  41  53  73 111 153 189 225 268 323
#     4  10  21  37  59  85 111 144 187 230 277 336
#     4  10  19  35  59  85 109 140 181 225 274 329
#     4  11  24  39  55  81 117 154 193 238 286 332
#
# _framework density 18.847923000000002
#
# number of rings (size 3 to 8) (size 9 to 14) (size 15 to 20)
#    0.000    2.167    0.833    2.750    0.000    7.333 
#    1.500    2.917    0.000    1.500    0.000    0.000 
#    0.000    0.000    0.000    0.000    0.000    0.000 
#
# Total GULP energy -595140.051674 kJ/mol
# GULP energy per Si atom -12398.751077 kJ/mol
# Density = 1.880502 g / cm^3
# Si number density = 18.847923 Si / 1000 Ang^3
#
#
#
# Elastic Constant Matrix: (Units=GPa)
#
#
# Indices 1 2 3 4 5 6 
#
# 1 68.0565 56.4040 48.4316 0.0000 0.0000 0.0000
# 2 56.4040 142.9028 72.3884 0.0000 0.0000 0.0000
# 3 48.4316 72.3884 119.5410 0.0000 0.0000 0.0000
# 4 0.0000 0.0000 0.0000 -60.0170 0.0000 0.0000
# 5 0.0000 0.0000 0.0000 0.0000 32.0788 0.0000
# 6 0.0000 0.0000 0.0000 0.0000 0.0000 24.8566
#
#
#
# Elastic Compliance Matrix: (Units=1/GPa)
#
#
# Indices 1 2 3 4 5 6 
#
# 1 0.024370 -0.006660 -0.005840 0.000000 0.000000 0.000000
# 2 -0.006660 0.011914 -0.004516 0.000000 0.000000 0.000000
# 3 -0.005840 -0.004516 0.013466 0.000000 0.000000 0.000000
# 4 0.000000 0.000000 0.000000 -0.016662 0.000000 0.000000
# 5 0.000000 0.000000 0.000000 0.000000 0.031173 0.000000
# 6 0.000000 0.000000 0.000000 0.000000 0.000000 0.040231
#
#
# Mechanical properties :
#
#
# Convention : Reuss Voigt Hill
#
# Bulk Modulus (GPa) = 63.62638 76.10534 69.86586
# Shear Modulus (GPa) = 34.77893 9.60210 22.19051
#
# Velocity S-wave (km/s) = 4.30028 2.25955 3.43497
# Velocity P-wave (km/s) = 7.64772 6.87559 7.27191
#
# Compressibility (1/GPa) = 0.01571675
#
# Stress axis : x y z
#
# Youngs Moduli (GPa) = 41.03448 83.93160 74.25941
#
# Poissons Ratio (x) = 0.55902 0.43368
# Poissons Ratio (y) = 0.27331 0.33538
# Poissons Ratio (z) = 0.23964 0.37907
#
# Static dielectric constant tensor:
#      x y z
#    x 3.310310 0.000000 0.000000 
#    y 0.000000 3.420020 0.000000 
#    z 0.000000 0.000000 3.579680 
# 
# 
# High freq. dielectric constant tensor:
#      x y z
#    x 1.718380 0.000000 0.000000 
#    y 0.000000 1.727620 0.000000 
#    z 0.000000 0.000000 1.747110 
# 
# From -- ./inp_files/34165.got.cif
#   From: 2010.03.12/outbox.cif.g09.slc.cpg/sg47_18_cif.got.tgz:34165.got - 2010.04.14 03:12:58.
