data_PCOD8196864
_publ_section_title
;
Structure prediction by ZEFSAII (Michael W. Deem and Ramdas Pophale) SiO2 
 PCOD8196864
Probable space group: P M M M
;
_chemical_formula_sum "Si O2"
_cell_formula_units_Z 52
_cell_length_a 8.824063
_cell_length_b 28.027530
_cell_length_c 11.551859
_cell_angle_alpha 90.000000
_cell_angle_beta 90.000000
_cell_angle_gamma 90.000000
_cell_volume 2856.967536
_symmetry_space_group_name_H-M "P M M M"
_symmetry_group_IT_number 47
_symmetry_cell_setting 'orthorhombic'
loop_
_space_group_symop_operation_xyz
x,y,z
-x,-y,z
x,-y,-z
-x,y,-z
-x,-y,-z
x,y,-z
-x,y,z
x,-y,z
loop_
_atom_site_type_symbol
_atom_site_label
_atom_site_fract_x
_atom_site_fract_y
_atom_site_fract_z
Si Si1 0.822590 0.174679 0.634182
Si Si2 0.819887 0.000000 0.864663
Si Si3 0.329567 0.552234 0.362355
Si Si4 0.679490 0.849284 0.000000
Si Si5 0.168023 0.645080 0.636923
Si Si6 0.680392 0.904888 0.223349
Si Si7 0.321237 0.744509 0.000000
Si Si8 0.678415 0.732815 0.747612
O O1 0.789718 0.185126 0.500000
O O2 0.741703 0.124651 0.666480
O O3 0.757654 0.218664 0.707735
O O4 0.000000 0.170124 0.659301
O O5 0.756243 0.956188 0.790144
O O6 0.000000 0.000000 0.861831
O O7 0.763047 0.000000 0.000000
O O8 0.329806 0.554787 0.500000
O O9 0.500000 0.559079 0.315735
O O10 0.267255 0.500000 0.322900
O O11 0.227965 0.594917 0.310487
O O12 0.738288 0.876018 0.887576
O O13 0.751892 0.797014 0.000000
O O14 0.500000 0.847418 0.000000
O O15 0.164592 0.641448 0.500000
O O16 0.276648 0.688397 0.669182
O O17 0.000000 0.654377 0.686420
O O18 0.500000 0.910450 0.231748
O O19 0.271608 0.719254 0.120014
O O20 0.500000 0.749628 0.000000
O O21 0.500000 0.741715 0.737699
#
# Coordination Sequence:
#
# PCOD8196864 Si02
#       8
#     8   4   8   4   8   8   4   8
#     4  11  24  40  56  78 111 145 176 215 264 316
#     4  11  23  37  56  87 120 145 173 213 265 318
#     4   8  14  26  45  69  97 131 174 220 261 306
#     4   9  16  31  55  82 109 132 163 216 267 302
#     4  10  20  32  46  70 107 144 176 214 261 311
#     4  11  21  37  61  85 110 141 179 219 261 311
#     4   9  18  34  53  79 105 130 166 217 268 304
#     4  11  21  35  56  78 103 137 178 219 261 313
#
# _framework density 18.201115999999999
#
# number of rings (size 3 to 8) (size 9 to 14) (size 15 to 20)
#    0.000    1.923    2.308    3.000    0.000    4.615 
#    0.000    4.231    0.000    2.308    0.000    0.538 
#    0.000    4.308    0.000    0.000    0.000    0.000 
#
# Total GULP energy -644552.567855 kJ/mol
# GULP energy per Si atom -12395.241690 kJ/mol
# Density = 1.815969 g / cm^3
# Si number density = 18.201116 Si / 1000 Ang^3
#
#
#
# Elastic Constant Matrix: (Units=GPa)
#
#
# Indices 1 2 3 4 5 6 
#
# 1 82.7318 39.3638 35.2978 0.0000 0.0000 0.0000
# 2 39.3638 121.8475 22.8506 0.0000 0.0000 0.0000
# 3 35.2978 22.8506 53.6615 0.0000 0.0000 0.0000
# 4 0.0000 0.0000 0.0000 11.8374 0.0000 0.0000
# 5 0.0000 0.0000 0.0000 0.0000 17.8328 0.0000
# 6 0.0000 0.0000 0.0000 0.0000 0.0000 30.8634
#
#
#
# Elastic Compliance Matrix: (Units=1/GPa)
#
#
# Indices 1 2 3 4 5 6 
#
# 1 0.018439 -0.004002 -0.010425 0.000000 0.000000 0.000000
# 2 -0.004002 0.009788 -0.001536 0.000000 0.000000 0.000000
# 3 -0.010425 -0.001536 0.026147 0.000000 0.000000 0.000000
# 4 0.000000 0.000000 0.000000 0.084478 0.000000 0.000000
# 5 0.000000 0.000000 0.000000 0.000000 0.056077 0.000000
# 6 0.000000 0.000000 0.000000 0.000000 0.000000 0.032401
#
#
# Mechanical properties :
#
#
# Convention : Reuss Voigt Hill
#
# Bulk Modulus (GPa) = 44.54572 50.36281 47.45426
# Shear Modulus (GPa) = 18.74507 22.82195 20.78351
#
# Velocity S-wave (km/s) = 3.21266 3.54485 3.38284
# Velocity P-wave (km/s) = 6.18780 6.66970 6.43327
#
# Compressibility (1/GPa) = 0.02244885
#
# Stress axis : x y z
#
# Youngs Moduli (GPa) = 54.23229 102.16815 38.24593
#
# Poissons Ratio (x) = 0.40887 0.39871
# Poissons Ratio (y) = 0.21703 0.05873
# Poissons Ratio (z) = 0.56537 0.15688
#
# Static dielectric constant tensor:
#      x y z
#    x 3.385360 0.000000 0.000000 
#    y 0.000000 3.531840 0.000000 
#    z 0.000000 0.000000 3.284080 
# 
# 
# High freq. dielectric constant tensor:
#      x y z
#    x 1.703430 0.000000 0.000000 
#    y 0.000000 1.711560 0.000000 
#    z 0.000000 0.000000 1.674530 
# 
# From -- ./inp_files/15516.got.cif
#   From: 2010.03.12/outbox.cif.g09.slc.cpg/sg47_8_cif.got.tgz:15516.got - 2010.04.14 03:12:58.
