data_PCOD8196261
_publ_section_title
;
Structure prediction by ZEFSAII (Michael W. Deem and Ramdas Pophale) SiO2 
 PCOD8196261
Probable space group: P M M M
;
_chemical_formula_sum "Si O2"
_cell_formula_units_Z 56
_cell_length_a 15.196800
_cell_length_b 9.780309
_cell_length_c 20.258662
_cell_angle_alpha 90.000000
_cell_angle_beta 90.000000
_cell_angle_gamma 90.000000
_cell_volume 3011.032774
_symmetry_space_group_name_H-M "P M M M"
_symmetry_group_IT_number 47
_symmetry_cell_setting 'orthorhombic'
loop_
_space_group_symop_operation_xyz
x,y,z
-x,-y,z
x,-y,-z
-x,y,-z
-x,-y,-z
x,y,-z
-x,y,z
x,-y,z
loop_
_atom_site_type_symbol
_atom_site_label
_atom_site_fract_x
_atom_site_fract_y
_atom_site_fract_z
Si Si1 0.000000 0.651901 0.078085
Si Si2 0.601439 0.348692 0.245668
Si Si3 0.350045 0.350721 0.392545
Si Si4 0.500000 0.146047 0.574415
Si Si5 0.253370 0.154031 0.203321
Si Si6 0.847148 0.152371 0.074617
Si Si7 0.900590 0.158752 0.304234
Si Si8 0.152036 0.341906 0.425075
O O1 0.084608 0.735723 0.100982
O O2 0.000000 0.500000 0.109883
O O3 0.000000 0.641695 0.000000
O O4 0.500000 0.299053 0.254316
O O5 0.602711 0.500000 0.212969
O O6 0.652780 0.355819 0.314173
O O7 0.657954 0.242670 0.203898
O O8 0.381734 0.500000 0.419147
O O9 0.413533 0.230889 0.412439
O O10 0.255805 0.315141 0.421815
O O11 0.500000 0.103821 0.500000
O O12 0.500000 0.000000 0.614151
O O13 0.232078 0.159514 0.125808
O O14 0.171812 0.206480 0.249504
O O15 0.276364 0.000000 0.225362
O O16 0.889864 0.000000 0.076444
O O17 0.814294 0.185070 0.000000
O O18 0.894639 0.245523 0.371716
O O19 0.000000 0.179831 0.275677
O O20 0.885299 0.000000 0.322001
O O21 0.120387 0.307262 0.500000
O O22 0.130249 0.500000 0.408269
#
# Coordination Sequence:
#
# PCOD8196261 Si02
#       8
#     4   8   8   4   8   8   8   8
#     4   9  17  29  47  77 115 149 184 223 264 315
#     4  10  20  36  58  82 108 139 177 222 274 333
#     4  10  19  35  55  74 100 136 174 216 271 332
#     4  11  23  33  45  73 107 135 168 213 266 325
#     4  10  21  36  58  84 111 145 183 227 273 321
#     4   9  18  33  54  80 112 151 190 225 270 328
#     4  10  22  38  55  78 110 146 182 224 274 325
#     4  10  21  37  57  78 101 135 182 232 274 318
#
# _framework density 18.598271
#
# number of rings (size 3 to 8) (size 9 to 14) (size 15 to 20)
#    0.000    2.143    2.143    0.857    1.000    4.857 
#    0.000    1.429    0.000    0.429    0.000    3.000 
#    0.000    0.000    0.000    0.000    0.000    0.000 
#
# Total GULP energy -693922.021182 kJ/mol
# GULP energy per Si atom -12391.464664 kJ/mol
# Density = 1.855594 g / cm^3
# Si number density = 18.598271 Si / 1000 Ang^3
#
#
#
# Elastic Constant Matrix: (Units=GPa)
#
#
# Indices 1 2 3 4 5 6 
#
# 1 76.9084 44.2637 27.5981 0.0000 0.0000 0.0000
# 2 44.2637 100.1302 28.8306 0.0000 0.0000 0.0000
# 3 27.5981 28.8306 78.4757 0.0000 0.0000 0.0000
# 4 0.0000 0.0000 0.0000 20.2912 0.0000 0.0000
# 5 0.0000 0.0000 0.0000 0.0000 21.1358 0.0000
# 6 0.0000 0.0000 0.0000 0.0000 0.0000 33.7069
#
#
#
# Elastic Compliance Matrix: (Units=1/GPa)
#
#
# Indices 1 2 3 4 5 6 
#
# 1 0.018451 -0.007032 -0.003905 0.000000 0.000000 0.000000
# 2 -0.007032 0.013848 -0.002615 0.000000 0.000000 0.000000
# 3 -0.003905 -0.002615 0.015077 0.000000 0.000000 0.000000
# 4 0.000000 0.000000 0.000000 0.049282 0.000000 0.000000
# 5 0.000000 0.000000 0.000000 0.000000 0.047313 0.000000
# 6 0.000000 0.000000 0.000000 0.000000 0.000000 0.029667
#
#
# Mechanical properties :
#
#
# Convention : Reuss Voigt Hill
#
# Bulk Modulus (GPa) = 49.32870 50.76658 50.04764
# Shear Modulus (GPa) = 24.09630 25.34826 24.72228
#
# Velocity S-wave (km/s) = 3.60338 3.69580 3.64988
# Velocity P-wave (km/s) = 6.62520 6.75038 6.68808
#
# Compressibility (1/GPa) = 0.02027217
#
# Stress axis : x y z
#
# Youngs Moduli (GPa) = 54.19728 72.21031 66.32701
#
# Poissons Ratio (x) = 0.50779 0.25903
# Poissons Ratio (y) = 0.38112 0.17342
# Poissons Ratio (z) = 0.21166 0.18881
#
# Static dielectric constant tensor:
#      x y z
#    x 3.254680 0.000000 0.000000 
#    y 0.000000 3.761920 0.000000 
#    z 0.000000 0.000000 3.298570 
# 
# 
# High freq. dielectric constant tensor:
#      x y z
#    x 1.707800 0.000000 0.000000 
#    y 0.000000 1.728900 0.000000 
#    z 0.000000 0.000000 1.703480 
# 
# From -- ./inp_files/7377.got.cif
#   From: 2010.03.12/outbox.cif.g09.slc.cpg/sg47_4_cif.got.tgz:7377.got - 2010.04.14 03:12:58.
