data_PCOD8196180
_publ_section_title
;
Structure prediction by ZEFSAII (Michael W. Deem and Ramdas Pophale) SiO2 
 PCOD8196180
Probable space group: P M M M
;
_chemical_formula_sum "Si O2"
_cell_formula_units_Z 52
_cell_length_a 11.699229
_cell_length_b 28.172555
_cell_length_c 9.419355
_cell_angle_alpha 90.000000
_cell_angle_beta 90.000000
_cell_angle_gamma 90.000000
_cell_volume 3104.592774
_symmetry_space_group_name_H-M "P M M M"
_symmetry_group_IT_number 47
_symmetry_cell_setting 'orthorhombic'
loop_
_space_group_symop_operation_xyz
x,y,z
-x,-y,z
x,-y,-z
-x,y,-z
-x,-y,-z
x,y,-z
-x,y,z
x,-y,z
loop_
_atom_site_type_symbol
_atom_site_label
_atom_site_fract_x
_atom_site_fract_y
_atom_site_fract_z
Si Si1 0.125020 0.500000 0.168395
Si Si2 0.131671 0.130026 0.163448
Si Si3 0.863505 0.601671 0.840672
Si Si4 0.500000 0.099376 0.667180
Si Si5 0.252979 0.226661 0.163166
Si Si6 0.500000 0.194545 0.839657
Si Si7 0.134109 0.308804 0.334802
Si Si8 0.263465 0.054345 0.333061
O O1 0.187091 0.549947 0.210410
O O2 0.000000 0.500000 0.240722
O O3 0.110797 0.500000 0.000000
O O4 0.205491 0.175443 0.209896
O O5 0.167108 0.084959 0.255918
O O6 0.000000 0.142025 0.192478
O O7 0.154418 0.117355 0.000000
O O8 0.820461 0.642331 0.734417
O O9 0.000000 0.597952 0.839623
O O10 0.820955 0.614059 0.000000
O O11 0.500000 0.106420 0.500000
O O12 0.500000 0.150966 0.733971
O O13 0.610784 0.070272 0.717440
O O14 0.389279 0.227278 0.185447
O O15 0.199552 0.265470 0.264831
O O16 0.218887 0.237518 0.000000
O O17 0.500000 0.174133 0.000000
O O18 0.163448 0.310389 0.500000
O O19 0.000000 0.302066 0.306441
O O20 0.248779 0.061638 0.500000
O O21 0.245315 0.000000 0.288865
#
# Coordination Sequence:
#
# PCOD8196180 Si02
#       8
#     4   8   8   4   8   4   8   8
#     4   7  10  18  35  59  85 118 163 206 239 277
#     4  10  21  36  54  75  98 126 160 196 235 281
#     4   8  13  23  40  61  88 125 166 204 241 280
#     4  10  19  34  56  78 100 124 153 191 235 282
#     4  10  20  35  54  73  94 121 155 195 242 290
#     4  10  20  35  57  79  96 115 149 198 243 288
#     4  10  20  31  44  67  99 132 166 201 235 277
#     4  10  21  36  54  76 101 129 159 191 230 279
#
# _framework density 16.749379000000001
#
# number of rings (size 3 to 8) (size 9 to 14) (size 15 to 20)
#    0.000    2.538    1.538    2.077    0.000    4.615 
#    0.000    1.923    0.000    3.692    0.000    0.000 
#    0.000    0.615    0.000    7.077    0.000    4.923 
#
# Total GULP energy -644652.094805 kJ/mol
# GULP energy per Si atom -12397.155669 kJ/mol
# Density = 1.671126 g / cm^3
# Si number density = 16.749379 Si / 1000 Ang^3
#
#
#
# Elastic Constant Matrix: (Units=GPa)
#
#
# Indices 1 2 3 4 5 6 
#
# 1 64.0732 36.2351 31.2096 0.0000 0.0000 0.0000
# 2 36.2351 131.1004 61.5771 0.0000 0.0000 0.0000
# 3 31.2096 61.5771 64.1822 0.0000 0.0000 0.0000
# 4 0.0000 0.0000 0.0000 21.2978 0.0000 0.0000
# 5 0.0000 0.0000 0.0000 0.0000 21.1746 0.0000
# 6 0.0000 0.0000 0.0000 0.0000 0.0000 3.5809
#
#
#
# Elastic Compliance Matrix: (Units=1/GPa)
#
#
# Indices 1 2 3 4 5 6 
#
# 1 0.020684 -0.001807 -0.008324 0.000000 0.000000 0.000000
# 2 -0.001807 0.014042 -0.012594 0.000000 0.000000 0.000000
# 3 -0.008324 -0.012594 0.031711 0.000000 0.000000 0.000000
# 4 0.000000 0.000000 0.000000 0.046953 0.000000 0.000000
# 5 0.000000 0.000000 0.000000 0.000000 0.047226 0.000000
# 6 0.000000 0.000000 0.000000 0.000000 0.000000 0.279261
#
#
# Mechanical properties :
#
#
# Convention : Reuss Voigt Hill
#
# Bulk Modulus (GPa) = 47.64781 57.48881 52.56831
# Shear Modulus (GPa) = 10.15594 17.89958 14.02776
#
# Velocity S-wave (km/s) = 2.46508 3.27260 2.89711
# Velocity P-wave (km/s) = 6.05074 6.97692 6.53027
#
# Compressibility (1/GPa) = 0.02098732
#
# Stress axis : x y z
#
# Youngs Moduli (GPa) = 48.34734 71.21288 31.53487
#
# Poissons Ratio (x) = 0.12868 0.26250
# Poissons Ratio (y) = 0.08737 0.39714
# Poissons Ratio (z) = 0.40245 0.89684
#
# Static dielectric constant tensor:
#      x y z
#    x 2.963390 0.000000 0.000000 
#    y 0.000000 3.381110 0.000000 
#    z 0.000000 0.000000 3.072200 
# 
# 
# High freq. dielectric constant tensor:
#      x y z
#    x 1.612830 0.000000 0.000000 
#    y 0.000000 1.653250 0.000000 
#    z 0.000000 0.000000 1.636690 
# 
# From -- ./inp_files/4614.got.cif
#   From: 2010.03.12/outbox.cif.g09.slc.cpg/sg47_3_cif.got.tgz:4614.got - 2010.04.14 03:12:58.
