data_PCOD8196313
_publ_section_title
;
Structure prediction by ZEFSAII (Michael W. Deem and Ramdas Pophale) SiO2 
 PCOD8196313
Probable space group: P M M M
;
_chemical_formula_sum "Si O2"
_cell_formula_units_Z 48
_cell_length_a 9.088663
_cell_length_b 14.127105
_cell_length_c 20.404110
_cell_angle_alpha 90.000000
_cell_angle_beta 90.000000
_cell_angle_gamma 90.000000
_cell_volume 2619.816238
_symmetry_space_group_name_H-M "P M M M"
_symmetry_group_IT_number 47
_symmetry_cell_setting 'orthorhombic'
loop_
_space_group_symop_operation_xyz
x,y,z
-x,-y,z
x,-y,-z
-x,y,-z
-x,-y,-z
x,y,-z
-x,y,z
x,-y,z
loop_
_atom_site_type_symbol
_atom_site_label
_atom_site_fract_x
_atom_site_fract_y
_atom_site_fract_z
Si Si1 0.174638 0.396706 0.819381
Si Si2 0.168843 0.890325 0.741207
Si Si3 0.675004 0.893511 0.500000
Si Si4 0.171340 0.203974 0.878954
Si Si5 0.829155 0.392772 0.328905
Si Si6 0.325792 0.891580 0.000000
Si Si7 0.674110 0.217186 0.372815
O O1 0.230694 0.500000 0.845052
O O2 0.227374 0.311961 0.866545
O O3 0.230529 0.379719 0.745339
O O4 0.000000 0.396927 0.816186
O O5 0.200781 0.858067 0.814873
O O6 0.273477 0.834056 0.692767
O O7 0.000000 0.868842 0.722627
O O8 0.207313 0.000000 0.735478
O O9 0.500000 0.896318 0.500000
O O10 0.733768 0.839842 0.564309
O O11 0.739104 0.000000 0.500000
O O12 0.266835 0.161106 0.936436
O O13 0.000000 0.202157 0.898813
O O14 0.802818 0.500000 0.352857
O O15 0.738292 0.323289 0.376017
O O16 0.000000 0.365553 0.332918
O O17 0.500000 0.886335 0.000000
O O18 0.270309 0.000000 0.000000
O O19 0.500000 0.222507 0.372913
#
# Coordination Sequence:
#
# PCOD8196313 Si02
#       7
#     8   8   4   8   8   4   8
#     4   8  14  28  54  84 109 135 170 213 261 314
#     4  10  20  34  54  81 110 137 176 231 280 326
#     4   9  20  38  54  71 104 152 195 225 266 327
#     4  10  19  35  59  82 105 138 182 223 262 317
#     4   9  17  33  57  82 111 144 176 218 273 329
#     4  11  25  41  54  73 108 148 183 223 272 323
#     4  11  21  34  55  80 108 143 185 231 275 324
#
# _framework density 18.321895999999999
#
# number of rings (size 3 to 8) (size 9 to 14) (size 15 to 20)
#    0.000    2.333    1.667    2.750    0.000    3.333 
#    0.000    2.500    0.000    8.500    0.000    0.000 
#    0.000    0.000    0.000    0.000    0.000    0.000 
#
# Total GULP energy -595143.686706 kJ/mol
# GULP energy per Si atom -12398.826806 kJ/mol
# Density = 1.828019 g / cm^3
# Si number density = 18.321896 Si / 1000 Ang^3
#
#
#
# Elastic Constant Matrix: (Units=GPa)
#
#
# Indices 1 2 3 4 5 6 
#
# 1 51.4038 45.6712 35.2862 0.0000 0.0000 0.0000
# 2 45.6712 161.7766 63.3407 0.0000 0.0000 0.0000
# 3 35.2862 63.3407 85.1736 0.0000 0.0000 0.0000
# 4 0.0000 0.0000 0.0000 32.3623 0.0000 0.0000
# 5 0.0000 0.0000 0.0000 0.0000 37.5176 0.0000
# 6 0.0000 0.0000 0.0000 0.0000 0.0000 27.3490
#
#
#
# Elastic Compliance Matrix: (Units=1/GPa)
#
#
# Indices 1 2 3 4 5 6 
#
# 1 0.029857 -0.005059 -0.008607 0.000000 0.000000 0.000000
# 2 -0.005059 0.009578 -0.005027 0.000000 0.000000 0.000000
# 3 -0.008607 -0.005027 0.019045 0.000000 0.000000 0.000000
# 4 0.000000 0.000000 0.000000 0.030900 0.000000 0.000000
# 5 0.000000 0.000000 0.000000 0.000000 0.026654 0.000000
# 6 0.000000 0.000000 0.000000 0.000000 0.000000 0.036564
#
#
# Mechanical properties :
#
#
# Convention : Reuss Voigt Hill
#
# Bulk Modulus (GPa) = 47.40744 65.21670 56.31207
# Shear Modulus (GPa) = 25.37877 29.71618 27.54747
#
# Velocity S-wave (km/s) = 3.72581 4.03164 3.88174
# Velocity P-wave (km/s) = 6.66632 7.57261 7.13387
#
# Compressibility (1/GPa) = 0.02109374
#
# Stress axis : x y z
#
# Youngs Moduli (GPa) = 33.49300 104.40926 52.50791
#
# Poissons Ratio (x) = 0.52820 0.45194
# Poissons Ratio (y) = 0.16944 0.26394
# Poissons Ratio (z) = 0.28828 0.52484
#
# Static dielectric constant tensor:
#      x y z
#    x 3.076640 0.000000 0.000000 
#    y 0.000000 3.946260 0.000000 
#    z 0.000000 0.000000 3.290400 
# 
# 
# High freq. dielectric constant tensor:
#      x y z
#    x 1.679220 0.000000 0.000000 
#    y 0.000000 1.734780 0.000000 
#    z 0.000000 0.000000 1.693840 
# 
# From -- ./inp_files/26573.got.cif
#   From: 2010.03.12/outbox.cif.g09.slc.cpg/sg47_14_cif.got.tgz:26573.got - 2010.04.14 03:12:58.
