data_PCOD8196199
_publ_section_title
;
Structure prediction by ZEFSAII (Michael W. Deem and Ramdas Pophale) SiO2 
 PCOD8196199
Probable space group: P M M M
;
_chemical_formula_sum "Si O2"
_cell_formula_units_Z 40
_cell_length_a 20.512258
_cell_length_b 8.837266
_cell_length_c 11.826855
_cell_angle_alpha 90.000000
_cell_angle_beta 90.000000
_cell_angle_gamma 90.000000
_cell_volume 2143.880974
_symmetry_space_group_name_H-M "P M M M"
_symmetry_group_IT_number 47
_symmetry_cell_setting 'orthorhombic'
loop_
_space_group_symop_operation_xyz
x,y,z
-x,-y,z
x,-y,-z
-x,y,-z
-x,-y,-z
x,y,-z
-x,y,z
x,-y,z
loop_
_atom_site_type_symbol
_atom_site_label
_atom_site_fract_x
_atom_site_fract_y
_atom_site_fract_z
Si Si1 0.238986 0.675814 0.000000
Si Si2 0.808681 0.677178 0.370780
Si Si3 0.428517 0.179438 0.126987
Si Si4 0.890303 0.830323 0.000000
Si Si5 0.296165 0.179055 0.221848
Si Si6 0.928270 0.172528 0.247748
O O1 0.264236 0.760046 0.890747
O O2 0.258298 0.500000 0.000000
O O3 0.161830 0.695942 0.000000
O O4 0.819475 0.725413 0.500000
O O5 0.799713 0.500000 0.356157
O O6 0.741327 0.752573 0.328974
O O7 0.871866 0.724884 0.299912
O O8 0.500000 0.239170 0.166684
O O9 0.372626 0.230086 0.216307
O O10 0.429553 0.000000 0.120609
O O11 0.413029 0.241463 0.000000
O O12 0.933042 0.809856 0.887584
O O13 0.858584 0.000000 0.000000
O O14 0.288863 0.000000 0.226780
O O15 0.000000 0.219258 0.294957
O O16 0.912306 0.000000 0.281490
#
# Coordination Sequence:
#
# PCOD8196199 Si02
#       6
#     4   8   8   4   8   8
#     4  12  22  31  50  82 117 149 180 217 270 329
#     4  11  25  42  57  76 106 145 187 232 282 330
#     4   8  14  26  48  81 117 146 173 211 264 322
#     4  10  19  34  56  83 114 144 174 212 265 330
#     4  11  20  34  58  84 110 143 185 229 272 317
#     4  10  21  37  59  85 112 142 178 223 273 327
#
# _framework density 18.657751000000001
#
# number of rings (size 3 to 8) (size 9 to 14) (size 15 to 20)
#    0.000    1.800    3.000    3.000    0.000    3.600 
#    0.000    2.000    0.000    5.400    0.000    4.200 
#    0.000    0.000    0.000    0.000    0.000    0.000 
#
# Total GULP energy -495727.366697 kJ/mol
# GULP energy per Si atom -12393.184167 kJ/mol
# Density = 1.861529 g / cm^3
# Si number density = 18.657751 Si / 1000 Ang^3
#
#
#
# Elastic Constant Matrix: (Units=GPa)
#
#
# Indices 1 2 3 4 5 6 
#
# 1 146.9966 37.6637 47.1368 0.0000 0.0000 0.0000
# 2 37.6637 62.9416 37.9641 0.0000 0.0000 0.0000
# 3 47.1368 37.9641 89.3151 0.0000 0.0000 0.0000
# 4 0.0000 0.0000 0.0000 20.2721 0.0000 0.0000
# 5 0.0000 0.0000 0.0000 0.0000 13.7899 0.0000
# 6 0.0000 0.0000 0.0000 0.0000 0.0000 2.9800
#
#
#
# Elastic Compliance Matrix: (Units=1/GPa)
#
#
# Indices 1 2 3 4 5 6 
#
# 1 0.008659 -0.003261 -0.003184 0.000000 0.000000 0.000000
# 2 -0.003261 0.022594 -0.007882 0.000000 0.000000 0.000000
# 3 -0.003184 -0.007882 0.016227 0.000000 0.000000 0.000000
# 4 0.000000 0.000000 0.000000 0.049329 0.000000 0.000000
# 5 0.000000 0.000000 0.000000 0.000000 0.072517 0.000000
# 6 0.000000 0.000000 0.000000 0.000000 0.000000 0.335571
#
#
# Mechanical properties :
#
#
# Convention : Reuss Voigt Hill
#
# Bulk Modulus (GPa) = 53.12082 60.53140 56.82611
# Shear Modulus (GPa) = 9.26222 19.17431 14.21827
#
# Velocity S-wave (km/s) = 2.23048 3.20923 2.76353
# Velocity P-wave (km/s) = 5.93013 6.80042 6.38013
#
# Compressibility (1/GPa) = 0.01882501
#
# Stress axis : x y z
#
# Youngs Moduli (GPa) = 115.48070 44.26004 61.62532
#
# Poissons Ratio (x) = 0.14435 0.19620
# Poissons Ratio (y) = 0.37663 0.48576
# Poissons Ratio (z) = 0.36767 0.34888
#
# Static dielectric constant tensor:
#      x y z
#    x 3.868300 0.000000 0.000000 
#    y 0.000000 3.251810 0.000000 
#    z 0.000000 0.000000 1.957760 
# 
# 
# High freq. dielectric constant tensor:
#      x y z
#    x 1.736890 0.000000 0.000000 
#    y 0.000000 1.706200 0.000000 
#    z 0.000000 0.000000 1.698060 
# 
# From -- ./inp_files/18953.got.cif
#   From: 2010.03.12/outbox.cif.g09.slc.cpg/sg47_10_cif.got.tgz:18953.got - 2010.04.14 03:12:58.
