data_PCOD8196914
_publ_section_title
;
Structure prediction by ZEFSAII (Michael W. Deem and Ramdas Pophale) SiO2 
 PCOD8196914
Probable space group: P M M M
;
_chemical_formula_sum "Si O2"
_cell_formula_units_Z 44
_cell_length_a 9.281722
_cell_length_b 25.002322
_cell_length_c 10.435765
_cell_angle_alpha 90.000000
_cell_angle_beta 90.000000
_cell_angle_gamma 90.000000
_cell_volume 2421.771653
_symmetry_space_group_name_H-M "P M M M"
_symmetry_group_IT_number 47
_symmetry_cell_setting 'orthorhombic'
loop_
_space_group_symop_operation_xyz
x,y,z
-x,-y,z
x,-y,-z
-x,y,-z
-x,-y,-z
x,y,-z
-x,y,z
x,-y,z
loop_
_atom_site_type_symbol
_atom_site_label
_atom_site_fract_x
_atom_site_fract_y
_atom_site_fract_z
Si Si1 0.329718 0.368121 0.850279
Si Si2 0.668519 0.938894 0.254119
Si Si3 0.834854 0.563109 0.355061
Si Si4 0.840431 0.063249 0.500000
Si Si5 0.156585 0.850654 0.853859
Si Si6 0.163390 0.734485 0.848986
O O1 0.500000 0.368131 0.835174
O O2 0.264480 0.412488 0.756225
O O3 0.270449 0.311135 0.797765
O O4 0.286487 0.378970 0.000000
O O5 0.500000 0.933744 0.277170
O O6 0.751380 0.917490 0.378335
O O7 0.723970 0.897624 0.148456
O O8 0.708750 0.000000 0.216919
O O9 0.789433 0.581275 0.500000
O O10 0.817438 0.500000 0.344124
O O11 0.000000 0.580103 0.329899
O O12 0.000000 0.088623 0.500000
O O13 0.849593 0.000000 0.500000
O O14 0.206470 0.793638 0.792415
O O15 0.000000 0.868982 0.795879
O O16 0.130274 0.837104 0.000000
O O17 0.000000 0.721043 0.806856
O O18 0.178832 0.734499 0.000000
#
# Coordination Sequence:
#
# PCOD8196914 Si02
#       6
#     8   8   8   4   8   8
#     4  10  20  32  50  79 110 138 171 213 260 309
#     4  10  20  32  47  69  97 127 158 196 246 301
#     4   9  19  36  56  77 103 139 181 219 257 304
#     4   9  17  31  51  69  85 113 155 197 236 283
#     4   9  18  32  50  72  97 127 164 204 245 292
#     4   8  15  30  51  72  95 127 167 207 247 292
#
# _framework density 18.168517999999999
#
# number of rings (size 3 to 8) (size 9 to 14) (size 15 to 20)
#    0.000    2.818    0.000    3.000    0.000    5.818 
#    0.000    6.364    2.000    0.000    0.000    0.000 
#    0.000    0.000    0.000    0.000    0.000    0.000 
#
# Total GULP energy -545079.814559 kJ/mol
# GULP energy per Si atom -12388.177604 kJ/mol
# Density = 1.812717 g / cm^3
# Si number density = 18.168518 Si / 1000 Ang^3
#
#
#
# Elastic Constant Matrix: (Units=GPa)
#
#
# Indices 1 2 3 4 5 6 
#
# 1 100.6775 56.3300 35.5073 0.0000 0.0000 0.0000
# 2 56.3300 92.8235 37.2993 0.0000 0.0000 0.0000
# 3 35.5073 37.2993 56.7378 0.0000 0.0000 0.0000
# 4 0.0000 0.0000 0.0000 6.3545 0.0000 0.0000
# 5 0.0000 0.0000 0.0000 0.0000 27.5751 0.0000
# 6 0.0000 0.0000 0.0000 0.0000 0.0000 26.6309
#
#
#
# Elastic Compliance Matrix: (Units=1/GPa)
#
#
# Indices 1 2 3 4 5 6 
#
# 1 0.015994 -0.007724 -0.004931 0.000000 0.000000 0.000000
# 2 -0.007724 0.018371 -0.007243 0.000000 0.000000 0.000000
# 3 -0.004931 -0.007243 0.025473 0.000000 0.000000 0.000000
# 4 0.000000 0.000000 0.000000 0.157370 0.000000 0.000000
# 5 0.000000 0.000000 0.000000 0.000000 0.036265 0.000000
# 6 0.000000 0.000000 0.000000 0.000000 0.000000 0.037550
#
#
# Mechanical properties :
#
#
# Convention : Reuss Voigt Hill
#
# Bulk Modulus (GPa) = 49.89981 56.50135 53.20058
# Shear Modulus (GPa) = 14.81485 20.18558 17.50022
#
# Velocity S-wave (km/s) = 2.85864 3.33681 3.10694
# Velocity P-wave (km/s) = 6.19842 6.78320 6.49739
#
# Compressibility (1/GPa) = 0.02004016
#
# Stress axis : x y z
#
# Youngs Moduli (GPa) = 62.52489 54.43310 39.25797
#
# Poissons Ratio (x) = 0.42046 0.19358
# Poissons Ratio (y) = 0.48296 0.28435
# Poissons Ratio (z) = 0.30832 0.39427
#
# Static dielectric constant tensor:
#      x y z
#    x 3.348760 0.000000 0.000000 
#    y 0.000000 3.451900 0.000000 
#    z 0.000000 0.000000 3.224160 
# 
# 
# High freq. dielectric constant tensor:
#      x y z
#    x 1.704280 0.000000 0.000000 
#    y 0.000000 1.702430 0.000000 
#    z 0.000000 0.000000 1.674940 
# 
# From -- ./inp_files/15278.got.cif
#   From: 2010.03.12/outbox.cif.g09.slc.cpg/sg47_8_cif.got.tgz:15278.got - 2010.04.14 03:12:58.
