data_PCOD8196835
_publ_section_title
;
Structure prediction by ZEFSAII (Michael W. Deem and Ramdas Pophale) SiO2 
 PCOD8196835
Probable space group: P M M M
;
_chemical_formula_sum "Si O2"
_cell_formula_units_Z 52
_cell_length_a 9.172113
_cell_length_b 17.788740
_cell_length_c 16.886392
_cell_angle_alpha 90.000000
_cell_angle_beta 90.000000
_cell_angle_gamma 90.000000
_cell_volume 2755.189349
_symmetry_space_group_name_H-M "P M M M"
_symmetry_group_IT_number 47
_symmetry_cell_setting 'orthorhombic'
loop_
_space_group_symop_operation_xyz
x,y,z
-x,-y,z
x,-y,-z
-x,y,-z
-x,-y,-z
x,y,-z
-x,y,z
x,-y,z
loop_
_atom_site_type_symbol
_atom_site_label
_atom_site_fract_x
_atom_site_fract_y
_atom_site_fract_z
Si Si1 0.833527 0.148889 0.906042
Si Si2 0.334418 0.278962 0.179424
Si Si3 0.830723 0.353373 0.586748
Si Si4 0.666686 0.000000 0.905736
Si Si5 0.337468 0.217545 0.645597
Si Si6 0.165460 0.915311 0.590997
Si Si7 0.170589 0.414888 0.753441
O O1 0.754651 0.225375 0.879243
O O2 0.000000 0.147217 0.874139
O O3 0.748844 0.074829 0.873957
O O4 0.832542 0.148566 0.000000
O O5 0.500000 0.289128 0.147951
O O6 0.333506 0.242211 0.264573
O O7 0.258437 0.360707 0.187069
O O8 0.796925 0.390792 0.500000
O O9 0.750469 0.273873 0.589777
O O10 0.781666 0.405274 0.660743
O O11 0.000000 0.335383 0.594247
O O12 0.500000 0.000000 0.874191
O O13 0.668123 0.000000 0.000000
O O14 0.500000 0.213827 0.611946
O O15 0.267439 0.135585 0.644709
O O16 0.179485 0.890957 0.500000
O O17 0.000000 0.906438 0.619990
O O18 0.219598 0.000000 0.602719
O O19 0.207302 0.500000 0.778077
O O20 0.000000 0.397106 0.762935
#
# Coordination Sequence:
#
# PCOD8196835 Si02
#       7
#     8   8   8   4   8   8   8
#     4  10  20  35  57  84 111 139 175 216 255 301
#     4  10  21  36  53  75 104 139 174 209 255 312
#     4   9  17  29  47  71  98 130 167 208 255 308
#     4   9  17  31  53  81 113 145 172 201 244 297
#     4  10  20  32  46  67  95 127 165 208 252 300
#     4   9  18  32  48  65  87 120 164 211 257 304
#     4   9  18  33  53  76 103 136 173 216 264 312
#
# _framework density 18.873474999999999
#
# number of rings (size 3 to 8) (size 9 to 14) (size 15 to 20)
#    0.000    2.538    0.000    2.538    0.000    7.077 
#    1.385    2.308    0.000    0.462    0.000    7.538 
#    0.000    0.000    0.000    0.000    0.000    0.000 
#
# Total GULP energy -644666.386406 kJ/mol
# GULP energy per Si atom -12397.430508 kJ/mol
# Density = 1.883052 g / cm^3
# Si number density = 18.873475 Si / 1000 Ang^3
#
#
#
# Elastic Constant Matrix: (Units=GPa)
#
#
# Indices 1 2 3 4 5 6 
#
# 1 105.9182 61.7714 21.7134 0.0000 0.0000 0.0000
# 2 61.7714 127.8247 22.7486 0.0000 0.0000 0.0000
# 3 21.7134 22.7486 19.9455 0.0000 0.0000 0.0000
# 4 0.0000 0.0000 0.0000 21.8194 0.0000 0.0000
# 5 0.0000 0.0000 0.0000 0.0000 23.1211 0.0000
# 6 0.0000 0.0000 0.0000 0.0000 0.0000 14.4375
#
#
#
# Elastic Compliance Matrix: (Units=1/GPa)
#
#
# Indices 1 2 3 4 5 6 
#
# 1 0.014527 -0.005277 -0.009796 0.000000 0.000000 0.000000
# 2 -0.005277 0.011732 -0.007637 0.000000 0.000000 0.000000
# 3 -0.009796 -0.007637 0.069511 0.000000 0.000000 0.000000
# 4 0.000000 0.000000 0.000000 0.045831 0.000000 0.000000
# 5 0.000000 0.000000 0.000000 0.000000 0.043251 0.000000
# 6 0.000000 0.000000 0.000000 0.000000 0.000000 0.069264
#
#
# Mechanical properties :
#
#
# Convention : Reuss Voigt Hill
#
# Bulk Modulus (GPa) = 19.86061 51.79502 35.82782
# Shear Modulus (GPa) = 15.80687 21.70592 18.75639
#
# Velocity S-wave (km/s) = 2.89713 3.39496 3.15587
# Velocity P-wave (km/s) = 4.66230 6.54756 5.68364
#
# Compressibility (1/GPa) = 0.05035092
#
# Stress axis : x y z
#
# Youngs Moduli (GPa) = 68.83798 85.23500 14.38625
#
# Poissons Ratio (x) = 0.44976 0.14093
# Poissons Ratio (y) = 0.36324 0.10986
# Poissons Ratio (z) = 0.67435 0.65091
#
# Static dielectric constant tensor:
#      x y z
#    x 3.662140 0.000000 0.000000 
#    y 0.000000 3.490920 0.000000 
#    z 0.000000 0.000000 3.189250 
# 
# 
# High freq. dielectric constant tensor:
#      x y z
#    x 1.737640 0.000000 0.000000 
#    y 0.000000 1.730460 0.000000 
#    z 0.000000 0.000000 1.703200 
# 
# From -- ./inp_files/26778.got.cif
#   From: 2010.03.12/outbox.cif.g09.slc.cpg/sg47_14_cif.got.tgz:26778.got - 2010.04.14 03:12:58.
