data_PCOD8196268
_publ_section_title
;
Structure prediction by ZEFSAII (Michael W. Deem and Ramdas Pophale) SiO2 
 PCOD8196268
Probable space group: P M M M
;
_chemical_formula_sum "Si O2"
_cell_formula_units_Z 52
_cell_length_a 28.123561
_cell_length_b 9.010741
_cell_length_c 11.800896
_cell_angle_alpha 90.000000
_cell_angle_beta 90.000000
_cell_angle_gamma 90.000000
_cell_volume 2990.513724
_symmetry_space_group_name_H-M "P M M M"
_symmetry_group_IT_number 47
_symmetry_cell_setting 'orthorhombic'
loop_
_space_group_symop_operation_xyz
x,y,z
-x,-y,z
x,-y,-z
-x,y,-z
-x,-y,-z
x,y,-z
-x,y,z
x,-y,z
loop_
_atom_site_type_symbol
_atom_site_label
_atom_site_fract_x
_atom_site_fract_y
_atom_site_fract_z
Si Si1 0.945845 0.170183 0.776838
Si Si2 0.870143 0.328673 0.631255
Si Si3 0.805718 0.674683 0.000000
Si Si4 0.087381 0.323223 0.000000
Si Si5 0.593097 0.667245 0.634827
Si Si6 0.500000 0.167547 0.364753
Si Si7 0.226744 0.326172 0.242561
Si Si8 0.311871 0.174363 0.369535
O O1 0.913194 0.229560 0.675601
O O2 0.939305 0.265366 0.889703
O O3 0.000000 0.185984 0.735474
O O4 0.932808 0.000000 0.802865
O O5 0.861821 0.294347 0.500000
O O6 0.882932 0.500000 0.653234
O O7 0.822393 0.285171 0.696862
O O8 0.777013 0.723991 0.888469
O O9 0.812284 0.500000 0.000000
O O10 0.858888 0.741090 0.000000
O O11 0.085921 0.500000 0.000000
O O12 0.591411 0.668712 0.500000
O O13 0.593501 0.500000 0.681991
O O14 0.546668 0.750162 0.683186
O O15 0.640245 0.750275 0.677725
O O16 0.500000 0.169538 0.500000
O O17 0.500000 0.000000 0.318803
O O18 0.238456 0.500000 0.256252
O O19 0.268090 0.230546 0.296735
O O20 0.302963 0.218847 0.500000
O O21 0.317760 0.000000 0.355154
#
# Coordination Sequence:
#
# PCOD8196268 Si02
#       8
#     8   8   4   4   8   4   8   8
#     4  11  24  39  55  79 110 139 167 204 254 309
#     4  10  21  37  58  81 103 133 175 215 250 298
#     4   9  18  34  58  81 100 123 157 204 253 300
#     4  11  20  38  63  84 104 130 167 211 255 300
#     4   9  16  26  41  62  90 129 175 216 253 296
#     4   9  15  23  37  59  91 130 169 212 259 303
#     4  10  19  35  56  77 100 127 163 206 253 302
#     4  10  20  32  46  69 102 137 172 209 251 300
#
# _framework density 17.388316
#
# number of rings (size 3 to 8) (size 9 to 14) (size 15 to 20)
#    0.000    2.077    1.538    2.538    0.000    7.692 
#    0.000    1.923    0.000    0.000    0.000    0.000 
#    0.000    0.615    0.000    6.615    0.000    5.077 
#
# Total GULP energy -644920.786341 kJ/mol
# GULP energy per Si atom -12402.322814 kJ/mol
# Density = 1.734874 g / cm^3
# Si number density = 17.388316 Si / 1000 Ang^3
#
#
#
# Elastic Constant Matrix: (Units=GPa)
#
#
# Indices 1 2 3 4 5 6 
#
# 1 130.7004 65.9850 47.1174 0.0000 0.0000 0.0000
# 2 65.9850 101.2958 37.7967 0.0000 0.0000 0.0000
# 3 47.1174 37.7967 86.3267 0.0000 0.0000 0.0000
# 4 0.0000 0.0000 0.0000 20.4996 0.0000 0.0000
# 5 0.0000 0.0000 0.0000 0.0000 -4.9818 0.0000
# 6 0.0000 0.0000 0.0000 0.0000 0.0000 28.8077
#
#
#
# Elastic Compliance Matrix: (Units=1/GPa)
#
#
# Indices 1 2 3 4 5 6 
#
# 1 0.012390 -0.006631 -0.003859 0.000000 0.000000 0.000000
# 2 -0.006631 0.015349 -0.003101 0.000000 0.000000 0.000000
# 3 -0.003859 -0.003101 0.015048 0.000000 0.000000 0.000000
# 4 0.000000 0.000000 0.000000 0.048781 0.000000 0.000000
# 5 0.000000 0.000000 0.000000 0.000000 -0.200733 0.000000
# 6 0.000000 0.000000 0.000000 0.000000 0.000000 0.034713
#
#
# Mechanical properties :
#
#
# Convention : Reuss Voigt Hill
#
# Bulk Modulus (GPa) = 64.08484 68.90235 66.49359
# Shear Modulus (GPa) = -118.85583 20.02670 -49.41456
#
# Velocity S-wave (km/s) = -8.27661 3.39740 -5.33666
# Velocity P-wave (km/s) = 7.37572 7.42304 0.59172
#
# Compressibility (1/GPa) = 0.01560431
#
# Stress axis : x y z
#
# Youngs Moduli (GPa) = 80.70998 65.15250 66.45415
#
# Poissons Ratio (x) = 0.43202 0.25646
# Poissons Ratio (y) = 0.53519 0.20607
# Poissons Ratio (z) = 0.31148 0.20203
#
# Static dielectric constant tensor:
#      x y z
#    x 3.339660 0.000000 0.000000 
#    y 0.000000 3.280020 0.000000 
#    z 0.000000 0.000000 3.166630 
# 
# 
# High freq. dielectric constant tensor:
#      x y z
#    x 1.679630 0.000000 0.000000 
#    y 0.000000 1.675530 0.000000 
#    z 0.000000 0.000000 1.635860 
# 
# From -- ./inp_files/19874.got.cif
#   From: 2010.03.12/outbox.cif.g09.slc.cpg/sg47_10_cif.got.tgz:19874.got - 2010.04.14 03:12:58.
