data_PCOD8196202
_publ_section_title
;
Structure prediction by ZEFSAII (Michael W. Deem and Ramdas Pophale) SiO2 
 PCOD8196202
Probable space group: P M M M
;
_chemical_formula_sum "Si O2"
_cell_formula_units_Z 64
_cell_length_a 25.386083
_cell_length_b 9.561639
_cell_length_c 14.321624
_cell_angle_alpha 90.000000
_cell_angle_beta 90.000000
_cell_angle_gamma 90.000000
_cell_volume 3476.324475
_symmetry_space_group_name_H-M "P M M M"
_symmetry_group_IT_number 47
_symmetry_cell_setting 'orthorhombic'
loop_
_space_group_symop_operation_xyz
x,y,z
-x,-y,z
x,-y,-z
-x,y,-z
-x,-y,-z
x,y,-z
-x,y,z
x,-y,z
loop_
_atom_site_type_symbol
_atom_site_label
_atom_site_fract_x
_atom_site_fract_y
_atom_site_fract_z
Si Si1 0.437532 0.156243 0.598454
Si Si2 0.646049 0.659260 0.893416
Si Si3 0.439352 0.166273 0.199969
Si Si4 0.252902 0.335101 0.775030
Si Si5 0.846053 0.333976 0.895508
Si Si6 0.099260 0.160837 0.394084
Si Si7 0.059136 0.338812 0.230812
Si Si8 0.221405 0.838257 0.605910
O O1 0.420004 0.232877 0.500000
O O2 0.500000 0.147115 0.601985
O O3 0.420306 0.224798 0.697130
O O4 0.414286 0.000000 0.595088
O O5 0.629720 0.500000 0.871533
O O6 0.595894 0.757720 0.876646
O O7 0.694548 0.706763 0.829759
O O8 0.664299 0.675609 0.000000
O O9 0.500000 0.205264 0.180247
O O10 0.431449 0.000000 0.194246
O O11 0.248792 0.500000 0.757376
O O12 0.203423 0.279748 0.835447
O O13 0.255018 0.257550 0.675637
O O14 0.844414 0.500000 0.902021
O O15 0.900015 0.282204 0.846694
O O16 0.843598 0.270081 0.000000
O O17 0.081138 0.189531 0.500000
O O18 0.064369 0.255626 0.327075
O O19 0.160305 0.199989 0.382234
O O20 0.089723 0.000000 0.367652
O O21 0.071296 0.500000 0.253446
O O22 0.000000 0.319155 0.191538
O O23 0.239657 0.806448 0.500000
O O24 0.231413 0.000000 0.630048
#
# Coordination Sequence:
#
# PCOD8196202 Si02
#       8
#     8   8   8   8   8   8   8   8
#     4   7  10  20  42  71  99 126 159 199 240 284
#     4  10  22  38  54  75 104 137 174 217 263 310
#     4   9  18  33  54  80 108 139 177 218 257 302
#     4  10  19  34  57  80 101 131 173 216 256 304
#     4   9  17  31  52  75  98 128 168 214 263 312
#     4   9  18  33  52  73 100 137 175 207 249 311
#     4  10  20  32  48  75 106 133 169 219 267 308
#     4   9  18  33  54  80 108 136 167 207 256 309
#
# _framework density 18.410250000000001
#
# number of rings (size 3 to 8) (size 9 to 14) (size 15 to 20)
#    0.000    2.875    1.250    2.250    0.000    4.000 
#    0.000    5.625    0.000    4.875    0.000    2.625 
#    0.000    0.000    0.000    0.000    0.000    0.000 
#
# Total GULP energy -793195.555724 kJ/mol
# GULP energy per Si atom -12393.680558 kJ/mol
# Density = 1.836835 g / cm^3
# Si number density = 18.410250 Si / 1000 Ang^3
#
#
#
# Elastic Constant Matrix: (Units=GPa)
#
#
# Indices 1 2 3 4 5 6 
#
# 1 95.1118 37.7819 50.9137 0.0000 0.0000 0.0000
# 2 37.7819 42.9064 41.1213 0.0000 0.0000 0.0000
# 3 50.9137 41.1213 115.2689 0.0000 0.0000 0.0000
# 4 0.0000 0.0000 0.0000 21.7505 0.0000 0.0000
# 5 0.0000 0.0000 0.0000 0.0000 26.9875 0.0000
# 6 0.0000 0.0000 0.0000 0.0000 0.0000 21.8405
#
#
#
# Elastic Compliance Matrix: (Units=1/GPa)
#
#
# Indices 1 2 3 4 5 6 
#
# 1 0.016951 -0.011778 -0.003286 0.000000 0.000000 0.000000
# 2 -0.011778 0.043598 -0.010351 0.000000 0.000000 0.000000
# 3 -0.003286 -0.010351 0.013819 0.000000 0.000000 0.000000
# 4 0.000000 0.000000 0.000000 0.045976 0.000000 0.000000
# 5 0.000000 0.000000 0.000000 0.000000 0.037054 0.000000
# 6 0.000000 0.000000 0.000000 0.000000 0.000000 0.045786
#
#
# Mechanical properties :
#
#
# Convention : Reuss Voigt Hill
#
# Bulk Modulus (GPa) = 42.48155 56.99120 49.73637
# Shear Modulus (GPa) = 19.09409 22.34706 20.72057
#
# Velocity S-wave (km/s) = 3.22397 3.48780 3.35847
# Velocity P-wave (km/s) = 6.08142 6.87336 6.48948
#
# Compressibility (1/GPa) = 0.02353963
#
# Stress axis : x y z
#
# Youngs Moduli (GPa) = 58.99236 22.93673 72.36241
#
# Poissons Ratio (x) = 0.27014 0.23776
# Poissons Ratio (y) = 0.69480 0.74903
# Poissons Ratio (z) = 0.19383 0.23742
#
# Static dielectric constant tensor:
#      x y z
#    x 3.211260 0.000000 0.000000 
#    y 0.000000 3.014330 0.000000 
#    z 0.000000 0.000000 3.666380 
# 
# 
# High freq. dielectric constant tensor:
#      x y z
#    x 1.700840 0.000000 0.000000 
#    y 0.000000 1.674640 0.000000 
#    z 0.000000 0.000000 1.726260 
# 
# From -- ./inp_files/7903.got.cif
#   From: 2010.03.12/outbox.cif.g09.slc.cpg/sg47_4_cif.got.tgz:7903.got - 2010.04.14 03:12:58.
