data_PCOD8196273
_publ_section_title
;
Structure prediction by ZEFSAII (Michael W. Deem and Ramdas Pophale) SiO2 
 PCOD8196273
Probable space group: P M M M
;
_chemical_formula_sum "Si O2"
_cell_formula_units_Z 48
_cell_length_a 19.577167
_cell_length_b 8.946581
_cell_length_c 14.890530
_cell_angle_alpha 90.000000
_cell_angle_beta 90.000000
_cell_angle_gamma 90.000000
_cell_volume 2608.057125
_symmetry_space_group_name_H-M "P M M M"
_symmetry_group_IT_number 47
_symmetry_cell_setting 'orthorhombic'
loop_
_space_group_symop_operation_xyz
x,y,z
-x,-y,z
x,-y,-z
-x,y,-z
-x,-y,-z
x,y,-z
-x,y,z
x,-y,z
loop_
_atom_site_type_symbol
_atom_site_label
_atom_site_fract_x
_atom_site_fract_y
_atom_site_fract_z
Si Si1 0.580297 0.822239 0.000000
Si Si2 0.790041 0.169925 0.600346
Si Si3 0.423886 0.660692 0.500000
Si Si4 0.922069 0.170437 0.104434
Si Si5 0.188914 0.325125 0.219789
Si Si6 0.635797 0.170322 0.658240
Si Si7 0.338669 0.323165 0.836557
O O1 0.620986 0.759618 0.914929
O O2 0.500000 0.772205 0.000000
O O3 0.585198 0.000000 0.000000
O O4 0.807928 0.232602 0.500000
O O5 0.825368 0.260734 0.680661
O O6 0.709647 0.180646 0.613663
O O7 0.815591 0.000000 0.607493
O O8 0.381897 0.500000 0.500000
O O9 0.500000 0.607749 0.500000
O O10 0.414654 0.763170 0.586281
O O11 0.874221 0.282156 0.157992
O O12 0.000000 0.198980 0.133822
O O13 0.901011 0.000000 0.125462
O O14 0.913027 0.205219 0.000000
O O15 0.193090 0.500000 0.231513
O O16 0.259160 0.269514 0.171832
O O17 0.625867 0.274414 0.744689
O O18 0.616896 0.000000 0.683099
O O19 0.344187 0.500000 0.851868
#
# Coordination Sequence:
#
# PCOD8196273 Si02
#       7
#     4   8   4   8   8   8   8
#     4  11  25  43  61  81 104 139 188 235 281 332
#     4   9  17  32  54  79 106 138 178 222 268 318
#     4  11  23  35  49  73 105 141 176 215 274 339
#     4   9  19  36  57  82 113 151 191 227 269 322
#     4  10  21  34  53  85 117 146 182 224 272 326
#     4  10  19  35  56  78 103 134 177 226 271 321
#     4  10  22  39  58  83 112 144 181 225 279 337
#
# _framework density 18.404503999999999
#
# number of rings (size 3 to 8) (size 9 to 14) (size 15 to 20)
#    0.000    2.167    0.833    2.500    1.167    5.667 
#    0.000    0.833    0.000    0.500    0.000    3.500 
#    0.000    0.000    0.000    0.000    0.000    0.000 
#
# Total GULP energy -594973.754485 kJ/mol
# GULP energy per Si atom -12395.286552 kJ/mol
# Density = 1.836261 g / cm^3
# Si number density = 18.404504 Si / 1000 Ang^3
#
#
#
# Elastic Constant Matrix: (Units=GPa)
#
#
# Indices 1 2 3 4 5 6 
#
# 1 70.3670 31.9105 56.4866 0.0000 0.0000 0.0000
# 2 31.9105 63.3109 36.5711 0.0000 0.0000 0.0000
# 3 56.4866 36.5711 127.2802 0.0000 0.0000 0.0000
# 4 0.0000 0.0000 0.0000 85.9813 0.0000 0.0000
# 5 0.0000 0.0000 0.0000 0.0000 -166.0255 0.0000
# 6 0.0000 0.0000 0.0000 0.0000 0.0000 26.1746
#
#
#
# Elastic Compliance Matrix: (Units=1/GPa)
#
#
# Indices 1 2 3 4 5 6 
#
# 1 0.024605 -0.007307 -0.008820 0.000000 0.000000 0.000000
# 2 -0.007307 0.021108 -0.002822 0.000000 0.000000 0.000000
# 3 -0.008820 -0.002822 0.012582 0.000000 0.000000 0.000000
# 4 0.000000 0.000000 0.000000 0.011630 0.000000 0.000000
# 5 0.000000 0.000000 0.000000 0.000000 -0.006023 0.000000
# 6 0.000000 0.000000 0.000000 0.000000 0.000000 0.038205
#
#
# Mechanical properties :
#
#
# Convention : Reuss Voigt Hill
#
# Bulk Modulus (GPa) = 49.02735 56.76605 52.89670
# Shear Modulus (GPa) = 34.05883 -1.70792 16.17545
#
# Velocity S-wave (km/s) = 4.30649 -0.96437 2.96782
# Velocity P-wave (km/s) = 7.17108 5.44707 6.36769
#
# Compressibility (1/GPa) = 0.02039678
#
# Stress axis : x y z
#
# Youngs Moduli (GPa) = 40.64194 47.37514 79.47869
#
# Poissons Ratio (x) = 0.34616 0.70102
# Poissons Ratio (y) = 0.29696 0.22431
# Poissons Ratio (z) = 0.35847 0.13370
#
# Static dielectric constant tensor:
#      x y z
#    x 3.215330 0.000000 0.000000 
#    y 0.000000 3.411990 0.000000 
#    z 0.000000 0.000000 3.609290 
# 
# 
# High freq. dielectric constant tensor:
#      x y z
#    x 1.687060 0.000000 0.000000 
#    y 0.000000 1.722300 0.000000 
#    z 0.000000 0.000000 1.723210 
# 
# From -- ./inp_files/6426.got.cif
#   From: 2010.03.12/outbox.cif.g09.slc.cpg/sg47_4_cif.got.tgz:6426.got - 2010.04.14 03:12:58.
