data_PCOD8196568
_publ_section_title
;
Structure prediction by ZEFSAII (Michael W. Deem and Ramdas Pophale) SiO2 
 PCOD8196568
Probable space group: P M M M
;
_chemical_formula_sum "Si O2"
_cell_formula_units_Z 64
_cell_length_a 17.908937
_cell_length_b 9.055902
_cell_length_c 20.302600
_cell_angle_alpha 90.000000
_cell_angle_beta 90.000000
_cell_angle_gamma 90.000000
_cell_volume 3292.707714
_symmetry_space_group_name_H-M "P M M M"
_symmetry_group_IT_number 47
_symmetry_cell_setting 'orthorhombic'
loop_
_space_group_symop_operation_xyz
x,y,z
-x,-y,z
x,-y,-z
-x,y,-z
-x,-y,-z
x,y,-z
-x,y,z
x,-y,z
loop_
_atom_site_type_symbol
_atom_site_label
_atom_site_fract_x
_atom_site_fract_y
_atom_site_fract_z
Si Si1 0.373278 0.829986 0.738636
Si Si2 0.269436 0.340378 0.075329
Si Si3 0.205681 0.829172 0.291813
Si Si4 0.270687 0.829167 0.427928
Si Si5 0.128065 0.827213 0.076408
Si Si6 0.916764 0.330300 0.203003
Si Si7 0.583695 0.326766 0.609856
Si Si8 0.418857 0.668363 0.863610
O O1 0.284288 0.802062 0.744919
O O2 0.410866 0.728642 0.684165
O O3 0.412911 0.784297 0.805227
O O4 0.389913 0.000000 0.722327
O O5 0.254140 0.500000 0.110696
O O6 0.212539 0.214096 0.098949
O O7 0.354619 0.289736 0.084732
O O8 0.254308 0.365182 0.000000
O O9 0.216939 0.773339 0.368303
O O10 0.141036 0.740593 0.254602
O O11 0.181972 0.000000 0.290332
O O12 0.232109 0.807013 0.500000
O O13 0.351022 0.749953 0.431921
O O14 0.287967 0.000000 0.413237
O O15 0.078175 0.743750 0.130196
O O16 0.116287 0.000000 0.085047
O O17 0.109547 0.781742 0.000000
O O18 0.894003 0.500000 0.193460
O O19 0.000000 0.315222 0.233288
O O20 0.500000 0.290718 0.582567
O O21 0.598323 0.500000 0.607522
O O22 0.500000 0.687901 0.897497
O O23 0.409190 0.500000 0.838026
#
# Coordination Sequence:
#
# PCOD8196568 Si02
#       8
#     8   8   8   8   8   8   8   8
#     4  10  20  33  50  72  97 129 173 219 262 312
#     4   9  18  33  52  71  93 127 170 213 258 309
#     4   9  19  36  58  82 107 138 176 219 264 312
#     4   9  19  36  57  81 108 140 181 226 270 317
#     4  10  21  37  58  83 110 141 177 216 258 309
#     4  11  24  39  57  84 115 144 174 210 254 308
#     4  10  20  32  47  71 105 142 179 220 265 313
#     4  10  20  31  44  66  96 129 168 217 269 316
#
# _framework density 19.436889999999998
#
# number of rings (size 3 to 8) (size 9 to 14) (size 15 to 20)
#    0.000    2.250    0.000    3.375    0.000   10.500 
#    0.000    3.750    0.000    0.375    0.000    5.250 
#    0.000    0.000    0.000    0.000    0.000    0.000 
#
# Total GULP energy -792974.074216 kJ/mol
# GULP energy per Si atom -12390.219910 kJ/mol
# Density = 1.939265 g / cm^3
# Si number density = 19.436890 Si / 1000 Ang^3
#
#
#
# Elastic Constant Matrix: (Units=GPa)
#
#
# Indices 1 2 3 4 5 6 
#
# 1 97.8011 37.3503 40.7221 0.0000 0.0000 0.0000
# 2 37.3503 75.1474 41.2985 0.0000 0.0000 0.0000
# 3 40.7221 41.2985 72.2056 0.0000 0.0000 0.0000
# 4 0.0000 0.0000 0.0000 21.3733 0.0000 0.0000
# 5 0.0000 0.0000 0.0000 0.0000 7.6692 0.0000
# 6 0.0000 0.0000 0.0000 0.0000 0.0000 -41.3293
#
#
#
# Elastic Compliance Matrix: (Units=1/GPa)
#
#
# Indices 1 2 3 4 5 6 
#
# 1 0.014085 -0.003843 -0.005745 0.000000 0.000000 0.000000
# 2 -0.003843 0.020456 -0.009533 0.000000 0.000000 0.000000
# 3 -0.005745 -0.009533 0.022542 0.000000 0.000000 0.000000
# 4 0.000000 0.000000 0.000000 0.046787 0.000000 0.000000
# 5 0.000000 0.000000 0.000000 0.000000 0.130392 0.000000
# 6 0.000000 0.000000 0.000000 0.000000 0.000000 -0.024196
#
#
# Mechanical properties :
#
#
# Convention : Reuss Voigt Hill
#
# Bulk Modulus (GPa) = 53.07690 53.76619 53.42154
# Shear Modulus (GPa) = 19.63956 5.92818 12.78387
#
# Velocity S-wave (km/s) = 3.18217 1.74831 2.56737
# Velocity P-wave (km/s) = 6.39282 5.63892 6.02767
#
# Compressibility (1/GPa) = 0.01884059
#
# Stress axis : x y z
#
# Youngs Moduli (GPa) = 70.99885 48.88524 44.36194
#
# Poissons Ratio (x) = 0.18787 0.25488
# Poissons Ratio (y) = 0.27285 0.42289
# Poissons Ratio (z) = 0.40792 0.46600
#
# Static dielectric constant tensor:
#      x y z
#    x 3.526350 0.000000 0.000000 
#    y 0.000000 3.660470 0.000000 
#    z 0.000000 0.000000 3.562840 
# 
# 
# High freq. dielectric constant tensor:
#      x y z
#    x 1.745410 0.000000 0.000000 
#    y 0.000000 1.756480 0.000000 
#    z 0.000000 0.000000 1.745230 
# 
# From -- ./inp_files/28794.got.cif
#   From: 2010.03.12/outbox.cif.g09.slc.cpg/sg47_15_cif.got.tgz:28794.got - 2010.04.14 03:12:58.
