data_PCOD8196567
_publ_section_title
;
Structure prediction by ZEFSAII (Michael W. Deem and Ramdas Pophale) SiO2 
 PCOD8196567
Probable space group: P M M M
;
_chemical_formula_sum "Si O2"
_cell_formula_units_Z 48
_cell_length_a 18.478843
_cell_length_b 13.641795
_cell_length_c 9.354362
_cell_angle_alpha 90.000000
_cell_angle_beta 90.000000
_cell_angle_gamma 90.000000
_cell_volume 2358.090491
_symmetry_space_group_name_H-M "P M M M"
_symmetry_group_IT_number 47
_symmetry_cell_setting 'orthorhombic'
loop_
_space_group_symop_operation_xyz
x,y,z
-x,-y,z
x,-y,-z
-x,y,-z
-x,-y,-z
x,y,-z
-x,y,z
x,-y,z
loop_
_atom_site_type_symbol
_atom_site_label
_atom_site_fract_x
_atom_site_fract_y
_atom_site_fract_z
Si Si1 0.581704 0.290875 0.667563
Si Si2 0.795430 0.111211 0.164006
Si Si3 0.714360 0.694113 0.163241
Si Si4 0.918481 0.788653 0.335603
Si Si5 0.584218 0.894042 0.843869
Si Si6 0.132773 0.388471 0.166719
O O1 0.591018 0.302023 0.500000
O O2 0.500000 0.323962 0.713480
O O3 0.645960 0.349426 0.747011
O O4 0.598280 0.179810 0.714685
O O5 0.730389 0.189079 0.194101
O O6 0.864888 0.134917 0.260588
O O7 0.769281 0.000000 0.196311
O O8 0.820444 0.123086 0.000000
O O9 0.783862 0.631315 0.208130
O O10 0.694731 0.675025 0.000000
O O11 0.894918 0.776598 0.500000
O O12 0.916959 0.682227 0.260506
O O13 0.000000 0.829837 0.323587
O O14 0.500000 0.908321 0.862538
O O15 0.619566 0.000000 0.807684
O O16 0.614881 0.856626 0.000000
O O17 0.112349 0.500000 0.202888
O O18 0.120149 0.364876 0.000000
#
# Coordination Sequence:
#
# PCOD8196567 Si02
#       6
#     8   8   8   8   8   8
#     4  10  20  31  44  66  96 128 163 206 256 309
#     4   9  19  36  56  77 103 140 186 229 265 303
#     4   9  18  33  53  76 101 130 168 215 264 314
#     4  10  21  35  52  80 117 149 177 212 253 302
#     4   8  14  25  40  57  79 111 152 195 239 289
#     4   9  19  37  60  83 105 132 170 216 264 313
#
# _framework density 20.355452
#
# number of rings (size 3 to 8) (size 9 to 14) (size 15 to 20)
#    0.000    2.833    0.000    2.500    0.000    7.333 
#    0.000    6.667    0.000    0.500    0.000    3.500 
#    0.000    0.000    0.000    0.000    0.000    0.000 
#
# Total GULP energy -594747.230128 kJ/mol
# GULP energy per Si atom -12390.567294 kJ/mol
# Density = 2.030912 g / cm^3
# Si number density = 20.355452 Si / 1000 Ang^3
#
#
#
# Elastic Constant Matrix: (Units=GPa)
#
#
# Indices 1 2 3 4 5 6 
#
# 1 101.1776 -3.0539 50.6641 0.0000 0.0000 0.0000
# 2 -3.0539 45.5431 10.0092 0.0000 0.0000 0.0000
# 3 50.6641 10.0092 84.6728 0.0000 0.0000 0.0000
# 4 0.0000 0.0000 0.0000 17.8343 0.0000 0.0000
# 5 0.0000 0.0000 0.0000 0.0000 34.7434 0.0000
# 6 0.0000 0.0000 0.0000 0.0000 0.0000 8.3521
#
#
#
# Elastic Compliance Matrix: (Units=1/GPa)
#
#
# Indices 1 2 3 4 5 6 
#
# 1 0.014489 0.002954 -0.009018 0.000000 0.000000 0.000000
# 2 0.002954 0.023145 -0.004503 0.000000 0.000000 0.000000
# 3 -0.009018 -0.004503 0.017739 0.000000 0.000000 0.000000
# 4 0.000000 0.000000 0.000000 0.056072 0.000000 0.000000
# 5 0.000000 0.000000 0.000000 0.000000 0.028782 0.000000
# 6 0.000000 0.000000 0.000000 0.000000 0.000000 0.119730
#
#
# Mechanical properties :
#
#
# Convention : Reuss Voigt Hill
#
# Bulk Modulus (GPa) = 29.20894 38.51469 33.86182
# Shear Modulus (GPa) = 17.09371 23.77091 20.43231
#
# Velocity S-wave (km/s) = 2.90101 3.42100 3.17168
# Velocity P-wave (km/s) = 5.05981 5.87933 5.48490
#
# Compressibility (1/GPa) = 0.03423609
#
# Stress axis : x y z
#
# Youngs Moduli (GPa) = 69.01929 43.20591 56.37385
#
# Poissons Ratio (x) = -0.12761 0.50841
# Poissons Ratio (y) = -0.20385 0.25387
# Poissons Ratio (z) = 0.62245 0.19457
#
# Static dielectric constant tensor:
#      x y z
#    x 3.785150 0.000000 0.000000 
#    y 0.000000 3.558200 0.000000 
#    z 0.000000 0.000000 3.553450 
# 
# 
# High freq. dielectric constant tensor:
#      x y z
#    x 1.805990 0.000000 0.000000 
#    y 0.000000 1.765800 0.000000 
#    z 0.000000 0.000000 1.781330 
# 
# From -- ./inp_files/10870.got.cif
#   From: 2010.03.12/outbox.cif.g09.slc.cpg/sg47_6_cif.got.tgz:10870.got - 2010.04.14 03:12:58.
