data_PCOD8196667
_publ_section_title
;
Structure prediction by ZEFSAII (Michael W. Deem and Ramdas Pophale) SiO2 
 PCOD8196667
Probable space group: P M M M
;
_chemical_formula_sum "Si O2"
_cell_formula_units_Z 52
_cell_length_a 19.317992
_cell_length_b 15.870000
_cell_length_c 9.251819
_cell_angle_alpha 90.000000
_cell_angle_beta 90.000000
_cell_angle_gamma 90.000000
_cell_volume 2836.390593
_symmetry_space_group_name_H-M "P M M M"
_symmetry_group_IT_number 47
_symmetry_cell_setting 'orthorhombic'
loop_
_space_group_symop_operation_xyz
x,y,z
-x,-y,z
x,-y,-z
-x,y,-z
-x,-y,-z
x,y,-z
-x,y,z
x,-y,z
loop_
_atom_site_type_symbol
_atom_site_label
_atom_site_fract_x
_atom_site_fract_y
_atom_site_fract_z
Si Si1 0.582196 0.255857 0.835527
Si Si2 0.082040 0.157114 0.661176
Si Si3 0.082791 0.000000 0.837680
Si Si4 0.417760 0.093669 0.336356
Si Si5 0.343378 0.597365 0.670126
Si Si6 0.190332 0.402841 0.656705
Si Si7 0.920914 0.321537 0.831528
O O1 0.500000 0.254960 0.828997
O O2 0.611989 0.169862 0.762074
O O3 0.605977 0.340664 0.755304
O O4 0.609161 0.257646 0.000000
O O5 0.113694 0.156286 0.500000
O O6 0.104339 0.240484 0.744228
O O7 0.000000 0.149986 0.653241
O O8 0.112474 0.080152 0.752778
O O9 0.000000 0.000000 0.841246
O O10 0.112282 0.000000 0.000000
O O11 0.391641 0.108608 0.500000
O O12 0.500000 0.095855 0.331945
O O13 0.392941 0.000000 0.282826
O O14 0.358418 0.604723 0.500000
O O15 0.354969 0.500000 0.720681
O O16 0.265456 0.631165 0.705572
O O17 0.167753 0.363640 0.500000
O O18 0.202657 0.500000 0.631924
O O19 0.131087 0.393224 0.778068
O O20 0.000000 0.347071 0.795107
O O21 0.912355 0.303844 0.000000
#
# Coordination Sequence:
#
# PCOD8196667 Si02
#       7
#     8   8   4   8   8   8   8
#     4  10  20  31  46  74 109 140 170 207 253 302
#     4   9  16  26  41  62  89 121 156 191 228 274
#     4   9  15  23  37  59  89 121 151 187 232 279
#     4   8  14  26  45  69  98 133 172 211 248 289
#     4   9  19  36  55  73  95 128 172 216 254 298
#     4   9  19  36  55  73  93 121 161 205 247 295
#     4  10  20  32  47  71 101 128 156 194 242 295
#
# _framework density 18.333158999999998
#
# number of rings (size 3 to 8) (size 9 to 14) (size 15 to 20)
#    0.000    2.846    0.000    3.000    0.000    6.769 
#    0.000    6.154    0.000    0.000    2.000    0.000 
#    0.000    0.000    0.000    0.000    0.000    0.000 
#
# Total GULP energy -644419.758418 kJ/mol
# GULP energy per Si atom -12392.687662 kJ/mol
# Density = 1.829143 g / cm^3
# Si number density = 18.333159 Si / 1000 Ang^3
#
#
#
# Elastic Constant Matrix: (Units=GPa)
#
#
# Indices 1 2 3 4 5 6 
#
# 1 28.4889 21.0817 25.5844 0.0000 0.0000 0.0000
# 2 21.0817 96.8085 51.6122 0.0000 0.0000 0.0000
# 3 25.5844 51.6122 115.1804 0.0000 0.0000 0.0000
# 4 0.0000 0.0000 0.0000 23.7743 0.0000 0.0000
# 5 0.0000 0.0000 0.0000 0.0000 19.0691 0.0000
# 6 0.0000 0.0000 0.0000 0.0000 0.0000 4.1308
#
#
#
# Elastic Compliance Matrix: (Units=1/GPa)
#
#
# Indices 1 2 3 4 5 6 
#
# 1 0.046402 -0.006057 -0.007593 0.000000 0.000000 0.000000
# 2 -0.006057 0.014363 -0.005090 0.000000 0.000000 0.000000
# 3 -0.007593 -0.005090 0.012650 0.000000 0.000000 0.000000
# 4 0.000000 0.000000 0.000000 0.042062 0.000000 0.000000
# 5 0.000000 0.000000 0.000000 0.000000 0.052441 0.000000
# 6 0.000000 0.000000 0.000000 0.000000 0.000000 0.242086
#
#
# Mechanical properties :
#
#
# Convention : Reuss Voigt Hill
#
# Bulk Modulus (GPa) = 27.82886 48.55938 38.19412
# Shear Modulus (GPa) = 10.88227 18.87478 14.87853
#
# Velocity S-wave (km/s) = 2.43900 3.21213 2.85189
# Velocity P-wave (km/s) = 4.81083 6.34836 5.63231
#
# Compressibility (1/GPa) = 0.03593392
#
# Stress axis : x y z
#
# Youngs Moduli (GPa) = 21.55064 69.62548 79.05339
#
# Poissons Ratio (x) = 0.42171 0.60026
# Poissons Ratio (y) = 0.13053 0.40242
# Poissons Ratio (z) = 0.16364 0.35443
#
# Static dielectric constant tensor:
#      x y z
#    x 2.922640 0.000000 0.000000 
#    y 0.000000 3.502680 0.000000 
#    z 0.000000 0.000000 3.508140 
# 
# 
# High freq. dielectric constant tensor:
#      x y z
#    x 1.658840 0.000000 0.000000 
#    y 0.000000 1.715720 0.000000 
#    z 0.000000 0.000000 1.717030 
# 
# From -- ./inp_files/10948.got.cif
#   From: 2010.03.12/outbox.cif.g09.slc.cpg/sg47_6_cif.got.tgz:10948.got - 2010.04.14 03:12:58.
