data_PCOD8196636
_publ_section_title
;
Structure prediction by ZEFSAII (Michael W. Deem and Ramdas Pophale) SiO2 
 PCOD8196636
Probable space group: P M M M
;
_chemical_formula_sum "Si O2"
_cell_formula_units_Z 52
_cell_length_a 9.270665
_cell_length_b 11.434141
_cell_length_c 27.679384
_cell_angle_alpha 90.000000
_cell_angle_beta 90.000000
_cell_angle_gamma 90.000000
_cell_volume 2934.072575
_symmetry_space_group_name_H-M "P M M M"
_symmetry_group_IT_number 47
_symmetry_cell_setting 'orthorhombic'
loop_
_space_group_symop_operation_xyz
x,y,z
-x,-y,z
x,-y,-z
-x,y,-z
-x,-y,-z
x,y,-z
-x,y,z
x,-y,z
loop_
_atom_site_type_symbol
_atom_site_label
_atom_site_fract_x
_atom_site_fract_y
_atom_site_fract_z
Si Si1 0.833942 0.364438 0.669702
Si Si2 0.660589 0.361571 0.142736
Si Si3 0.836752 0.000000 0.751270
Si Si4 0.665796 0.000000 0.654676
Si Si5 0.671415 0.775986 0.406199
Si Si6 0.827591 0.138225 0.500000
Si Si7 0.833811 0.256070 0.228826
Si Si8 0.161871 0.360935 0.946799
O O1 0.811789 0.500000 0.682234
O O2 0.732973 0.333941 0.623880
O O3 0.786263 0.289706 0.716718
O O4 0.000000 0.337082 0.656290
O O5 0.500000 0.309344 0.144476
O O6 0.657029 0.500000 0.138751
O O7 0.741206 0.328849 0.191469
O O8 0.738119 0.307666 0.095308
O O9 0.740934 0.000000 0.704998
O O10 0.806496 0.118065 0.781560
O O11 0.000000 0.000000 0.732520
O O12 0.712103 0.111678 0.624695
O O13 0.500000 0.000000 0.666738
O O14 0.500000 0.761720 0.415638
O O15 0.757441 0.792525 0.455607
O O16 0.000000 0.153313 0.500000
O O17 0.785337 0.000000 0.500000
O O18 0.000000 0.290793 0.221092
O O19 0.161715 0.500000 0.943958
O O20 0.000000 0.313781 0.938591
O O21 0.218006 0.321421 0.000000
#
# Coordination Sequence:
#
# PCOD8196636 Si02
#       8
#     8   8   4   4   8   4   8   8
#     4  10  21  37  57  80 106 139 178 215 253 303
#     4  10  20  31  45  70 104 140 175 211 252 301
#     4  10  20  34  55  79 101 129 171 218 255 301
#     4  10  20  33  53  80 109 137 163 204 259 308
#     4  11  22  37  57  82 112 140 169 209 258 310
#     4  11  23  37  58  85 110 137 171 213 259 304
#     4  10  20  34  53  76 102 134 171 213 258 302
#     4   8  14  26  45  68  95 130 171 213 257 304
#
# _framework density 17.722805000000001
#
# number of rings (size 3 to 8) (size 9 to 14) (size 15 to 20)
#    0.000    2.077    2.308    2.077    0.000    4.308 
#    0.000    1.923    0.000    2.308    0.000    0.538 
#    0.000    4.308    0.000    0.000    0.000    0.000 
#
# Total GULP energy -644679.393909 kJ/mol
# GULP energy per Si atom -12397.680652 kJ/mol
# Density = 1.768247 g / cm^3
# Si number density = 17.722805 Si / 1000 Ang^3
#
#
#
# Elastic Constant Matrix: (Units=GPa)
#
#
# Indices 1 2 3 4 5 6 
#
# 1 99.2113 19.9171 65.5920 0.0000 0.0000 0.0000
# 2 19.9171 49.9926 14.2044 0.0000 0.0000 0.0000
# 3 65.5920 14.2044 116.2568 0.0000 0.0000 0.0000
# 4 0.0000 0.0000 0.0000 13.4547 0.0000 0.0000
# 5 0.0000 0.0000 0.0000 0.0000 34.3160 0.0000
# 6 0.0000 0.0000 0.0000 0.0000 0.0000 21.8458
#
#
#
# Elastic Compliance Matrix: (Units=1/GPa)
#
#
# Indices 1 2 3 4 5 6 
#
# 1 0.016872 -0.004162 -0.009011 0.000000 0.000000 0.000000
# 2 -0.004162 0.021749 -0.000309 0.000000 0.000000 0.000000
# 3 -0.009011 -0.000309 0.013723 0.000000 0.000000 0.000000
# 4 0.000000 0.000000 0.000000 0.074324 0.000000 0.000000
# 5 0.000000 0.000000 0.000000 0.000000 0.029141 0.000000
# 6 0.000000 0.000000 0.000000 0.000000 0.000000 0.045775
#
#
# Mechanical properties :
#
#
# Convention : Reuss Voigt Hill
#
# Bulk Modulus (GPa) = 39.39979 51.65420 45.52699
# Shear Modulus (GPa) = 21.09627 24.97309 23.03468
#
# Velocity S-wave (km/s) = 3.45388 3.75786 3.60907
# Velocity P-wave (km/s) = 6.17941 6.93092 6.56592
#
# Compressibility (1/GPa) = 0.02538085
#
# Stress axis : x y z
#
# Youngs Moduli (GPa) = 59.26841 45.97945 72.86836
#
# Poissons Ratio (x) = 0.19135 0.65661
# Poissons Ratio (y) = 0.24666 0.02254
# Poissons Ratio (z) = 0.53406 0.01422
#
# Static dielectric constant tensor:
#      x y z
#    x 3.422070 0.000000 0.000000 
#    y 0.000000 3.136150 0.000000 
#    z 0.000000 0.000000 3.318760 
# 
# 
# High freq. dielectric constant tensor:
#      x y z
#    x 1.690000 0.000000 0.000000 
#    y 0.000000 1.655470 0.000000 
#    z 0.000000 0.000000 1.686360 
# 
# From -- ./inp_files/33325.got.cif
#   From: 2010.03.12/outbox.cif.g09.slc.cpg/sg47_17_cif.got.tgz:33325.got - 2010.04.14 03:12:58.
