data_PCOD8196059
_publ_section_title
;
Structure prediction by ZEFSAII (Michael W. Deem and Ramdas Pophale) SiO2 
 PCOD8196059
Probable space group: P M M M
;
_chemical_formula_sum "Si O2"
_cell_formula_units_Z 56
_cell_length_a 21.090027
_cell_length_b 9.340616
_cell_length_c 14.341035
_cell_angle_alpha 90.000000
_cell_angle_beta 90.000000
_cell_angle_gamma 90.000000
_cell_volume 2825.095606
_symmetry_space_group_name_H-M "P M M M"
_symmetry_group_IT_number 47
_symmetry_cell_setting 'orthorhombic'
loop_
_space_group_symop_operation_xyz
x,y,z
-x,-y,z
x,-y,-z
-x,y,-z
-x,-y,-z
x,y,-z
-x,y,z
x,-y,z
loop_
_atom_site_type_symbol
_atom_site_label
_atom_site_fract_x
_atom_site_fract_y
_atom_site_fract_z
Si Si1 0.573639 0.156590 0.101274
Si Si2 0.815161 0.170179 0.604523
Si Si3 0.688721 0.835596 0.294232
Si Si4 0.750676 0.161440 0.895231
Si Si5 0.929264 0.834720 0.268131
Si Si6 0.571729 0.332377 0.721927
Si Si7 0.875930 0.666631 0.893423
O O1 0.500000 0.134798 0.088538
O O2 0.584741 0.286610 0.171934
O O3 0.601241 0.000000 0.136024
O O4 0.603674 0.194752 0.000000
O O5 0.816011 0.233388 0.500000
O O6 0.752143 0.225533 0.657221
O O7 0.877929 0.225357 0.658017
O O8 0.815636 0.000000 0.602054
O O9 0.694989 0.813854 0.181034
O O10 0.627125 0.750796 0.334697
O O11 0.679204 0.000000 0.321905
O O12 0.806559 0.270811 0.873300
O O13 0.777703 0.000000 0.883357
O O14 0.723799 0.184990 0.000000
O O15 0.926045 0.745402 0.172557
O O16 0.000000 0.816073 0.310114
O O17 0.915132 0.000000 0.244799
O O18 0.500000 0.289114 0.689537
O O19 0.581838 0.500000 0.710550
O O20 0.874526 0.500000 0.869320
O O21 0.896501 0.694148 0.000000
#
# Coordination Sequence:
#
# PCOD8196059 Si02
#       7
#     8   8   8   8   8   8   8
#     4   8  14  26  44  65  92 130 175 217 256 306
#     4   9  18  35  59  87 115 139 173 225 279 329
#     4  10  19  33  55  80 106 140 180 222 272 326
#     4   9  17  31  52  77 106 140 182 230 274 319
#     4  10  20  35  57  85 116 150 187 225 269 321
#     4  10  21  34  48  71 104 139 175 220 273 326
#     4  10  20  33  51  77 112 153 192 230 272 316
#
# _framework density 19.822340000000001
#
# number of rings (size 3 to 8) (size 9 to 14) (size 15 to 20)
#    0.000    2.571    1.429    1.286    0.000    4.000 
#    0.000    5.714    0.000    2.143    0.000    4.000 
#    0.000    0.000    0.000    0.000    0.000    0.000 
#
# Total GULP energy -693957.687682 kJ/mol
# GULP energy per Si atom -12392.101566 kJ/mol
# Density = 1.977722 g / cm^3
# Si number density = 19.822340 Si / 1000 Ang^3
#
#
#
# Elastic Constant Matrix: (Units=GPa)
#
#
# Indices 1 2 3 4 5 6 
#
# 1 156.3922 50.6846 50.7449 0.0000 0.0000 0.0000
# 2 50.6846 67.7800 30.4204 0.0000 0.0000 0.0000
# 3 50.7449 30.4204 81.7548 0.0000 0.0000 0.0000
# 4 0.0000 0.0000 0.0000 10.5731 0.0000 0.0000
# 5 0.0000 0.0000 0.0000 0.0000 8.4065 0.0000
# 6 0.0000 0.0000 0.0000 0.0000 0.0000 21.6660
#
#
#
# Elastic Compliance Matrix: (Units=1/GPa)
#
#
# Indices 1 2 3 4 5 6 
#
# 1 0.009347 -0.005265 -0.003843 0.000000 0.000000 0.000000
# 2 -0.005265 0.020677 -0.004426 0.000000 0.000000 0.000000
# 3 -0.003843 -0.004426 0.016264 0.000000 0.000000 0.000000
# 4 0.000000 0.000000 0.000000 0.094580 0.000000 0.000000
# 5 0.000000 0.000000 0.000000 0.000000 0.118955 0.000000
# 6 0.000000 0.000000 0.000000 0.000000 0.000000 0.046155
#
#
# Mechanical properties :
#
#
# Convention : Reuss Voigt Hill
#
# Bulk Modulus (GPa) = 52.02683 63.29188 57.65935
# Shear Modulus (GPa) = 14.72957 19.73424 17.23190
#
# Velocity S-wave (km/s) = 2.72890 3.15867 2.95162
# Velocity P-wave (km/s) = 6.01937 6.73066 6.38493
#
# Compressibility (1/GPa) = 0.01922085
#
# Stress axis : x y z
#
# Youngs Moduli (GPa) = 106.98139 48.36266 61.48657
#
# Poissons Ratio (x) = 0.25464 0.23628
# Poissons Ratio (y) = 0.56327 0.27213
# Poissons Ratio (z) = 0.41111 0.21404
#
# Static dielectric constant tensor:
#      x y z
#    x 3.767410 0.000000 0.000000 
#    y 0.000000 3.349730 0.000000 
#    z 0.000000 0.000000 3.550800 
# 
# 
# High freq. dielectric constant tensor:
#      x y z
#    x 1.787830 0.000000 0.000000 
#    y 0.000000 1.741450 0.000000 
#    z 0.000000 0.000000 1.742130 
# 
# From -- ./inp_files/25118.got.cif
#   From: 2010.03.12/outbox.cif.g09.slc.cpg/sg47_13_cif.got.tgz:25118.got - 2010.04.14 03:12:58.
