data_PCOD8196062
_publ_section_title
;
Structure prediction by ZEFSAII (Michael W. Deem and Ramdas Pophale) SiO2 
 PCOD8196062
Probable space group: P M M M
;
_chemical_formula_sum "Si O2"
_cell_formula_units_Z 40
_cell_length_a 11.850907
_cell_length_b 20.442999
_cell_length_c 8.842766
_cell_angle_alpha 90.000000
_cell_angle_beta 90.000000
_cell_angle_gamma 90.000000
_cell_volume 2142.319940
_symmetry_space_group_name_H-M "P M M M"
_symmetry_group_IT_number 47
_symmetry_cell_setting 'orthorhombic'
loop_
_space_group_symop_operation_xyz
x,y,z
-x,-y,z
x,-y,-z
-x,y,-z
-x,-y,-z
x,y,-z
-x,y,z
x,-y,z
loop_
_atom_site_type_symbol
_atom_site_label
_atom_site_fract_x
_atom_site_fract_y
_atom_site_fract_z
Si Si1 0.000000 0.257913 0.827983
Si Si2 0.226942 0.074996 0.826561
Si Si3 0.000000 0.879475 0.677865
Si Si4 0.243270 0.696884 0.175891
Si Si5 0.626804 0.428085 0.179563
Si Si6 0.629570 0.816571 0.322299
O O1 0.890939 0.302753 0.797959
O O2 0.000000 0.196950 0.716200
O O3 0.000000 0.231137 0.000000
O O4 0.109371 0.085401 0.742891
O O5 0.326176 0.117676 0.755018
O O6 0.264419 0.000000 0.811244
O O7 0.210464 0.096020 0.000000
O O8 0.000000 0.888152 0.500000
O O9 0.289407 0.627928 0.240825
O O10 0.298790 0.755190 0.267960
O O11 0.274727 0.705738 0.000000
O O12 0.500000 0.412273 0.235865
O O13 0.664190 0.500000 0.240242
O O14 0.629613 0.429082 0.000000
O O15 0.645156 0.824370 0.500000
O O16 0.500000 0.806093 0.275950
#
# Coordination Sequence:
#
# PCOD8196062 Si02
#       6
#     4   8   4   8   8   8
#     4  10  20  33  52  80 112 144 183 232 276 324
#     4  11  24  41  61  84 111 144 184 230 277 331
#     4  12  23  37  60  86 113 146 183 226 279 332
#     4  10  19  33  55  80 109 146 187 231 280 331
#     4   8  14  26  47  77 110 144 186 233 277 323
#     4  11  24  39  56  81 112 145 184 232 283 336
#
# _framework density 18.671347999999998
#
# number of rings (size 3 to 8) (size 9 to 14) (size 15 to 20)
#    0.000    1.800    2.000    3.600    0.000    5.600 
#    0.000    2.500    0.000    3.600    0.000    2.800 
#    0.000    2.400    0.000    0.000    0.000    0.000 
#
# Total GULP energy -496056.200194 kJ/mol
# GULP energy per Si atom -12401.405005 kJ/mol
# Density = 1.862885 g / cm^3
# Si number density = 18.671348 Si / 1000 Ang^3
#
#
#
# Elastic Constant Matrix: (Units=GPa)
#
#
# Indices 1 2 3 4 5 6 
#
# 1 134.3104 69.7250 49.0053 0.0000 0.0000 0.0000
# 2 69.7250 134.6722 37.1653 0.0000 0.0000 0.0000
# 3 49.0053 37.1653 82.4704 0.0000 0.0000 0.0000
# 4 0.0000 0.0000 0.0000 -6.4067 0.0000 0.0000
# 5 0.0000 0.0000 0.0000 0.0000 23.8403 0.0000
# 6 0.0000 0.0000 0.0000 0.0000 0.0000 39.2524
#
#
#
# Elastic Compliance Matrix: (Units=1/GPa)
#
#
# Indices 1 2 3 4 5 6 
#
# 1 0.011635 -0.004701 -0.004796 0.000000 0.000000 0.000000
# 2 -0.004701 0.010379 -0.001884 0.000000 0.000000 0.000000
# 3 -0.004796 -0.001884 0.015824 0.000000 0.000000 0.000000
# 4 0.000000 0.000000 0.000000 -0.156085 0.000000 0.000000
# 5 0.000000 0.000000 0.000000 0.000000 0.041946 0.000000
# 6 0.000000 0.000000 0.000000 0.000000 0.000000 0.025476
#
#
# Mechanical properties :
#
#
# Convention : Reuss Voigt Hill
#
# Bulk Modulus (GPa) = 66.32181 73.69381 70.00781
# Shear Modulus (GPa) = -217.03623 24.37434 -96.33094
#
# Velocity S-wave (km/s) = -10.79317 3.61701 -7.19061
# Velocity P-wave (km/s) = 10.94193 7.54972 5.60033
#
# Compressibility (1/GPa) = 0.01507800
#
# Stress axis : x y z
#
# Youngs Moduli (GPa) = 85.94391 96.34721 63.19403
#
# Poissons Ratio (x) = 0.45290 0.30306
# Poissons Ratio (y) = 0.40400 0.11907
# Poissons Ratio (z) = 0.41216 0.18153
#
# Static dielectric constant tensor:
#      x y z
#    x 3.596150 0.000000 0.000000 
#    y 0.000000 3.693540 0.000000 
#    z 0.000000 0.000000 3.294320 
# 
# 
# High freq. dielectric constant tensor:
#      x y z
#    x 1.728850 0.000000 0.000000 
#    y 0.000000 1.729570 0.000000 
#    z 0.000000 0.000000 1.707460 
# 
# From -- ./inp_files/4131.got.cif
#   From: 2010.03.12/outbox.cif.g09.slc.cpg/sg47_3_cif.got.tgz:4131.got - 2010.04.14 03:12:58.
