data_PCOD8196224
_publ_section_title
;
Structure prediction by ZEFSAII (Michael W. Deem and Ramdas Pophale) SiO2 
 PCOD8196224
Probable space group: P M M M
;
_chemical_formula_sum "Si O2"
_cell_formula_units_Z 40
_cell_length_a 15.635821
_cell_length_b 14.471730
_cell_length_c 8.782686
_cell_angle_alpha 90.000000
_cell_angle_beta 90.000000
_cell_angle_gamma 90.000000
_cell_volume 1987.323176
_symmetry_space_group_name_H-M "P M M M"
_symmetry_group_IT_number 47
_symmetry_cell_setting 'orthorhombic'
loop_
_space_group_symop_operation_xyz
x,y,z
-x,-y,z
x,-y,-z
-x,y,-z
-x,-y,-z
x,y,-z
-x,y,z
x,-y,z
loop_
_atom_site_type_symbol
_atom_site_label
_atom_site_fract_x
_atom_site_fract_y
_atom_site_fract_z
Si Si1 0.095382 0.399685 0.180380
Si Si2 0.600456 0.604237 0.174711
Si Si3 0.000000 0.103798 0.180874
Si Si4 0.657093 0.214206 0.321308
Si Si5 0.500000 0.106727 0.179559
Si Si6 0.167851 0.210832 0.180726
O O1 0.132474 0.500000 0.231683
O O2 0.156203 0.317205 0.235306
O O3 0.000000 0.386374 0.247883
O O4 0.088386 0.394960 0.000000
O O5 0.500000 0.621555 0.192056
O O6 0.623749 0.500000 0.227210
O O7 0.650125 0.677693 0.277653
O O8 0.628744 0.618655 0.000000
O O9 0.914363 0.154055 0.239701
O O10 0.000000 0.000000 0.244823
O O11 0.000000 0.105939 0.000000
O O12 0.649348 0.202453 0.500000
O O13 0.583849 0.154767 0.243734
O O14 0.747468 0.173527 0.263325
O O15 0.500000 0.000000 0.228526
O O16 0.500000 0.119493 0.000000
O O17 0.179286 0.201050 0.000000
#
# Coordination Sequence:
#
# PCOD8196224 Si02
#       6
#     8   8   4   8   4   8
#     4   8  13  24  47  79 110 142 187 243 294 332
#     4   9  18  35  61  89 118 157 205 251 290 337
#     4   9  18  34  58  86 112 141 189 252 302 337
#     4  12  25  39  59  91 128 163 194 236 297 366
#     4  11  25  47  72  91 110 145 197 256 308 353
#     4  10  19  34  57  84 114 152 197 245 291 342
#
# _framework density 20.127576999999999
#
# number of rings (size 3 to 8) (size 9 to 14) (size 15 to 20)
#    0.000    2.200    2.000    3.300    0.000    2.800 
#    0.000    5.500    0.000    0.600    0.000    1.400 
#    0.000    0.000    0.000    0.000    0.000    0.000 
#
# Total GULP energy -495895.506800 kJ/mol
# GULP energy per Si atom -12397.387670 kJ/mol
# Density = 2.008177 g / cm^3
# Si number density = 20.127577 Si / 1000 Ang^3
#
#
#
# Elastic Constant Matrix: (Units=GPa)
#
#
# Indices 1 2 3 4 5 6 
#
# 1 145.3504 70.7115 32.6212 0.0000 0.0000 0.0000
# 2 70.7115 137.6132 37.8183 0.0000 0.0000 0.0000
# 3 32.6212 37.8183 51.5902 0.0000 0.0000 0.0000
# 4 0.0000 0.0000 0.0000 9.8768 0.0000 0.0000
# 5 0.0000 0.0000 0.0000 0.0000 -1.4799 0.0000
# 6 0.0000 0.0000 0.0000 0.0000 0.0000 6.4351
#
#
#
# Elastic Compliance Matrix: (Units=1/GPa)
#
#
# Indices 1 2 3 4 5 6 
#
# 1 0.009543 -0.004064 -0.003055 0.000000 0.000000 0.000000
# 2 -0.004064 0.010831 -0.005370 0.000000 0.000000 0.000000
# 3 -0.003055 -0.005370 0.025251 0.000000 0.000000 0.000000
# 4 0.000000 0.000000 0.000000 0.101247 0.000000 0.000000
# 5 0.000000 0.000000 0.000000 0.000000 -0.675728 0.000000
# 6 0.000000 0.000000 0.000000 0.000000 0.000000 0.155397
#
#
# Mechanical properties :
#
#
# Convention : Reuss Voigt Hill
#
# Bulk Modulus (GPa) = 48.43164 68.53953 58.48558
# Shear Modulus (GPa) = -14.63699 15.85993 0.61147
#
# Velocity S-wave (km/s) = -2.69961 2.81013 0.55178
# Velocity P-wave (km/s) = 3.79439 6.68248 5.43383
#
# Compressibility (1/GPa) = 0.02064766
#
# Stress axis : x y z
#
# Youngs Moduli (GPa) = 104.79370 92.33078 39.60161
#
# Poissons Ratio (x) = 0.37522 0.12098
# Poissons Ratio (y) = 0.42587 0.21265
# Poissons Ratio (z) = 0.32013 0.49580
#
# Static dielectric constant tensor:
#      x y z
#    x 3.706860 0.000000 0.000000 
#    y 0.000000 3.978160 0.000000 
#    z 0.000000 0.000000 3.163300 
# 
# 
# High freq. dielectric constant tensor:
#      x y z
#    x 1.792170 0.000000 0.000000 
#    y 0.000000 1.791610 0.000000 
#    z 0.000000 0.000000 1.734540 
# 
# From -- ./inp_files/5704.got.cif
#   From: 2010.03.12/outbox.cif.g09.slc.cpg/sg47_3_cif.got.tgz:5704.got - 2010.04.14 03:12:58.
