data_PCOD8196783
_publ_section_title
;
Structure prediction by ZEFSAII (Michael W. Deem and Ramdas Pophale) SiO2 
 PCOD8196783
Probable space group: P M M M
;
_chemical_formula_sum "Si O2"
_cell_formula_units_Z 64
_cell_length_a 9.411724
_cell_length_b 20.575147
_cell_length_c 19.531467
_cell_angle_alpha 90.000000
_cell_angle_beta 90.000000
_cell_angle_gamma 90.000000
_cell_volume 3782.221803
_symmetry_space_group_name_H-M "P M M M"
_symmetry_group_IT_number 47
_symmetry_cell_setting 'orthorhombic'
loop_
_space_group_symop_operation_xyz
x,y,z
-x,-y,z
x,-y,-z
-x,y,-z
-x,-y,-z
x,y,-z
-x,y,z
x,-y,z
loop_
_atom_site_type_symbol
_atom_site_label
_atom_site_fract_x
_atom_site_fract_y
_atom_site_fract_z
Si Si1 0.163185 0.817793 0.581148
Si Si2 0.656234 0.313941 0.081020
Si Si3 0.664290 0.923915 0.658510
Si Si4 0.669972 0.828674 0.076322
Si Si5 0.661217 0.693170 0.581601
Si Si6 0.839964 0.572262 0.581405
Si Si7 0.841720 0.571024 0.918704
Si Si8 0.668141 0.928326 0.186695
O O1 0.171267 0.821753 0.500000
O O2 0.234054 0.883114 0.609613
O O3 0.249478 0.755055 0.608438
O O4 0.000000 0.812620 0.605859
O O5 0.500000 0.319328 0.113926
O O6 0.724524 0.243367 0.096929
O O7 0.749128 0.371405 0.114459
O O8 0.645293 0.322819 0.000000
O O9 0.500000 0.906454 0.643618
O O10 0.705420 0.905972 0.736563
O O11 0.690728 0.000000 0.644695
O O12 0.500000 0.827763 0.077138
O O13 0.734569 0.879004 0.131196
O O14 0.723038 0.847801 0.000000
O O15 0.661538 0.692200 0.500000
O O16 0.500000 0.697498 0.609628
O O17 0.733668 0.627190 0.610677
O O18 0.838630 0.574872 0.500000
O O19 0.791485 0.500000 0.605845
O O20 0.000000 0.586702 0.607481
O O21 0.778868 0.500000 0.898771
O O22 0.000000 0.577650 0.889051
O O23 0.845482 0.578155 0.000000
O O24 0.500000 0.931005 0.178113
O O25 0.731487 0.000000 0.172379
#
# Coordination Sequence:
#
# PCOD8196783 Si02
#       8
#     8   8   8   8   8   8   8   8
#     4  10  20  32  46  64  86 112 142 177 217 262
#     4   8  13  20  30  47  73 103 132 163 200 238
#     4   9  18  32  48  65  86 112 141 174 213 257
#     4   8  13  21  35  58  87 115 142 173 207 243
#     4   9  16  25  38  57  82 111 142 177 216 256
#     4   8  13  21  33  50  76 112 149 180 211 249
#     4   8  13  20  29  42  63  94 131 167 201 238
#     4   8  14  25  41  61  85 113 143 173 207 248
#
# _framework density 16.921271999999998
#
# number of rings (size 3 to 8) (size 9 to 14) (size 15 to 20)
#    0.000    3.500    0.000    3.000    0.000    3.500 
#    0.000    5.000    0.000    0.750    0.000    0.000 
#    0.000    1.000    0.000   16.875    0.000   19.625 
#
# Total GULP energy -793047.995310 kJ/mol
# GULP energy per Si atom -12391.374927 kJ/mol
# Density = 1.688276 g / cm^3
# Si number density = 16.921272 Si / 1000 Ang^3
#
#
#
# Elastic Constant Matrix: (Units=GPa)
#
#
# Indices 1 2 3 4 5 6 
#
# 1 88.9678 65.6527 21.2328 0.0000 0.0000 0.0000
# 2 65.6527 131.2274 31.1595 0.0000 0.0000 0.0000
# 3 21.2328 31.1595 21.8757 0.0000 0.0000 0.0000
# 4 0.0000 0.0000 0.0000 2.3118 0.0000 0.0000
# 5 0.0000 0.0000 0.0000 0.0000 6.3979 0.0000
# 6 0.0000 0.0000 0.0000 0.0000 0.0000 20.3907
#
#
#
# Elastic Compliance Matrix: (Units=1/GPa)
#
#
# Indices 1 2 3 4 5 6 
#
# 1 0.018545 -0.007561 -0.007230 0.000000 0.000000 0.000000
# 2 -0.007561 0.014598 -0.013454 0.000000 0.000000 0.000000
# 3 -0.007230 -0.013454 0.071894 0.000000 0.000000 0.000000
# 4 0.000000 0.000000 0.000000 0.432568 0.000000 0.000000
# 5 0.000000 0.000000 0.000000 0.000000 0.156300 0.000000
# 6 0.000000 0.000000 0.000000 0.000000 0.000000 0.049042
#
#
# Mechanical properties :
#
#
# Convention : Reuss Voigt Hill
#
# Bulk Modulus (GPa) = 20.59872 53.12899 36.86385
# Shear Modulus (GPa) = 6.13030 14.08847 10.10939
#
# Velocity S-wave (km/s) = 1.90544 2.88859 2.44690
# Velocity P-wave (km/s) = 4.12803 6.52619 5.46040
#
# Compressibility (1/GPa) = 0.04854671
#
# Stress axis : x y z
#
# Youngs Moduli (GPa) = 53.92172 68.50281 13.90937
#
# Poissons Ratio (x) = 0.51798 0.10056
# Poissons Ratio (y) = 0.40773 0.18714
# Poissons Ratio (z) = 0.38985 0.92163
#
# Static dielectric constant tensor:
#      x y z
#    x 3.125040 0.000000 0.000000 
#    y 0.000000 3.555510 0.000000 
#    z 0.000000 0.000000 2.702020 
# 
# 
# High freq. dielectric constant tensor:
#      x y z
#    x 1.627280 0.000000 0.000000 
#    y 0.000000 1.669880 0.000000 
#    z 0.000000 0.000000 1.588300 
# 
# From -- ./inp_files/26991.got.cif
#   From: 2010.03.12/outbox.cif.g09.slc.cpg/sg47_14_cif.got.tgz:26991.got - 2010.04.14 03:12:58.
