data_PCOD8196643
_publ_section_title
;
Structure prediction by ZEFSAII (Michael W. Deem and Ramdas Pophale) SiO2 
 PCOD8196643
Probable space group: P M M M
;
_chemical_formula_sum "Si O2"
_cell_formula_units_Z 52
_cell_length_a 25.860116
_cell_length_b 9.452740
_cell_length_c 14.216290
_cell_angle_alpha 90.000000
_cell_angle_beta 90.000000
_cell_angle_gamma 90.000000
_cell_volume 3475.157205
_symmetry_space_group_name_H-M "P M M M"
_symmetry_group_IT_number 47
_symmetry_cell_setting 'orthorhombic'
loop_
_space_group_symop_operation_xyz
x,y,z
-x,-y,z
x,-y,-z
-x,y,-z
-x,-y,-z
x,y,-z
-x,y,z
x,-y,z
loop_
_atom_site_type_symbol
_atom_site_label
_atom_site_fract_x
_atom_site_fract_y
_atom_site_fract_z
Si Si1 0.848401 0.840719 0.611982
Si Si2 0.402824 0.661602 0.894318
Si Si3 0.500000 0.841707 0.888571
Si Si4 0.441739 0.162575 0.609286
Si Si5 0.353515 0.337544 0.292397
Si Si6 0.057351 0.341239 0.388126
Si Si7 0.250263 0.664531 0.390417
O O1 0.850539 0.841580 0.500000
O O2 0.899841 0.765628 0.653342
O O3 0.798477 0.753931 0.645992
O O4 0.845690 0.000000 0.651834
O O5 0.422824 0.500000 0.894016
O O6 0.448925 0.759723 0.855591
O O7 0.355245 0.679932 0.821392
O O8 0.384832 0.704749 0.000000
O O9 0.500000 0.000000 0.845123
O O10 0.500000 0.847761 0.000000
O O11 0.438906 0.201296 0.500000
O O12 0.500000 0.191357 0.647073
O O13 0.401830 0.258242 0.664131
O O14 0.426667 0.000000 0.625560
O O15 0.358584 0.500000 0.323220
O O16 0.299296 0.278700 0.331378
O O17 0.060090 0.341041 0.500000
O O18 0.068861 0.500000 0.351494
O O19 0.000000 0.292586 0.355216
O O20 0.261657 0.692016 0.500000
O O21 0.238494 0.500000 0.371237
#
# Coordination Sequence:
#
# PCOD8196643 Si02
#       7
#     8   8   4   8   8   8   8
#     4   9  16  24  35  52  73  98 129 164 200 235
#     4   9  18  32  47  63  85 107 125 153 196 242
#     4   9  17  29  45  63  80  99 124 151 181 226
#     4   9  19  34  47  60  81 106 128 155 198 245
#     4  10  20  31  46  65  80 100 134 167 197 237
#     4   8  13  21  33  49  70  98 131 164 198 233
#     4   9  17  29  42  55  74  99 129 167 203 232
#
# _framework density 14.963352
#
# number of rings (size 3 to 8) (size 9 to 14) (size 15 to 20)
#    0.000    3.000    0.000    2.077    1.077    5.538 
#    0.000    3.846    0.000    0.000    0.000    0.000 
#    0.000    0.000    0.000    0.000    0.000    0.769 
#
# Total GULP energy -644568.822168 kJ/mol
# GULP energy per Si atom -12395.554272 kJ/mol
# Density = 1.492929 g / cm^3
# Si number density = 14.963352 Si / 1000 Ang^3
#
#
#
# Elastic Constant Matrix: (Units=GPa)
#
#
# Indices 1 2 3 4 5 6 
#
# 1 125.8550 61.2350 41.9000 0.0000 0.0000 0.0000
# 2 61.2350 78.4315 25.8198 0.0000 0.0000 0.0000
# 3 41.9000 25.8198 33.6486 0.0000 0.0000 0.0000
# 4 0.0000 0.0000 0.0000 10.3898 0.0000 0.0000
# 5 0.0000 0.0000 0.0000 0.0000 6.0074 0.0000
# 6 0.0000 0.0000 0.0000 0.0000 0.0000 14.8776
#
#
#
# Elastic Compliance Matrix: (Units=1/GPa)
#
#
# Indices 1 2 3 4 5 6 
#
# 1 0.016878 -0.008374 -0.014591 0.000000 0.000000 0.000000
# 2 -0.008374 0.021214 -0.005851 0.000000 0.000000 0.000000
# 3 -0.014591 -0.005851 0.052378 0.000000 0.000000 0.000000
# 4 0.000000 0.000000 0.000000 0.096248 0.000000 0.000000
# 5 0.000000 0.000000 0.000000 0.000000 0.166462 0.000000
# 6 0.000000 0.000000 0.000000 0.000000 0.000000 0.067215
#
#
# Mechanical properties :
#
#
# Convention : Reuss Voigt Hill
#
# Bulk Modulus (GPa) = 30.45278 55.09386 42.77332
# Shear Modulus (GPa) = 10.22555 13.52031 11.87293
#
# Velocity S-wave (km/s) = 2.61698 3.00919 2.81991
# Velocity P-wave (km/s) = 5.43389 6.99805 6.26498
#
# Compressibility (1/GPa) = 0.03283773
#
# Stress axis : x y z
#
# Youngs Moduli (GPa) = 59.25044 47.13890 19.09213
#
# Poissons Ratio (x) = 0.39473 0.27857
# Poissons Ratio (y) = 0.49615 0.11171
# Poissons Ratio (z) = 0.86451 0.27582
#
# Static dielectric constant tensor:
#      x y z
#    x 2.957710 0.000000 0.000000 
#    y 0.000000 3.028650 0.000000 
#    z 0.000000 0.000000 2.629160 
# 
# 
# High freq. dielectric constant tensor:
#      x y z
#    x 1.563860 0.000000 0.000000 
#    y 0.000000 1.578790 0.000000 
#    z 0.000000 0.000000 1.524630 
# 
# From -- ./inp_files/7992.got.cif
#   From: 2010.03.12/outbox.cif.g09.slc.cpg/sg47_4_cif.got.tgz:7992.got - 2010.04.14 03:12:58.
