data_PCOD8196704
_publ_section_title
;
Structure prediction by ZEFSAII (Michael W. Deem and Ramdas Pophale) SiO2 
 PCOD8196704
Probable space group: P M M M
;
_chemical_formula_sum "Si O2"
_cell_formula_units_Z 52
_cell_length_a 9.011435
_cell_length_b 28.670391
_cell_length_c 14.260027
_cell_angle_alpha 90.000000
_cell_angle_beta 90.000000
_cell_angle_gamma 90.000000
_cell_volume 3684.240040
_symmetry_space_group_name_H-M "P M M M"
_symmetry_group_IT_number 47
_symmetry_cell_setting 'orthorhombic'
loop_
_space_group_symop_operation_xyz
x,y,z
-x,-y,z
x,-y,-z
-x,y,-z
-x,-y,-z
x,y,-z
-x,y,z
x,-y,z
loop_
_atom_site_type_symbol
_atom_site_label
_atom_site_fract_x
_atom_site_fract_y
_atom_site_fract_z
Si Si1 0.172251 0.675115 0.110264
Si Si2 0.324230 0.552258 0.601923
Si Si3 0.169782 0.500000 0.888968
Si Si4 0.333451 0.231671 0.888616
Si Si5 0.166437 0.859056 0.111979
Si Si6 0.676550 0.411991 0.202845
Si Si7 0.333113 0.051205 0.111479
O O1 0.233719 0.724950 0.144341
O O2 0.264152 0.636416 0.164477
O O3 0.000000 0.671670 0.136732
O O4 0.197347 0.667960 0.000000
O O5 0.267405 0.571163 0.500000
O O6 0.500000 0.549820 0.600663
O O7 0.261735 0.500000 0.618689
O O8 0.272995 0.584828 0.687877
O O9 0.252897 0.454219 0.854056
O O10 0.000000 0.500000 0.852988
O O11 0.174580 0.500000 0.000000
O O12 0.500000 0.236901 0.848560
O O13 0.262349 0.184092 0.848715
O O14 0.336942 0.229459 0.000000
O O15 0.230899 0.907651 0.152627
O O16 0.000000 0.853487 0.149725
O O17 0.169479 0.859312 0.000000
O O18 0.500000 0.414342 0.190980
O O19 0.500000 0.058803 0.148588
O O20 0.274276 0.000000 0.143749
O O21 0.332630 0.053664 0.000000
#
# Coordination Sequence:
#
# PCOD8196704 Si02
#       7
#     8   8   4   8   8   8   8
#     4  10  20  32  43  56  78 105 127 151 188 228
#     4   8  14  27  47  68  86 101 120 149 184 219
#     4  11  23  35  44  57  82 112 133 151 182 221
#     4   9  16  26  39  52  65  85 117 153 183 215
#     4   9  15  21  30  44  61  81 106 139 181 226
#     4  11  20  31  48  67  81  99 128 157 183 216
#     4   8  13  20  28  38  54  77 105 138 177 220
#
# _framework density 14.114172999999999
#
# number of rings (size 3 to 8) (size 9 to 14) (size 15 to 20)
#    0.000    2.692    0.769    3.462    0.000    7.385 
#    0.000    1.538    0.000    2.308    0.000    0.000 
#    0.000    0.000    0.000    0.000    0.000    0.000 
#
# Total GULP energy -644482.547642 kJ/mol
# GULP energy per Si atom -12393.895147 kJ/mol
# Density = 1.408205 g / cm^3
# Si number density = 14.114173 Si / 1000 Ang^3
#
#
#
# Elastic Constant Matrix: (Units=GPa)
#
#
# Indices 1 2 3 4 5 6 
#
# 1 89.2034 50.1699 26.0921 0.0000 0.0000 0.0000
# 2 50.1699 116.8149 29.7877 0.0000 0.0000 0.0000
# 3 26.0921 29.7877 40.4424 0.0000 0.0000 0.0000
# 4 0.0000 0.0000 0.0000 -1.1330 0.0000 0.0000
# 5 0.0000 0.0000 0.0000 0.0000 4.7475 0.0000
# 6 0.0000 0.0000 0.0000 0.0000 0.0000 24.2445
#
#
#
# Elastic Compliance Matrix: (Units=1/GPa)
#
#
# Indices 1 2 3 4 5 6 
#
# 1 0.016059 -0.005239 -0.006502 0.000000 0.000000 0.000000
# 2 -0.005239 0.012249 -0.005642 0.000000 0.000000 0.000000
# 3 -0.006502 -0.005642 0.033077 0.000000 0.000000 0.000000
# 4 0.000000 0.000000 0.000000 -0.882601 0.000000 0.000000
# 5 0.000000 0.000000 0.000000 0.000000 0.210636 0.000000
# 6 0.000000 0.000000 0.000000 0.000000 0.000000 0.041247
#
#
# Mechanical properties :
#
#
# Convention : Reuss Voigt Hill
#
# Bulk Modulus (GPa) = 37.56698 50.95113 44.25905
# Shear Modulus (GPa) = -9.51122 14.93253 2.71065
#
# Velocity S-wave (km/s) = -2.59873 3.25619 1.38733
# Velocity P-wave (km/s) = 4.20354 7.09328 5.83028
#
# Compressibility (1/GPa) = 0.02661912
#
# Stress axis : x y z
#
# Youngs Moduli (GPa) = 62.27196 81.63701 30.23245
#
# Poissons Ratio (x) = 0.42769 0.19656
# Poissons Ratio (y) = 0.32624 0.17058
# Poissons Ratio (z) = 0.40488 0.46062
#
# Static dielectric constant tensor:
#      x y z
#    x 2.884580 0.000000 0.000000 
#    y 0.000000 3.019150 0.000000 
#    z 0.000000 0.000000 2.495220 
# 
# 
# High freq. dielectric constant tensor:
#      x y z
#    x 1.545540 0.000000 0.000000 
#    y 0.000000 1.544560 0.000000 
#    z 0.000000 0.000000 1.468060 
# 
# From -- ./inp_files/21972.got.cif
#   From: 2010.03.12/outbox.cif.g09.slc.cpg/sg47_11_cif.got.tgz:21972.got - 2010.04.14 03:12:58.
