data_PCOD8196272
_publ_section_title
;
Structure prediction by ZEFSAII (Michael W. Deem and Ramdas Pophale) SiO2 
 PCOD8196272
Probable space group: P M M M
;
_chemical_formula_sum "Si O2"
_cell_formula_units_Z 48
_cell_length_a 9.388965
_cell_length_b 17.332837
_cell_length_c 14.546313
_cell_angle_alpha 90.000000
_cell_angle_beta 90.000000
_cell_angle_gamma 90.000000
_cell_volume 2367.229156
_symmetry_space_group_name_H-M "P M M M"
_symmetry_group_IT_number 47
_symmetry_cell_setting 'orthorhombic'
loop_
_space_group_symop_operation_xyz
x,y,z
-x,-y,z
x,-y,-z
-x,y,-z
-x,-y,-z
x,y,-z
-x,y,z
x,-y,z
loop_
_atom_site_type_symbol
_atom_site_label
_atom_site_fract_x
_atom_site_fract_y
_atom_site_fract_z
Si Si1 0.671037 0.368446 0.782263
Si Si2 0.842427 0.841467 0.356540
Si Si3 0.839245 0.087950 0.157751
Si Si4 0.831794 0.500000 0.890655
Si Si5 0.833877 0.665198 0.606062
Si Si6 0.349465 0.087890 0.500000
Si Si7 0.660078 0.777409 0.101090
O O1 0.500000 0.382638 0.782153
O O2 0.751827 0.426395 0.849349
O O3 0.733984 0.380312 0.678799
O O4 0.711487 0.283718 0.821932
O O5 0.832357 0.866839 0.252698
O O6 0.799386 0.753893 0.374990
O O7 0.734803 0.895244 0.408514
O O8 0.000000 0.855498 0.395878
O O9 0.746968 0.142641 0.092914
O O10 0.000000 0.084989 0.120361
O O11 0.779511 0.000000 0.163375
O O12 0.000000 0.500000 0.864600
O O13 0.812368 0.500000 0.000000
O O14 0.794692 0.643858 0.500000
O O15 0.000000 0.646171 0.624916
O O16 0.500000 0.133873 0.500000
O O17 0.386057 0.000000 0.500000
O O18 0.500000 0.801559 0.125401
O O19 0.669694 0.738101 0.000000
#
# Coordination Sequence:
#
# PCOD8196272 Si02
#       7
#     8   8   8   4   8   4   8
#     4  11  23  41  67  97 131 166 201 251 307 366
#     4  10  19  35  56  77 107 151 202 255 311 370
#     4  10  21  36  55  80 111 151 203 261 313 362
#     4  11  25  45  72 105 136 167 203 246 300 361
#     4  10  20  37  62  91 123 162 208 255 303 362
#     4  11  23  33  45  73 111 148 195 258 319 373
#     4  10  22  39  59  85 118 159 203 248 307 373
#
# _framework density 20.276872000000001
#
# number of rings (size 3 to 8) (size 9 to 14) (size 15 to 20)
#    0.000    1.667    2.500    2.000    0.000    6.000 
#    0.000    2.083    0.000    2.500    0.000    0.000 
#    0.000    0.000    0.000    0.000    0.000    0.000 
#
# Total GULP energy -594858.969026 kJ/mol
# GULP energy per Si atom -12392.895188 kJ/mol
# Density = 2.023072 g / cm^3
# Si number density = 20.276872 Si / 1000 Ang^3
#
#
#
# Elastic Constant Matrix: (Units=GPa)
#
#
# Indices 1 2 3 4 5 6 
#
# 1 103.3951 51.1890 52.7105 0.0000 0.0000 0.0000
# 2 51.1890 84.1512 35.0667 0.0000 0.0000 0.0000
# 3 52.7105 35.0667 116.4449 0.0000 0.0000 0.0000
# 4 0.0000 0.0000 0.0000 -79.1928 0.0000 0.0000
# 5 0.0000 0.0000 0.0000 0.0000 60.6152 0.0000
# 6 0.0000 0.0000 0.0000 0.0000 0.0000 30.6374
#
#
#
# Elastic Compliance Matrix: (Units=1/GPa)
#
#
# Indices 1 2 3 4 5 6 
#
# 1 0.015978 -0.007667 -0.004924 0.000000 0.000000 0.000000
# 2 -0.007667 0.017268 -0.001729 0.000000 0.000000 0.000000
# 3 -0.004924 -0.001729 0.011337 0.000000 0.000000 0.000000
# 4 0.000000 0.000000 0.000000 -0.012627 0.000000 0.000000
# 5 0.000000 0.000000 0.000000 0.000000 0.016498 0.000000
# 6 0.000000 0.000000 0.000000 0.000000 0.000000 0.032640
#
#
# Mechanical properties :
#
#
# Convention : Reuss Voigt Hill
#
# Bulk Modulus (GPa) = 62.72634 64.65818 63.69226
# Shear Modulus (GPa) = 43.46018 13.41363 28.43691
#
# Velocity S-wave (km/s) = 4.63464 2.57480 3.74897
# Velocity P-wave (km/s) = 7.72282 6.38720 7.08655
#
# Compressibility (1/GPa) = 0.01594226
#
# Stress axis : x y z
#
# Youngs Moduli (GPa) = 62.58742 57.91008 88.20479
#
# Poissons Ratio (x) = 0.44402 0.43428
# Poissons Ratio (y) = 0.47989 0.15254
# Poissons Ratio (z) = 0.30815 0.10015
#
# Static dielectric constant tensor:
#      x y z
#    x 3.785550 0.000000 0.000000 
#    y 0.000000 3.533760 0.000000 
#    z 0.000000 0.000000 3.547920 
# 
# 
# High freq. dielectric constant tensor:
#      x y z
#    x 1.793700 0.000000 0.000000 
#    y 0.000000 1.777880 0.000000 
#    z 0.000000 0.000000 1.801930 
# 
# From -- ./inp_files/6518.got.cif
#   From: 2010.03.12/outbox.cif.g09.slc.cpg/sg47_4_cif.got.tgz:6518.got - 2010.04.14 03:12:58.
