data_PCOD8196761
_publ_section_title
;
Structure prediction by ZEFSAII (Michael W. Deem and Ramdas Pophale) SiO2 
 PCOD8196761
Probable space group: P M M M
;
_chemical_formula_sum "Si O2"
_cell_formula_units_Z 36
_cell_length_a 9.859365
_cell_length_b 9.201541
_cell_length_c 24.666257
_cell_angle_alpha 90.000000
_cell_angle_beta 90.000000
_cell_angle_gamma 90.000000
_cell_volume 2237.756166
_symmetry_space_group_name_H-M "P M M M"
_symmetry_group_IT_number 47
_symmetry_cell_setting 'orthorhombic'
loop_
_space_group_symop_operation_xyz
x,y,z
-x,-y,z
x,-y,-z
-x,y,-z
-x,-y,-z
x,y,-z
-x,y,z
x,-y,z
loop_
_atom_site_type_symbol
_atom_site_label
_atom_site_fract_x
_atom_site_fract_y
_atom_site_fract_z
Si Si1 0.653870 0.661789 0.840230
Si Si2 0.347947 0.672656 0.439922
Si Si3 0.340803 0.500000 0.940806
Si Si4 0.156103 0.329626 0.654505
Si Si5 0.843746 0.830169 0.763026
O O1 0.500000 0.720640 0.834094
O O2 0.664061 0.500000 0.813268
O O3 0.694435 0.643436 0.904383
O O4 0.755981 0.774113 0.813209
O O5 0.307798 0.730241 0.500000
O O6 0.500000 0.724789 0.425149
O O7 0.341692 0.500000 0.440142
O O8 0.243342 0.733786 0.395520
O O9 0.500000 0.500000 0.950110
O O10 0.267151 0.500000 0.000000
O O11 0.180730 0.500000 0.663271
O O12 0.205303 0.248313 0.708392
O O13 0.000000 0.294856 0.641516
O O14 0.000000 0.792524 0.775189
O O15 0.819974 0.000000 0.755710
#
# Coordination Sequence:
#
# PCOD8196761 Si02
#       5
#     8   8   4   8   8
#     4   8  16  29  48  73  94 116 149 189 227 267
#     4   8  14  25  41  62  86 109 135 174 226 277
#     4   7  12  26  49  75  99 119 144 185 230 267
#     4   9  17  28  43  63  85 111 146 187 226 267
#     4  10  20  32  45  63  92 128 159 188 227 272
#
# _framework density 16.087543
#
# number of rings (size 3 to 8) (size 9 to 14) (size 15 to 20)
#    0.667    2.778    0.000    1.333    0.000    3.111 
#    0.000    4.444    0.000    2.667    0.000    9.333 
#    0.000    0.000    0.000    0.000    0.000    0.000 
#
# Total GULP energy -445989.122749 kJ/mol
# GULP energy per Si atom -12388.586743 kJ/mol
# Density = 1.605093 g / cm^3
# Si number density = 16.087543 Si / 1000 Ang^3
#
#
#
# Elastic Constant Matrix: (Units=GPa)
#
#
# Indices 1 2 3 4 5 6 
#
# 1 71.1744 28.2530 70.1907 0.0000 0.0000 0.0000
# 2 28.2530 38.6588 39.9366 0.0000 0.0000 0.0000
# 3 70.1907 39.9366 146.1971 0.0000 0.0000 0.0000
# 4 0.0000 0.0000 0.0000 2.5880 0.0000 0.0000
# 5 0.0000 0.0000 0.0000 0.0000 16.2038 0.0000
# 6 0.0000 0.0000 0.0000 0.0000 0.0000 18.9288
#
#
#
# Elastic Compliance Matrix: (Units=1/GPa)
#
#
# Indices 1 2 3 4 5 6 
#
# 1 0.028982 -0.009482 -0.011324 0.000000 0.000000 0.000000
# 2 -0.009482 0.039139 -0.006139 0.000000 0.000000 0.000000
# 3 -0.011324 -0.006139 0.013954 0.000000 0.000000 0.000000
# 4 0.000000 0.000000 0.000000 0.386405 0.000000 0.000000
# 5 0.000000 0.000000 0.000000 0.000000 0.061714 0.000000
# 6 0.000000 0.000000 0.000000 0.000000 0.000000 0.052829
#
#
# Mechanical properties :
#
#
# Convention : Reuss Voigt Hill
#
# Bulk Modulus (GPa) = 35.48127 59.19901 47.34014
# Shear Modulus (GPa) = 7.73623 15.38745 11.56184
#
# Velocity S-wave (km/s) = 2.19528 3.09606 2.68373
# Velocity P-wave (km/s) = 5.34123 7.04689 6.25250
#
# Compressibility (1/GPa) = 0.02818388
#
# Stress axis : x y z
#
# Youngs Moduli (GPa) = 34.50465 25.54970 71.66443
#
# Poissons Ratio (x) = 0.24227 0.81153
# Poissons Ratio (y) = 0.32718 0.43996
# Poissons Ratio (z) = 0.39073 0.15685
#
# Static dielectric constant tensor:
#      x y z
#    x 2.999620 0.000000 0.000000 
#    y 0.000000 2.662480 0.000000 
#    z 0.000000 0.000000 3.377810 
# 
# 
# High freq. dielectric constant tensor:
#      x y z
#    x 1.610260 0.000000 0.000000 
#    y 0.000000 1.577870 0.000000 
#    z 0.000000 0.000000 1.617790 
# 
# From -- ./inp_files/31655.got.cif
#   From: 2010.03.12/outbox.cif.g09.slc.cpg/sg47_16_cif.got.tgz:31655.got - 2010.04.14 03:12:58.
