data_PCOD8196221
_publ_section_title
;
Structure prediction by ZEFSAII (Michael W. Deem and Ramdas Pophale) SiO2 
 PCOD8196221
Probable space group: P M M M
;
_chemical_formula_sum "Si O2"
_cell_formula_units_Z 52
_cell_length_a 14.899280
_cell_length_b 10.012795
_cell_length_c 18.952918
_cell_angle_alpha 90.000000
_cell_angle_beta 90.000000
_cell_angle_gamma 90.000000
_cell_volume 2827.461435
_symmetry_space_group_name_H-M "P M M M"
_symmetry_group_IT_number 47
_symmetry_cell_setting 'orthorhombic'
loop_
_space_group_symop_operation_xyz
x,y,z
-x,-y,z
x,-y,-z
-x,y,-z
-x,-y,-z
x,y,-z
-x,y,z
x,-y,z
loop_
_atom_site_type_symbol
_atom_site_label
_atom_site_fract_x
_atom_site_fract_y
_atom_site_fract_z
Si Si1 0.500000 0.657631 0.578436
Si Si2 0.104903 0.246149 0.169443
Si Si3 0.667068 0.658608 0.327405
Si Si4 0.000000 0.842948 0.421722
Si Si5 0.753356 0.649925 0.077434
Si Si6 0.599532 0.341385 0.826772
Si Si7 0.893707 0.000000 0.077641
Si Si8 0.164022 0.160246 0.323764
O O1 0.500000 0.500000 0.574142
O O2 0.500000 0.720907 0.500000
O O3 0.410749 0.702751 0.618984
O O4 0.163459 0.361829 0.133229
O O5 0.128386 0.212605 0.249088
O O6 0.000000 0.279416 0.162489
O O7 0.139557 0.126462 0.120360
O O8 0.691047 0.500000 0.333281
O O9 0.634898 0.699140 0.249950
O O10 0.750376 0.753617 0.346761
O O11 0.911297 0.799095 0.380139
O O12 0.000000 0.777491 0.500000
O O13 0.000000 0.000000 0.428776
O O14 0.723956 0.500000 0.062877
O O15 0.667633 0.720845 0.115119
O O16 0.775431 0.715415 0.000000
O O17 0.500000 0.281465 0.839127
O O18 0.595786 0.500000 0.831109
O O19 0.000000 0.000000 0.073990
O O20 0.850869 0.000000 0.000000
O O21 0.182284 0.000000 0.321817
#
# Coordination Sequence:
#
# PCOD8196221 Si02
#       8
#     4   8   8   4   8   8   4   8
#     4   9  18  34  59  89 116 144 179 220 273 338
#     4  11  20  32  52  74  99 135 180 221 261 320
#     4  10  19  34  57  83 111 145 181 221 271 330
#     4   9  20  38  59  81 109 148 187 223 271 331
#     4  10  21  34  48  73 109 141 173 221 279 329
#     4   9  16  29  51  74  97 132 180 222 259 311
#     4   9  18  30  46  68  93 123 164 217 262 298
#     4  11  21  35  58  84 110 143 186 234 274 323
#
# _framework density 18.391054
#
# number of rings (size 3 to 8) (size 9 to 14) (size 15 to 20)
#    0.000    2.077    3.846    0.462    0.000    2.154 
#    0.000    3.077    0.000    0.923    0.000    0.000 
#    0.000    3.077    0.000    0.000    0.000    0.000 
#
# Total GULP energy -644301.638987 kJ/mol
# GULP energy per Si atom -12390.416134 kJ/mol
# Density = 1.834920 g / cm^3
# Si number density = 18.391054 Si / 1000 Ang^3
#
#
#
# Elastic Constant Matrix: (Units=GPa)
#
#
# Indices 1 2 3 4 5 6 
#
# 1 165.3490 35.8561 79.0864 0.0000 0.0000 0.0000
# 2 35.8561 35.2868 25.4660 0.0000 0.0000 0.0000
# 3 79.0864 25.4660 169.5772 0.0000 0.0000 0.0000
# 4 0.0000 0.0000 0.0000 15.9007 0.0000 0.0000
# 5 0.0000 0.0000 0.0000 0.0000 30.4533 0.0000
# 6 0.0000 0.0000 0.0000 0.0000 0.0000 4.6830
#
#
#
# Elastic Compliance Matrix: (Units=1/GPa)
#
#
# Indices 1 2 3 4 5 6 
#
# 1 0.009075 -0.006917 -0.003194 0.000000 0.000000 0.000000
# 2 -0.006917 0.037056 -0.002339 0.000000 0.000000 0.000000
# 3 -0.003194 -0.002339 0.007738 0.000000 0.000000 0.000000
# 4 0.000000 0.000000 0.000000 0.062890 0.000000 0.000000
# 5 0.000000 0.000000 0.000000 0.000000 0.032837 0.000000
# 6 0.000000 0.000000 0.000000 0.000000 0.000000 0.213540
#
#
# Mechanical properties :
#
#
# Convention : Reuss Voigt Hill
#
# Bulk Modulus (GPa) = 34.51895 72.33669 53.42782
# Shear Modulus (GPa) = 12.57253 25.52768 19.05011
#
# Velocity S-wave (km/s) = 2.61745 3.72969 3.22193
# Velocity P-wave (km/s) = 5.28630 7.61350 6.55402
#
# Compressibility (1/GPa) = 0.02896959
#
# Stress axis : x y z
#
# Youngs Moduli (GPa) = 110.18908 26.98647 129.23646
#
# Poissons Ratio (x) = 0.18666 0.41275
# Poissons Ratio (y) = 0.76216 0.30228
# Poissons Ratio (z) = 0.35192 0.06312
#
# Static dielectric constant tensor:
#      x y z
#    x 3.525550 0.000000 0.000000 
#    y 0.000000 3.065270 0.000000 
#    z 0.000000 0.000000 3.830820 
# 
# 
# High freq. dielectric constant tensor:
#      x y z
#    x 1.718630 0.000000 0.000000 
#    y 0.000000 1.667480 0.000000 
#    z 0.000000 0.000000 1.726980 
# 
# From -- ./inp_files/30938.got.cif
#   From: 2010.03.12/outbox.cif.g09.slc.cpg/sg47_16_cif.got.tgz:30938.got - 2010.04.14 03:12:58.
