data_PCOD8196830
_publ_section_title
;
Structure prediction by ZEFSAII (Michael W. Deem and Ramdas Pophale) SiO2 
 PCOD8196830
Probable space group: P M M M
;
_chemical_formula_sum "Si O2"
_cell_formula_units_Z 52
_cell_length_a 9.093909
_cell_length_b 33.724292
_cell_length_c 9.307850
_cell_angle_alpha 90.000000
_cell_angle_beta 90.000000
_cell_angle_gamma 90.000000
_cell_volume 2854.583958
_symmetry_space_group_name_H-M "P M M M"
_symmetry_group_IT_number 47
_symmetry_cell_setting 'orthorhombic'
loop_
_space_group_symop_operation_xyz
x,y,z
-x,-y,z
x,-y,-z
-x,y,-z
-x,-y,-z
x,y,-z
-x,y,z
x,-y,z
loop_
_atom_site_type_symbol
_atom_site_label
_atom_site_fract_x
_atom_site_fract_y
_atom_site_fract_z
Si Si1 0.824871 0.923893 0.163242
Si Si2 0.825791 0.152435 0.664372
Si Si3 0.674823 0.456336 0.161290
Si Si4 0.674532 0.309463 0.158929
Si Si5 0.324193 0.382660 0.339309
Si Si6 0.824687 0.000000 0.336488
Si Si7 0.671901 0.220642 0.166313
O O1 0.766270 0.884688 0.243342
O O2 0.000000 0.924526 0.161155
O O3 0.764986 0.961614 0.251692
O O4 0.763746 0.924866 0.000000
O O5 0.773297 0.147499 0.500000
O O6 0.761761 0.192370 0.729853
O O7 0.000000 0.154790 0.673167
O O8 0.500000 0.454170 0.161860
O O9 0.725322 0.500000 0.216459
O O10 0.739886 0.421832 0.261746
O O11 0.733179 0.449329 0.000000
O O12 0.500000 0.312115 0.153180
O O13 0.738549 0.342915 0.264642
O O14 0.719306 0.265358 0.209524
O O15 0.737964 0.317741 0.000000
O O16 0.263095 0.383029 0.500000
O O17 0.500000 0.382768 0.335830
O O18 0.764127 0.000000 0.500000
O O19 0.000000 0.000000 0.339419
O O20 0.500000 0.213885 0.192730
O O21 0.711507 0.212337 0.000000
#
# Coordination Sequence:
#
# PCOD8196830 Si02
#       7
#     8   8   8   8   8   4   8
#     4   9  16  26  41  61  86 117 151 184 218 258
#     4  10  20  32  46  67  95 124 152 183 223 269
#     4   8  13  20  28  37  52  79 115 152 191 237
#     4   8  14  25  39  53  71  96 127 165 207 250
#     4   9  15  20  28  44  64  86 115 154 199 243
#     4   9  15  23  37  59  88 117 144 179 222 263
#     4   9  18  32  49  68  88 113 149 190 228 266
#
# _framework density 18.216315000000002
#
# number of rings (size 3 to 8) (size 9 to 14) (size 15 to 20)
#    0.000    3.154    0.000    3.000    0.000    6.769 
#    0.000    3.077    0.000    0.000    0.000    0.538 
#    0.000    4.308    0.000    0.000    0.000    0.769 
#
# Total GULP energy -644536.013893 kJ/mol
# GULP energy per Si atom -12394.923344 kJ/mol
# Density = 1.817485 g / cm^3
# Si number density = 18.216315 Si / 1000 Ang^3
#
#
#
# Elastic Constant Matrix: (Units=GPa)
#
#
# Indices 1 2 3 4 5 6 
#
# 1 3.2670 11.7412 12.0181 0.0000 0.0000 0.0000
# 2 11.7412 184.8848 111.5087 0.0000 0.0000 0.0000
# 3 12.0181 111.5087 164.2707 0.0000 0.0000 0.0000
# 4 0.0000 0.0000 0.0000 29.3204 0.0000 0.0000
# 5 0.0000 0.0000 0.0000 0.0000 12.4327 0.0000
# 6 0.0000 0.0000 0.0000 0.0000 0.0000 85.9061
#
#
#
# Elastic Compliance Matrix: (Units=1/GPa)
#
#
# Indices 1 2 3 4 5 6 
#
# 1 0.440505 -0.014455 -0.022415 0.000000 0.000000 0.000000
# 2 -0.014455 0.009633 -0.005481 0.000000 0.000000 0.000000
# 3 -0.022415 -0.005481 0.011448 0.000000 0.000000 0.000000
# 4 0.000000 0.000000 0.000000 0.034106 0.000000 0.000000
# 5 0.000000 0.000000 0.000000 0.000000 0.080433 0.000000
# 6 0.000000 0.000000 0.000000 0.000000 0.000000 0.011641
#
#
# Mechanical properties :
#
#
# Convention : Reuss Voigt Hill
#
# Bulk Modulus (GPa) = 2.65335 69.21759 35.93547
# Shear Modulus (GPa) = 6.26491 40.00883 23.13687
#
# Velocity S-wave (km/s) = 1.85651 4.69157 3.56774
# Velocity P-wave (km/s) = 2.46074 8.21145 6.06148
#
# Compressibility (1/GPa) = 0.37688265
#
# Stress axis : x y z
#
# Youngs Moduli (GPa) = 2.27012 103.81441 87.35098
#
# Poissons Ratio (x) = 1.50067 1.95798
# Poissons Ratio (y) = 0.03282 0.47878
# Poissons Ratio (z) = 0.05089 0.56902
#
# Static dielectric constant tensor:
#      x y z
#    x 2.545300 0.000000 0.000000 
#    y 0.000000 3.689220 0.000000 
#    z 0.000000 0.000000 3.584340 
# 
# 
# High freq. dielectric constant tensor:
#      x y z
#    x 1.616150 0.000000 0.000000 
#    y 0.000000 1.726610 0.000000 
#    z 0.000000 0.000000 1.713540 
# 
# From -- ./inp_files/4822.got.cif
#   From: 2010.03.12/outbox.cif.g09.slc.cpg/sg47_3_cif.got.tgz:4822.got - 2010.04.14 03:12:58.
