data_PCOD8196254
_publ_section_title
;
Structure prediction by ZEFSAII (Michael W. Deem and Ramdas Pophale) SiO2 
 PCOD8196254
Probable space group: P M M M
;
_chemical_formula_sum "Si O2"
_cell_formula_units_Z 56
_cell_length_a 22.545384
_cell_length_b 14.670793
_cell_length_c 9.653290
_cell_angle_alpha 90.000000
_cell_angle_beta 90.000000
_cell_angle_gamma 90.000000
_cell_volume 3192.909282
_symmetry_space_group_name_H-M "P M M M"
_symmetry_group_IT_number 47
_symmetry_cell_setting 'orthorhombic'
loop_
_space_group_symop_operation_xyz
x,y,z
-x,-y,z
x,-y,-z
-x,y,-z
-x,-y,-z
x,y,-z
-x,y,z
x,-y,z
loop_
_atom_site_type_symbol
_atom_site_label
_atom_site_fract_x
_atom_site_fract_y
_atom_site_fract_z
Si Si1 0.109531 0.105791 0.340707
Si Si2 0.247706 0.394818 0.840572
Si Si3 0.671447 0.101044 0.657516
Si Si4 0.615645 0.643466 0.152492
Si Si5 0.431839 0.154354 0.156822
Si Si6 0.222062 0.770904 0.337870
Si Si7 0.000000 0.108180 0.842729
Si Si8 0.432258 0.500000 0.351948
O O1 0.089553 0.119624 0.500000
O O2 0.167244 0.163861 0.304860
O O3 0.057796 0.142383 0.240071
O O4 0.124094 0.000000 0.312303
O O5 0.237104 0.500000 0.793923
O O6 0.315316 0.367044 0.818580
O O7 0.211731 0.323840 0.744766
O O8 0.228214 0.382417 0.000000
O O9 0.654470 0.125501 0.500000
O O10 0.610848 0.096334 0.745216
O O11 0.718890 0.175197 0.712999
O O12 0.700383 0.000000 0.665340
O O13 0.593004 0.744709 0.164313
O O14 0.581376 0.589971 0.268434
O O15 0.601131 0.603844 0.000000
O O16 0.500000 0.149090 0.208808
O O17 0.427805 0.116953 0.000000
O O18 0.226299 0.747961 0.500000
O O19 0.000000 0.000000 0.845012
O O20 0.000000 0.147160 0.000000
O O21 0.500000 0.500000 0.386773
O O22 0.397719 0.500000 0.500000
#
# Coordination Sequence:
#
# PCOD8196254 Si02
#       8
#     8   8   8   8   8   8   4   4
#     4   9  17  31  52  78 111 150 185 213 247 295
#     4  10  20  35  54  75  99 129 166 209 259 314
#     4  10  21  36  53  74 101 132 166 208 260 312
#     4  10  19  35  54  69  90 124 162 201 253 317
#     4  10  21  36  53  71  91 121 165 213 258 308
#     4  10  20  34  54  79 105 136 174 215 255 301
#     4   9  17  29  47  77 116 151 184 219 251 286
#     4  11  23  33  45  71  99 119 149 198 255 316
#
# _framework density 17.538865000000001
#
# number of rings (size 3 to 8) (size 9 to 14) (size 15 to 20)
#    0.000    2.143    2.143    1.286    0.000    6.571 
#    0.000    1.429    0.000    2.571    0.000    0.500 
#    0.000    4.000    0.000    0.000    0.000    0.000 
#
# Total GULP energy -694170.691742 kJ/mol
# GULP energy per Si atom -12395.905210 kJ/mol
# Density = 1.749895 g / cm^3
# Si number density = 17.538865 Si / 1000 Ang^3
#
#
#
# Elastic Constant Matrix: (Units=GPa)
#
#
# Indices 1 2 3 4 5 6 
#
# 1 91.4396 42.2194 49.8952 0.0000 0.0000 0.0000
# 2 42.2194 90.0851 48.5220 0.0000 0.0000 0.0000
# 3 49.8952 48.5220 91.3391 0.0000 0.0000 0.0000
# 4 0.0000 0.0000 0.0000 27.0062 0.0000 0.0000
# 5 0.0000 0.0000 0.0000 0.0000 24.1051 0.0000
# 6 0.0000 0.0000 0.0000 0.0000 0.0000 0.8360
#
#
#
# Elastic Compliance Matrix: (Units=1/GPa)
#
#
# Indices 1 2 3 4 5 6 
#
# 1 0.016572 -0.004049 -0.006901 0.000000 0.000000 0.000000
# 2 -0.004049 0.016539 -0.006574 0.000000 0.000000 0.000000
# 3 -0.006901 -0.006574 0.018211 0.000000 0.000000 0.000000
# 4 0.000000 0.000000 0.000000 0.037029 0.000000 0.000000
# 5 0.000000 0.000000 0.000000 0.000000 0.041485 0.000000
# 6 0.000000 0.000000 0.000000 0.000000 0.000000 1.196163
#
#
# Mechanical properties :
#
#
# Convention : Reuss Voigt Hill
#
# Bulk Modulus (GPa) = 61.45578 61.57081 61.51329
# Shear Modulus (GPa) = 3.65906 19.20461 11.43183
#
# Velocity S-wave (km/s) = 1.44595 3.31263 2.55581
# Velocity P-wave (km/s) = 6.15659 7.05783 6.62256
#
# Compressibility (1/GPa) = 0.01627186
#
# Stress axis : x y z
#
# Youngs Moduli (GPa) = 60.34406 60.46174 54.91291
#
# Poissons Ratio (x) = 0.24482 0.37898
# Poissons Ratio (y) = 0.24435 0.36101
# Poissons Ratio (z) = 0.41646 0.39749
#
# Static dielectric constant tensor:
#      x y z
#    x 3.103090 0.000000 0.000000 
#    y 0.000000 3.150190 0.000000 
#    z 0.000000 0.000000 3.382260 
# 
# 
# High freq. dielectric constant tensor:
#      x y z
#    x 1.655980 0.000000 0.000000 
#    y 0.000000 1.669820 0.000000 
#    z 0.000000 0.000000 1.682170 
# 
# From -- ./inp_files/7393.got.cif
#   From: 2010.03.12/outbox.cif.g09.slc.cpg/sg47_4_cif.got.tgz:7393.got - 2010.04.14 03:12:58.
