data_PCOD8196311
_publ_section_title
;
Structure prediction by ZEFSAII (Michael W. Deem and Ramdas Pophale) SiO2 
 PCOD8196311
Probable space group: P M M M
;
_chemical_formula_sum "Si O2"
_cell_formula_units_Z 40
_cell_length_a 11.600337
_cell_length_b 9.366771
_cell_length_c 19.942957
_cell_angle_alpha 90.000000
_cell_angle_beta 90.000000
_cell_angle_gamma 90.000000
_cell_volume 2166.955843
_symmetry_space_group_name_H-M "P M M M"
_symmetry_group_IT_number 47
_symmetry_cell_setting 'orthorhombic'
loop_
_space_group_symop_operation_xyz
x,y,z
-x,-y,z
x,-y,-z
-x,y,-z
-x,-y,-z
x,y,-z
-x,y,z
x,-y,z
loop_
_atom_site_type_symbol
_atom_site_label
_atom_site_fract_x
_atom_site_fract_y
_atom_site_fract_z
Si Si1 0.864131 0.338278 0.239133
Si Si2 0.000000 0.849012 0.423225
Si Si3 0.791318 0.660911 0.614754
Si Si4 0.249482 0.829505 0.878788
Si Si5 0.624153 0.668085 0.500000
Si Si6 0.136692 0.664119 0.000000
Si Si7 0.500000 0.832081 0.924562
O O1 0.857731 0.500000 0.209986
O O2 0.782149 0.329057 0.304822
O O3 0.806391 0.224376 0.189999
O O4 0.000000 0.301173 0.253661
O O5 0.109817 0.763144 0.405370
O O6 0.000000 0.883675 0.500000
O O7 0.000000 0.000000 0.383638
O O8 0.822791 0.500000 0.593350
O O9 0.683158 0.714362 0.570490
O O10 0.180419 0.749295 0.936129
O O11 0.384907 0.785620 0.884135
O O12 0.233399 0.000000 0.885095
O O13 0.610426 0.500000 0.500000
O O14 0.500000 0.743802 0.500000
O O15 0.181556 0.500000 0.000000
O O16 0.000000 0.665734 0.000000
O O17 0.500000 0.000000 0.932987
O O18 0.500000 0.764697 0.000000
#
# Coordination Sequence:
#
# PCOD8196311 Si02
#       7
#     8   4   8   8   4   4   4
#     4  10  21  37  55  82 119 151 181 228 285 335
#     4  11  21  31  51  85 117 138 177 238 287 327
#     4  10  19  35  59  81 109 150 190 226 280 344
#     4  11  22  38  61  84 110 149 192 229 275 336
#     4   9  18  33  57  86 110 141 192 245 282 327
#     4  11  23  38  57  84 118 149 180 231 290 335
#     4   9  18  38  62  82 108 141 182 237 281 321
#
# _framework density 18.459074000000001
#
# number of rings (size 3 to 8) (size 9 to 14) (size 15 to 20)
#    0.000    1.800    3.000    1.800    0.000    4.800 
#    1.800    2.500    0.000    1.200    0.000    0.000 
#    0.000    0.000    0.000    0.000    0.000    0.000 
#
# Total GULP energy -495571.068183 kJ/mol
# GULP energy per Si atom -12389.276705 kJ/mol
# Density = 1.841706 g / cm^3
# Si number density = 18.459074 Si / 1000 Ang^3
#
#
#
# Elastic Constant Matrix: (Units=GPa)
#
#
# Indices 1 2 3 4 5 6 
#
# 1 131.1309 55.1175 56.9326 0.0000 0.0000 0.0000
# 2 55.1175 97.8114 51.3608 0.0000 0.0000 0.0000
# 3 56.9326 51.3608 110.5165 0.0000 0.0000 0.0000
# 4 0.0000 0.0000 0.0000 815.5936 0.0000 0.0000
# 5 0.0000 0.0000 0.0000 0.0000 35.5137 0.0000
# 6 0.0000 0.0000 0.0000 0.0000 0.0000 23.1851
#
#
#
# Elastic Compliance Matrix: (Units=1/GPa)
#
#
# Indices 1 2 3 4 5 6 
#
# 1 0.011026 -0.004274 -0.003694 0.000000 0.000000 0.000000
# 2 -0.004274 0.015180 -0.004853 0.000000 0.000000 0.000000
# 3 -0.003694 -0.004853 0.013207 0.000000 0.000000 0.000000
# 4 0.000000 0.000000 0.000000 0.001226 0.000000 0.000000
# 5 0.000000 0.000000 0.000000 0.000000 0.028158 0.000000
# 6 0.000000 0.000000 0.000000 0.000000 0.000000 0.043131
#
#
# Mechanical properties :
#
#
# Convention : Reuss Voigt Hill
#
# Bulk Modulus (GPa) = 72.61328 74.03118 73.32223
# Shear Modulus (GPa) = 35.17135 186.59501 110.88318
#
# Velocity S-wave (km/s) = 4.36979 10.06505 7.75888
# Velocity P-wave (km/s) = 8.05499 13.23882 10.95786
#
# Compressibility (1/GPa) = 0.01377159
#
# Stress axis : x y z
#
# Youngs Moduli (GPa) = 90.69424 65.87427 75.71800
#
# Poissons Ratio (x) = 0.28152 0.27970
# Poissons Ratio (y) = 0.38759 0.36749
# Poissons Ratio (z) = 0.33503 0.31971
#
# Static dielectric constant tensor:
#      x y z
#    x 3.463320 0.000000 0.000000 
#    y 0.000000 3.249060 0.000000 
#    z 0.000000 0.000000 4.292170 
# 
# 
# High freq. dielectric constant tensor:
#      x y z
#    x 1.711920 0.000000 0.000000 
#    y 0.000000 1.707700 0.000000 
#    z 0.000000 0.000000 1.720330 
# 
# From -- ./inp_files/30371.got.cif
#   From: 2010.03.12/outbox.cif.g09.slc.cpg/sg47_16_cif.got.tgz:30371.got - 2010.04.14 03:12:58.
