data_PCOD8196648
_publ_section_title
;
Structure prediction by ZEFSAII (Michael W. Deem and Ramdas Pophale) SiO2 
 PCOD8196648
Probable space group: P M M M
;
_chemical_formula_sum "Si O2"
_cell_formula_units_Z 40
_cell_length_a 27.723434
_cell_length_b 8.050600
_cell_length_c 9.207726
_cell_angle_alpha 90.000000
_cell_angle_beta 90.000000
_cell_angle_gamma 90.000000
_cell_volume 2055.074923
_symmetry_space_group_name_H-M "P M M M"
_symmetry_group_IT_number 47
_symmetry_cell_setting 'orthorhombic'
loop_
_space_group_symop_operation_xyz
x,y,z
-x,-y,z
x,-y,-z
-x,y,-z
-x,-y,-z
x,y,-z
-x,y,z
x,-y,z
loop_
_atom_site_type_symbol
_atom_site_label
_atom_site_fract_x
_atom_site_fract_y
_atom_site_fract_z
Si Si1 0.054483 0.500000 0.673030
Si Si2 0.409566 0.808230 0.160326
Si Si3 0.320784 0.310036 0.333177
Si Si4 0.500000 0.801285 0.663372
Si Si5 0.884707 0.186585 0.326301
Si Si6 0.221122 0.193232 0.662660
O O1 0.055664 0.500000 0.500000
O O2 0.079832 0.331160 0.731865
O O3 0.000000 0.500000 0.732114
O O4 0.358545 0.792452 0.239703
O O5 0.452700 0.729075 0.255339
O O6 0.421313 0.000000 0.141109
O O7 0.407711 0.724464 0.000000
O O8 0.321663 0.245591 0.500000
O O9 0.335963 0.500000 0.323751
O O10 0.266971 0.284970 0.264364
O O11 0.500000 0.730336 0.500000
O O12 0.500000 0.000000 0.659542
O O13 0.882732 0.186703 0.500000
O O14 0.831029 0.226563 0.262552
O O15 0.901188 0.000000 0.275558
O O16 0.217011 0.263350 0.500000
O O17 0.232833 0.000000 0.664288
#
# Coordination Sequence:
#
# PCOD8196648 Si02
#       6
#     4   8   8   4   8   8
#     4   9  16  22  30  46  70 106 149 192 239 288
#     4  10  20  34  52  73  98 128 160 194 237 291
#     4  10  20  31  46  70  96 122 155 197 243 290
#     4   9  17  31  54  79  98 121 158 204 246 281
#     4   8  14  23  34  49  71 102 143 191 241 290
#     4   8  14  25  41  60  81 108 144 190 241 285
#
# _framework density 19.464010999999999
#
# number of rings (size 3 to 8) (size 9 to 14) (size 15 to 20)
#    0.000    3.000    0.000    2.700    1.400    4.000 
#    0.000    2.500    0.000    3.000    0.000    0.000 
#    0.000    0.000    0.000    0.000    0.000    2.000 
#
# Total GULP energy -495615.511306 kJ/mol
# GULP energy per Si atom -12390.387783 kJ/mol
# Density = 1.941971 g / cm^3
# Si number density = 19.464011 Si / 1000 Ang^3
#
#
#
# Elastic Constant Matrix: (Units=GPa)
#
#
# Indices 1 2 3 4 5 6 
#
# 1 167.4755 54.3518 43.9384 0.0000 0.0000 0.0000
# 2 54.3518 68.6947 18.2641 0.0000 0.0000 0.0000
# 3 43.9384 18.2641 67.1238 0.0000 0.0000 0.0000
# 4 0.0000 0.0000 0.0000 6.1671 0.0000 0.0000
# 5 0.0000 0.0000 0.0000 0.0000 1.8039 0.0000
# 6 0.0000 0.0000 0.0000 0.0000 0.0000 11.8709
#
#
#
# Elastic Compliance Matrix: (Units=1/GPa)
#
#
# Indices 1 2 3 4 5 6 
#
# 1 0.009049 -0.006020 -0.004285 0.000000 0.000000 0.000000
# 2 -0.006020 0.019698 -0.001419 0.000000 0.000000 0.000000
# 3 -0.004285 -0.001419 0.018089 0.000000 0.000000 0.000000
# 4 0.000000 0.000000 0.000000 0.162152 0.000000 0.000000
# 5 0.000000 0.000000 0.000000 0.000000 0.554345 0.000000
# 6 0.000000 0.000000 0.000000 0.000000 0.000000 0.084240
#
#
# Mechanical properties :
#
#
# Convention : Reuss Voigt Hill
#
# Bulk Modulus (GPa) = 42.75907 59.60032 51.17969
# Shear Modulus (GPa) = 5.68946 16.41769 11.05357
#
# Velocity S-wave (km/s) = 1.71155 2.90744 2.38565
# Velocity P-wave (km/s) = 5.09135 6.47751 5.82581
#
# Compressibility (1/GPa) = 0.02338685
#
# Stress axis : x y z
#
# Youngs Moduli (GPa) = 110.50767 50.76715 55.28218
#
# Poissons Ratio (x) = 0.30564 0.23690
# Poissons Ratio (y) = 0.66530 0.07843
# Poissons Ratio (z) = 0.47356 0.07203
#
# Static dielectric constant tensor:
#      x y z
#    x 3.776020 0.000000 0.000000 
#    y 0.000000 3.417880 0.000000 
#    z 0.000000 0.000000 3.068520 
# 
# 
# High freq. dielectric constant tensor:
#      x y z
#    x 1.770810 0.000000 0.000000 
#    y 0.000000 1.745510 0.000000 
#    z 0.000000 0.000000 1.685720 
# 
# From -- ./inp_files/1713.got.cif
#   From: 2010.03.12/outbox.cif.g09.slc.cpg/sg47_1_cif.got.tgz:1713.got - 2010.04.14 03:12:58.
