data_PCOD8196708
_publ_section_title
;
Structure prediction by ZEFSAII (Michael W. Deem and Ramdas Pophale) SiO2 
 PCOD8196708
Probable space group: P M M M
;
_chemical_formula_sum "Si O2"
_cell_formula_units_Z 60
_cell_length_a 25.959278
_cell_length_b 22.789533
_cell_length_c 9.080655
_cell_angle_alpha 90.000000
_cell_angle_beta 90.000000
_cell_angle_gamma 90.000000
_cell_volume 5372.113887
_symmetry_space_group_name_H-M "P M M M"
_symmetry_group_IT_number 47
_symmetry_cell_setting 'orthorhombic'
loop_
_space_group_symop_operation_xyz
x,y,z
-x,-y,z
x,-y,-z
-x,y,-z
-x,-y,-z
x,y,-z
-x,y,z
x,-y,z
loop_
_atom_site_type_symbol
_atom_site_label
_atom_site_fract_x
_atom_site_fract_y
_atom_site_fract_z
Si Si1 0.438701 0.270615 0.333589
Si Si2 0.561396 0.500000 0.333457
Si Si3 0.634692 0.069153 0.670188
Si Si4 0.560496 0.846050 0.828973
Si Si5 0.164745 0.929706 0.666197
Si Si6 0.945456 0.065808 0.675048
Si Si7 0.263651 0.930175 0.834626
Si Si8 0.438564 0.614904 0.166619
O O1 0.417211 0.269604 0.500000
O O2 0.500000 0.272429 0.334098
O O3 0.419143 0.213200 0.247912
O O4 0.417015 0.327928 0.250602
O O5 0.500000 0.500000 0.333925
O O6 0.582606 0.500000 0.500000
O O7 0.582453 0.442622 0.249788
O O8 0.633211 0.087207 0.500000
O O9 0.587507 0.098399 0.755329
O O10 0.688431 0.092045 0.737803
O O11 0.628578 0.000000 0.691924
O O12 0.500000 0.854316 0.804335
O O13 0.574778 0.842654 0.000000
O O14 0.175203 0.907949 0.500000
O O15 0.108984 0.905206 0.727162
O O16 0.210541 0.904810 0.767583
O O17 0.163165 0.000000 0.669392
O O18 0.942528 0.063528 0.500000
O O19 0.000000 0.097554 0.723567
O O20 0.947887 0.000000 0.737941
O O21 0.261782 0.000000 0.832570
O O22 0.269893 0.906082 0.000000
O O23 0.500000 0.615191 0.166432
O O24 0.417466 0.614944 0.000000
#
# Coordination Sequence:
#
# PCOD8196708 Si02
#       8
#     8   4   8   8   8   8   8   8
#     4   9  16  26  39  52  65  81 100 119 137 160
#     4   9  15  21  29  43  63  85 107 127 145 163
#     4  10  20  32  44  55  65  76  91 113 141 174
#     4  10  20  32  44  56  68  80  93 110 136 173
#     4   8  12  18  29  43  57  73  93 114 133 155
#     4   7   9  13  22  37  55  73  93 115 134 150
#     4   9  16  25  36  48  61  75  90 109 135 167
#     4   9  15  22  32  46  64  84 104 124 144 163
#
# _framework density 11.168787999999999
#
# number of rings (size 3 to 8) (size 9 to 14) (size 15 to 20)
#    0.000    3.133    0.000    3.400    0.000    7.467 
#    0.000    1.333    0.000    0.400    0.000    2.800 
#    0.000    0.000    0.000    0.000    0.000    0.000 
#
# Total GULP energy -743426.979653 kJ/mol
# GULP energy per Si atom -12390.449661 kJ/mol
# Density = 1.114337 g / cm^3
# Si number density = 11.168788 Si / 1000 Ang^3
#
#
#
# Elastic Constant Matrix: (Units=GPa)
#
#
# Indices 1 2 3 4 5 6 
#
# 1 49.2105 23.1398 34.6657 0.0000 0.0000 0.0000
# 2 23.1398 36.2535 30.2826 0.0000 0.0000 0.0000
# 3 34.6657 30.2826 92.1459 0.0000 0.0000 0.0000
# 4 0.0000 0.0000 0.0000 16.7398 0.0000 0.0000
# 5 0.0000 0.0000 0.0000 0.0000 8.6964 0.0000
# 6 0.0000 0.0000 0.0000 0.0000 0.0000 0.2437
#
#
#
# Elastic Compliance Matrix: (Units=1/GPa)
#
#
# Indices 1 2 3 4 5 6 
#
# 1 0.032339 -0.014444 -0.007419 0.000000 0.000000 0.000000
# 2 -0.014444 0.044472 -0.009181 0.000000 0.000000 0.000000
# 3 -0.007419 -0.009181 0.016661 0.000000 0.000000 0.000000
# 4 0.000000 0.000000 0.000000 0.059738 0.000000 0.000000
# 5 0.000000 0.000000 0.000000 0.000000 0.114990 0.000000
# 6 0.000000 0.000000 0.000000 0.000000 0.000000 4.103108
#
#
# Mechanical properties :
#
#
# Convention : Reuss Voigt Hill
#
# Bulk Modulus (GPa) = 31.86452 39.30955 35.58704
# Shear Modulus (GPa) = 1.12515 11.10411 6.11463
#
# Velocity S-wave (km/s) = 1.00478 3.15653 2.34236
# Velocity P-wave (km/s) = 5.47157 6.96830 6.26479
#
# Compressibility (1/GPa) = 0.03138286
#
# Stress axis : x y z
#
# Youngs Moduli (GPa) = 30.92224 22.48608 60.02097
#
# Poissons Ratio (x) = 0.32479 0.44532
# Poissons Ratio (y) = 0.44664 0.55107
# Poissons Ratio (z) = 0.22942 0.20645
#
# Static dielectric constant tensor:
#      x y z
#    x 2.372330 0.000000 0.000000 
#    y 0.000000 2.125040 0.000000 
#    z 0.000000 0.000000 2.491720 
# 
# 
# High freq. dielectric constant tensor:
#      x y z
#    x 1.392280 0.000000 0.000000 
#    y 0.000000 1.375310 0.000000 
#    z 0.000000 0.000000 1.432390 
# 
# From -- ./inp_files/13525.got.cif
#   From: 2010.03.12/outbox.cif.g09.slc.cpg/sg47_7_cif.got.tgz:13525.got - 2010.04.14 03:12:58.
