data_PCOD8196912
_publ_section_title
;
Structure prediction by ZEFSAII (Michael W. Deem and Ramdas Pophale) SiO2 
 PCOD8196912
Probable space group: P M M M
;
_chemical_formula_sum "Si O2"
_cell_formula_units_Z 64
_cell_length_a 18.607230
_cell_length_b 20.568006
_cell_length_c 9.679537
_cell_angle_alpha 90.000000
_cell_angle_beta 90.000000
_cell_angle_gamma 90.000000
_cell_volume 3704.490629
_symmetry_space_group_name_H-M "P M M M"
_symmetry_group_IT_number 47
_symmetry_cell_setting 'orthorhombic'
loop_
_space_group_symop_operation_xyz
x,y,z
-x,-y,z
x,-y,-z
-x,y,-z
-x,-y,-z
x,y,-z
-x,y,z
x,-y,z
loop_
_atom_site_type_symbol
_atom_site_label
_atom_site_fract_x
_atom_site_fract_y
_atom_site_fract_z
Si Si1 0.583233 0.424872 0.158960
Si Si2 0.085327 0.071637 0.845621
Si Si3 0.916348 0.811331 0.338795
Si Si4 0.414578 0.928058 0.155574
Si Si5 0.663054 0.319445 0.663558
Si Si6 0.415667 0.188616 0.341316
Si Si7 0.826760 0.311301 0.663885
Si Si8 0.919543 0.571787 0.335536
O O1 0.500000 0.411396 0.191872
O O2 0.601938 0.500000 0.187969
O O3 0.631198 0.381585 0.259498
O O4 0.600004 0.407311 0.000000
O O5 0.113991 0.125108 0.738768
O O6 0.000000 0.070751 0.842011
O O7 0.114255 0.000000 0.802803
O O8 0.112125 0.088967 0.000000
O O9 0.903943 0.823320 0.500000
O O10 0.869829 0.751310 0.281550
O O11 0.000000 0.797446 0.306466
O O12 0.500000 0.927145 0.162273
O O13 0.383568 0.872217 0.255606
O O14 0.387389 0.000000 0.201990
O O15 0.388378 0.913458 0.000000
O O16 0.656611 0.331741 0.500000
O O17 0.620938 0.254878 0.709436
O O18 0.744753 0.309720 0.712798
O O19 0.397131 0.174477 0.500000
O O20 0.500000 0.197051 0.316543
O O21 0.831719 0.312622 0.500000
O O22 0.864457 0.375631 0.726667
O O23 0.918322 0.573874 0.500000
O O24 0.896338 0.500000 0.283902
O O25 0.000000 0.588093 0.283655
#
# Coordination Sequence:
#
# PCOD8196912 Si02
#       8
#     8   8   8   8   8   8   8   8
#     4   9  19  36  55  73  94 121 153 189 229 273
#     4   8  14  25  41  62  88 115 144 185 237 284
#     4   9  16  26  43  66  90 118 153 192 231 272
#     4   8  14  25  42  65  89 110 138 180 225 264
#     4  10  20  32  47  69  97 126 155 189 227 270
#     4   9  17  28  42  62  88 116 146 180 218 262
#     4   9  17  28  41  61  92 124 151 184 227 269
#     4   8  13  22  38  60  86 117 151 184 219 263
#
# _framework density 17.276330000000002
#
# number of rings (size 3 to 8) (size 9 to 14) (size 15 to 20)
#    0.000    3.250    0.000    2.250    0.000    4.000 
#    0.000    6.250    0.000    0.750    0.000    5.250 
#    0.000    0.000    0.000    8.625    0.000    7.750 
#
# Total GULP energy -793289.447995 kJ/mol
# GULP energy per Si atom -12395.147625 kJ/mol
# Density = 1.723701 g / cm^3
# Si number density = 17.276330 Si / 1000 Ang^3
#
#
#
# Elastic Constant Matrix: (Units=GPa)
#
#
# Indices 1 2 3 4 5 6 
#
# 1 65.6961 62.5334 32.5190 0.0000 0.0000 0.0000
# 2 62.5334 163.2614 62.7528 0.0000 0.0000 0.0000
# 3 32.5190 62.7528 53.5449 0.0000 0.0000 0.0000
# 4 0.0000 0.0000 0.0000 27.0303 0.0000 0.0000
# 5 0.0000 0.0000 0.0000 0.0000 10.1110 0.0000
# 6 0.0000 0.0000 0.0000 0.0000 0.0000 4.9131
#
#
#
# Elastic Compliance Matrix: (Units=1/GPa)
#
#
# Indices 1 2 3 4 5 6 
#
# 1 0.025446 -0.006927 -0.007336 0.000000 0.000000 0.000000
# 2 -0.006927 0.013032 -0.011066 0.000000 0.000000 0.000000
# 3 -0.007336 -0.011066 0.036100 0.000000 0.000000 0.000000
# 4 0.000000 0.000000 0.000000 0.036996 0.000000 0.000000
# 5 0.000000 0.000000 0.000000 0.000000 0.098902 0.000000
# 6 0.000000 0.000000 0.000000 0.000000 0.000000 0.203537
#
#
# Mechanical properties :
#
#
# Convention : Reuss Voigt Hill
#
# Bulk Modulus (GPa) = 41.80516 66.45696 54.13106
# Shear Modulus (GPa) = 10.57879 16.72403 13.65141
#
# Velocity S-wave (km/s) = 2.47721 3.11470 2.81406
# Velocity P-wave (km/s) = 5.69496 7.17535 6.47759
#
# Compressibility (1/GPa) = 0.02392049
#
# Stress axis : x y z
#
# Youngs Moduli (GPa) = 39.29857 76.73603 27.70074
#
# Poissons Ratio (x) = 0.53154 0.20321
# Poissons Ratio (y) = 0.27221 0.30653
# Poissons Ratio (z) = 0.28830 0.84915
#
# Static dielectric constant tensor:
#      x y z
#    x 3.034000 0.000000 0.000000 
#    y 0.000000 3.576880 0.000000 
#    z 0.000000 0.000000 2.988410 
# 
# 
# High freq. dielectric constant tensor:
#      x y z
#    x 1.637220 0.000000 0.000000 
#    y 0.000000 1.682910 0.000000 
#    z 0.000000 0.000000 1.634360 
# 
# From -- ./inp_files/10010.got.cif
#   From: 2010.03.12/outbox.cif.g09.slc.cpg/sg47_6_cif.got.tgz:10010.got - 2010.04.14 03:12:58.
