data_PCOD8196017
_publ_section_title
;
Structure prediction by ZEFSAII (Michael W. Deem and Ramdas Pophale) SiO2 
 PCOD8196017
Probable space group: P M M M
;
_chemical_formula_sum "Si O2"
_cell_formula_units_Z 40
_cell_length_a 8.821258
_cell_length_b 12.706883
_cell_length_c 19.595288
_cell_angle_alpha 90.000000
_cell_angle_beta 90.000000
_cell_angle_gamma 90.000000
_cell_volume 2196.449418
_symmetry_space_group_name_H-M "P M M M"
_symmetry_group_IT_number 47
_symmetry_cell_setting 'orthorhombic'
loop_
_space_group_symop_operation_xyz
x,y,z
-x,-y,z
x,-y,-z
-x,y,-z
-x,-y,-z
x,y,-z
-x,y,z
x,-y,z
loop_
_atom_site_type_symbol
_atom_site_label
_atom_site_fract_x
_atom_site_fract_y
_atom_site_fract_z
Si Si1 0.832314 0.000000 0.831895
Si Si2 0.179952 0.776199 0.680520
Si Si3 0.673655 0.377925 0.422003
Si Si4 0.826510 0.379176 0.920584
Si Si5 0.165189 0.000000 0.670268
Si Si6 0.322215 0.214592 0.174555
O O1 0.848505 0.000000 0.751346
O O2 0.744273 0.105150 0.854706
O O3 0.000000 0.000000 0.865578
O O4 0.216101 0.686195 0.626733
O O5 0.245903 0.889000 0.651160
O O6 0.253163 0.750178 0.753048
O O7 0.000000 0.785517 0.690947
O O8 0.712439 0.349713 0.500000
O O9 0.500000 0.349260 0.405688
O O10 0.703871 0.500000 0.408178
O O11 0.792552 0.500000 0.901531
O O12 0.712942 0.306398 0.878687
O O13 0.000000 0.351096 0.902067
O O14 0.796137 0.359709 0.000000
O O15 0.000000 0.000000 0.635359
O O16 0.500000 0.200968 0.183547
#
# Coordination Sequence:
#
# PCOD8196017 Si02
#       6
#     4   8   8   8   4   8
#     4   9  17  33  54  75 104 139 174 212 256 306
#     4  10  19  33  54  77 102 134 173 214 253 301
#     4   9  19  36  54  72 100 136 170 211 266 317
#     4   9  19  37  58  77 101 137 178 217 260 311
#     4   7  14  29  48  71  98 128 160 200 250 293
#     4  11  21  33  53  81 110 138 171 213 261 311
#
# _framework density 18.211209
#
# number of rings (size 3 to 8) (size 9 to 14) (size 15 to 20)
#    0.000    2.600    0.000    5.100    0.000    2.400 
#    0.000    4.500    0.000    6.000    0.000    0.000 
#    0.000    0.000    0.000    0.000    0.000    0.000 
#
# Total GULP energy -495809.668917 kJ/mol
# GULP energy per Si atom -12395.241723 kJ/mol
# Density = 1.816976 g / cm^3
# Si number density = 18.211209 Si / 1000 Ang^3
#
#
#
# Elastic Constant Matrix: (Units=GPa)
#
#
# Indices 1 2 3 4 5 6 
#
# 1 102.9042 50.5377 37.9919 0.0000 0.0000 0.0000
# 2 50.5377 114.2080 57.7307 0.0000 0.0000 0.0000
# 3 37.9919 57.7307 65.1008 0.0000 0.0000 0.0000
# 4 0.0000 0.0000 0.0000 -17.8423 0.0000 0.0000
# 5 0.0000 0.0000 0.0000 0.0000 27.7841 0.0000
# 6 0.0000 0.0000 0.0000 0.0000 0.0000 30.1693
#
#
#
# Elastic Compliance Matrix: (Units=1/GPa)
#
#
# Indices 1 2 3 4 5 6 
#
# 1 0.013118 -0.003507 -0.004546 0.000000 0.000000 0.000000
# 2 -0.003507 0.016807 -0.012858 0.000000 0.000000 0.000000
# 3 -0.004546 -0.012858 0.029416 0.000000 0.000000 0.000000
# 4 0.000000 0.000000 0.000000 -0.056046 0.000000 0.000000
# 5 0.000000 0.000000 0.000000 0.000000 0.035992 0.000000
# 6 0.000000 0.000000 0.000000 0.000000 0.000000 0.033146
#
#
# Mechanical properties :
#
#
# Convention : Reuss Voigt Hill
#
# Bulk Modulus (GPa) = 57.07675 63.85931 60.46803
# Shear Modulus (GPa) = 41.63381 17.08572 29.35976
#
# Velocity S-wave (km/s) = 4.78657 3.06632 4.01955
# Velocity P-wave (km/s) = 7.87134 6.90496 7.40393
#
# Compressibility (1/GPa) = 0.01752027
#
# Stress axis : x y z
#
# Youngs Moduli (GPa) = 76.22854 59.49740 33.99540
#
# Poissons Ratio (x) = 0.20867 0.15453
# Poissons Ratio (y) = 0.26736 0.43711
# Poissons Ratio (z) = 0.34650 0.76501
#
# Static dielectric constant tensor:
#      x y z
#    x 3.256410 0.000000 0.000000 
#    y 0.000000 3.670820 0.000000 
#    z 0.000000 0.000000 3.034420 
# 
# 
# High freq. dielectric constant tensor:
#      x y z
#    x 1.698320 0.000000 0.000000 
#    y 0.000000 1.721160 0.000000 
#    z 0.000000 0.000000 1.678120 
# 
# From -- ./inp_files/29365.got.cif
#   From: 2010.03.12/outbox.cif.g09.slc.cpg/sg47_15_cif.got.tgz:29365.got - 2010.04.14 03:12:58.
