data_PCOD8196227
_publ_section_title
;
Structure prediction by ZEFSAII (Michael W. Deem and Ramdas Pophale) SiO2 
 PCOD8196227
Probable space group: P M M M
;
_chemical_formula_sum "Si O2"
_cell_formula_units_Z 64
_cell_length_a 15.369829
_cell_length_b 23.423625
_cell_length_c 9.212661
_cell_angle_alpha 90.000000
_cell_angle_beta 90.000000
_cell_angle_gamma 90.000000
_cell_volume 3316.715596
_symmetry_space_group_name_H-M "P M M M"
_symmetry_group_IT_number 47
_symmetry_cell_setting 'orthorhombic'
loop_
_space_group_symop_operation_xyz
x,y,z
-x,-y,z
x,-y,-z
-x,y,-z
-x,-y,-z
x,y,-z
-x,y,z
x,-y,z
loop_
_atom_site_type_symbol
_atom_site_label
_atom_site_fract_x
_atom_site_fract_y
_atom_site_fract_z
Si Si1 0.905305 0.744756 0.663041
Si Si2 0.595640 0.702773 0.328509
Si Si3 0.602281 0.936676 0.161597
Si Si4 0.659191 0.174823 0.671364
Si Si5 0.773517 0.352303 0.671586
Si Si6 0.901872 0.567159 0.832959
Si Si7 0.830072 0.837066 0.830024
Si Si8 0.100572 0.935596 0.662624
O O1 0.885331 0.766468 0.500000
O O2 0.833066 0.700853 0.715026
O O3 0.909560 0.798527 0.772850
O O4 0.000000 0.715049 0.669768
O O5 0.601545 0.698028 0.500000
O O6 0.500000 0.681013 0.273377
O O7 0.600589 0.770219 0.287185
O O8 0.675419 0.662930 0.268803
O O9 0.500000 0.939204 0.151598
O O10 0.626122 0.886081 0.270937
O O11 0.635683 0.000000 0.213282
O O12 0.640251 0.923280 0.000000
O O13 0.670148 0.168762 0.500000
O O14 0.749036 0.190114 0.747190
O O15 0.772247 0.363535 0.500000
O O16 0.820250 0.406112 0.746047
O O17 0.891449 0.500000 0.814108
O O18 0.000000 0.585030 0.778596
O O19 0.892382 0.585448 0.000000
O O20 0.843091 0.902227 0.781085
O O21 0.818012 0.833740 0.000000
O O22 0.115407 0.911231 0.500000
O O23 0.000000 0.931693 0.705324
O O24 0.133820 0.000000 0.669693
#
# Coordination Sequence:
#
# PCOD8196227 Si02
#       8
#     8   8   8   8   8   8   8   8
#     4  10  20  35  54  77 109 147 182 221 273 330
#     4   9  18  34  57  83 111 144 184 235 291 338
#     4   9  19  36  55  76 105 136 166 213 282 350
#     4  11  21  36  56  76 103 138 183 233 281 335
#     4  10  19  34  57  86 117 148 189 237 280 326
#     4   9  19  36  57  84 122 164 199 233 277 326
#     4  12  24  35  50  74 105 137 174 220 274 334
#     4   9  19  37  58  75  93 125 171 220 272 332
#
# _framework density 19.296196999999999
#
# number of rings (size 3 to 8) (size 9 to 14) (size 15 to 20)
#    0.000    2.125    1.250    3.750    0.000    5.250 
#    0.000    1.875    0.000    2.250    0.000    2.625 
#    0.000    0.000    0.000    0.000    0.000    0.000 
#
# Total GULP energy -792951.220323 kJ/mol
# GULP energy per Si atom -12389.862818 kJ/mol
# Density = 1.925228 g / cm^3
# Si number density = 19.296197 Si / 1000 Ang^3
#
#
#
# Elastic Constant Matrix: (Units=GPa)
#
#
# Indices 1 2 3 4 5 6 
#
# 1 121.8286 45.8053 33.3916 0.0000 0.0000 0.0000
# 2 45.8053 78.2180 36.9179 0.0000 0.0000 0.0000
# 3 33.3916 36.9179 81.0598 0.0000 0.0000 0.0000
# 4 0.0000 0.0000 0.0000 18.7607 0.0000 0.0000
# 5 0.0000 0.0000 0.0000 0.0000 19.5774 0.0000
# 6 0.0000 0.0000 0.0000 0.0000 0.0000 31.4341
#
#
#
# Elastic Compliance Matrix: (Units=1/GPa)
#
#
# Indices 1 2 3 4 5 6 
#
# 1 0.010773 -0.005368 -0.001993 0.000000 0.000000 0.000000
# 2 -0.005368 0.018960 -0.006424 0.000000 0.000000 0.000000
# 3 -0.001993 -0.006424 0.016083 0.000000 0.000000 0.000000
# 4 0.000000 0.000000 0.000000 0.053303 0.000000 0.000000
# 5 0.000000 0.000000 0.000000 0.000000 0.051079 0.000000
# 6 0.000000 0.000000 0.000000 0.000000 0.000000 0.031813
#
#
# Mechanical properties :
#
#
# Convention : Reuss Voigt Hill
#
# Bulk Modulus (GPa) = 54.80492 57.03735 55.92113
# Shear Modulus (GPa) = 23.18426 24.95387 24.06906
#
# Velocity S-wave (km/s) = 3.47002 3.60001 3.53561
# Velocity P-wave (km/s) = 6.67220 6.84859 6.76097
#
# Compressibility (1/GPa) = 0.01824654
#
# Stress axis : x y z
#
# Youngs Moduli (GPa) = 92.82675 52.74146 62.17639
#
# Poissons Ratio (x) = 0.28312 0.12391
# Poissons Ratio (y) = 0.49830 0.39942
# Poissons Ratio (z) = 0.18499 0.33881
#
# Static dielectric constant tensor:
#      x y z
#    x 3.790830 0.000000 0.000000 
#    y 0.000000 3.492480 0.000000 
#    z 0.000000 0.000000 3.395070 
# 
# 
# High freq. dielectric constant tensor:
#      x y z
#    x 1.754900 0.000000 0.000000 
#    y 0.000000 1.736420 0.000000 
#    z 0.000000 0.000000 1.728220 
# 
# From -- ./inp_files/7860.got.cif
#   From: 2010.03.12/outbox.cif.g09.slc.cpg/sg47_4_cif.got.tgz:7860.got - 2010.04.14 03:12:58.
