data_PCOD8196122
_publ_section_title
;
Structure prediction by ZEFSAII (Michael W. Deem and Ramdas Pophale) SiO2 
 PCOD8196122
Probable space group: P M M M
;
_chemical_formula_sum "Si O2"
_cell_formula_units_Z 32
_cell_length_a 7.610210
_cell_length_b 14.624295
_cell_length_c 14.241626
_cell_angle_alpha 90.000000
_cell_angle_beta 90.000000
_cell_angle_gamma 90.000000
_cell_volume 1585.006898
_symmetry_space_group_name_H-M "P M M M"
_symmetry_group_IT_number 47
_symmetry_cell_setting 'orthorhombic'
loop_
_space_group_symop_operation_xyz
x,y,z
-x,-y,z
x,-y,-z
-x,y,-z
-x,-y,-z
x,y,-z
-x,y,z
x,-y,z
loop_
_atom_site_type_symbol
_atom_site_label
_atom_site_fract_x
_atom_site_fract_y
_atom_site_fract_z
Si Si1 0.500000 0.170226 0.104496
Si Si2 0.295289 0.601959 0.290264
Si Si3 0.199019 0.684713 0.103957
Si Si4 0.801927 0.220436 0.607408
Si Si5 0.500000 0.102849 0.698601
O O1 0.674226 0.229793 0.118821
O O2 0.500000 0.096363 0.187787
O O3 0.500000 0.125036 0.000000
O O4 0.500000 0.621493 0.301235
O O5 0.245998 0.500000 0.325310
O O6 0.241071 0.607987 0.180977
O O7 0.195736 0.676691 0.352257
O O8 0.000000 0.720601 0.115996
O O9 0.227718 0.641908 0.000000
O O10 0.738518 0.223728 0.500000
O O11 0.673970 0.154599 0.664651
O O12 0.000000 0.181765 0.615480
O O13 0.500000 0.000000 0.658338
#
# Coordination Sequence:
#
# PCOD8196122 Si02
#       5
#     4   8   8   8   4
#     4  10  20  38  61  90 123 155 197 247 297 361
#     4  11  22  37  60  90 125 165 206 249 302 362
#     4  10  19  33  57  85 117 161 206 248 298 355
#     4  11  24  43  66  91 122 161 207 257 308 360
#     4  12  25  43  68  95 123 157 200 250 311 374
#
# _framework density 20.189185999999999
#
# number of rings (size 3 to 8) (size 9 to 14) (size 15 to 20)
#    0.000    1.250    5.000    1.125    0.000    4.750 
#    0.000    6.250    0.000    0.000    0.000    5.250 
#    0.000    0.000    0.000    0.000    0.000    0.000 
#
# Total GULP energy -396758.856200 kJ/mol
# GULP energy per Si atom -12398.714256 kJ/mol
# Density = 2.014323 g / cm^3
# Si number density = 20.189186 Si / 1000 Ang^3
#
#
#
# Elastic Constant Matrix: (Units=GPa)
#
#
# Indices 1 2 3 4 5 6 
#
# 1 105.9414 37.2452 22.9284 0.0000 0.0000 0.0000
# 2 37.2452 100.2359 45.5311 0.0000 0.0000 0.0000
# 3 22.9284 45.5311 133.7638 0.0000 0.0000 0.0000
# 4 0.0000 0.0000 0.0000 9.5144 0.0000 0.0000
# 5 0.0000 0.0000 0.0000 0.0000 28.2647 0.0000
# 6 0.0000 0.0000 0.0000 0.0000 0.0000 5.5144
#
#
#
# Elastic Compliance Matrix: (Units=1/GPa)
#
#
# Indices 1 2 3 4 5 6 
#
# 1 0.010895 -0.003785 -0.000579 0.000000 0.000000 0.000000
# 2 -0.003785 0.013116 -0.003816 0.000000 0.000000 0.000000
# 3 -0.000579 -0.003816 0.008874 0.000000 0.000000 0.000000
# 4 0.000000 0.000000 0.000000 0.105103 0.000000 0.000000
# 5 0.000000 0.000000 0.000000 0.000000 0.035380 0.000000
# 6 0.000000 0.000000 0.000000 0.000000 0.000000 0.181343
#
#
# Mechanical properties :
#
#
# Convention : Reuss Voigt Hill
#
# Bulk Modulus (GPa) = 60.51383 61.26116 60.88749
# Shear Modulus (GPa) = 13.27736 24.27447 18.77592
#
# Velocity S-wave (km/s) = 2.56725 3.47125 3.05290
# Velocity P-wave (km/s) = 6.23106 6.81730 6.53076
#
# Compressibility (1/GPa) = 0.01652515
#
# Stress axis : x y z
#
# Youngs Moduli (GPa) = 91.78252 76.24116 112.68967
#
# Poissons Ratio (x) = 0.28860 0.06526
# Poissons Ratio (y) = 0.34743 0.42999
# Poissons Ratio (z) = 0.05315 0.29091
#
# Static dielectric constant tensor:
#      x y z
#    x 3.818900 0.000000 0.000000 
#    y 0.000000 3.262470 0.000000 
#    z 0.000000 0.000000 3.965180 
# 
# 
# High freq. dielectric constant tensor:
#      x y z
#    x 1.806690 0.000000 0.000000 
#    y 0.000000 1.747860 0.000000 
#    z 0.000000 0.000000 1.803490 
# 
# From -- ./inp_files/20499.got.cif
#   From: 2010.03.12/outbox.cif.g09.slc.cpg/sg47_11_cif.got.tgz:20499.got - 2010.04.14 03:12:58.
