data_PCOD8196409
_publ_section_title
;
Structure prediction by ZEFSAII (Michael W. Deem and Ramdas Pophale) SiO2 
 PCOD8196409
Probable space group: P M M M
;
_chemical_formula_sum "Si O2"
_cell_formula_units_Z 64
_cell_length_a 20.677885
_cell_length_b 30.628455
_cell_length_c 9.157032
_cell_angle_alpha 90.000000
_cell_angle_beta 90.000000
_cell_angle_gamma 90.000000
_cell_volume 5799.438371
_symmetry_space_group_name_H-M "P M M M"
_symmetry_group_IT_number 47
_symmetry_cell_setting 'orthorhombic'
loop_
_space_group_symop_operation_xyz
x,y,z
-x,-y,z
x,-y,-z
-x,y,-z
-x,-y,-z
x,y,-z
-x,y,z
x,-y,z
loop_
_atom_site_type_symbol
_atom_site_label
_atom_site_fract_x
_atom_site_fract_y
_atom_site_fract_z
Si Si1 0.923048 0.200317 0.665107
Si Si2 0.293246 0.947844 0.835525
Si Si3 0.168006 0.948419 0.332079
Si Si4 0.431531 0.951112 0.173507
Si Si5 0.077114 0.715253 0.834951
Si Si6 0.077171 0.369195 0.335902
Si Si7 0.076889 0.451894 0.835881
Si Si8 0.924066 0.885902 0.830346
O O1 0.896016 0.199327 0.500000
O O2 0.895828 0.243068 0.746919
O O3 0.898619 0.157774 0.751274
O O4 0.000000 0.201691 0.664162
O O5 0.236698 0.931214 0.729269
O O6 0.363202 0.929117 0.776518
O O7 0.297303 0.000000 0.835073
O O8 0.278466 0.931233 0.000000
O O9 0.162498 0.934312 0.500000
O O10 0.110095 0.927484 0.240763
O O11 0.161684 0.000000 0.312012
O O12 0.500000 0.927471 0.221629
O O13 0.434361 0.000000 0.237022
O O14 0.428220 0.953159 0.000000
O O15 0.103325 0.671498 0.757846
O O16 0.000000 0.715670 0.835121
O O17 0.103716 0.716808 0.000000
O O18 0.103625 0.364758 0.500000
O O19 0.105094 0.414206 0.268481
O O20 0.000000 0.369575 0.334597
O O21 0.099391 0.500000 0.780828
O O22 0.000000 0.449696 0.835604
O O23 0.102315 0.443725 0.000000
O O24 0.000000 0.892310 0.806445
O O25 0.906270 0.882468 0.000000
#
# Coordination Sequence:
#
# PCOD8196409 Si02
#       8
#     8   8   8   8   8   8   8   8
#     4   9  16  26  39  52  64  74  83  99 127 162
#     4   8  13  22  36  51  66  84 104 123 140 159
#     4  10  20  31  41  52  66  83 100 118 141 168
#     4   7   9  14  27  48  69  85 102 123 142 157
#     4   9  15  22  32  44  57  71  85 100 120 149
#     4   9  15  20  26  37  51  65  82 103 125 148
#     4   8  13  20  27  33  43  61  83 104 125 148
#     4  10  20  32  44  55  64  74  91 115 142 173
#
# _framework density 11.035551
#
# number of rings (size 3 to 8) (size 9 to 14) (size 15 to 20)
#    0.000    3.250    0.000    3.375    0.000    6.500 
#    0.000    2.500    0.000    0.375    0.000    2.625 
#    0.000    0.000    0.000    0.000    0.000    0.000 
#
# Total GULP energy -792911.522076 kJ/mol
# GULP energy per Si atom -12389.242532 kJ/mol
# Density = 1.101043 g / cm^3
# Si number density = 11.035551 Si / 1000 Ang^3
#
#
#
# Elastic Constant Matrix: (Units=GPa)
#
#
# Indices 1 2 3 4 5 6 
#
# 1 31.9252 20.8964 25.0555 0.0000 0.0000 0.0000
# 2 20.8964 52.7401 38.0066 0.0000 0.0000 0.0000
# 3 25.0555 38.0066 86.5966 0.0000 0.0000 0.0000
# 4 0.0000 0.0000 0.0000 19.6071 0.0000 0.0000
# 5 0.0000 0.0000 0.0000 0.0000 5.4911 0.0000
# 6 0.0000 0.0000 0.0000 0.0000 0.0000 0.2182
#
#
#
# Elastic Compliance Matrix: (Units=1/GPa)
#
#
# Indices 1 2 3 4 5 6 
#
# 1 0.045542 -0.012503 -0.007689 0.000000 0.000000 0.000000
# 2 -0.012503 0.031165 -0.010060 0.000000 0.000000 0.000000
# 3 -0.007689 -0.010060 0.018188 0.000000 0.000000 0.000000
# 4 0.000000 0.000000 0.000000 0.051002 0.000000 0.000000
# 5 0.000000 0.000000 0.000000 0.000000 0.182112 0.000000
# 6 0.000000 0.000000 0.000000 0.000000 0.000000 4.583119
#
#
# Mechanical properties :
#
#
# Convention : Reuss Voigt Hill
#
# Bulk Modulus (GPa) = 29.07912 37.68653 33.38283
# Shear Modulus (GPa) = 1.00339 10.88350 5.94345
#
# Velocity S-wave (km/s) = 0.95457 3.14382 2.32323
# Velocity P-wave (km/s) = 5.25572 6.88494 6.12474
#
# Compressibility (1/GPa) = 0.03438894
#
# Stress axis : x y z
#
# Youngs Moduli (GPa) = 21.95786 32.08762 54.98114
#
# Poissons Ratio (x) = 0.40119 0.42277
# Poissons Ratio (y) = 0.27454 0.55313
# Poissons Ratio (z) = 0.16884 0.32281
#
# Static dielectric constant tensor:
#      x y z
#    x 2.166990 0.000000 0.000000 
#    y 0.000000 2.317860 0.000000 
#    z 0.000000 0.000000 2.466710 
# 
# 
# High freq. dielectric constant tensor:
#      x y z
#    x 1.359580 0.000000 0.000000 
#    y 0.000000 1.396570 0.000000 
#    z 0.000000 0.000000 1.425200 
# 
# From -- ./inp_files/11994.got.cif
#   From: 2010.03.12/outbox.cif.g09.slc.cpg/sg47_6_cif.got.tgz:11994.got - 2010.04.14 03:12:58.
