data_PCOD8196060
_publ_section_title
;
Structure prediction by ZEFSAII (Michael W. Deem and Ramdas Pophale) SiO2 
 PCOD8196060
Probable space group: P M M M
;
_chemical_formula_sum "Si O2"
_cell_formula_units_Z 52
_cell_length_a 8.932293
_cell_length_b 21.945215
_cell_length_c 14.721167
_cell_angle_alpha 90.000000
_cell_angle_beta 90.000000
_cell_angle_gamma 90.000000
_cell_volume 2885.659206
_symmetry_space_group_name_H-M "P M M M"
_symmetry_group_IT_number 47
_symmetry_cell_setting 'orthorhombic'
loop_
_space_group_symop_operation_xyz
x,y,z
-x,-y,z
x,-y,-z
-x,y,-z
-x,-y,-z
x,y,-z
-x,y,z
x,-y,z
loop_
_atom_site_type_symbol
_atom_site_label
_atom_site_fract_x
_atom_site_fract_y
_atom_site_fract_z
Si Si1 0.176960 0.433303 0.000000
Si Si2 0.175674 0.653212 0.157787
Si Si3 0.174784 0.568500 0.678085
Si Si4 0.822424 0.000000 0.897144
Si Si5 0.178043 0.884759 0.218243
Si Si6 0.323197 0.777525 0.894510
Si Si7 0.324311 0.929513 0.603081
Si Si8 0.335465 0.572156 0.500000
O O1 0.230852 0.396626 0.913328
O O2 0.252478 0.500000 0.000000
O O3 0.000000 0.440802 0.000000
O O4 0.215169 0.621001 0.251538
O O5 0.274688 0.712529 0.143960
O O6 0.000000 0.669527 0.147392
O O7 0.233099 0.500000 0.705039
O O8 0.248996 0.594776 0.587976
O O9 0.000000 0.563757 0.662230
O O10 0.764573 0.941407 0.842202
O O11 0.000000 0.000000 0.902216
O O12 0.756137 0.000000 0.000000
O O13 0.240795 0.825612 0.169061
O O14 0.237217 0.889721 0.321804
O O15 0.000000 0.881176 0.221967
O O16 0.500000 0.785295 0.884695
O O17 0.273558 0.784958 0.000000
O O18 0.280294 0.908999 0.500000
O O19 0.500000 0.920180 0.618092
O O20 0.279837 0.000000 0.616264
O O21 0.342649 0.500000 0.500000
O O22 0.500000 0.601317 0.500000
#
# Coordination Sequence:
#
# PCOD8196060 Si02
#       8
#     4   8   8   4   8   8   8   4
#     4   9  16  28  51  83 113 138 173 222 271 323
#     4  10  19  33  55  80 107 141 181 223 271 322
#     4   9  17  30  51  80 109 136 170 217 271 322
#     4   9  18  32  50  79 114 142 173 223 278 321
#     4  11  21  35  58  85 113 145 185 233 280 322
#     4  11  24  40  56  76 107 149 191 227 271 330
#     4   9  18  34  57  85 119 155 184 217 269 332
#     4   9  17  29  47  73 105 141 177 212 259 322
#
# _framework density 18.020146
#
# number of rings (size 3 to 8) (size 9 to 14) (size 15 to 20)
#    0.000    2.231    1.538    2.538    0.000    5.231 
#    0.000    0.769    1.692    3.692    0.000    0.000 
#    0.000    0.000    0.000    0.000    0.000    0.000 
#
# Total GULP energy -644625.200333 kJ/mol
# GULP energy per Si atom -12396.638468 kJ/mol
# Density = 1.797913 g / cm^3
# Si number density = 18.020146 Si / 1000 Ang^3
#
#
#
# Elastic Constant Matrix: (Units=GPa)
#
#
# Indices 1 2 3 4 5 6 
#
# 1 47.5612 39.7669 57.7874 0.0000 0.0000 0.0000
# 2 39.7669 114.3518 68.0608 0.0000 0.0000 0.0000
# 3 57.7874 68.0608 165.2461 0.0000 0.0000 0.0000
# 4 0.0000 0.0000 0.0000 29.4955 0.0000 0.0000
# 5 0.0000 0.0000 0.0000 0.0000 46.2091 0.0000
# 6 0.0000 0.0000 0.0000 0.0000 0.0000 20.9603
#
#
#
# Elastic Compliance Matrix: (Units=1/GPa)
#
#
# Indices 1 2 3 4 5 6 
#
# 1 0.040984 -0.007580 -0.011210 0.000000 0.000000 0.000000
# 2 -0.007580 0.012987 -0.002698 0.000000 0.000000 0.000000
# 3 -0.011210 -0.002698 0.011083 0.000000 0.000000 0.000000
# 4 0.000000 0.000000 0.000000 0.033904 0.000000 0.000000
# 5 0.000000 0.000000 0.000000 0.000000 0.021641 0.000000
# 6 0.000000 0.000000 0.000000 0.000000 0.000000 0.047709
#
#
# Mechanical properties :
#
#
# Convention : Reuss Voigt Hill
#
# Bulk Modulus (GPa) = 45.29636 73.15437 59.22536
# Shear Modulus (GPa) = 22.86820 30.10258 26.48539
#
# Velocity S-wave (km/s) = 3.56622 4.09160 3.83791
# Velocity P-wave (km/s) = 6.49217 7.93761 7.25100
#
# Compressibility (1/GPa) = 0.02207683
#
# Stress axis : x y z
#
# Youngs Moduli (GPa) = 24.39965 77.00013 90.22735
#
# Poissons Ratio (x) = 0.58370 1.01147
# Poissons Ratio (y) = 0.18496 0.24344
# Poissons Ratio (z) = 0.27352 0.20775
#
# Static dielectric constant tensor:
#      x y z
#    x 3.170120 0.000000 0.000000 
#    y 0.000000 3.644810 0.000000 
#    z 0.000000 0.000000 3.520740 
# 
# 
# High freq. dielectric constant tensor:
#      x y z
#    x 1.682480 0.000000 0.000000 
#    y 0.000000 1.682740 0.000000 
#    z 0.000000 0.000000 1.711420 
# 
# From -- ./inp_files/21521.got.cif
#   From: 2010.03.12/outbox.cif.g09.slc.cpg/sg47_11_cif.got.tgz:21521.got - 2010.04.14 03:12:58.
