data_PCOD8196970
_publ_section_title
;
Structure prediction by ZEFSAII (Michael W. Deem and Ramdas Pophale) SiO2 
 PCOD8196970
Probable space group: P M M M
;
_chemical_formula_sum "Si O2"
_cell_formula_units_Z 44
_cell_length_a 9.040626
_cell_length_b 9.424897
_cell_length_c 28.313590
_cell_angle_alpha 90.000000
_cell_angle_beta 90.000000
_cell_angle_gamma 90.000000
_cell_volume 2412.515182
_symmetry_space_group_name_H-M "P M M M"
_symmetry_group_IT_number 47
_symmetry_cell_setting 'orthorhombic'
loop_
_space_group_symop_operation_xyz
x,y,z
-x,-y,z
x,-y,-z
-x,y,-z
-x,-y,-z
x,y,-z
-x,y,z
x,-y,z
loop_
_atom_site_type_symbol
_atom_site_label
_atom_site_fract_x
_atom_site_fract_y
_atom_site_fract_z
Si Si1 0.161773 0.831729 0.000000
Si Si2 0.674288 0.836917 0.727646
Si Si3 0.173989 0.664724 0.809867
Si Si4 0.829409 0.163872 0.632076
Si Si5 0.176693 0.840756 0.898819
Si Si6 0.668038 0.665183 0.554114
O O1 0.242128 0.789936 0.049697
O O2 0.000000 0.759379 0.000000
O O3 0.143310 0.000000 0.000000
O O4 0.500000 0.816871 0.727392
O O5 0.743267 0.737324 0.766935
O O6 0.736131 0.786040 0.677297
O O7 0.719972 0.000000 0.737552
O O8 0.214999 0.500000 0.811063
O O9 0.232650 0.734228 0.858497
O O10 0.000000 0.690226 0.803622
O O11 0.780944 0.249965 0.586353
O O12 0.000000 0.194849 0.642930
O O13 0.799710 0.000000 0.621102
O O14 0.000000 0.840033 0.902413
O O15 0.232028 0.000000 0.886450
O O16 0.708070 0.698778 0.500000
O O17 0.500000 0.712596 0.564892
O O18 0.687323 0.500000 0.564793
#
# Coordination Sequence:
#
# PCOD8196970 Si02
#       6
#     4   8   8   8   8   8
#     4   7  10  18  35  61  90 121 160 201 240 284
#     4  10  21  37  56  75  95 125 167 210 252 300
#     4  10  20  32  47  71 102 133 165 201 245 298
#     4  10  21  36  55  80 107 133 164 206 255 303
#     4   8  13  23  41  64  92 127 164 202 243 287
#     4   9  19  36  56  78 106 141 178 211 244 287
#
# _framework density 18.238227999999999
#
# number of rings (size 3 to 8) (size 9 to 14) (size 15 to 20)
#    0.000    2.818    0.000    3.273    0.000    5.091 
#    0.000    3.182    0.000    2.727    0.000    0.636 
#    0.000    5.091    0.000    0.000    0.000    0.000 
#
# Total GULP energy -545420.948543 kJ/mol
# GULP energy per Si atom -12395.930649 kJ/mol
# Density = 1.819672 g / cm^3
# Si number density = 18.238228 Si / 1000 Ang^3
#
#
#
# Elastic Constant Matrix: (Units=GPa)
#
#
# Indices 1 2 3 4 5 6 
#
# 1 45.7036 42.0714 46.6891 0.0000 0.0000 0.0000
# 2 42.0714 87.0538 80.1140 0.0000 0.0000 0.0000
# 3 46.6891 80.1140 155.1292 0.0000 0.0000 0.0000
# 4 0.0000 0.0000 0.0000 -6.3795 0.0000 0.0000
# 5 0.0000 0.0000 0.0000 0.0000 -5.6590 0.0000
# 6 0.0000 0.0000 0.0000 0.0000 0.0000 24.3876
#
#
#
# Elastic Compliance Matrix: (Units=1/GPa)
#
#
# Indices 1 2 3 4 5 6 
#
# 1 0.040666 -0.015988 -0.003982 0.000000 0.000000 0.000000
# 2 -0.015988 0.028177 -0.009740 0.000000 0.000000 0.000000
# 3 -0.003982 -0.009740 0.012675 0.000000 0.000000 0.000000
# 4 0.000000 0.000000 0.000000 -0.156752 0.000000 0.000000
# 5 0.000000 0.000000 0.000000 0.000000 -0.176711 0.000000
# 6 0.000000 0.000000 0.000000 0.000000 0.000000 0.041005
#
#
# Mechanical properties :
#
#
# Convention : Reuss Voigt Hill
#
# Bulk Modulus (GPa) = 45.25430 69.51508 57.38469
# Shear Modulus (GPa) = -34.68511 10.40396 -12.14058
#
# Velocity S-wave (km/s) = -4.36567 2.39100 -2.58285
# Velocity P-wave (km/s) = 0.73850 6.76907 4.75788
#
# Compressibility (1/GPa) = 0.02209735
#
# Stress axis : x y z
#
# Youngs Moduli (GPa) = 24.59066 35.48969 78.89715
#
# Poissons Ratio (x) = 0.56741 0.31420
# Poissons Ratio (y) = 0.39316 0.76844
# Poissons Ratio (z) = 0.09793 0.34566
#
# Static dielectric constant tensor:
#      x y z
#    x 3.057050 0.000000 0.000000 
#    y 0.000000 3.245720 0.000000 
#    z 0.000000 0.000000 3.704300 
# 
# 
# High freq. dielectric constant tensor:
#      x y z
#    x 1.674060 0.000000 0.000000 
#    y 0.000000 1.691450 0.000000 
#    z 0.000000 0.000000 1.726570 
# 
# From -- ./inp_files/13595.got.cif
#   From: 2010.03.12/outbox.cif.g09.slc.cpg/sg47_7_cif.got.tgz:13595.got - 2010.04.14 03:12:58.
