data_PCOD8196229
_publ_section_title
;
Structure prediction by ZEFSAII (Michael W. Deem and Ramdas Pophale) SiO2 
 PCOD8196229
Probable space group: P M M M
;
_chemical_formula_sum "Si O2"
_cell_formula_units_Z 64
_cell_length_a 25.659215
_cell_length_b 14.470345
_cell_length_c 9.008812
_cell_angle_alpha 90.000000
_cell_angle_beta 90.000000
_cell_angle_gamma 90.000000
_cell_volume 3344.951117
_symmetry_space_group_name_H-M "P M M M"
_symmetry_group_IT_number 47
_symmetry_cell_setting 'orthorhombic'
loop_
_space_group_symop_operation_xyz
x,y,z
-x,-y,z
x,-y,-z
-x,y,-z
-x,-y,-z
x,y,-z
-x,y,z
x,-y,z
loop_
_atom_site_type_symbol
_atom_site_label
_atom_site_fract_x
_atom_site_fract_y
_atom_site_fract_z
Si Si1 0.438168 0.100395 0.834095
Si Si2 0.059113 0.279093 0.670319
Si Si3 0.852259 0.606995 0.824627
Si Si4 0.244411 0.294905 0.327329
Si Si5 0.346601 0.396912 0.323302
Si Si6 0.441657 0.280192 0.324702
Si Si7 0.096460 0.104482 0.173186
Si Si8 0.203819 0.101877 0.330857
O O1 0.500000 0.097722 0.833857
O O2 0.419004 0.180979 0.725400
O O3 0.417024 0.000000 0.779726
O O4 0.417664 0.120784 0.000000
O O5 0.077736 0.275901 0.500000
O O6 0.095276 0.349489 0.759344
O O7 0.061069 0.175748 0.736642
O O8 0.000000 0.315132 0.683272
O O9 0.849631 0.500000 0.778283
O O10 0.802389 0.659020 0.761120
O O11 0.853233 0.619912 0.000000
O O12 0.237247 0.319802 0.500000
O O13 0.298802 0.334661 0.265130
O O14 0.245317 0.183761 0.301853
O O15 0.347119 0.397230 0.500000
O O16 0.340017 0.500000 0.259558
O O17 0.401684 0.357183 0.264139
O O18 0.443443 0.280130 0.500000
O O19 0.500000 0.299874 0.261093
O O20 0.156165 0.117789 0.220258
O O21 0.077555 0.000000 0.207694
O O22 0.091880 0.127080 0.000000
O O23 0.182946 0.108234 0.500000
O O24 0.229146 0.000000 0.302620
#
# Coordination Sequence:
#
# PCOD8196229 Si02
#       8
#     8   8   8   8   8   8   8   8
#     4   8  14  26  45  68  95 130 170 209 254 312
#     4  11  24  40  58  82 112 147 187 228 268 315
#     4  11  24  40  59  83 109 139 177 224 280 334
#     4  10  19  34  58  82 105 138 178 220 267 322
#     4   9  18  32  50  75 106 139 179 227 274 319
#     4   9  17  29  47  73 104 139 180 224 269 315
#     4  10  20  34  55  83 114 148 183 220 267 321
#     4   9  17  30  51  79 108 137 172 214 262 320
#
# _framework density 19.133313999999999
#
# number of rings (size 3 to 8) (size 9 to 14) (size 15 to 20)
#    0.000    2.375    1.250    1.875    0.000    4.250 
#    0.000    6.250    0.000    3.375    0.000    3.500 
#    0.000    0.000    0.000    0.000    0.000    0.000 
#
# Total GULP energy -793362.710540 kJ/mol
# GULP energy per Si atom -12396.292352 kJ/mol
# Density = 1.908977 g / cm^3
# Si number density = 19.133314 Si / 1000 Ang^3
#
#
#
# Elastic Constant Matrix: (Units=GPa)
#
#
# Indices 1 2 3 4 5 6 
#
# 1 103.8990 70.2198 28.0016 0.0000 0.0000 0.0000
# 2 70.2198 151.0108 37.0405 0.0000 0.0000 0.0000
# 3 28.0016 37.0405 52.0623 0.0000 0.0000 0.0000
# 4 0.0000 0.0000 0.0000 23.9967 0.0000 0.0000
# 5 0.0000 0.0000 0.0000 0.0000 5.9239 0.0000
# 6 0.0000 0.0000 0.0000 0.0000 0.0000 27.9009
#
#
#
# Elastic Compliance Matrix: (Units=1/GPa)
#
#
# Indices 1 2 3 4 5 6 
#
# 1 0.014589 -0.005887 -0.003659 0.000000 0.000000 0.000000
# 2 -0.005887 0.010397 -0.004231 0.000000 0.000000 0.000000
# 3 -0.003659 -0.004231 0.024186 0.000000 0.000000 0.000000
# 4 0.000000 0.000000 0.000000 0.041672 0.000000 0.000000
# 5 0.000000 0.000000 0.000000 0.000000 0.168809 0.000000
# 6 0.000000 0.000000 0.000000 0.000000 0.000000 0.035841
#
#
# Mechanical properties :
#
#
# Convention : Reuss Voigt Hill
#
# Bulk Modulus (GPa) = 46.25461 64.16621 55.21041
# Shear Modulus (GPa) = 15.13988 23.01163 19.07575
#
# Velocity S-wave (km/s) = 2.81603 3.47176 3.16094
# Velocity P-wave (km/s) = 5.89922 7.04840 6.49926
#
# Compressibility (1/GPa) = 0.02161947
#
# Stress axis : x y z
#
# Youngs Moduli (GPa) = 68.54402 96.18079 41.34647
#
# Poissons Ratio (x) = 0.56617 0.15127
# Poissons Ratio (y) = 0.40349 0.17494
# Poissons Ratio (z) = 0.25078 0.40695
#
# Static dielectric constant tensor:
#      x y z
#    x 3.376930 0.000000 0.000000 
#    y 0.000000 3.956470 0.000000 
#    z 0.000000 0.000000 3.396600 
# 
# 
# High freq. dielectric constant tensor:
#      x y z
#    x 1.720790 0.000000 0.000000 
#    y 0.000000 1.758600 0.000000 
#    z 0.000000 0.000000 1.727790 
# 
# From -- ./inp_files/12654.got.cif
#   From: 2010.03.12/outbox.cif.g09.slc.cpg/sg47_7_cif.got.tgz:12654.got - 2010.04.14 03:12:58.
