data_PCOD8196662
_publ_section_title
;
Structure prediction by ZEFSAII (Michael W. Deem and Ramdas Pophale) SiO2 
 PCOD8196662
Probable space group: P M M M
;
_chemical_formula_sum "Si O2"
_cell_formula_units_Z 44
_cell_length_a 8.945554
_cell_length_b 9.340181
_cell_length_c 28.300875
_cell_angle_alpha 90.000000
_cell_angle_beta 90.000000
_cell_angle_gamma 90.000000
_cell_volume 2364.625655
_symmetry_space_group_name_H-M "P M M M"
_symmetry_group_IT_number 47
_symmetry_cell_setting 'orthorhombic'
loop_
_space_group_symop_operation_xyz
x,y,z
-x,-y,z
x,-y,-z
-x,y,-z
-x,-y,-z
x,y,-z
-x,y,z
x,-y,z
loop_
_atom_site_type_symbol
_atom_site_label
_atom_site_fract_x
_atom_site_fract_y
_atom_site_fract_z
Si Si1 0.323212 0.333648 0.000000
Si Si2 0.177729 0.339234 0.721178
Si Si3 0.822779 0.165273 0.914770
Si Si4 0.177424 0.339780 0.174505
Si Si5 0.327686 0.664530 0.554036
Si Si6 0.822684 0.160259 0.634093
O O1 0.257208 0.257428 0.954355
O O2 0.275502 0.500000 0.000000
O O3 0.500000 0.315952 0.000000
O O4 0.233677 0.500000 0.710787
O O5 0.233918 0.290898 0.773399
O O6 0.245108 0.237077 0.680699
O O7 0.000000 0.333834 0.719801
O O8 0.766343 0.226732 0.864414
O O9 0.000000 0.181539 0.920920
O O10 0.774003 0.000000 0.918553
O O11 0.237603 0.500000 0.162852
O O12 0.000000 0.344045 0.174610
O O13 0.296719 0.708310 0.500000
O O14 0.500000 0.690081 0.566901
O O15 0.283704 0.500000 0.562288
O O16 0.225277 0.761438 0.586601
O O17 0.000000 0.160983 0.636202
O O18 0.758713 0.000000 0.633402
#
# Coordination Sequence:
#
# PCOD8196662 Si02
#       6
#     4   8   8   8   8   8
#     4  11  24  39  54  72  96 131 172 209 248 294
#     4   8  14  26  45  69  98 132 167 200 236 281
#     4  10  20  33  52  79 106 131 162 201 246 295
#     4   8  14  26  46  72 100 130 164 201 240 282
#     4   9  19  36  55  72  91 121 164 209 250 294
#     4  10  20  31  46  73 106 135 162 196 241 292
#
# _framework density 18.607596999999998
#
# number of rings (size 3 to 8) (size 9 to 14) (size 15 to 20)
#    0.000    2.818    0.000    3.273    0.000    5.818 
#    0.000    6.364    0.000    1.091    0.000    7.636 
#    0.000    0.000    0.000    0.000    0.000    0.000 
#
# Total GULP energy -545440.238951 kJ/mol
# GULP energy per Si atom -12396.369067 kJ/mol
# Density = 1.856525 g / cm^3
# Si number density = 18.607597 Si / 1000 Ang^3
#
#
#
# Elastic Constant Matrix: (Units=GPa)
#
#
# Indices 1 2 3 4 5 6 
#
# 1 18.4567 27.7381 25.6878 0.0000 0.0000 0.0000
# 2 27.7381 142.4316 93.9759 0.0000 0.0000 0.0000
# 3 25.6878 93.9759 153.9580 0.0000 0.0000 0.0000
# 4 0.0000 0.0000 0.0000 9.7925 0.0000 0.0000
# 5 0.0000 0.0000 0.0000 0.0000 -5.8820 0.0000
# 6 0.0000 0.0000 0.0000 0.0000 0.0000 18.6289
#
#
#
# Elastic Compliance Matrix: (Units=1/GPa)
#
#
# Indices 1 2 3 4 5 6 
#
# 1 0.080248 -0.011375 -0.006446 0.000000 0.000000 0.000000
# 2 -0.011375 0.013368 -0.006262 0.000000 0.000000 0.000000
# 3 -0.006446 -0.006262 0.011393 0.000000 0.000000 0.000000
# 4 0.000000 0.000000 0.000000 0.102119 0.000000 0.000000
# 5 0.000000 0.000000 0.000000 0.000000 -0.170009 0.000000
# 6 0.000000 0.000000 0.000000 0.000000 0.000000 0.053680
#
#
# Mechanical properties :
#
#
# Convention : Reuss Voigt Hill
#
# Bulk Modulus (GPa) = 17.59235 67.73887 42.66561
# Shear Modulus (GPa) = 31.66340 15.67082 23.66711
#
# Velocity S-wave (km/s) = 4.12957 2.90517 3.57025
# Velocity P-wave (km/s) = 5.67562 6.90914 6.32254
#
# Compressibility (1/GPa) = 0.05684289
#
# Stress axis : x y z
#
# Youngs Moduli (GPa) = 12.46143 74.80788 87.77390
#
# Poissons Ratio (x) = 0.85093 0.56579
# Poissons Ratio (y) = 0.14175 0.54961
# Poissons Ratio (z) = 0.08033 0.46842
#
# Static dielectric constant tensor:
#      x y z
#    x 2.925410 0.000000 0.000000 
#    y 0.000000 3.615110 0.000000 
#    z 0.000000 0.000000 3.811520 
# 
# 
# High freq. dielectric constant tensor:
#      x y z
#    x 1.671220 0.000000 0.000000 
#    y 0.000000 1.725600 0.000000 
#    z 0.000000 0.000000 1.740540 
# 
# From -- ./inp_files/33900.got.cif
#   From: 2010.03.12/outbox.cif.g09.slc.cpg/sg47_17_cif.got.tgz:33900.got - 2010.04.14 03:12:58.
