data_PCOD8196012
_publ_section_title
;
Structure prediction by ZEFSAII (Michael W. Deem and Ramdas Pophale) SiO2 
 PCOD8196012
Probable space group: P M M M
;
_chemical_formula_sum "Si O2"
_cell_formula_units_Z 44
_cell_length_a 30.312725
_cell_length_b 8.029394
_cell_length_c 9.366604
_cell_angle_alpha 90.000000
_cell_angle_beta 90.000000
_cell_angle_gamma 90.000000
_cell_volume 2279.764089
_symmetry_space_group_name_H-M "P M M M"
_symmetry_group_IT_number 47
_symmetry_cell_setting 'orthorhombic'
loop_
_space_group_symop_operation_xyz
x,y,z
-x,-y,z
x,-y,-z
-x,y,-z
-x,-y,-z
x,y,-z
-x,y,z
x,-y,z
loop_
_atom_site_type_symbol
_atom_site_label
_atom_site_fract_x
_atom_site_fract_y
_atom_site_fract_z
Si Si1 0.775953 0.308527 0.338143
Si Si2 0.550001 0.000000 0.170414
Si Si3 0.696120 0.190104 0.159736
Si Si4 0.046629 0.186411 0.169428
Si Si5 0.396027 0.315836 0.830247
Si Si6 0.141810 0.198620 0.163719
O O1 0.779598 0.244038 0.500000
O O2 0.762180 0.500000 0.331882
O O3 0.738403 0.204395 0.259646
O O4 0.822782 0.284792 0.263644
O O5 0.573177 0.168078 0.231725
O O6 0.500000 0.000000 0.226370
O O7 0.551750 0.000000 0.000000
O O8 0.654577 0.293151 0.221204
O O9 0.680503 0.000000 0.154864
O O10 0.708915 0.251189 0.000000
O O11 0.093385 0.267488 0.216845
O O12 0.000000 0.277000 0.217034
O O13 0.044967 0.000000 0.231228
O O14 0.048374 0.178206 0.000000
O O15 0.412418 0.500000 0.779677
O O16 0.396929 0.303978 0.000000
O O17 0.143966 0.000000 0.178987
O O18 0.151010 0.250564 0.000000
#
# Coordination Sequence:
#
# PCOD8196012 Si02
#       6
#     8   4   8   8   8   8
#     4  11  24  37  47  65  96 131 166 204 247 298
#     4   9  16  26  40  64 101 139 175 213 252 301
#     4  10  19  33  54  76  97 124 164 211 255 305
#     4   7  10  19  39  68  97 119 143 185 239 288
#     4   9  16  27  44  67  97 133 171 211 255 301
#     4   9  17  30  50  75  98 122 157 198 242 296
#
# _framework density 19.300242000000001
#
# number of rings (size 3 to 8) (size 9 to 14) (size 15 to 20)
#    0.000    2.818    0.909    3.273    0.000    5.455 
#    0.000    1.818    0.000    1.091    0.000    6.364 
#    0.000    1.455    0.000    3.818    0.000    3.636 
#
# Total GULP energy -545081.216512 kJ/mol
# GULP energy per Si atom -12388.209466 kJ/mol
# Density = 1.925631 g / cm^3
# Si number density = 19.300242 Si / 1000 Ang^3
#
#
#
# Elastic Constant Matrix: (Units=GPa)
#
#
# Indices 1 2 3 4 5 6 
#
# 1 156.9535 47.5711 39.4983 0.0000 0.0000 0.0000
# 2 47.5711 82.2903 15.9227 0.0000 0.0000 0.0000
# 3 39.4983 15.9227 57.6048 0.0000 0.0000 0.0000
# 4 0.0000 0.0000 0.0000 14.1649 0.0000 0.0000
# 5 0.0000 0.0000 0.0000 0.0000 -1.9297 0.0000
# 6 0.0000 0.0000 0.0000 0.0000 0.0000 14.4522
#
#
#
# Elastic Compliance Matrix: (Units=1/GPa)
#
#
# Indices 1 2 3 4 5 6 
#
# 1 0.008879 -0.004178 -0.004933 0.000000 0.000000 0.000000
# 2 -0.004178 0.014805 -0.001227 0.000000 0.000000 0.000000
# 3 -0.004933 -0.001227 0.021082 0.000000 0.000000 0.000000
# 4 0.000000 0.000000 0.000000 0.070597 0.000000 0.000000
# 5 0.000000 0.000000 0.000000 0.000000 -0.518204 0.000000
# 6 0.000000 0.000000 0.000000 0.000000 0.000000 0.069194
#
#
# Mechanical properties :
#
#
# Convention : Reuss Voigt Hill
#
# Bulk Modulus (GPa) = 41.51470 55.87031 48.69250
# Shear Modulus (GPa) = -16.39668 18.26124 0.93228
#
# Velocity S-wave (km/s) = -2.91788 3.07932 0.69577
# Velocity P-wave (km/s) = 3.19446 6.45397 5.09207
#
# Compressibility (1/GPa) = 0.02408786
#
# Stress axis : x y z
#
# Youngs Moduli (GPa) = 112.62198 67.54442 47.43486
#
# Poissons Ratio (x) = 0.28223 0.23401
# Poissons Ratio (y) = 0.47058 0.05821
# Poissons Ratio (z) = 0.55560 0.08289
#
# Static dielectric constant tensor:
#      x y z
#    x 3.877160 0.000000 0.000000 
#    y 0.000000 3.440900 0.000000 
#    z 0.000000 0.000000 2.980300 
# 
# 
# High freq. dielectric constant tensor:
#      x y z
#    x 1.769030 0.000000 0.000000 
#    y 0.000000 1.738090 0.000000 
#    z 0.000000 0.000000 1.680160 
# 
# From -- ./inp_files/13591.got.cif
#   From: 2010.03.12/outbox.cif.g09.slc.cpg/sg47_7_cif.got.tgz:13591.got - 2010.04.14 03:12:58.
