data_PCOD8196370
_publ_section_title
;
Structure prediction by ZEFSAII (Michael W. Deem and Ramdas Pophale) SiO2 
 PCOD8196370
Probable space group: P M M M
;
_chemical_formula_sum "Si O2"
_cell_formula_units_Z 52
_cell_length_a 27.632537
_cell_length_b 9.640268
_cell_length_c 14.993691
_cell_angle_alpha 90.000000
_cell_angle_beta 90.000000
_cell_angle_gamma 90.000000
_cell_volume 3994.095310
_symmetry_space_group_name_H-M "P M M M"
_symmetry_group_IT_number 47
_symmetry_cell_setting 'orthorhombic'
loop_
_space_group_symop_operation_xyz
x,y,z
-x,-y,z
x,-y,-z
-x,y,-z
-x,-y,-z
x,y,-z
-x,y,z
x,-y,z
loop_
_atom_site_type_symbol
_atom_site_label
_atom_site_fract_x
_atom_site_fract_y
_atom_site_fract_z
Si Si1 0.913214 0.843966 0.105985
Si Si2 0.386139 0.339141 0.104332
Si Si3 0.442498 0.655446 0.400957
Si Si4 0.000000 0.656867 0.106546
Si Si5 0.806037 0.845105 0.106081
Si Si6 0.442477 0.841396 0.759612
Si Si7 0.277713 0.653320 0.106020
O O1 0.859544 0.794497 0.136397
O O2 0.952682 0.736499 0.144066
O O3 0.923847 0.000000 0.141375
O O4 0.916024 0.846401 0.000000
O O5 0.396263 0.500000 0.128275
O O6 0.422844 0.238690 0.154503
O O7 0.331493 0.297081 0.132908
O O8 0.394194 0.314343 0.000000
O O9 0.423894 0.696835 0.500000
O O10 0.500000 0.657790 0.400023
O O11 0.424418 0.500000 0.376526
O O12 0.422287 0.765422 0.329320
O O13 0.000000 0.500000 0.143663
O O14 0.000000 0.656125 0.000000
O O15 0.763758 0.750752 0.148296
O O16 0.797166 0.000000 0.141363
O O17 0.802980 0.841601 0.000000
O O18 0.500000 0.835138 0.763731
O O19 0.424104 0.000000 0.759136
O O20 0.268294 0.500000 0.144079
O O21 0.274044 0.651052 0.000000
#
# Coordination Sequence:
#
# PCOD8196370 Si02
#       7
#     8   8   8   4   8   8   8
#     4   8  13  20  27  34  47  67  87 107 136 178
#     4   9  18  31  43  53  67  91 121 147 172 205
#     4   8  14  26  44  62  77  94 115 136 159 192
#     4   9  15  19  23  33  47  63  85 111 139 173
#     4   8  13  20  30  43  55  68  89 116 148 188
#     4  10  20  30  40  57  78  96 114 139 171 204
#     4   8  14  24  36  48  60  74  96 129 165 195
#
# _framework density 13.019218
#
# number of rings (size 3 to 8) (size 9 to 14) (size 15 to 20)
#    0.000    3.462    0.000    3.000    0.000    4.000 
#    0.000    7.692    0.000    0.000    0.000    0.000 
#    0.000    0.000    0.000    0.000    0.000    0.000 
#
# Total GULP energy -644333.773621 kJ/mol
# GULP energy per Si atom -12391.034108 kJ/mol
# Density = 1.298959 g / cm^3
# Si number density = 13.019218 Si / 1000 Ang^3
#
#
#
# Elastic Constant Matrix: (Units=GPa)
#
#
# Indices 1 2 3 4 5 6 
#
# 1 46.4992 40.7350 19.3851 0.0000 0.0000 0.0000
# 2 40.7350 93.7076 34.4741 0.0000 0.0000 0.0000
# 3 19.3851 34.4741 36.3231 0.0000 0.0000 0.0000
# 4 0.0000 0.0000 0.0000 11.7538 0.0000 0.0000
# 5 0.0000 0.0000 0.0000 0.0000 0.2643 0.0000
# 6 0.0000 0.0000 0.0000 0.0000 0.0000 25.6253
#
#
#
# Elastic Compliance Matrix: (Units=1/GPa)
#
#
# Indices 1 2 3 4 5 6 
#
# 1 0.035749 -0.013093 -0.006652 0.000000 0.000000 0.000000
# 2 -0.013093 0.021192 -0.013126 0.000000 0.000000 0.000000
# 3 -0.006652 -0.013126 0.043538 0.000000 0.000000 0.000000
# 4 0.000000 0.000000 0.000000 0.085079 0.000000 0.000000
# 5 0.000000 0.000000 0.000000 0.000000 3.783040 0.000000
# 6 0.000000 0.000000 0.000000 0.000000 0.000000 0.039024
#
#
# Mechanical properties :
#
#
# Convention : Reuss Voigt Hill
#
# Bulk Modulus (GPa) = 28.78727 40.63538 34.71132
# Shear Modulus (GPa) = 1.22401 12.99106 7.10753
#
# Velocity S-wave (km/s) = 0.97067 3.16228 2.33904
# Velocity P-wave (km/s) = 4.83897 6.67929 5.83218
#
# Compressibility (1/GPa) = 0.03473758
#
# Stress axis : x y z
#
# Youngs Moduli (GPa) = 27.97296 47.18819 22.96822
#
# Poissons Ratio (x) = 0.61783 0.15279
# Poissons Ratio (y) = 0.36624 0.30147
# Poissons Ratio (z) = 0.18609 0.61937
#
# Static dielectric constant tensor:
#      x y z
#    x 2.715870 0.000000 0.000000 
#    y 0.000000 2.870760 0.000000 
#    z 0.000000 0.000000 2.190430 
# 
# 
# High freq. dielectric constant tensor:
#      x y z
#    x 1.485970 0.000000 0.000000 
#    y 0.000000 1.504860 0.000000 
#    z 0.000000 0.000000 1.423960 
# 
# From -- ./inp_files/13423.got.cif
#   From: 2010.03.12/outbox.cif.g09.slc.cpg/sg47_7_cif.got.tgz:13423.got - 2010.04.14 03:12:58.
