data_PCOD8196653
_publ_section_title
;
Structure prediction by ZEFSAII (Michael W. Deem and Ramdas Pophale) SiO2 
 PCOD8196653
Probable space group: P M M M
;
_chemical_formula_sum "Si O2"
_cell_formula_units_Z 48
_cell_length_a 15.417740
_cell_length_b 9.435826
_cell_length_c 19.109639
_cell_angle_alpha 90.000000
_cell_angle_beta 90.000000
_cell_angle_gamma 90.000000
_cell_volume 2780.053311
_symmetry_space_group_name_H-M "P M M M"
_symmetry_group_IT_number 47
_symmetry_cell_setting 'orthorhombic'
loop_
_space_group_symop_operation_xyz
x,y,z
-x,-y,z
x,-y,-z
-x,y,-z
-x,-y,-z
x,y,-z
-x,y,z
x,-y,z
loop_
_atom_site_type_symbol
_atom_site_label
_atom_site_fract_x
_atom_site_fract_y
_atom_site_fract_z
Si Si1 0.722304 0.169072 0.920273
Si Si2 0.601113 0.660154 0.178924
Si Si3 0.742913 0.161603 0.416882
Si Si4 0.600151 0.663673 0.339558
Si Si5 0.091434 0.841554 0.083033
Si Si6 0.903963 0.659438 0.416835
O O1 0.649596 0.231484 0.870805
O O2 0.817085 0.228858 0.893665
O O3 0.721129 0.000000 0.914863
O O4 0.703693 0.216851 0.000000
O O5 0.500000 0.679371 0.164773
O O6 0.629843 0.500000 0.161398
O O7 0.622984 0.695773 0.259106
O O8 0.739841 0.171438 0.500000
O O9 0.657776 0.237589 0.388242
O O10 0.830033 0.236412 0.386924
O O11 0.744126 0.000000 0.390906
O O12 0.500000 0.699571 0.354833
O O13 0.619069 0.500000 0.357427
O O14 0.000000 0.763838 0.106215
O O15 0.087949 0.000000 0.113667
O O16 0.095219 0.849844 0.000000
O O17 0.902257 0.662384 0.500000
O O18 0.884653 0.500000 0.390252
O O19 0.000000 0.707996 0.390870
#
# Coordination Sequence:
#
# PCOD8196653 Si02
#       6
#     8   8   8   8   8   8
#     4   9  17  28  45  72  99 120 149 190 231 272
#     4   9  19  35  51  66  87 119 158 195 232 276
#     4  10  20  31  46  73 104 127 149 186 237 286
#     4   9  19  36  54  68  85 117 162 203 235 276
#     4   7  10  19  37  61  89 119 148 178 214 258
#     4   8  14  26  45  68  94 126 162 194 224 265
#
# _framework density 17.265854999999998
#
# number of rings (size 3 to 8) (size 9 to 14) (size 15 to 20)
#    0.000    3.333    0.000    3.500    0.000    3.667 
#    0.000    6.667    0.000    1.500    0.000    7.000 
#    0.000    0.000    0.000    0.000    0.000    0.000 
#
# Total GULP energy -594636.435594 kJ/mol
# GULP energy per Si atom -12388.259075 kJ/mol
# Density = 1.722656 g / cm^3
# Si number density = 17.265855 Si / 1000 Ang^3
#
#
#
# Elastic Constant Matrix: (Units=GPa)
#
#
# Indices 1 2 3 4 5 6 
#
# 1 108.8510 60.1343 33.2122 0.0000 0.0000 0.0000
# 2 60.1343 80.8620 27.7660 0.0000 0.0000 0.0000
# 3 33.2122 27.7660 27.3777 0.0000 0.0000 0.0000
# 4 0.0000 0.0000 0.0000 23.4197 0.0000 0.0000
# 5 0.0000 0.0000 0.0000 0.0000 -2.4754 0.0000
# 6 0.0000 0.0000 0.0000 0.0000 0.0000 24.7222
#
#
#
# Elastic Compliance Matrix: (Units=1/GPa)
#
#
# Indices 1 2 3 4 5 6 
#
# 1 0.018088 -0.009078 -0.012736 0.000000 0.000000 0.000000
# 2 -0.009078 0.023531 -0.012852 0.000000 0.000000 0.000000
# 3 -0.012736 -0.012852 0.065010 0.000000 0.000000 0.000000
# 4 0.000000 0.000000 0.000000 0.042699 0.000000 0.000000
# 5 0.000000 0.000000 0.000000 0.000000 -0.403975 0.000000
# 6 0.000000 0.000000 0.000000 0.000000 0.000000 0.040449
#
#
# Mechanical properties :
#
#
# Convention : Reuss Voigt Hill
#
# Bulk Modulus (GPa) = 26.81151 51.03508 38.92330
# Shear Modulus (GPa) = -37.75474 15.53184 -11.11145
#
# Velocity S-wave (km/s) = -4.68126 3.00254 -2.53958
# Velocity P-wave (km/s) = 3.69548 6.45313 3.74074
#
# Compressibility (1/GPa) = 0.03729742
#
# Stress axis : x y z
#
# Youngs Moduli (GPa) = 55.28517 42.49727 15.38230
#
# Poissons Ratio (x) = 0.38580 0.19590
# Poissons Ratio (y) = 0.50190 0.19769
# Poissons Ratio (z) = 0.70410 0.54616
#
# Static dielectric constant tensor:
#      x y z
#    x 3.651850 0.000000 0.000000 
#    y 0.000000 3.066480 0.000000 
#    z 0.000000 0.000000 2.808010 
# 
# 
# High freq. dielectric constant tensor:
#      x y z
#    x 1.688650 0.000000 0.000000 
#    y 0.000000 1.644380 0.000000 
#    z 0.000000 0.000000 1.623080 
# 
# From -- ./inp_files/6760.got.cif
#   From: 2010.03.12/outbox.cif.g09.slc.cpg/sg47_4_cif.got.tgz:6760.got - 2010.04.14 03:12:58.
