data_PCOD8196284
_publ_section_title
;
Structure prediction by ZEFSAII (Michael W. Deem and Ramdas Pophale) SiO2 
 PCOD8196284
Probable space group: P M M M
;
_chemical_formula_sum "Si O2"
_cell_formula_units_Z 40
_cell_length_a 10.150965
_cell_length_b 23.723535
_cell_length_c 9.246594
_cell_angle_alpha 90.000000
_cell_angle_beta 90.000000
_cell_angle_gamma 90.000000
_cell_volume 2226.734933
_symmetry_space_group_name_H-M "P M M M"
_symmetry_group_IT_number 47
_symmetry_cell_setting 'orthorhombic'
loop_
_space_group_symop_operation_xyz
x,y,z
-x,-y,z
x,-y,-z
-x,y,-z
-x,-y,-z
x,y,-z
-x,y,z
x,-y,z
loop_
_atom_site_type_symbol
_atom_site_label
_atom_site_fract_x
_atom_site_fract_y
_atom_site_fract_z
Si Si1 0.763276 0.122765 0.669488
Si Si2 0.151913 0.755359 0.664484
Si Si3 0.649509 0.433947 0.666125
Si Si4 0.500000 0.936792 0.328719
Si Si5 0.151725 0.644518 0.829601
Si Si6 0.000000 0.066367 0.166615
O O1 0.788731 0.111770 0.500000
O O2 0.762621 0.189565 0.701998
O O3 0.626141 0.097612 0.725189
O O4 0.872504 0.091100 0.758965
O O5 0.175749 0.735699 0.500000
O O6 0.197063 0.704814 0.767769
O O7 0.000000 0.771642 0.690192
O O8 0.677773 0.418051 0.500000
O O9 0.500000 0.416145 0.707361
O O10 0.667909 0.500000 0.691140
O O11 0.754612 0.403436 0.766976
O O12 0.500000 0.940500 0.500000
O O13 0.500000 0.000000 0.262756
O O14 0.000000 0.631918 0.785363
O O15 0.168969 0.645956 0.000000
O O16 0.000000 0.000000 0.187440
O O17 0.000000 0.084334 0.000000
#
# Coordination Sequence:
#
# PCOD8196284 Si02
#       6
#     8   8   8   4   8   4
#     4  10  19  35  57  80 105 137 179 224 269 320
#     4   9  17  32  53  77 104 137 180 225 268 315
#     4   9  19  37  59  82 109 143 184 228 272 314
#     4   9  18  32  53  81 109 135 168 217 274 325
#     4  10  21  35  53  80 113 147 180 218 267 322
#     4  11  23  35  51  79 109 139 178 221 268 323
#
# _framework density 17.963521
#
# number of rings (size 3 to 8) (size 9 to 14) (size 15 to 20)
#    0.000    2.400    1.000    2.100    0.000    4.800 
#    1.800    3.500    0.000    1.800    0.000    0.000 
#    0.000    0.000    0.000    0.000    0.000    0.000 
#
# Total GULP energy -496043.222793 kJ/mol
# GULP energy per Si atom -12401.080570 kJ/mol
# Density = 1.792264 g / cm^3
# Si number density = 17.963521 Si / 1000 Ang^3
#
#
#
# Elastic Constant Matrix: (Units=GPa)
#
#
# Indices 1 2 3 4 5 6 
#
# 1 130.2719 74.2990 60.1829 0.0000 0.0000 0.0000
# 2 74.2990 107.8627 56.7799 0.0000 0.0000 0.0000
# 3 60.1829 56.7799 83.4683 0.0000 0.0000 0.0000
# 4 0.0000 0.0000 0.0000 21.2411 0.0000 0.0000
# 5 0.0000 0.0000 0.0000 0.0000 -10.2121 0.0000
# 6 0.0000 0.0000 0.0000 0.0000 0.0000 34.0110
#
#
#
# Elastic Compliance Matrix: (Units=1/GPa)
#
#
# Indices 1 2 3 4 5 6 
#
# 1 0.014123 -0.006805 -0.005554 0.000000 0.000000 0.000000
# 2 -0.006805 0.017721 -0.007149 0.000000 0.000000 0.000000
# 3 -0.005554 -0.007149 0.020848 0.000000 0.000000 0.000000
# 4 0.000000 0.000000 0.000000 0.047079 0.000000 0.000000
# 5 0.000000 0.000000 0.000000 0.000000 -0.097923 0.000000
# 6 0.000000 0.000000 0.000000 0.000000 0.000000 0.029402
#
#
# Mechanical properties :
#
#
# Convention : Reuss Voigt Hill
#
# Bulk Modulus (GPa) = 73.11243 78.23629 75.67436
# Shear Modulus (GPa) = 66.82173 17.69740 42.25957
#
# Velocity S-wave (km/s) = 6.10568 3.14217 4.85554
# Velocity P-wave (km/s) = 9.51287 7.53736 8.58214
#
# Compressibility (1/GPa) = 0.01367757
#
# Stress axis : x y z
#
# Youngs Moduli (GPa) = 70.80583 56.42867 47.96523
#
# Poissons Ratio (x) = 0.38397 0.26641
# Poissons Ratio (y) = 0.48181 0.34290
# Poissons Ratio (z) = 0.39327 0.40340
#
# Static dielectric constant tensor:
#      x y z
#    x 3.516210 0.000000 0.000000 
#    y 0.000000 3.381490 0.000000 
#    z 0.000000 0.000000 3.216130 
# 
# 
# High freq. dielectric constant tensor:
#      x y z
#    x 1.691730 0.000000 0.000000 
#    y 0.000000 1.703610 0.000000 
#    z 0.000000 0.000000 1.682720 
# 
# From -- ./inp_files/1836.got.cif
#   From: 2010.03.12/outbox.cif.g09.slc.cpg/sg47_1_cif.got.tgz:1836.got - 2010.04.14 03:12:58.
