data_PCOD8196737
_publ_section_title
;
Structure prediction by ZEFSAII (Michael W. Deem and Ramdas Pophale) SiO2 
 PCOD8196737
Probable space group: P M M M
;
_chemical_formula_sum "Si O2"
_cell_formula_units_Z 52
_cell_length_a 12.203657
_cell_length_b 30.840090
_cell_length_c 9.248514
_cell_angle_alpha 90.000000
_cell_angle_beta 90.000000
_cell_angle_gamma 90.000000
_cell_volume 3480.788118
_symmetry_space_group_name_H-M "P M M M"
_symmetry_group_IT_number 47
_symmetry_cell_setting 'orthorhombic'
loop_
_space_group_symop_operation_xyz
x,y,z
-x,-y,z
x,-y,-z
-x,y,-z
-x,-y,-z
x,y,-z
-x,y,z
x,-y,z
loop_
_atom_site_type_symbol
_atom_site_label
_atom_site_fract_x
_atom_site_fract_y
_atom_site_fract_z
Si Si1 0.869743 0.952744 0.337917
Si Si2 0.870472 0.388278 0.166977
Si Si3 0.869726 0.777622 0.837045
Si Si4 0.130446 0.303735 0.662741
Si Si5 0.130249 0.127131 0.161765
Si Si6 0.500000 0.551518 0.835721
Si Si7 0.714373 0.551287 0.332623
O O1 0.824837 0.949329 0.500000
O O2 0.816842 0.912527 0.251270
O O3 0.000000 0.948923 0.336890
O O4 0.835820 0.000000 0.272422
O O5 0.829098 0.343718 0.239687
O O6 0.818844 0.428165 0.253923
O O7 0.000000 0.393312 0.180587
O O8 0.833148 0.388777 0.000000
O O9 0.821708 0.740585 0.732037
O O10 0.834082 0.825359 0.778370
O O11 0.000000 0.774557 0.840463
O O12 0.825279 0.770386 0.000000
O O13 0.176614 0.308551 0.500000
O O14 0.000000 0.302242 0.660264
O O15 0.000000 0.123747 0.164795
O O16 0.174453 0.122167 0.000000
O O17 0.500000 0.500000 0.838668
O O18 0.393969 0.568350 0.749221
O O19 0.500000 0.569824 0.000000
O O20 0.708908 0.565608 0.500000
O O21 0.726547 0.500000 0.319065
#
# Coordination Sequence:
#
# PCOD8196737 Si02
#       7
#     8   8   8   8   8   4   8
#     4   8  13  19  24  30  42  60  81 108 146 192
#     4  10  20  32  45  61  83 111 139 165 195 234
#     4   8  13  21  31  42  57  76  99 129 165 204
#     4   9  16  25  37  52  69  90 117 147 179 217
#     4   8  13  19  26  36  48  63  86 117 152 192
#     4   9  17  31  51  71  89 109 135 165 195 229
#     4  10  20  33  49  68  89 111 135 165 199 232
#
# _framework density 14.939145999999999
#
# number of rings (size 3 to 8) (size 9 to 14) (size 15 to 20)
#    0.000    3.154    0.000    3.000    0.000    5.846 
#    0.000    6.154    0.000    0.000    0.000    0.000 
#    0.000    0.000    0.000    0.000    0.000    0.000 
#
# Total GULP energy -644381.888416 kJ/mol
# GULP energy per Si atom -12391.959393 kJ/mol
# Density = 1.490514 g / cm^3
# Si number density = 14.939146 Si / 1000 Ang^3
#
#
#
# Elastic Constant Matrix: (Units=GPa)
#
#
# Indices 1 2 3 4 5 6 
#
# 1 18.9569 21.9814 23.3217 0.0000 0.0000 0.0000
# 2 21.9814 91.3688 61.5464 0.0000 0.0000 0.0000
# 3 23.3217 61.5464 118.6455 0.0000 0.0000 0.0000
# 4 0.0000 0.0000 0.0000 31.5211 0.0000 0.0000
# 5 0.0000 0.0000 0.0000 0.0000 13.7990 0.0000
# 6 0.0000 0.0000 0.0000 0.0000 0.0000 0.6594
#
#
#
# Elastic Compliance Matrix: (Units=1/GPa)
#
#
# Indices 1 2 3 4 5 6 
#
# 1 0.078559 -0.013062 -0.008666 0.000000 0.000000 0.000000
# 2 -0.013062 0.018995 -0.007286 0.000000 0.000000 0.000000
# 3 -0.008666 -0.007286 0.013911 0.000000 0.000000 0.000000
# 4 0.000000 0.000000 0.000000 0.031725 0.000000 0.000000
# 5 0.000000 0.000000 0.000000 0.000000 0.072469 0.000000
# 6 0.000000 0.000000 0.000000 0.000000 0.000000 1.516495
#
#
# Mechanical properties :
#
#
# Convention : Reuss Voigt Hill
#
# Bulk Modulus (GPa) = 18.71360 49.18558 33.94959
# Shear Modulus (GPa) = 2.76550 17.33734 10.05142
#
# Velocity S-wave (km/s) = 1.36205 3.41035 2.59670
# Velocity P-wave (km/s) = 3.87651 6.96439 5.63605
#
# Compressibility (1/GPa) = 0.05343706
#
# Stress axis : x y z
#
# Youngs Moduli (GPa) = 12.72929 52.64563 71.88321
#
# Poissons Ratio (x) = 0.68766 0.62295
# Poissons Ratio (y) = 0.16627 0.52373
# Poissons Ratio (z) = 0.11031 0.38357
#
# Static dielectric constant tensor:
#      x y z
#    x 2.247510 0.000000 0.000000 
#    y 0.000000 3.158740 0.000000 
#    z 0.000000 0.000000 3.144040 
# 
# 
# High freq. dielectric constant tensor:
#      x y z
#    x 1.481960 0.000000 0.000000 
#    y 0.000000 1.580680 0.000000 
#    z 0.000000 0.000000 1.584670 
# 
# From -- ./inp_files/4743.got.cif
#   From: 2010.03.12/outbox.cif.g09.slc.cpg/sg47_3_cif.got.tgz:4743.got - 2010.04.14 03:12:58.
