data_PCOD8196441
_publ_section_title
;
Structure prediction by ZEFSAII (Michael W. Deem and Ramdas Pophale) SiO2 
 PCOD8196441
Probable space group: P M M M
;
_chemical_formula_sum "Si O2"
_cell_formula_units_Z 52
_cell_length_a 7.901289
_cell_length_b 14.002520
_cell_length_c 28.632010
_cell_angle_alpha 90.000000
_cell_angle_beta 90.000000
_cell_angle_gamma 90.000000
_cell_volume 3167.787098
_symmetry_space_group_name_H-M "P M M M"
_symmetry_group_IT_number 47
_symmetry_cell_setting 'orthorhombic'
loop_
_space_group_symop_operation_xyz
x,y,z
-x,-y,z
x,-y,-z
-x,y,-z
-x,-y,-z
x,y,-z
-x,y,z
x,-y,z
loop_
_atom_site_type_symbol
_atom_site_label
_atom_site_fract_x
_atom_site_fract_y
_atom_site_fract_z
Si Si1 0.500000 0.386047 0.947203
Si Si2 0.799707 0.225571 0.551951
Si Si3 0.811223 0.386269 0.886368
Si Si4 0.797812 0.893758 0.361089
Si Si5 0.807490 0.278186 0.302901
Si Si6 0.799682 0.606375 0.217577
Si Si7 0.305384 0.607350 0.611727
O O1 0.500000 0.500000 0.945887
O O2 0.669882 0.346571 0.922077
O O3 0.500000 0.347455 0.000000
O O4 0.734979 0.199092 0.500000
O O5 0.736769 0.144500 0.588258
O O6 0.725422 0.328433 0.566061
O O7 0.000000 0.233152 0.553213
O O8 0.816278 0.500000 0.887376
O O9 0.758678 0.353479 0.834132
O O10 0.000000 0.347689 0.899714
O O11 0.725528 0.822157 0.320836
O O12 0.000000 0.894419 0.359661
O O13 0.724286 0.000000 0.353024
O O14 0.718998 0.321855 0.256335
O O15 0.802554 0.354550 0.344679
O O16 0.000000 0.256771 0.289972
O O17 0.721594 0.500000 0.224193
O O18 0.000000 0.599020 0.224374
O O19 0.500000 0.611074 0.626715
O O20 0.247084 0.500000 0.599851
#
# Coordination Sequence:
#
# PCOD8196441 Si02
#       7
#     4   8   8   8   8   8   8
#     4   9  16  24  34  50  72 102 143 183 214 245
#     4   9  18  31  46  62  76  96 129 161 189 228
#     4   8  14  24  35  49  72 101 135 176 216 248
#     4   8  14  25  42  64  85 100 119 155 198 235
#     4   9  16  27  44  62  79 103 134 162 190 232
#     4   8  13  22  37  55  75 100 130 164 199 232
#     4  10  20  31  41  57  82 105 124 152 193 237
#
# _framework density 16.415244000000001
#
# number of rings (size 3 to 8) (size 9 to 14) (size 15 to 20)
#    0.000    3.308    0.000    2.769    0.000    3.077 
#    1.385    4.615    0.000    7.385    0.000    4.308 
#    0.000    0.000    0.000    0.000    0.000    1.538 
#
# Total GULP energy -644307.107644 kJ/mol
# GULP energy per Si atom -12390.521301 kJ/mol
# Density = 1.637788 g / cm^3
# Si number density = 16.415244 Si / 1000 Ang^3
#
#
#
# Elastic Constant Matrix: (Units=GPa)
#
#
# Indices 1 2 3 4 5 6 
#
# 1 38.7703 14.6881 35.0203 0.0000 0.0000 0.0000
# 2 14.6881 99.9891 51.6588 0.0000 0.0000 0.0000
# 3 35.0203 51.6588 136.2653 0.0000 0.0000 0.0000
# 4 0.0000 0.0000 0.0000 12.1955 0.0000 0.0000
# 5 0.0000 0.0000 0.0000 0.0000 11.1393 0.0000
# 6 0.0000 0.0000 0.0000 0.0000 0.0000 3.4164
#
#
#
# Elastic Compliance Matrix: (Units=1/GPa)
#
#
# Indices 1 2 3 4 5 6 
#
# 1 0.033619 -0.000590 -0.008416 0.000000 0.000000 0.000000
# 2 -0.000590 0.012447 -0.004567 0.000000 0.000000 0.000000
# 3 -0.008416 -0.004567 0.011233 0.000000 0.000000 0.000000
# 4 0.000000 0.000000 0.000000 0.081998 0.000000 0.000000
# 5 0.000000 0.000000 0.000000 0.000000 0.089772 0.000000
# 6 0.000000 0.000000 0.000000 0.000000 0.000000 0.292703
#
#
# Mechanical properties :
#
#
# Convention : Reuss Voigt Hill
#
# Bulk Modulus (GPa) = 33.16554 53.08436 43.12495
# Shear Modulus (GPa) = 8.94503 16.92742 12.93622
#
# Velocity S-wave (km/s) = 2.33689 3.21472 2.81029
# Velocity P-wave (km/s) = 5.24684 6.79616 6.07113
#
# Compressibility (1/GPa) = 0.03015178
#
# Stress axis : x y z
#
# Youngs Moduli (GPa) = 29.74525 80.33813 89.02298
#
# Poissons Ratio (x) = 0.04742 0.74924
# Poissons Ratio (y) = 0.01756 0.40658
# Poissons Ratio (z) = 0.25034 0.36692
#
# Static dielectric constant tensor:
#      x y z
#    x 2.955860 0.000000 0.000000 
#    y 0.000000 3.048040 0.000000 
#    z 0.000000 0.000000 3.259960 
# 
# 
# High freq. dielectric constant tensor:
#      x y z
#    x 1.616850 0.000000 0.000000 
#    y 0.000000 1.584590 0.000000 
#    z 0.000000 0.000000 1.620420 
# 
# From -- ./inp_files/33378.got.cif
#   From: 2010.03.12/outbox.cif.g09.slc.cpg/sg47_17_cif.got.tgz:33378.got - 2010.04.14 03:12:58.
