data_PCOD8196774
_publ_section_title
;
Structure prediction by ZEFSAII (Michael W. Deem and Ramdas Pophale) SiO2 
 PCOD8196774
Probable space group: P M M M
;
_chemical_formula_sum "Si O2"
_cell_formula_units_Z 32
_cell_length_a 9.179715
_cell_length_b 20.912922
_cell_length_c 9.099122
_cell_angle_alpha 90.000000
_cell_angle_beta 90.000000
_cell_angle_gamma 90.000000
_cell_volume 1746.800887
_symmetry_space_group_name_H-M "P M M M"
_symmetry_group_IT_number 47
_symmetry_cell_setting 'orthorhombic'
loop_
_space_group_symop_operation_xyz
x,y,z
-x,-y,z
x,-y,-z
-x,y,-z
-x,-y,-z
x,y,-z
-x,y,z
x,-y,z
loop_
_atom_site_type_symbol
_atom_site_label
_atom_site_fract_x
_atom_site_fract_y
_atom_site_fract_z
Si Si1 0.826127 0.000000 0.333874
Si Si2 0.673947 0.638026 0.832817
Si Si3 0.173420 0.124272 0.165869
Si Si4 0.831474 0.749418 0.328554
Si Si5 0.658450 0.500000 0.826567
O O1 0.764988 0.062608 0.251394
O O2 0.766809 0.000000 0.500000
O O3 0.000000 0.000000 0.332774
O O4 0.500000 0.638405 0.819790
O O5 0.741299 0.688334 0.721703
O O6 0.736612 0.567343 0.785125
O O7 0.721239 0.654391 0.000000
O O8 0.229632 0.188248 0.245234
O O9 0.000000 0.122485 0.167543
O O10 0.233791 0.123260 0.000000
O O11 0.807558 0.760914 0.500000
O O12 0.000000 0.737698 0.290227
O O13 0.500000 0.500000 0.750025
O O14 0.635765 0.500000 0.000000
#
# Coordination Sequence:
#
# PCOD8196774 Si02
#       5
#     4   8   8   8   4
#     4   9  15  23  37  59  88 119 150 187 232 279
#     4   9  17  31  52  74  93 117 153 195 236 279
#     4   9  16  26  41  61  86 118 156 195 232 271
#     4  10  20  32  45  65  96 130 159 190 233 281
#     4   7  12  26  48  71  92 114 146 191 236 275
#
# _framework density 18.319203000000002
#
# number of rings (size 3 to 8) (size 9 to 14) (size 15 to 20)
#    0.000    3.000    0.000    3.375    0.000    6.500 
#    0.000    1.250    0.000    6.000    0.000    0.875 
#    0.000    7.000    0.000    0.000    0.000    0.000 
#
# Total GULP energy -396578.617489 kJ/mol
# GULP energy per Si atom -12393.081797 kJ/mol
# Density = 1.827751 g / cm^3
# Si number density = 18.319203 Si / 1000 Ang^3
#
#
#
# Elastic Constant Matrix: (Units=GPa)
#
#
# Indices 1 2 3 4 5 6 
#
# 1 16.6267 25.0799 18.7244 0.0000 0.0000 0.0000
# 2 25.0799 185.9998 76.3384 0.0000 0.0000 0.0000
# 3 18.7244 76.3384 116.0074 0.0000 0.0000 0.0000
# 4 0.0000 0.0000 0.0000 23.4645 0.0000 0.0000
# 5 0.0000 0.0000 0.0000 0.0000 17.8829 0.0000
# 6 0.0000 0.0000 0.0000 0.0000 0.0000 -372.9411
#
#
#
# Elastic Compliance Matrix: (Units=1/GPa)
#
#
# Indices 1 2 3 4 5 6 
#
# 1 0.080609 -0.007575 -0.008026 0.000000 0.000000 0.000000
# 2 -0.007575 0.008078 -0.004093 0.000000 0.000000 0.000000
# 3 -0.008026 -0.004093 0.012609 0.000000 0.000000 0.000000
# 4 0.000000 0.000000 0.000000 0.042618 0.000000 0.000000
# 5 0.000000 0.000000 0.000000 0.000000 0.055919 0.000000
# 6 0.000000 0.000000 0.000000 0.000000 0.000000 -0.002681
#
#
# Mechanical properties :
#
#
# Convention : Reuss Voigt Hill
#
# Bulk Modulus (GPa) = 16.15305 62.10215 39.12760
# Shear Modulus (GPa) = 19.44200 -53.08599 -16.82200
#
# Velocity S-wave (km/s) = 3.26128 -5.38899 -3.03359
# Velocity P-wave (km/s) = 4.79770 2.17900 3.02241
#
# Compressibility (1/GPa) = 0.06190779
#
# Stress axis : x y z
#
# Youngs Moduli (GPa) = 12.40550 123.80063 79.30958
#
# Poissons Ratio (x) = 0.93780 0.63655
# Poissons Ratio (y) = 0.09397 0.32459
# Poissons Ratio (z) = 0.09957 0.50668
#
# Static dielectric constant tensor:
#      x y z
#    x 2.731900 0.000000 0.000000 
#    y 0.000000 3.773230 0.000000 
#    z 0.000000 0.000000 3.337810 
# 
# 
# High freq. dielectric constant tensor:
#      x y z
#    x 1.639400 0.000000 0.000000 
#    y 0.000000 1.735460 0.000000 
#    z 0.000000 0.000000 1.705740 
# 
# From -- ./inp_files/3627.got.cif
#   From: 2010.03.12/outbox.cif.g09.slc.cpg/sg47_2_cif.got.tgz:3627.got - 2010.04.14 03:12:58.
