data_PCOD8196220
_publ_section_title
;
Structure prediction by ZEFSAII (Michael W. Deem and Ramdas Pophale) SiO2 
 PCOD8196220
Probable space group: P M M M
;
_chemical_formula_sum "Si O2"
_cell_formula_units_Z 52
_cell_length_a 11.823433
_cell_length_b 25.297449
_cell_length_c 9.461979
_cell_angle_alpha 90.000000
_cell_angle_beta 90.000000
_cell_angle_gamma 90.000000
_cell_volume 2830.103403
_symmetry_space_group_name_H-M "P M M M"
_symmetry_group_IT_number 47
_symmetry_cell_setting 'orthorhombic'
loop_
_space_group_symop_operation_xyz
x,y,z
-x,-y,z
x,-y,-z
-x,y,-z
-x,-y,-z
x,y,-z
-x,y,z
x,-y,z
loop_
_atom_site_type_symbol
_atom_site_label
_atom_site_fract_x
_atom_site_fract_y
_atom_site_fract_z
Si Si1 0.371391 0.339683 0.833143
Si Si2 0.236777 0.939271 0.834703
Si Si3 0.369075 0.855114 0.663770
Si Si4 0.757849 0.441359 0.831406
Si Si5 0.000000 0.891609 0.165923
Si Si6 0.755439 0.251315 0.337118
Si Si7 0.000000 0.214125 0.339711
Si Si8 0.000000 0.562307 0.153250
O O1 0.500000 0.331029 0.785039
O O2 0.335232 0.398677 0.784694
O O3 0.292549 0.297679 0.757791
O O4 0.357117 0.332574 0.000000
O O5 0.329254 0.905423 0.752098
O O6 0.110117 0.924224 0.786345
O O7 0.258274 0.000000 0.796199
O O8 0.253064 0.928555 0.000000
O O9 0.347099 0.867498 0.500000
O O10 0.500000 0.843995 0.695395
O O11 0.298542 0.804029 0.712729
O O12 0.722816 0.500000 0.775718
O O13 0.881491 0.423399 0.767877
O O14 0.769231 0.443397 0.000000
O O15 0.000000 0.835007 0.236869
O O16 0.000000 0.881987 0.000000
O O17 0.724081 0.262261 0.500000
O O18 0.890018 0.249971 0.312429
O O19 0.000000 0.192269 0.500000
O O20 0.000000 0.500000 0.130649
O O21 0.000000 0.590767 0.000000
#
# Coordination Sequence:
#
# PCOD8196220 Si02
#       8
#     8   8   8   8   4   8   4   4
#     4  10  21  34  50  77 109 140 179 223 261 305
#     4  10  21  36  55  81 112 144 175 210 260 319
#     4  10  21  37  57  78 101 137 184 226 263 307
#     4   8  14  26  45  70 102 138 174 215 264 313
#     4  10  19  34  57  83 111 139 170 211 262 316
#     4  10  21  38  58  78 103 136 173 215 269 323
#     4  10  20  36  60  84 104 129 170 221 265 317
#     4   7  10  19  38  64  93 127 166 206 251 303
#
# _framework density 18.373885999999999
#
# number of rings (size 3 to 8) (size 9 to 14) (size 15 to 20)
#    0.000    2.538    1.538    1.615    0.000    4.923 
#    0.000    3.846    0.000    1.846    0.000    1.077 
#    0.000    3.692    0.000    0.000    0.000    0.000 
#
# Total GULP energy -644635.677716 kJ/mol
# GULP energy per Si atom -12396.839956 kJ/mol
# Density = 1.833207 g / cm^3
# Si number density = 18.373886 Si / 1000 Ang^3
#
#
#
# Elastic Constant Matrix: (Units=GPa)
#
#
# Indices 1 2 3 4 5 6 
#
# 1 126.3229 59.6606 32.1234 0.0000 0.0000 0.0000
# 2 59.6606 116.1621 35.3664 0.0000 0.0000 0.0000
# 3 32.1234 35.3664 27.7034 0.0000 0.0000 0.0000
# 4 0.0000 0.0000 0.0000 4.8377 0.0000 0.0000
# 5 0.0000 0.0000 0.0000 0.0000 25.4021 0.0000
# 6 0.0000 0.0000 0.0000 0.0000 0.0000 26.4315
#
#
#
# Elastic Compliance Matrix: (Units=1/GPa)
#
#
# Indices 1 2 3 4 5 6 
#
# 1 0.011880 -0.003120 -0.009792 0.000000 0.000000 0.000000
# 2 -0.003120 0.014901 -0.015405 0.000000 0.000000 0.000000
# 3 -0.009792 -0.015405 0.067117 0.000000 0.000000 0.000000
# 4 0.000000 0.000000 0.000000 0.206709 0.000000 0.000000
# 5 0.000000 0.000000 0.000000 0.000000 0.039367 0.000000
# 6 0.000000 0.000000 0.000000 0.000000 0.000000 0.037834
#
#
# Mechanical properties :
#
#
# Convention : Reuss Voigt Hill
#
# Bulk Modulus (GPa) = 26.83568 58.27656 42.55612
# Shear Modulus (GPa) = 11.18906 20.87012 16.02959
#
# Velocity S-wave (km/s) = 2.47040 3.37390 2.95687
# Velocity P-wave (km/s) = 4.77223 6.85300 5.90499
#
# Compressibility (1/GPa) = 0.03726382
#
# Stress axis : x y z
#
# Youngs Moduli (GPa) = 84.17546 67.10745 14.89925
#
# Poissons Ratio (x) = 0.20939 0.14589
# Poissons Ratio (y) = 0.26265 0.22953
# Poissons Ratio (z) = 0.82425 1.03381
#
# Static dielectric constant tensor:
#      x y z
#    x 3.703500 0.000000 0.000000 
#    y 0.000000 3.347350 0.000000 
#    z 0.000000 0.000000 3.069680 
# 
# 
# High freq. dielectric constant tensor:
#      x y z
#    x 1.729020 0.000000 0.000000 
#    y 0.000000 1.708220 0.000000 
#    z 0.000000 0.000000 1.675650 
# 
# From -- ./inp_files/4683.got.cif
#   From: 2010.03.12/outbox.cif.g09.slc.cpg/sg47_3_cif.got.tgz:4683.got - 2010.04.14 03:12:58.
