data_PCOD8196464
_publ_section_title
;
Structure prediction by ZEFSAII (Michael W. Deem and Ramdas Pophale) SiO2 
 PCOD8196464
Probable space group: P M M M
;
_chemical_formula_sum "Si O2"
_cell_formula_units_Z 48
_cell_length_a 13.828018
_cell_length_b 8.873701
_cell_length_c 24.235070
_cell_angle_alpha 90.000000
_cell_angle_beta 90.000000
_cell_angle_gamma 90.000000
_cell_volume 2973.781160
_symmetry_space_group_name_H-M "P M M M"
_symmetry_group_IT_number 47
_symmetry_cell_setting 'orthorhombic'
loop_
_space_group_symop_operation_xyz
x,y,z
-x,-y,z
x,-y,-z
-x,y,-z
-x,-y,-z
x,y,-z
-x,y,z
x,-y,z
loop_
_atom_site_type_symbol
_atom_site_label
_atom_site_fract_x
_atom_site_fract_y
_atom_site_fract_z
Si Si1 0.893901 0.177788 0.771118
Si Si2 0.224160 0.178360 0.334997
Si Si3 0.108252 0.179006 0.438823
Si Si4 0.608801 0.179095 0.939471
Si Si5 0.707899 0.820639 0.830730
Si Si6 0.388796 0.675030 0.728016
O O1 0.853789 0.225157 0.711378
O O2 0.817927 0.232430 0.817934
O O3 0.000000 0.251740 0.780765
O O4 0.904195 0.000000 0.773863
O O5 0.183467 0.240311 0.393309
O O6 0.326035 0.257275 0.322184
O O7 0.241206 0.000000 0.335482
O O8 0.142359 0.230365 0.500000
O O9 0.000000 0.241022 0.427075
O O10 0.105044 0.000000 0.435083
O O11 0.500000 0.238097 0.928669
O O12 0.678917 0.241073 0.891349
O O13 0.608813 0.000000 0.938441
O O14 0.644689 0.235390 0.000000
O O15 0.634828 0.755039 0.785731
O O16 0.699133 0.000000 0.827008
O O17 0.500000 0.704405 0.713062
O O18 0.365144 0.500000 0.734487
#
# Coordination Sequence:
#
# PCOD8196464 Si02
#       6
#     8   8   8   8   8   8
#     4   8  13  21  35  57  82 105 130 161 196 232
#     4   9  16  26  43  64  83 108 140 168 195 236
#     4   8  13  22  40  68  96 115 133 164 206 246
#     4   8  13  21  35  57  82 104 129 166 207 241
#     4   9  16  26  43  63  80 104 138 170 198 238
#     4  10  20  31  42  58  82 109 134 167 213 253
#
# _framework density 16.141065999999999
#
# number of rings (size 3 to 8) (size 9 to 14) (size 15 to 20)
#    0.000    3.333    0.000    3.500    0.000    4.000 
#    0.000    0.000    0.000   14.500    0.000   10.500 
#    0.000    0.000    0.000    6.000    0.000    7.333 
#
# Total GULP energy -594790.816836 kJ/mol
# GULP energy per Si atom -12391.475351 kJ/mol
# Density = 1.610433 g / cm^3
# Si number density = 16.141066 Si / 1000 Ang^3
#
#
#
# Elastic Constant Matrix: (Units=GPa)
#
#
# Indices 1 2 3 4 5 6 
#
# 1 125.9995 23.8003 83.7521 0.0000 0.0000 0.0000
# 2 23.8003 22.1150 19.0254 0.0000 0.0000 0.0000
# 3 83.7521 19.0254 154.0556 0.0000 0.0000 0.0000
# 4 0.0000 0.0000 0.0000 3.9416 0.0000 0.0000
# 5 0.0000 0.0000 0.0000 0.0000 29.4282 0.0000
# 6 0.0000 0.0000 0.0000 0.0000 0.0000 8.5314
#
#
#
# Elastic Compliance Matrix: (Units=1/GPa)
#
#
# Indices 1 2 3 4 5 6 
#
# 1 0.014024 -0.009548 -0.006445 0.000000 0.000000 0.000000
# 2 -0.009548 0.057094 -0.001860 0.000000 0.000000 0.000000
# 3 -0.006445 -0.001860 0.010225 0.000000 0.000000 0.000000
# 4 0.000000 0.000000 0.000000 0.253705 0.000000 0.000000
# 5 0.000000 0.000000 0.000000 0.000000 0.033981 0.000000
# 6 0.000000 0.000000 0.000000 0.000000 0.000000 0.117214
#
#
# Mechanical properties :
#
#
# Convention : Reuss Voigt Hill
#
# Bulk Modulus (GPa) = 21.91229 61.70285 41.80757
# Shear Modulus (GPa) = 9.30818 20.08640 14.69729
#
# Velocity S-wave (km/s) = 2.40402 3.53147 3.02081
# Velocity P-wave (km/s) = 4.61635 7.41206 6.17452
#
# Compressibility (1/GPa) = 0.04563649
#
# Stress axis : x y z
#
# Youngs Moduli (GPa) = 71.30562 17.51486 97.80238
#
# Poissons Ratio (x) = 0.16724 0.63034
# Poissons Ratio (y) = 0.68084 0.18192
# Poissons Ratio (z) = 0.45957 0.03258
#
# Static dielectric constant tensor:
#      x y z
#    x 3.263370 0.000000 0.000000 
#    y 0.000000 2.605490 0.000000 
#    z 0.000000 0.000000 3.350000 
# 
# 
# High freq. dielectric constant tensor:
#      x y z
#    x 1.614270 0.000000 0.000000 
#    y 0.000000 1.572820 0.000000 
#    z 0.000000 0.000000 1.617070 
# 
# From -- ./inp_files/7497.got.cif
#   From: 2010.03.12/outbox.cif.g09.slc.cpg/sg47_4_cif.got.tgz:7497.got - 2010.04.14 03:12:58.
