data_PCOD8196696
_publ_section_title
;
Structure prediction by ZEFSAII (Michael W. Deem and Ramdas Pophale) SiO2 
 PCOD8196696
Probable space group: P M M M
;
_chemical_formula_sum "Si O2"
_cell_formula_units_Z 52
_cell_length_a 9.155423
_cell_length_b 19.427452
_cell_length_c 23.230234
_cell_angle_alpha 90.000000
_cell_angle_beta 90.000000
_cell_angle_gamma 90.000000
_cell_volume 4131.881365
_symmetry_space_group_name_H-M "P M M M"
_symmetry_group_IT_number 47
_symmetry_cell_setting 'orthorhombic'
loop_
_space_group_symop_operation_xyz
x,y,z
-x,-y,z
x,-y,-z
-x,y,-z
-x,-y,-z
x,y,-z
-x,y,z
x,-y,z
loop_
_atom_site_type_symbol
_atom_site_label
_atom_site_fract_x
_atom_site_fract_y
_atom_site_fract_z
Si Si1 0.830733 0.205769 0.565186
Si Si2 0.335905 0.418142 0.936452
Si Si3 0.665443 0.925047 0.431593
Si Si4 0.172451 0.353887 0.392536
Si Si5 0.330277 0.581020 0.714334
Si Si6 0.163460 0.581759 0.172027
Si Si7 0.666401 0.418564 0.500000
O O1 0.774396 0.219408 0.500000
O O2 0.755568 0.138967 0.594176
O O3 0.794576 0.272699 0.602814
O O4 0.000000 0.189335 0.564334
O O5 0.500000 0.390774 0.925593
O O6 0.336805 0.500000 0.932988
O O7 0.229698 0.387736 0.887349
O O8 0.281248 0.394662 0.000000
O O9 0.676701 0.922768 0.500000
O O10 0.500000 0.916259 0.410892
O O11 0.724923 0.000000 0.410261
O O12 0.238215 0.378916 0.332932
O O13 0.249771 0.393737 0.443866
O O14 0.000000 0.369209 0.395301
O O15 0.500000 0.601504 0.710862
O O16 0.308951 0.500000 0.704486
O O17 0.266976 0.604858 0.775693
O O18 0.158193 0.500000 0.168767
O O19 0.000000 0.611385 0.180477
O O20 0.665388 0.500000 0.500000
O O21 0.500000 0.390352 0.500000
#
# Coordination Sequence:
#
# PCOD8196696 Si02
#       7
#     8   8   8   8   8   8   4
#     4   9  17  29  41  55  74  92 111 134 166 208
#     4   8  13  21  33  49  69  91 111 132 163 203
#     4   8  14  24  38  57  77  94 112 131 153 188
#     4  11  21  33  45  57  72  89 112 144 181 219
#     4  10  20  32  43  54  68  87 115 149 183 222
#     4   9  16  25  37  52  68  87 111 139 173 210
#     4  11  23  35  45  57  70  85 110 143 181 226
#
# _framework density 12.585065999999999
#
# number of rings (size 3 to 8) (size 9 to 14) (size 15 to 20)
#    0.000    2.692    0.769    3.000    0.000    7.077 
#    0.000    3.077    0.000    0.000    0.000    0.000 
#    0.000    0.000    0.000    0.000    0.000    0.000 
#
# Total GULP energy -644525.479867 kJ/mol
# GULP energy per Si atom -12394.720767 kJ/mol
# Density = 1.255642 g / cm^3
# Si number density = 12.585066 Si / 1000 Ang^3
#
#
#
# Elastic Constant Matrix: (Units=GPa)
#
#
# Indices 1 2 3 4 5 6 
#
# 1 83.8708 38.4249 43.2968 0.0000 0.0000 0.0000
# 2 38.4249 55.3850 28.2112 0.0000 0.0000 0.0000
# 3 43.2968 28.2112 80.8074 0.0000 0.0000 0.0000
# 4 0.0000 0.0000 0.0000 -6.9624 0.0000 0.0000
# 5 0.0000 0.0000 0.0000 0.0000 24.7595 0.0000
# 6 0.0000 0.0000 0.0000 0.0000 0.0000 17.8397
#
#
#
# Elastic Compliance Matrix: (Units=1/GPa)
#
#
# Indices 1 2 3 4 5 6 
#
# 1 0.020517 -0.010502 -0.007326 0.000000 0.000000 0.000000
# 2 -0.010502 0.027337 -0.003917 0.000000 0.000000 0.000000
# 3 -0.007326 -0.003917 0.017668 0.000000 0.000000 0.000000
# 4 0.000000 0.000000 0.000000 -0.143629 0.000000 0.000000
# 5 0.000000 0.000000 0.000000 0.000000 0.040389 0.000000
# 6 0.000000 0.000000 0.000000 0.000000 0.000000 0.056055
#
#
# Mechanical properties :
#
#
# Convention : Reuss Voigt Hill
#
# Bulk Modulus (GPa) = 45.39075 48.88098 47.13587
# Shear Modulus (GPa) = 72.28639 14.46939 43.37789
#
# Velocity S-wave (km/s) = 7.58702 3.39444 5.87729
# Velocity P-wave (km/s) = 10.62525 7.36802 9.14286
#
# Compressibility (1/GPa) = 0.02203092
#
# Stress axis : x y z
#
# Youngs Moduli (GPa) = 48.74058 36.58092 56.59970
#
# Poissons Ratio (x) = 0.38418 0.41467
# Poissons Ratio (y) = 0.51189 0.22167
# Poissons Ratio (z) = 0.35709 0.14327
#
# Static dielectric constant tensor:
#      x y z
#    x 2.766630 0.000000 0.000000 
#    y 0.000000 2.465540 0.000000 
#    z 0.000000 0.000000 2.505320 
# 
# 
# High freq. dielectric constant tensor:
#      x y z
#    x 1.492940 0.000000 0.000000 
#    y 0.000000 1.434990 0.000000 
#    z 0.000000 0.000000 1.454910 
# 
# From -- ./inp_files/10089.got.cif
#   From: 2010.03.12/outbox.cif.g09.slc.cpg/sg47_6_cif.got.tgz:10089.got - 2010.04.14 03:12:58.
