data_PCOD8196563
_publ_section_title
;
Structure prediction by ZEFSAII (Michael W. Deem and Ramdas Pophale) SiO2 
 PCOD8196563
Probable space group: P M M M
;
_chemical_formula_sum "Si O2"
_cell_formula_units_Z 52
_cell_length_a 10.489231
_cell_length_b 9.308757
_cell_length_c 30.542355
_cell_angle_alpha 90.000000
_cell_angle_beta 90.000000
_cell_angle_gamma 90.000000
_cell_volume 2982.207540
_symmetry_space_group_name_H-M "P M M M"
_symmetry_group_IT_number 47
_symmetry_cell_setting 'orthorhombic'
loop_
_space_group_symop_operation_xyz
x,y,z
-x,-y,z
x,-y,-z
-x,y,-z
-x,-y,-z
x,y,-z
-x,y,z
x,-y,z
loop_
_atom_site_type_symbol
_atom_site_label
_atom_site_fract_x
_atom_site_fract_y
_atom_site_fract_z
Si Si1 0.247800 0.668922 0.550763
Si Si2 0.000000 0.838993 0.551718
Si Si3 0.646360 0.830054 0.883465
Si Si4 0.645278 0.157602 0.375937
Si Si5 0.142331 0.829376 0.950843
Si Si6 0.349036 0.340101 0.200465
Si Si7 0.651915 0.661563 0.296849
O O1 0.279327 0.699479 0.500000
O O2 0.236636 0.500000 0.559490
O O3 0.120543 0.747777 0.567245
O O4 0.354526 0.741480 0.580897
O O5 0.000000 0.850075 0.500000
O O6 0.000000 0.000000 0.571988
O O7 0.500000 0.782306 0.894313
O O8 0.744083 0.769301 0.920095
O O9 0.696405 0.767504 0.837371
O O10 0.654053 0.000000 0.879910
O O11 0.500000 0.133250 0.363530
O O12 0.712072 0.235596 0.334289
O O13 0.708668 0.000000 0.384209
O O14 0.000000 0.779805 0.935228
O O15 0.147638 0.000000 0.950692
O O16 0.167376 0.771945 0.000000
O O17 0.500000 0.346129 0.201105
O O18 0.295284 0.500000 0.190973
O O19 0.302297 0.286440 0.248485
O O20 0.500000 0.662779 0.299678
O O21 0.701590 0.500000 0.305318
#
# Coordination Sequence:
#
# PCOD8196563 Si02
#       7
#     8   4   8   8   8   8   8
#     4  10  20  33  49  68  90 118 153 189 224 267
#     4   9  17  31  51  71  89 109 139 183 229 267
#     4   9  16  24  38  64  90 108 136 184 232 264
#     4  10  20  31  44  66  95 124 152 184 226 272
#     4   8  14  25  40  58  83 117 153 183 215 262
#     4   8  14  25  41  61  86 115 142 171 215 268
#     4   8  14  26  43  61  83 113 147 179 212 258
#
# _framework density 17.436747
#
# number of rings (size 3 to 8) (size 9 to 14) (size 15 to 20)
#    0.000    3.154    0.000    2.538    0.000    4.000 
#    0.000    6.154    0.000    0.923    2.000    3.231 
#    0.000    0.000    0.000    0.000    0.000    0.000 
#
# Total GULP energy -644238.793571 kJ/mol
# GULP energy per Si atom -12389.207569 kJ/mol
# Density = 1.739706 g / cm^3
# Si number density = 17.436747 Si / 1000 Ang^3
#
#
#
# Elastic Constant Matrix: (Units=GPa)
#
#
# Indices 1 2 3 4 5 6 
#
# 1 47.8672 25.0622 42.7369 0.0000 0.0000 0.0000
# 2 25.0622 85.9008 59.8346 0.0000 0.0000 0.0000
# 3 42.7369 59.8346 131.9417 0.0000 0.0000 0.0000
# 4 0.0000 0.0000 0.0000 24.9617 0.0000 0.0000
# 5 0.0000 0.0000 0.0000 0.0000 6.2273 0.0000
# 6 0.0000 0.0000 0.0000 0.0000 0.0000 14.5906
#
#
#
# Elastic Compliance Matrix: (Units=1/GPa)
#
#
# Indices 1 2 3 4 5 6 
#
# 1 0.029873 -0.002888 -0.008366 0.000000 0.000000 0.000000
# 2 -0.002888 0.017296 -0.006908 0.000000 0.000000 0.000000
# 3 -0.008366 -0.006908 0.013422 0.000000 0.000000 0.000000
# 4 0.000000 0.000000 0.000000 0.040061 0.000000 0.000000
# 5 0.000000 0.000000 0.000000 0.000000 0.160582 0.000000
# 6 0.000000 0.000000 0.000000 0.000000 0.000000 0.068537
#
#
# Mechanical properties :
#
#
# Convention : Reuss Voigt Hill
#
# Bulk Modulus (GPa) = 41.21064 57.88635 49.54849
# Shear Modulus (GPa) = 13.36237 18.36098 15.86168
#
# Velocity S-wave (km/s) = 2.77128 3.24852 3.01934
# Velocity P-wave (km/s) = 5.82457 6.88044 6.37441
#
# Compressibility (1/GPa) = 0.02426558
#
# Stress axis : x y z
#
# Youngs Moduli (GPa) = 33.47517 57.81753 74.50571
#
# Poissons Ratio (x) = 0.16698 0.62334
# Poissons Ratio (y) = 0.09668 0.51469
# Poissons Ratio (z) = 0.28007 0.39941
#
# Static dielectric constant tensor:
#      x y z
#    x 3.029430 0.000000 0.000000 
#    y 0.000000 3.330740 0.000000 
#    z 0.000000 0.000000 3.483060 
# 
# 
# High freq. dielectric constant tensor:
#      x y z
#    x 1.627180 0.000000 0.000000 
#    y 0.000000 1.663730 0.000000 
#    z 0.000000 0.000000 1.674630 
# 
# From -- ./inp_files/15490.got.cif
#   From: 2010.03.12/outbox.cif.g09.slc.cpg/sg47_8_cif.got.tgz:15490.got - 2010.04.14 03:12:58.
