data_PCOD8196999
_publ_section_title
;
Structure prediction by ZEFSAII (Michael W. Deem and Ramdas Pophale) SiO2 
 PCOD8196999
Probable space group: P M M M
;
_chemical_formula_sum "Si O2"
_cell_formula_units_Z 52
_cell_length_a 9.248170
_cell_length_b 33.648206
_cell_length_c 9.573653
_cell_angle_alpha 90.000000
_cell_angle_beta 90.000000
_cell_angle_gamma 90.000000
_cell_volume 2979.170788
_symmetry_space_group_name_H-M "P M M M"
_symmetry_group_IT_number 47
_symmetry_cell_setting 'orthorhombic'
loop_
_space_group_symop_operation_xyz
x,y,z
-x,-y,z
x,-y,-z
-x,y,-z
-x,-y,-z
x,y,-z
-x,y,z
x,-y,z
loop_
_atom_site_type_symbol
_atom_site_label
_atom_site_fract_x
_atom_site_fract_y
_atom_site_fract_z
Si Si1 0.332743 0.237852 0.165156
Si Si2 0.333304 0.616222 0.662003
Si Si3 0.838159 0.161818 0.165748
Si Si4 0.830455 0.304211 0.337855
Si Si5 0.337992 0.000000 0.167000
Si Si6 0.328216 0.543731 0.156979
Si Si7 0.837263 0.925678 0.165944
O O1 0.500000 0.240909 0.207216
O O2 0.273497 0.195188 0.217919
O O3 0.242710 0.271155 0.243387
O O4 0.310356 0.243281 0.000000
O O5 0.317940 0.606419 0.500000
O O6 0.500000 0.624902 0.702576
O O7 0.238308 0.653871 0.705721
O O8 0.268198 0.578114 0.742499
O O9 0.786629 0.118131 0.218525
O O10 0.000000 0.171160 0.222473
O O11 0.842942 0.161406 0.000000
O O12 0.798927 0.294854 0.500000
O O13 0.000000 0.305507 0.305975
O O14 0.262845 0.039625 0.228583
O O15 0.500000 0.000000 0.223204
O O16 0.331210 0.000000 0.000000
O O17 0.500000 0.543772 0.163082
O O18 0.271883 0.500000 0.204716
O O19 0.274826 0.552619 0.000000
O O20 0.000000 0.933740 0.217019
O O21 0.830143 0.927018 0.000000
#
# Coordination Sequence:
#
# PCOD8196999 Si02
#       7
#     8   8   8   8   4   8   8
#     4  10  20  32  48  71  95 119 150 189 233 281
#     4   9  17  29  46  68  92 117 148 188 230 271
#     4   8  14  25  40  57  79 109 144 182 224 270
#     4  10  21  36  52  69  92 124 159 194 234 279
#     4   9  15  19  25  41  65  95 134 179 222 263
#     4   8  14  25  42  66  95 123 150 183 224 268
#     4   8  13  21  32  45  65  98 138 176 215 262
#
# _framework density 17.454521
#
# number of rings (size 3 to 8) (size 9 to 14) (size 15 to 20)
#    0.000    3.154    0.000    2.538    0.000    4.308 
#    0.000    6.154    0.000    0.462    0.000    3.231 
#    0.000    0.000    0.000    0.692    0.000   14.154 
#
# Total GULP energy -644494.725907 kJ/mol
# GULP energy per Si atom -12394.129344 kJ/mol
# Density = 1.741479 g / cm^3
# Si number density = 17.454521 Si / 1000 Ang^3
#
#
#
# Elastic Constant Matrix: (Units=GPa)
#
#
# Indices 1 2 3 4 5 6 
#
# 1 100.2442 85.3649 30.9930 0.0000 0.0000 0.0000
# 2 85.3649 184.7206 52.1130 0.0000 0.0000 0.0000
# 3 30.9930 52.1130 32.1144 0.0000 0.0000 0.0000
# 4 0.0000 0.0000 0.0000 -0.8605 0.0000 0.0000
# 5 0.0000 0.0000 0.0000 0.0000 14.4205 0.0000
# 6 0.0000 0.0000 0.0000 0.0000 0.0000 20.0454
#
#
#
# Elastic Compliance Matrix: (Units=1/GPa)
#
#
# Indices 1 2 3 4 5 6 
#
# 1 0.017226 -0.006032 -0.006836 0.000000 0.000000 0.000000
# 2 -0.006032 0.012097 -0.013808 0.000000 0.000000 0.000000
# 3 -0.006836 -0.013808 0.060143 0.000000 0.000000 0.000000
# 4 0.000000 0.000000 0.000000 -1.162117 0.000000 0.000000
# 5 0.000000 0.000000 0.000000 0.000000 0.069346 0.000000
# 6 0.000000 0.000000 0.000000 0.000000 0.000000 0.049887
#
#
# Mechanical properties :
#
#
# Convention : Reuss Voigt Hill
#
# Bulk Modulus (GPa) = 27.69085 72.66901 50.17993
# Shear Modulus (GPa) = -5.63045 16.62831 5.49893
#
# Velocity S-wave (km/s) = -1.79799 3.08988 1.77687
# Velocity P-wave (km/s) = 3.40421 7.37926 5.74640
#
# Compressibility (1/GPa) = 0.03611301
#
# Stress axis : x y z
#
# Youngs Moduli (GPa) = 58.05233 82.66680 16.62700
#
# Poissons Ratio (x) = 0.49865 0.11366
# Poissons Ratio (y) = 0.35017 0.22959
# Poissons Ratio (z) = 0.39684 1.14149
#
# Static dielectric constant tensor:
#      x y z
#    x 3.203960 0.000000 0.000000 
#    y 0.000000 3.744320 0.000000 
#    z 0.000000 0.000000 2.846800 
# 
# 
# High freq. dielectric constant tensor:
#      x y z
#    x 1.659590 0.000000 0.000000 
#    y 0.000000 1.693800 0.000000 
#    z 0.000000 0.000000 1.621890 
# 
# From -- ./inp_files/15644.got.cif
#   From: 2010.03.12/outbox.cif.g09.slc.cpg/sg47_8_cif.got.tgz:15644.got - 2010.04.14 03:12:58.
