data_PCOD8196979
_publ_section_title
;
Structure prediction by ZEFSAII (Michael W. Deem and Ramdas Pophale) SiO2 
 PCOD8196979
Probable space group: P M M M
;
_chemical_formula_sum "Si O2"
_cell_formula_units_Z 40
_cell_length_a 9.303232
_cell_length_b 8.869196
_cell_length_c 25.945627
_cell_angle_alpha 90.000000
_cell_angle_beta 90.000000
_cell_angle_gamma 90.000000
_cell_volume 2140.830454
_symmetry_space_group_name_H-M "P M M M"
_symmetry_group_IT_number 47
_symmetry_cell_setting 'orthorhombic'
loop_
_space_group_symop_operation_xyz
x,y,z
-x,-y,z
x,-y,-z
-x,y,-z
-x,-y,-z
x,y,-z
-x,y,z
x,-y,z
loop_
_atom_site_type_symbol
_atom_site_label
_atom_site_fract_x
_atom_site_fract_y
_atom_site_fract_z
Si Si1 0.329278 0.665161 0.000000
Si Si2 0.338903 0.320009 0.110278
Si Si3 0.831565 0.324895 0.208923
Si Si4 0.334525 0.677023 0.592717
Si Si5 0.664626 0.824072 0.699548
Si Si6 0.167233 0.823592 0.500000
O O1 0.286290 0.746898 0.945755
O O2 0.256743 0.500000 0.000000
O O3 0.500000 0.647604 0.000000
O O4 0.500000 0.263084 0.123392
O O5 0.338120 0.500000 0.105981
O O6 0.232964 0.264228 0.155062
O O7 0.792615 0.500000 0.217456
O O8 0.765560 0.227975 0.254509
O O9 0.000000 0.297036 0.207463
O O10 0.500000 0.719018 0.581463
O O11 0.308900 0.500000 0.590587
O O12 0.286981 0.736355 0.648462
O O13 0.236081 0.754338 0.550687
O O14 0.500000 0.785242 0.713651
O O15 0.686227 0.000000 0.689381
O O16 0.000000 0.783922 0.500000
O O17 0.196711 0.000000 0.500000
#
# Coordination Sequence:
#
# PCOD8196979 Si02
#       6
#     4   8   8   8   8   4
#     4   7  10  18  35  61  90 121 160 205 252 298
#     4   8  13  23  41  64  92 127 166 208 252 299
#     4  10  20  32  47  71 103 137 171 207 252 307
#     4  10  21  38  61  86 109 136 173 216 261 307
#     4  10  21  37  57  79 101 130 171 216 261 308
#     4  11  24  39  56  82 116 151 182 211 248 296
#
# _framework density 18.684338
#
# number of rings (size 3 to 8) (size 9 to 14) (size 15 to 20)
#    0.000    2.600    0.000    3.600    0.000    6.400 
#    0.000    0.500    0.000    3.000    0.000    0.700 
#    0.000    5.600    0.000    0.000    0.000    0.000 
#
# Total GULP energy -495848.305606 kJ/mol
# GULP energy per Si atom -12396.207640 kJ/mol
# Density = 1.864181 g / cm^3
# Si number density = 18.684338 Si / 1000 Ang^3
#
#
#
# Elastic Constant Matrix: (Units=GPa)
#
#
# Indices 1 2 3 4 5 6 
#
# 1 86.5738 41.5468 78.9130 0.0000 0.0000 0.0000
# 2 41.5468 47.0629 45.0146 0.0000 0.0000 0.0000
# 3 78.9130 45.0146 171.4712 0.0000 0.0000 0.0000
# 4 0.0000 0.0000 0.0000 -59.6099 0.0000 0.0000
# 5 0.0000 0.0000 0.0000 0.0000 13.2950 0.0000
# 6 0.0000 0.0000 0.0000 0.0000 0.0000 22.8810
#
#
#
# Elastic Compliance Matrix: (Units=1/GPa)
#
#
# Indices 1 2 3 4 5 6 
#
# 1 0.026353 -0.015575 -0.008039 0.000000 0.000000 0.000000
# 2 -0.015575 0.037577 -0.002697 0.000000 0.000000 0.000000
# 3 -0.008039 -0.002697 0.010240 0.000000 0.000000 0.000000
# 4 0.000000 0.000000 0.000000 -0.016776 0.000000 0.000000
# 5 0.000000 0.000000 0.000000 0.000000 0.075216 0.000000
# 6 0.000000 0.000000 0.000000 0.000000 0.000000 0.043704
#
#
# Mechanical properties :
#
#
# Convention : Reuss Voigt Hill
#
# Bulk Modulus (GPa) = 46.40897 70.67297 58.54097
# Shear Modulus (GPa) = 21.17567 4.62213 12.89890
#
# Velocity S-wave (km/s) = 3.37016 1.57454 2.63032
# Velocity P-wave (km/s) = 6.32743 6.41969 6.37372
#
# Compressibility (1/GPa) = 0.02154756
#
# Stress axis : x y z
#
# Youngs Moduli (GPa) = 37.94602 26.61179 97.65941
#
# Poissons Ratio (x) = 0.41448 0.78511
# Poissons Ratio (y) = 0.59101 0.26339
# Poissons Ratio (z) = 0.30506 0.07177
#
# Static dielectric constant tensor:
#      x y z
#    x 3.319300 0.000000 0.000000 
#    y 0.000000 3.152630 0.000000 
#    z 0.000000 0.000000 3.843120 
# 
# 
# High freq. dielectric constant tensor:
#      x y z
#    x 1.708890 0.000000 0.000000 
#    y 0.000000 1.693380 0.000000 
#    z 0.000000 0.000000 1.749400 
# 
# From -- ./inp_files/1700.got.cif
#   From: 2010.03.12/outbox.cif.g09.slc.cpg/sg47_1_cif.got.tgz:1700.got - 2010.04.14 03:12:58.
