data_PCOD8196985
_publ_section_title
;
Structure prediction by ZEFSAII (Michael W. Deem and Ramdas Pophale) SiO2 
 PCOD8196985
Probable space group: P M M M
;
_chemical_formula_sum "Si O2"
_cell_formula_units_Z 52
_cell_length_a 14.274693
_cell_length_b 8.064599
_cell_length_c 24.407882
_cell_angle_alpha 90.000000
_cell_angle_beta 90.000000
_cell_angle_gamma 90.000000
_cell_volume 2809.827441
_symmetry_space_group_name_H-M "P M M M"
_symmetry_group_IT_number 47
_symmetry_cell_setting 'orthorhombic'
loop_
_space_group_symop_operation_xyz
x,y,z
-x,-y,z
x,-y,-z
-x,y,-z
-x,-y,-z
x,y,-z
-x,y,z
x,-y,z
loop_
_atom_site_type_symbol
_atom_site_label
_atom_site_fract_x
_atom_site_fract_y
_atom_site_fract_z
Si Si1 0.898424 0.308329 0.285884
Si Si2 0.284919 0.310014 0.338763
Si Si3 0.394108 0.809270 0.238061
Si Si4 0.297482 0.192799 0.876373
Si Si5 0.103478 0.809740 0.167249
Si Si6 0.392268 0.500000 0.064645
Si Si7 0.397045 0.193996 0.439878
O O1 0.902459 0.500000 0.300997
O O2 0.814011 0.224799 0.320606
O O3 0.877166 0.296128 0.221369
O O4 0.000000 0.225386 0.299555
O O5 0.267889 0.500000 0.350888
O O6 0.359351 0.294284 0.289850
O O7 0.319442 0.232474 0.395013
O O8 0.500000 0.756159 0.224161
O O9 0.331991 0.772696 0.185026
O O10 0.388072 0.000000 0.255378
O O11 0.184981 0.224645 0.877419
O O12 0.344486 0.328668 0.915502
O O13 0.320943 0.000000 0.893773
O O14 0.000000 0.767893 0.142293
O O15 0.108489 0.000000 0.185903
O O16 0.500000 0.500000 0.084229
O O17 0.384150 0.500000 0.000000
O O18 0.367507 0.264527 0.500000
O O19 0.500000 0.266978 0.423595
O O20 0.406494 0.000000 0.444243
#
# Coordination Sequence:
#
# PCOD8196985 Si02
#       7
#     8   8   8   8   8   4   8
#     4   9  18  31  46  69 105 144 176 210 260 325
#     4  11  21  30  47  75 104 133 169 218 269 319
#     4  10  20  32  47  72 107 144 175 208 262 328
#     4  10  21  38  60  85 117 152 187 234 289 338
#     4   9  17  30  52  83 114 145 183 225 274 334
#     4  11  26  44  63  87 113 149 199 245 279 328
#     4   9  19  36  54  69  91 130 176 217 261 319
#
# _framework density 18.506474999999998
#
# number of rings (size 3 to 8) (size 9 to 14) (size 15 to 20)
#    0.000    2.231    1.538    1.846    2.154    4.615 
#    0.000    1.538    0.000    1.385    0.000    5.385 
#    0.000    0.000    0.000    0.000    0.000    0.000 
#
# Total GULP energy -644380.256358 kJ/mol
# GULP energy per Si atom -12391.928007 kJ/mol
# Density = 1.846435 g / cm^3
# Si number density = 18.506475 Si / 1000 Ang^3
#
#
#
# Elastic Constant Matrix: (Units=GPa)
#
#
# Indices 1 2 3 4 5 6 
#
# 1 147.5884 38.3531 49.6928 0.0000 0.0000 0.0000
# 2 38.3531 55.8948 31.5456 0.0000 0.0000 0.0000
# 3 49.6928 31.5456 76.8123 0.0000 0.0000 0.0000
# 4 0.0000 0.0000 0.0000 37.2064 0.0000 0.0000
# 5 0.0000 0.0000 0.0000 0.0000 -7.3785 0.0000
# 6 0.0000 0.0000 0.0000 0.0000 0.0000 22.4456
#
#
#
# Elastic Compliance Matrix: (Units=1/GPa)
#
#
# Indices 1 2 3 4 5 6 
#
# 1 0.009264 -0.003872 -0.004403 0.000000 0.000000 0.000000
# 2 -0.003872 0.024907 -0.007724 0.000000 0.000000 0.000000
# 3 -0.004403 -0.007724 0.019040 0.000000 0.000000 0.000000
# 4 0.000000 0.000000 0.000000 0.026877 0.000000 0.000000
# 5 0.000000 0.000000 0.000000 0.000000 -0.135529 0.000000
# 6 0.000000 0.000000 0.000000 0.000000 0.000000 0.044552
#
#
# Mechanical properties :
#
#
# Convention : Reuss Voigt Hill
#
# Bulk Modulus (GPa) = 47.14239 57.71983 52.43111
# Shear Modulus (GPa) = 177.42928 21.16829 99.29878
#
# Velocity S-wave (km/s) = 9.80216 3.38573 7.33299
# Velocity P-wave (km/s) = 12.39510 6.82209 10.00448
#
# Compressibility (1/GPa) = 0.02121233
#
# Stress axis : x y z
#
# Youngs Moduli (GPa) = 107.94077 40.14999 52.52208
#
# Poissons Ratio (x) = 0.15545 0.23128
# Poissons Ratio (y) = 0.41791 0.40568
# Poissons Ratio (z) = 0.47531 0.31012
#
# Static dielectric constant tensor:
#      x y z
#    x 4.218900 0.000000 0.000000 
#    y 0.000000 3.348420 0.000000 
#    z 0.000000 0.000000 3.202380 
# 
# 
# High freq. dielectric constant tensor:
#      x y z
#    x 1.733190 0.000000 0.000000 
#    y 0.000000 1.711680 0.000000 
#    z 0.000000 0.000000 1.679690 
# 
# From -- ./inp_files/32666.got.cif
#   From: 2010.03.12/outbox.cif.g09.slc.cpg/sg47_17_cif.got.tgz:32666.got - 2010.04.14 03:12:58.
