data_PCOD8196338
_publ_section_title
;
Structure prediction by ZEFSAII (Michael W. Deem and Ramdas Pophale) SiO2 
 PCOD8196338
Probable space group: P M M M
;
_chemical_formula_sum "Si O2"
_cell_formula_units_Z 44
_cell_length_a 33.155264
_cell_length_b 8.118181
_cell_length_c 7.936879
_cell_angle_alpha 90.000000
_cell_angle_beta 90.000000
_cell_angle_gamma 90.000000
_cell_volume 2136.293798
_symmetry_space_group_name_H-M "P M M M"
_symmetry_group_IT_number 47
_symmetry_cell_setting 'orthorhombic'
loop_
_space_group_symop_operation_xyz
x,y,z
-x,-y,z
x,-y,-z
-x,y,-z
-x,-y,-z
x,y,-z
-x,y,z
x,-y,z
loop_
_atom_site_type_symbol
_atom_site_label
_atom_site_fract_x
_atom_site_fract_y
_atom_site_fract_z
Si Si1 0.738144 0.305830 0.687167
Si Si2 0.822469 0.315196 0.807538
Si Si3 0.402538 0.192022 0.000000
Si Si4 0.313608 0.808703 0.000000
Si Si5 0.454755 0.305366 0.688086
Si Si6 0.954333 0.500000 0.801810
Si Si7 0.095904 0.816289 0.694943
O O1 0.722739 0.254994 0.500000
O O2 0.739005 0.500000 0.710593
O O3 0.784194 0.241415 0.707046
O O4 0.709185 0.235723 0.828956
O O5 0.833583 0.500000 0.744812
O O6 0.861620 0.202144 0.788856
O O7 0.808763 0.318615 0.000000
O O8 0.425156 0.240212 0.829852
O O9 0.358014 0.275588 0.000000
O O10 0.397736 0.000000 0.000000
O O11 0.319689 0.000000 0.000000
O O12 0.440838 0.248202 0.500000
O O13 0.500000 0.238934 0.723351
O O14 0.454947 0.500000 0.696780
O O15 0.934516 0.330083 0.740743
O O16 0.000000 0.500000 0.734608
O O17 0.951776 0.500000 0.000000
O O18 0.105473 0.803910 0.500000
O O19 0.078445 0.000000 0.740445
#
# Coordination Sequence:
#
# PCOD8196338 Si02
#       7
#     8   8   4   4   8   4   8
#     4  10  21  39  64  89 114 151 201 255 308 362
#     4  10  19  35  62  92 123 156 193 247 311 366
#     4  11  24  38  55  82 118 162 204 242 299 365
#     4  11  25  42  56  79 122 166 202 249 301 360
#     4   9  19  37  61  89 118 149 192 249 309 364
#     4  11  25  45  67  91 123 165 209 257 313 367
#     4  11  24  40  62  94 127 162 205 250 305 372
#
# _framework density 20.596418
#
# number of rings (size 3 to 8) (size 9 to 14) (size 15 to 20)
#    0.000    1.727    1.818    2.727    0.000    8.364 
#    0.000    6.364    0.000    0.000    0.000    0.000 
#    0.000    0.000    0.000    0.000    0.000    0.000 
#
# Total GULP energy -545400.564281 kJ/mol
# GULP energy per Si atom -12395.467370 kJ/mol
# Density = 2.054954 g / cm^3
# Si number density = 20.596418 Si / 1000 Ang^3
#
#
#
# Elastic Constant Matrix: (Units=GPa)
#
#
# Indices 1 2 3 4 5 6 
#
# 1 145.5634 53.4522 73.4268 0.0000 0.0000 0.0000
# 2 53.4522 89.4142 39.0258 0.0000 0.0000 0.0000
# 3 73.4268 39.0258 138.0656 0.0000 0.0000 0.0000
# 4 0.0000 0.0000 0.0000 163.2348 0.0000 0.0000
# 5 0.0000 0.0000 0.0000 0.0000 9.3898 0.0000
# 6 0.0000 0.0000 0.0000 0.0000 0.0000 31.6342
#
#
#
# Elastic Compliance Matrix: (Units=1/GPa)
#
#
# Indices 1 2 3 4 5 6 
#
# 1 0.010767 -0.004492 -0.004457 0.000000 0.000000 0.000000
# 2 -0.004492 0.014631 -0.001747 0.000000 0.000000 0.000000
# 3 -0.004457 -0.001747 0.010107 0.000000 0.000000 0.000000
# 4 0.000000 0.000000 0.000000 0.006126 0.000000 0.000000
# 5 0.000000 0.000000 0.000000 0.000000 0.106499 0.000000
# 6 0.000000 0.000000 0.000000 0.000000 0.000000 0.031611
#
#
# Mechanical properties :
#
#
# Convention : Reuss Voigt Hill
#
# Bulk Modulus (GPa) = 70.84610 78.31698 74.58154
# Shear Modulus (GPa) = 24.29095 54.66098 39.47597
#
# Velocity S-wave (km/s) = 3.43793 5.15720 4.38270
# Velocity P-wave (km/s) = 7.08739 8.57726 7.86767
#
# Compressibility (1/GPa) = 0.01411510
#
# Stress axis : x y z
#
# Youngs Moduli (GPa) = 92.87356 68.34572 98.94175
#
# Poissons Ratio (x) = 0.30698 0.44096
# Poissons Ratio (y) = 0.41715 0.17285
# Poissons Ratio (z) = 0.41391 0.11940
#
# Static dielectric constant tensor:
#      x y z
#    x 4.181120 0.000000 0.000000 
#    y 0.000000 3.718310 0.000000 
#    z 0.000000 0.000000 3.790430 
# 
# 
# High freq. dielectric constant tensor:
#      x y z
#    x 1.799770 0.000000 0.000000 
#    y 0.000000 1.797900 0.000000 
#    z 0.000000 0.000000 1.821430 
# 
# From -- ./inp_files/13734.got.cif
#   From: 2010.03.12/outbox.cif.g09.slc.cpg/sg47_7_cif.got.tgz:13734.got - 2010.04.14 03:12:58.
