data_PCOD8196810
_publ_section_title
;
Structure prediction by ZEFSAII (Michael W. Deem and Ramdas Pophale) SiO2 
 PCOD8196810
Probable space group: P M M M
;
_chemical_formula_sum "Si O2"
_cell_formula_units_Z 52
_cell_length_a 33.495879
_cell_length_b 9.045782
_cell_length_c 9.869324
_cell_angle_alpha 90.000000
_cell_angle_beta 90.000000
_cell_angle_gamma 90.000000
_cell_volume 2990.369833
_symmetry_space_group_name_H-M "P M M M"
_symmetry_group_IT_number 47
_symmetry_cell_setting 'orthorhombic'
loop_
_space_group_symop_operation_xyz
x,y,z
-x,-y,z
x,-y,-z
-x,y,-z
-x,-y,-z
x,y,-z
-x,y,z
x,-y,z
loop_
_atom_site_type_symbol
_atom_site_label
_atom_site_fract_x
_atom_site_fract_y
_atom_site_fract_z
Si Si1 0.078301 0.833046 0.838337
Si Si2 0.299239 0.671323 0.658161
Si Si3 0.389368 0.675305 0.350576
Si Si4 0.763953 0.826327 0.156091
Si Si5 0.000000 0.666910 0.161515
Si Si6 0.455717 0.324151 0.151404
Si Si7 0.156088 0.666374 0.838959
O O1 0.117422 0.750764 0.780707
O O2 0.039158 0.749840 0.782847
O O3 0.078036 0.000000 0.782947
O O4 0.078579 0.832218 0.000000
O O5 0.290713 0.701967 0.500000
O O6 0.291133 0.500000 0.692330
O O7 0.344613 0.715913 0.695336
O O8 0.272133 0.773517 0.751081
O O9 0.397852 0.740293 0.500000
O O10 0.393565 0.500000 0.355420
O O11 0.421929 0.745342 0.248718
O O12 0.804154 0.749168 0.209933
O O13 0.769820 0.000000 0.171870
O O14 0.755143 0.783018 0.000000
O O15 0.000000 0.500000 0.217230
O O16 0.000000 0.667325 0.000000
O O17 0.500000 0.275909 0.200952
O O18 0.452723 0.500000 0.151506
O O19 0.448033 0.264104 0.000000
O O20 0.156467 0.500000 0.781207
O O21 0.154073 0.665368 0.000000
#
# Coordination Sequence:
#
# PCOD8196810 Si02
#       7
#     8   8   8   8   4   8   8
#     4   9  15  22  32  47  70 101 137 178 223 268
#     4   9  18  32  48  66  89 117 150 188 229 273
#     4   8  14  24  37  54  77 106 141 179 217 259
#     4  10  20  32  46  66  90 115 147 186 226 272
#     4   9  15  21  29  43  65  97 140 183 220 265
#     4   8  13  20  30  48  77 111 144 177 214 257
#     4   9  16  26  40  57  78 106 140 178 221 268
#
# _framework density 17.389153
#
# number of rings (size 3 to 8) (size 9 to 14) (size 15 to 20)
#    0.000    3.154    0.000    3.000    0.000    6.769 
#    0.000    3.077    0.000    0.000    0.000    0.000 
#    0.000    0.615    0.000    7.462    0.000   24.615 
#
# Total GULP energy -644584.434198 kJ/mol
# GULP energy per Si atom -12395.854504 kJ/mol
# Density = 1.734957 g / cm^3
# Si number density = 17.389153 Si / 1000 Ang^3
#
#
#
# Elastic Constant Matrix: (Units=GPa)
#
#
# Indices 1 2 3 4 5 6 
#
# 1 168.6775 61.1281 58.9004 0.0000 0.0000 0.0000
# 2 61.1281 92.5343 27.9129 0.0000 0.0000 0.0000
# 3 58.9004 27.9129 46.1164 0.0000 0.0000 0.0000
# 4 0.0000 0.0000 0.0000 12.2635 0.0000 0.0000
# 5 0.0000 0.0000 0.0000 0.0000 2.6024 0.0000
# 6 0.0000 0.0000 0.0000 0.0000 0.0000 8.2383
#
#
#
# Elastic Compliance Matrix: (Units=1/GPa)
#
#
# Indices 1 2 3 4 5 6 
#
# 1 0.011783 -0.003969 -0.012647 0.000000 0.000000 0.000000
# 2 -0.003969 0.014557 -0.003742 0.000000 0.000000 0.000000
# 3 -0.012647 -0.003742 0.040102 0.000000 0.000000 0.000000
# 4 0.000000 0.000000 0.000000 0.081543 0.000000 0.000000
# 5 0.000000 0.000000 0.000000 0.000000 0.384268 0.000000
# 6 0.000000 0.000000 0.000000 0.000000 0.000000 0.121384
#
#
# Mechanical properties :
#
#
# Convention : Reuss Voigt Hill
#
# Bulk Modulus (GPa) = 38.87034 67.02344 52.94689
# Shear Modulus (GPa) = 7.11309 15.24661 11.17985
#
# Velocity S-wave (km/s) = 2.02470 2.96427 2.53834
# Velocity P-wave (km/s) = 5.27898 7.09527 6.25342
#
# Compressibility (1/GPa) = 0.02572656
#
# Stress axis : x y z
#
# Youngs Moduli (GPa) = 84.86768 68.69339 24.93611
#
# Poissons Ratio (x) = 0.27263 0.31537
# Poissons Ratio (y) = 0.33683 0.09331
# Poissons Ratio (z) = 1.07334 0.25706
#
# Static dielectric constant tensor:
#      x y z
#    x 3.489490 0.000000 0.000000 
#    y 0.000000 3.026540 0.000000 
#    z 0.000000 0.000000 2.961670 
# 
# 
# High freq. dielectric constant tensor:
#      x y z
#    x 1.688670 0.000000 0.000000 
#    y 0.000000 1.647750 0.000000 
#    z 0.000000 0.000000 1.619670 
# 
# From -- ./inp_files/20044.got.cif
#   From: 2010.03.12/outbox.cif.g09.slc.cpg/sg47_11_cif.got.tgz:20044.got - 2010.04.14 03:12:58.
