data_PCOD8196342
_publ_section_title
;
Structure prediction by ZEFSAII (Michael W. Deem and Ramdas Pophale) SiO2 
 PCOD8196342
Probable space group: P M M M
;
_chemical_formula_sum "Si O2"
_cell_formula_units_Z 60
_cell_length_a 15.675084
_cell_length_b 13.532930
_cell_length_c 14.981116
_cell_angle_alpha 90.000000
_cell_angle_beta 90.000000
_cell_angle_gamma 90.000000
_cell_volume 3177.941358
_symmetry_space_group_name_H-M "P M M M"
_symmetry_group_IT_number 47
_symmetry_cell_setting 'orthorhombic'
loop_
_space_group_symop_operation_xyz
x,y,z
-x,-y,z
x,-y,-z
-x,y,-z
-x,-y,-z
x,y,-z
-x,y,z
x,-y,z
loop_
_atom_site_type_symbol
_atom_site_label
_atom_site_fract_x
_atom_site_fract_y
_atom_site_fract_z
Si Si1 0.253685 0.112043 0.308453
Si Si2 0.746411 0.303998 0.601205
Si Si3 0.659229 0.702078 0.899922
Si Si4 0.596473 0.614311 0.277303
Si Si5 0.097654 0.108718 0.000000
Si Si6 0.096011 0.613634 0.706752
Si Si7 0.403835 0.891048 0.180259
Si Si8 0.163254 0.234276 0.838555
O O1 0.243990 0.184785 0.393342
O O2 0.349740 0.118632 0.270878
O O3 0.190728 0.151504 0.232308
O O4 0.229354 0.000000 0.335912
O O5 0.728688 0.336588 0.500000
O O6 0.665943 0.329970 0.663179
O O7 0.833046 0.356626 0.633683
O O8 0.610750 0.635023 0.827690
O O9 0.625540 0.814576 0.895128
O O10 0.759156 0.702512 0.878820
O O11 0.642439 0.661456 0.000000
O O12 0.500000 0.647309 0.302724
O O13 0.609051 0.500000 0.296045
O O14 0.116979 0.173796 0.914332
O O15 0.000000 0.084190 0.000000
O O16 0.144726 0.000000 0.000000
O O17 0.111851 0.500000 0.735274
O O18 0.102487 0.684077 0.793258
O O19 0.000000 0.625725 0.666918
O O20 0.500000 0.869223 0.210047
O O21 0.393053 0.000000 0.138032
#
# Coordination Sequence:
#
# PCOD8196342 Si02
#       8
#     8   8   8   8   4   8   8   8
#     4   9  18  34  56  81 111 150 190 231 282 341
#     4  11  23  39  62  90 119 151 190 237 292 356
#     4  11  21  35  56  83 112 151 196 239 287 339
#     4  11  24  42  61  82 114 154 198 246 292 344
#     4  11  22  34  53  83 120 159 203 253 295 346
#     4  10  21  39  64  89 115 149 189 239 299 356
#     4   9  17  30  50  77 110 147 187 233 285 336
#     4  10  19  36  55  83 115 154 199 240 286 350
#
# _framework density 18.880147000000001
#
# number of rings (size 3 to 8) (size 9 to 14) (size 15 to 20)
#    0.000    1.800    4.667    1.600    0.000    4.000 
#    0.000    3.000    0.000    4.800    0.000    6.533 
#    0.000    0.000    0.000    0.000    0.000    0.000 
#
# Total GULP energy -743686.996704 kJ/mol
# GULP energy per Si atom -12394.783278 kJ/mol
# Density = 1.883717 g / cm^3
# Si number density = 18.880147 Si / 1000 Ang^3
#
#
#
# Elastic Constant Matrix: (Units=GPa)
#
#
# Indices 1 2 3 4 5 6 
#
# 1 108.4409 43.4136 32.2395 0.0000 0.0000 0.0000
# 2 43.4136 106.0086 39.6449 0.0000 0.0000 0.0000
# 3 32.2395 39.6449 106.0539 0.0000 0.0000 0.0000
# 4 0.0000 0.0000 0.0000 10.9476 0.0000 0.0000
# 5 0.0000 0.0000 0.0000 0.0000 14.0403 0.0000
# 6 0.0000 0.0000 0.0000 0.0000 0.0000 25.8059
#
#
#
# Elastic Compliance Matrix: (Units=1/GPa)
#
#
# Indices 1 2 3 4 5 6 
#
# 1 0.011382 -0.003915 -0.001997 0.000000 0.000000 0.000000
# 2 -0.003915 0.012313 -0.003413 0.000000 0.000000 0.000000
# 3 -0.001997 -0.003413 0.011312 0.000000 0.000000 0.000000
# 4 0.000000 0.000000 0.000000 0.091344 0.000000 0.000000
# 5 0.000000 0.000000 0.000000 0.000000 0.071223 0.000000
# 6 0.000000 0.000000 0.000000 0.000000 0.000000 0.038751
#
#
# Mechanical properties :
#
#
# Convention : Reuss Voigt Hill
#
# Bulk Modulus (GPa) = 61.12948 61.23325 61.18136
# Shear Modulus (GPa) = 19.19924 23.83911 21.51918
#
# Velocity S-wave (km/s) = 3.19235 3.55724 3.37972
# Velocity P-wave (km/s) = 6.78499 7.02673 6.90692
#
# Compressibility (1/GPa) = 0.01635872
#
# Stress axis : x y z
#
# Youngs Moduli (GPa) = 87.85430 81.21731 88.40250
#
# Poissons Ratio (x) = 0.31794 0.17652
# Poissons Ratio (y) = 0.34392 0.30169
# Poissons Ratio (z) = 0.17543 0.27717
#
# Static dielectric constant tensor:
#      x y z
#    x 3.539270 0.000000 0.000000 
#    y 0.000000 3.712830 0.000000 
#    z 0.000000 0.000000 3.178200 
# 
# 
# High freq. dielectric constant tensor:
#      x y z
#    x 1.737560 0.000000 0.000000 
#    y 0.000000 1.746120 0.000000 
#    z 0.000000 0.000000 1.703040 
# 
# From -- ./inp_files/23913.got.cif
#   From: 2010.03.12/outbox.cif.g09.slc.cpg/sg47_12_cif.got.tgz:23913.got - 2010.04.14 03:12:58.
