data_PCOD8196021
_publ_section_title
;
Structure prediction by ZEFSAII (Michael W. Deem and Ramdas Pophale) SiO2 
 PCOD8196021
Probable space group: P M M M
;
_chemical_formula_sum "Si O2"
_cell_formula_units_Z 64
_cell_length_a 8.873268
_cell_length_b 20.688951
_cell_length_c 19.467447
_cell_angle_alpha 90.000000
_cell_angle_beta 90.000000
_cell_angle_gamma 90.000000
_cell_volume 3573.806799
_symmetry_space_group_name_H-M "P M M M"
_symmetry_group_IT_number 47
_symmetry_cell_setting 'orthorhombic'
loop_
_space_group_symop_operation_xyz
x,y,z
-x,-y,z
x,-y,-z
-x,y,-z
-x,-y,-z
x,y,-z
-x,y,z
x,-y,z
loop_
_atom_site_type_symbol
_atom_site_label
_atom_site_fract_x
_atom_site_fract_y
_atom_site_fract_z
Si Si1 0.172208 0.247216 0.424245
Si Si2 0.827353 0.427031 0.292665
Si Si3 0.677687 0.315350 0.791862
Si Si4 0.174436 0.805374 0.282285
Si Si5 0.675058 0.381606 0.577704
Si Si6 0.825273 0.071897 0.198216
Si Si7 0.326116 0.864466 0.077804
Si Si8 0.822748 0.271111 0.077512
O O1 0.202486 0.216542 0.500000
O O2 0.203835 0.194767 0.364596
O O3 0.282037 0.307044 0.411386
O O4 0.000000 0.272253 0.419387
O O5 0.810031 0.500000 0.264826
O O6 0.727867 0.379700 0.246945
O O7 0.771329 0.425835 0.371346
O O8 0.000000 0.404006 0.289568
O O9 0.500000 0.313798 0.795324
O O10 0.732860 0.251164 0.753673
O O11 0.742866 0.319220 0.869193
O O12 0.226501 0.875443 0.254778
O O13 0.000000 0.792640 0.265275
O O14 0.710450 0.403837 0.500000
O O15 0.500000 0.389586 0.595292
O O16 0.729268 0.079619 0.128601
O O17 0.000000 0.080709 0.179620
O O18 0.793762 0.000000 0.227592
O O19 0.500000 0.847426 0.091168
O O20 0.228124 0.801452 0.094337
O O21 0.300450 0.888513 0.000000
O O22 0.000000 0.275666 0.087768
O O23 0.775136 0.290488 0.000000
#
# Coordination Sequence:
#
# PCOD8196021 Si02
#       8
#     8   8   8   8   8   8   8   8
#     4   9  17  30  51  77 104 137 178 224 272 323
#     4  11  24  40  57  78 108 148 190 228 269 321
#     4  12  23  35  57  85 112 142 178 224 275 323
#     4  10  19  33  54  77 105 141 183 227 269 324
#     4  10  20  33  51  78 112 146 180 222 272 325
#     4  10  21  35  51  73 104 145 187 227 274 328
#     4  10  20  33  50  75 107 141 178 222 271 320
#     4  10  20  35  57  83 111 143 179 220 266 319
#
# _framework density 17.908075
#
# number of rings (size 3 to 8) (size 9 to 14) (size 15 to 20)
#    0.000    1.750    2.500    2.625    0.000    4.000 
#    0.000    2.500    0.000    0.750    0.000    5.250 
#    0.000    0.000    0.000    5.375    0.000    5.750 
#
# Total GULP energy -793628.234716 kJ/mol
# GULP energy per Si atom -12400.441167 kJ/mol
# Density = 1.786732 g / cm^3
# Si number density = 17.908075 Si / 1000 Ang^3
#
#
#
# Elastic Constant Matrix: (Units=GPa)
#
#
# Indices 1 2 3 4 5 6 
#
# 1 81.8258 36.0247 42.5973 0.0000 0.0000 0.0000
# 2 36.0247 90.3809 54.6096 0.0000 0.0000 0.0000
# 3 42.5973 54.6096 116.9585 0.0000 0.0000 0.0000
# 4 0.0000 0.0000 0.0000 23.9225 0.0000 0.0000
# 5 0.0000 0.0000 0.0000 0.0000 26.7643 0.0000
# 6 0.0000 0.0000 0.0000 0.0000 0.0000 4.9952
#
#
#
# Elastic Compliance Matrix: (Units=1/GPa)
#
#
# Indices 1 2 3 4 5 6 
#
# 1 0.016052 -0.003992 -0.003982 0.000000 0.000000 0.000000
# 2 -0.003992 0.016405 -0.006206 0.000000 0.000000 0.000000
# 3 -0.003982 -0.006206 0.012898 0.000000 0.000000 0.000000
# 4 0.000000 0.000000 0.000000 0.041802 0.000000 0.000000
# 5 0.000000 0.000000 0.000000 0.000000 0.037363 0.000000
# 6 0.000000 0.000000 0.000000 0.000000 0.000000 0.200193
#
#
# Mechanical properties :
#
#
# Convention : Reuss Voigt Hill
#
# Bulk Modulus (GPa) = 58.84182 61.73648 60.28915
# Shear Modulus (GPa) = 13.93775 21.53197 17.73486
#
# Velocity S-wave (km/s) = 2.79282 3.47127 3.15036
# Velocity P-wave (km/s) = 6.58246 7.11444 6.85361
#
# Compressibility (1/GPa) = 0.01699472
#
# Stress axis : x y z
#
# Youngs Moduli (GPa) = 62.29884 60.95667 77.53102
#
# Poissons Ratio (x) = 0.24333 0.30875
# Poissons Ratio (y) = 0.24869 0.48115
# Poissons Ratio (z) = 0.24809 0.37829
#
# Static dielectric constant tensor:
#      x y z
#    x 3.359460 0.000000 0.000000 
#    y 0.000000 3.078780 0.000000 
#    z 0.000000 0.000000 3.633680 
# 
# 
# High freq. dielectric constant tensor:
#      x y z
#    x 1.700800 0.000000 0.000000 
#    y 0.000000 1.659900 0.000000 
#    z 0.000000 0.000000 1.700130 
# 
# From -- ./inp_files/30022.got.cif
#   From: 2010.03.12/outbox.cif.g09.slc.cpg/sg47_16_cif.got.tgz:30022.got - 2010.04.14 03:12:58.
