data_PCOD8196814
_publ_section_title
;
Structure prediction by ZEFSAII (Michael W. Deem and Ramdas Pophale) SiO2 
 PCOD8196814
Probable space group: P M M M
;
_chemical_formula_sum "Si O2"
_cell_formula_units_Z 52
_cell_length_a 9.187100
_cell_length_b 30.502217
_cell_length_c 10.605539
_cell_angle_alpha 90.000000
_cell_angle_beta 90.000000
_cell_angle_gamma 90.000000
_cell_volume 2971.957506
_symmetry_space_group_name_H-M "P M M M"
_symmetry_group_IT_number 47
_symmetry_cell_setting 'orthorhombic'
loop_
_space_group_symop_operation_xyz
x,y,z
-x,-y,z
x,-y,-z
-x,y,-z
-x,-y,-z
x,y,-z
-x,y,z
x,-y,z
loop_
_atom_site_type_symbol
_atom_site_label
_atom_site_fract_x
_atom_site_fract_y
_atom_site_fract_z
Si Si1 0.828569 0.550684 0.752065
Si Si2 0.163220 0.292494 0.349157
Si Si3 0.661064 0.789944 0.648728
Si Si4 0.339596 0.374390 0.643960
Si Si5 0.336969 0.551830 0.000000
Si Si6 0.326944 0.049452 0.859327
Si Si7 0.673750 0.112742 0.641565
O O1 0.793406 0.500000 0.721878
O O2 0.755479 0.581018 0.646742
O O3 0.000000 0.558529 0.759623
O O4 0.754210 0.567519 0.880138
O O5 0.161348 0.293133 0.500000
O O6 0.233750 0.247576 0.296347
O O7 0.253504 0.333743 0.293134
O O8 0.000000 0.295651 0.295808
O O9 0.647875 0.784435 0.500000
O O10 0.500000 0.784240 0.708624
O O11 0.725427 0.838203 0.679047
O O12 0.363128 0.362155 0.500000
O O13 0.500000 0.380466 0.707149
O O14 0.347007 0.500000 0.000000
O O15 0.500000 0.572017 0.000000
O O16 0.500000 0.050898 0.853402
O O17 0.261643 0.080042 0.748051
O O18 0.271859 0.000000 0.834658
O O19 0.276242 0.064843 0.000000
O O20 0.729800 0.100045 0.500000
O O21 0.500000 0.111667 0.640277
#
# Coordination Sequence:
#
# PCOD8196814 Si02
#       7
#     8   8   8   8   4   8   8
#     4  10  20  33  49  69  93 120 151 188 229 270
#     4   9  16  26  41  61  85 111 140 176 217 262
#     4   8  13  22  36  54  77 103 132 169 212 256
#     4  10  20  32  46  66  93 124 155 185 221 268
#     4   9  17  31  51  71  89 111 145 187 225 263
#     4   8  13  20  29  44  71 107 142 173 208 252
#     4   8  13  20  31  49  72 100 135 172 211 256
#
# _framework density 17.496884999999999
#
# number of rings (size 3 to 8) (size 9 to 14) (size 15 to 20)
#    0.000    3.154    0.000    3.000    0.000    5.231 
#    0.000    3.077    0.000    0.000    2.000    0.000 
#    0.000    0.615    0.000    7.692    0.000    8.923 
#
# Total GULP energy -644334.505732 kJ/mol
# GULP energy per Si atom -12391.048187 kJ/mol
# Density = 1.745706 g / cm^3
# Si number density = 17.496885 Si / 1000 Ang^3
#
#
#
# Elastic Constant Matrix: (Units=GPa)
#
#
# Indices 1 2 3 4 5 6 
#
# 1 94.6644 55.1347 23.3392 0.0000 0.0000 0.0000
# 2 55.1347 131.2775 47.1985 0.0000 0.0000 0.0000
# 3 23.3392 47.1985 53.7667 0.0000 0.0000 0.0000
# 4 0.0000 0.0000 0.0000 6.6046 0.0000 0.0000
# 5 0.0000 0.0000 0.0000 0.0000 13.3494 0.0000
# 6 0.0000 0.0000 0.0000 0.0000 0.0000 12.0423
#
#
#
# Elastic Compliance Matrix: (Units=1/GPa)
#
#
# Indices 1 2 3 4 5 6 
#
# 1 0.014050 -0.005418 -0.001343 0.000000 0.000000 0.000000
# 2 -0.005418 0.013220 -0.009253 0.000000 0.000000 0.000000
# 3 -0.001343 -0.009253 0.027304 0.000000 0.000000 0.000000
# 4 0.000000 0.000000 0.000000 0.151409 0.000000 0.000000
# 5 0.000000 0.000000 0.000000 0.000000 0.074910 0.000000
# 6 0.000000 0.000000 0.000000 0.000000 0.000000 0.083041
#
#
# Mechanical properties :
#
#
# Convention : Reuss Voigt Hill
#
# Bulk Modulus (GPa) = 44.35219 59.00595 51.67907
# Shear Modulus (GPa) = 12.39228 16.66833 14.53030
#
# Velocity S-wave (km/s) = 2.66420 3.08984 2.88488
# Velocity P-wave (km/s) = 5.90488 6.82103 6.37942
#
# Compressibility (1/GPa) = 0.02254680
#
# Stress axis : x y z
#
# Youngs Moduli (GPa) = 71.17258 75.64455 36.62433
#
# Poissons Ratio (x) = 0.40986 0.04918
# Poissons Ratio (y) = 0.38563 0.33888
# Poissons Ratio (z) = 0.09556 0.69993
#
# Static dielectric constant tensor:
#      x y z
#    x 3.189720 0.000000 0.000000 
#    y 0.000000 3.408710 0.000000 
#    z 0.000000 0.000000 3.058860 
# 
# 
# High freq. dielectric constant tensor:
#      x y z
#    x 1.652780 0.000000 0.000000 
#    y 0.000000 1.677640 0.000000 
#    z 0.000000 0.000000 1.628770 
# 
# From -- ./inp_files/15652.got.cif
#   From: 2010.03.12/outbox.cif.g09.slc.cpg/sg47_8_cif.got.tgz:15652.got - 2010.04.14 03:12:58.
