data_PCOD8196943
_publ_section_title
;
Structure prediction by ZEFSAII (Michael W. Deem and Ramdas Pophale) SiO2 
 PCOD8196943
Probable space group: P M M M
;
_chemical_formula_sum "Si O2"
_cell_formula_units_Z 52
_cell_length_a 14.178472
_cell_length_b 20.694493
_cell_length_c 9.237532
_cell_angle_alpha 90.000000
_cell_angle_beta 90.000000
_cell_angle_gamma 90.000000
_cell_volume 2710.442364
_symmetry_space_group_name_H-M "P M M M"
_symmetry_group_IT_number 47
_symmetry_cell_setting 'orthorhombic'
loop_
_space_group_symop_operation_xyz
x,y,z
-x,-y,z
x,-y,-z
-x,y,-z
-x,-y,-z
x,y,-z
-x,y,z
x,-y,z
loop_
_atom_site_type_symbol
_atom_site_label
_atom_site_fract_x
_atom_site_fract_y
_atom_site_fract_z
Si Si1 0.112009 0.428719 0.164302
Si Si2 0.112292 0.305365 0.664876
Si Si3 0.389048 0.380688 0.840183
Si Si4 0.796774 0.813610 0.171044
Si Si5 0.386788 0.500000 0.661761
Si Si6 0.890519 0.074079 0.334672
Si Si7 0.602762 0.760735 0.171027
O O1 0.146867 0.500000 0.217246
O O2 0.154020 0.371109 0.263524
O O3 0.000000 0.426909 0.173284
O O4 0.144959 0.416328 0.000000
O O5 0.148306 0.301293 0.500000
O O6 0.146655 0.243256 0.752341
O O7 0.000000 0.305362 0.671149
O O8 0.500000 0.391249 0.852818
O O9 0.344881 0.436565 0.740620
O O10 0.369020 0.310396 0.768860
O O11 0.343223 0.386615 0.000000
O O12 0.830425 0.882943 0.225686
O O13 0.685446 0.810282 0.212245
O O14 0.813275 0.807881 0.000000
O O15 0.500000 0.500000 0.662904
O O16 0.347306 0.500000 0.500000
O O17 0.869041 0.094128 0.500000
O O18 0.000000 0.084708 0.300525
O O19 0.861902 0.000000 0.308060
O O20 0.500000 0.783461 0.232862
O O21 0.593513 0.752698 0.000000
#
# Coordination Sequence:
#
# PCOD8196943 Si02
#       7
#     8   8   8   8   4   8   8
#     4   8  14  26  45  68  94 126 167 217 267 308
#     4  10  20  32  47  70 103 141 175 207 251 313
#     4   8  13  24  43  62  81 113 158 201 243 300
#     4  11  21  32  53  82 108 134 170 218 264 302
#     4   9  15  21  33  59  91 115 142 193 260 315
#     4   9  19  37  59  82 112 149 179 201 238 300
#     4   8  16  32  52  73  98 130 171 217 261 308
#
# _framework density 19.185061000000001
#
# number of rings (size 3 to 8) (size 9 to 14) (size 15 to 20)
#    0.000    3.000    0.000    3.462    0.000    4.615 
#    0.000    3.846    1.692    4.154    0.000    3.231 
#    0.000    0.000    0.000    0.000    0.000    0.000 
#
# Total GULP energy -644534.365855 kJ/mol
# GULP energy per Si atom -12394.891651 kJ/mol
# Density = 1.914140 g / cm^3
# Si number density = 19.185061 Si / 1000 Ang^3
#
#
#
# Elastic Constant Matrix: (Units=GPa)
#
#
# Indices 1 2 3 4 5 6 
#
# 1 50.4445 47.2502 29.1968 0.0000 0.0000 0.0000
# 2 47.2502 122.1775 62.8820 0.0000 0.0000 0.0000
# 3 29.1968 62.8820 106.7074 0.0000 0.0000 0.0000
# 4 0.0000 0.0000 0.0000 30.4288 0.0000 0.0000
# 5 0.0000 0.0000 0.0000 0.0000 8.8480 0.0000
# 6 0.0000 0.0000 0.0000 0.0000 0.0000 22.3789
#
#
#
# Elastic Compliance Matrix: (Units=1/GPa)
#
#
# Indices 1 2 3 4 5 6 
#
# 1 0.031396 -0.011082 -0.002060 0.000000 0.000000 0.000000
# 2 -0.011082 0.015659 -0.006196 0.000000 0.000000 0.000000
# 3 -0.002060 -0.006196 0.013586 0.000000 0.000000 0.000000
# 4 0.000000 0.000000 0.000000 0.032864 0.000000 0.000000
# 5 0.000000 0.000000 0.000000 0.000000 0.113020 0.000000
# 6 0.000000 0.000000 0.000000 0.000000 0.000000 0.044685
#
#
# Mechanical properties :
#
#
# Convention : Reuss Voigt Hill
#
# Bulk Modulus (GPa) = 45.52391 61.99858 53.76124
# Shear Modulus (GPa) = 16.82330 21.66451 19.24391
#
# Velocity S-wave (km/s) = 2.96446 3.36406 3.17056
# Velocity P-wave (km/s) = 5.95799 6.89024 6.44101
#
# Compressibility (1/GPa) = 0.02196648
#
# Stress axis : x y z
#
# Youngs Moduli (GPa) = 31.85118 63.85977 73.60382
#
# Poissons Ratio (x) = 0.70767 0.15163
# Poissons Ratio (y) = 0.35296 0.45604
# Poissons Ratio (z) = 0.06562 0.39566
#
# Static dielectric constant tensor:
#      x y z
#    x 3.436640 0.000000 0.000000 
#    y 0.000000 3.506220 0.000000 
#    z 0.000000 0.000000 3.493670 
# 
# 
# High freq. dielectric constant tensor:
#      x y z
#    x 1.735210 0.000000 0.000000 
#    y 0.000000 1.734280 0.000000 
#    z 0.000000 0.000000 1.728520 
# 
# From -- ./inp_files/7097.got.cif
#   From: 2010.03.12/outbox.cif.g09.slc.cpg/sg47_4_cif.got.tgz:7097.got - 2010.04.14 03:12:58.
