data_PCOD8196881
_publ_section_title
;
Structure prediction by ZEFSAII (Michael W. Deem and Ramdas Pophale) SiO2 
 PCOD8196881
Probable space group: P M M M
;
_chemical_formula_sum "Si O2"
_cell_formula_units_Z 64
_cell_length_a 9.329240
_cell_length_b 15.792335
_cell_length_c 23.399156
_cell_angle_alpha 90.000000
_cell_angle_beta 90.000000
_cell_angle_gamma 90.000000
_cell_volume 3447.408964
_symmetry_space_group_name_H-M "P M M M"
_symmetry_group_IT_number 47
_symmetry_cell_setting 'orthorhombic'
loop_
_space_group_symop_operation_xyz
x,y,z
-x,-y,z
x,-y,-z
-x,y,-z
-x,-y,-z
x,y,-z
-x,y,z
x,-y,z
loop_
_atom_site_type_symbol
_atom_site_label
_atom_site_fract_x
_atom_site_fract_y
_atom_site_fract_z
Si Si1 0.334178 0.858398 0.772266
Si Si2 0.154553 0.402891 0.256840
Si Si3 0.832278 0.740256 0.935568
Si Si4 0.336059 0.319919 0.831496
Si Si5 0.168312 0.098194 0.342648
Si Si6 0.170422 0.404849 0.618274
Si Si7 0.170256 0.766174 0.436389
Si Si8 0.838772 0.908692 0.876229
O O1 0.500000 0.883130 0.765035
O O2 0.313957 0.762321 0.792537
O O3 0.253679 0.874431 0.713437
O O4 0.264909 0.914764 0.821809
O O5 0.122051 0.500000 0.265149
O O6 0.267434 0.393596 0.205981
O O7 0.216115 0.373070 0.318165
O O8 0.000000 0.357909 0.242985
O O9 0.744170 0.682107 0.892178
O O10 0.793595 0.838001 0.922072
O O11 0.000000 0.721622 0.928025
O O12 0.782495 0.720402 0.000000
O O13 0.500000 0.340008 0.844659
O O14 0.223268 0.159477 0.393722
O O15 0.000000 0.111040 0.330910
O O16 0.200898 0.000000 0.358375
O O17 0.231909 0.500000 0.602870
O O18 0.229606 0.328734 0.578286
O O19 0.000000 0.410113 0.614327
O O20 0.224930 0.789095 0.500000
O O21 0.000000 0.763258 0.434171
O O22 0.000000 0.889871 0.854050
O O23 0.830819 0.000000 0.907309
#
# Coordination Sequence:
#
# PCOD8196881 Si02
#       8
#     8   8   8   8   8   8   8   8
#     4  10  20  32  47  69  95 123 158 198 242 292
#     4   9  17  30  50  75 101 128 156 187 229 284
#     4   9  18  32  49  68  91 124 164 199 232 275
#     4  10  20  32  48  71  98 127 157 194 240 285
#     4  10  20  32  47  67  91 123 163 205 249 294
#     4   8  14  25  43  69  98 125 153 187 232 288
#     4   9  17  28  43  65  93 125 160 198 239 283
#     4   9  17  29  46  69  96 123 152 191 239 287
#
# _framework density 18.564667
#
# number of rings (size 3 to 8) (size 9 to 14) (size 15 to 20)
#    0.000    2.750    0.000    2.625    0.000    5.750 
#    0.000    3.750    0.000    0.750    0.000    7.000 
#    0.000    0.000    0.000   10.750    0.000    8.750 
#
# Total GULP energy -793050.485197 kJ/mol
# GULP energy per Si atom -12391.413831 kJ/mol
# Density = 1.852241 g / cm^3
# Si number density = 18.564667 Si / 1000 Ang^3
#
#
#
# Elastic Constant Matrix: (Units=GPa)
#
#
# Indices 1 2 3 4 5 6 
#
# 1 56.4692 16.8268 42.5980 0.0000 0.0000 0.0000
# 2 16.8268 51.0649 38.8897 0.0000 0.0000 0.0000
# 3 42.5980 38.8897 124.9380 0.0000 0.0000 0.0000
# 4 0.0000 0.0000 0.0000 17.4636 0.0000 0.0000
# 5 0.0000 0.0000 0.0000 0.0000 4.7710 0.0000
# 6 0.0000 0.0000 0.0000 0.0000 0.0000 13.7836
#
#
#
# Elastic Compliance Matrix: (Units=1/GPa)
#
#
# Indices 1 2 3 4 5 6 
#
# 1 0.024028 -0.002200 -0.007508 0.000000 0.000000 0.000000
# 2 -0.002200 0.025869 -0.007302 0.000000 0.000000 0.000000
# 3 -0.007508 -0.007302 0.012837 0.000000 0.000000 0.000000
# 4 0.000000 0.000000 0.000000 0.057262 0.000000 0.000000
# 5 0.000000 0.000000 0.000000 0.000000 0.209598 0.000000
# 6 0.000000 0.000000 0.000000 0.000000 0.000000 0.072550
#
#
# Mechanical properties :
#
#
# Convention : Reuss Voigt Hill
#
# Bulk Modulus (GPa) = 34.82632 47.67789 41.25210
# Shear Modulus (GPa) = 11.21744 16.14749 13.68246
#
# Velocity S-wave (km/s) = 2.46079 2.95243 2.71775
# Velocity P-wave (km/s) = 5.18403 6.11231 5.66721
#
# Compressibility (1/GPa) = 0.02871392
#
# Stress axis : x y z
#
# Youngs Moduli (GPa) = 41.61864 38.65625 77.90201
#
# Poissons Ratio (x) = 0.08504 0.58485
# Poissons Ratio (y) = 0.09156 0.56886
# Poissons Ratio (z) = 0.31245 0.28228
#
# Static dielectric constant tensor:
#      x y z
#    x 3.113550 0.000000 0.000000 
#    y 0.000000 3.461580 0.000000 
#    z 0.000000 0.000000 3.441440 
# 
# 
# High freq. dielectric constant tensor:
#      x y z
#    x 1.684510 0.000000 0.000000 
#    y 0.000000 1.716910 0.000000 
#    z 0.000000 0.000000 1.713810 
# 
# From -- ./inp_files/28766.got.cif
#   From: 2010.03.12/outbox.cif.g09.slc.cpg/sg47_15_cif.got.tgz:28766.got - 2010.04.14 03:12:58.
