data_PCOD8196523
_publ_section_title
;
Structure prediction by ZEFSAII (Michael W. Deem and Ramdas Pophale) SiO2 
 PCOD8196523
Probable space group: P M M M
;
_chemical_formula_sum "Si O2"
_cell_formula_units_Z 36
_cell_length_a 18.109976
_cell_length_b 14.065306
_cell_length_c 9.089460
_cell_angle_alpha 90.000000
_cell_angle_beta 90.000000
_cell_angle_gamma 90.000000
_cell_volume 2315.288649
_symmetry_space_group_name_H-M "P M M M"
_symmetry_group_IT_number 47
_symmetry_cell_setting 'orthorhombic'
loop_
_space_group_symop_operation_xyz
x,y,z
-x,-y,z
x,-y,-z
-x,y,-z
-x,-y,-z
x,y,-z
-x,y,z
x,-y,z
loop_
_atom_site_type_symbol
_atom_site_label
_atom_site_fract_x
_atom_site_fract_y
_atom_site_fract_z
Si Si1 0.581153 0.112779 0.664884
Si Si2 0.000000 0.893554 0.674812
Si Si3 0.275642 0.111834 0.170296
Si Si4 0.915155 0.391783 0.829415
Si Si5 0.856278 0.217395 0.674527
O O1 0.599018 0.149524 0.500000
O O2 0.500000 0.150586 0.714875
O O3 0.643915 0.148490 0.776969
O O4 0.579700 0.000000 0.664730
O O5 0.072585 0.840255 0.733118
O O6 0.000000 0.895865 0.500000
O O7 0.000000 0.000000 0.739786
O O8 0.215836 0.167889 0.263313
O O9 0.265661 0.000000 0.200493
O O10 0.266711 0.136851 0.000000
O O11 0.890653 0.500000 0.799847
O O12 0.862392 0.324970 0.732804
O O13 0.000000 0.377552 0.780782
O O14 0.905623 0.365847 0.000000
O O15 0.851477 0.218182 0.500000
#
# Coordination Sequence:
#
# PCOD8196523 Si02
#       5
#     8   4   8   8   8
#     4   8  14  26  44  64  86 115 151 188 226 267
#     4   9  18  30  42  59  84 116 153 189 224 261
#     4  10  20  31  43  63  92 125 158 190 226 269
#     4   9  18  33  51  68  88 114 143 182 234 285
#     4  11  20  31  47  66  89 118 153 194 232 268
#
# _framework density 15.548817
#
# number of rings (size 3 to 8) (size 9 to 14) (size 15 to 20)
#    0.000    2.556    1.111    3.333    0.000    3.111 
#    0.000    3.333    0.000    2.667    0.000    0.000 
#    0.000    0.889    0.000    9.333    0.000    4.444 
#
# Total GULP energy -446330.012285 kJ/mol
# GULP energy per Si atom -12398.055897 kJ/mol
# Density = 1.551343 g / cm^3
# Si number density = 15.548817 Si / 1000 Ang^3
#
#
#
# Elastic Constant Matrix: (Units=GPa)
#
#
# Indices 1 2 3 4 5 6 
#
# 1 112.0761 42.1739 50.1719 0.0000 0.0000 0.0000
# 2 42.1739 68.8074 40.5916 0.0000 0.0000 0.0000
# 3 50.1719 40.5916 77.8026 0.0000 0.0000 0.0000
# 4 0.0000 0.0000 0.0000 22.5313 0.0000 0.0000
# 5 0.0000 0.0000 0.0000 0.0000 25.5306 0.0000
# 6 0.0000 0.0000 0.0000 0.0000 0.0000 4.5535
#
#
#
# Elastic Compliance Matrix: (Units=1/GPa)
#
#
# Indices 1 2 3 4 5 6 
#
# 1 0.013450 -0.004518 -0.006316 0.000000 0.000000 0.000000
# 2 -0.004518 0.022513 -0.008832 0.000000 0.000000 0.000000
# 3 -0.006316 -0.008832 0.021534 0.000000 0.000000 0.000000
# 4 0.000000 0.000000 0.000000 0.044383 0.000000 0.000000
# 5 0.000000 0.000000 0.000000 0.000000 0.039169 0.000000
# 6 0.000000 0.000000 0.000000 0.000000 0.000000 0.219609
#
#
# Mechanical properties :
#
#
# Convention : Reuss Voigt Hill
#
# Bulk Modulus (GPa) = 55.05267 58.28457 56.66862
# Shear Modulus (GPa) = 12.31390 18.90633 15.61012
#
# Velocity S-wave (km/s) = 2.81721 3.49081 3.17194
# Velocity P-wave (km/s) = 6.78715 7.33580 7.06680
#
# Compressibility (1/GPa) = 0.01816442
#
# Stress axis : x y z
#
# Youngs Moduli (GPa) = 74.34874 44.41940 46.43760
#
# Poissons Ratio (x) = 0.20067 0.29332
# Poissons Ratio (y) = 0.33588 0.41015
# Poissons Ratio (z) = 0.46962 0.39232
#
# Static dielectric constant tensor:
#      x y z
#    x 3.144820 0.000000 0.000000 
#    y 0.000000 2.745260 0.000000 
#    z 0.000000 0.000000 2.930530 
# 
# 
# High freq. dielectric constant tensor:
#      x y z
#    x 1.592160 0.000000 0.000000 
#    y 0.000000 1.561060 0.000000 
#    z 0.000000 0.000000 1.596640 
# 
# From -- ./inp_files/5511.got.cif
#   From: 2010.03.12/outbox.cif.g09.slc.cpg/sg47_3_cif.got.tgz:5511.got - 2010.04.14 03:12:58.
