data_PCOD8196996
_publ_section_title
;
Structure prediction by ZEFSAII (Michael W. Deem and Ramdas Pophale) SiO2 
 PCOD8196996
Probable space group: P M M M
;
_chemical_formula_sum "Si O2"
_cell_formula_units_Z 44
_cell_length_a 30.240489
_cell_length_b 9.223292
_cell_length_c 7.757237
_cell_angle_alpha 90.000000
_cell_angle_beta 90.000000
_cell_angle_gamma 90.000000
_cell_volume 2163.624188
_symmetry_space_group_name_H-M "P M M M"
_symmetry_group_IT_number 47
_symmetry_cell_setting 'orthorhombic'
loop_
_space_group_symop_operation_xyz
x,y,z
-x,-y,z
x,-y,-z
-x,y,-z
-x,-y,-z
x,y,-z
-x,y,z
x,-y,z
loop_
_atom_site_type_symbol
_atom_site_label
_atom_site_fract_x
_atom_site_fract_y
_atom_site_fract_z
Si Si1 0.048728 0.337276 0.204882
Si Si2 0.549105 0.671455 0.000000
Si Si3 0.612827 0.669494 0.302422
Si Si4 0.298434 0.164808 0.297888
Si Si5 0.785867 0.340135 0.802097
Si Si6 0.868118 0.837336 0.206212
O O1 0.057691 0.500000 0.272347
O O2 0.086580 0.232315 0.279110
O O3 0.000000 0.284706 0.267138
O O4 0.050381 0.336447 0.000000
O O5 0.574045 0.721580 0.825774
O O6 0.545379 0.500000 0.000000
O O7 0.500000 0.740871 0.000000
O O8 0.598594 0.702677 0.500000
O O9 0.623561 0.500000 0.278179
O O10 0.655890 0.758640 0.247727
O O11 0.290594 0.169581 0.500000
O O12 0.259144 0.251056 0.209465
O O13 0.299309 0.000000 0.228914
O O14 0.781068 0.500000 0.715068
O O15 0.826474 0.251993 0.717037
O O16 0.797665 0.362172 0.000000
O O17 0.864742 0.000000 0.278312
O O18 0.867627 0.837549 0.000000
#
# Coordination Sequence:
#
# PCOD8196996 Si02
#       6
#     8   4   8   8   8   8
#     4   8  13  21  33  49  73 110 154 197 243 297
#     4   9  18  32  53  83 113 141 181 229 270 315
#     4   9  18  33  53  77 107 142 179 222 270 318
#     4  10  21  36  53  74 101 132 167 209 256 305
#     4  10  20  32  48  70  96 128 164 203 249 302
#     4   9  16  25  37  56  85 118 154 198 247 300
#
# _framework density 20.336247
#
# number of rings (size 3 to 8) (size 9 to 14) (size 15 to 20)
#    0.000    2.818    0.000    2.182    1.273    5.091 
#    0.000    3.636    0.000    1.091    0.000    2.545 
#    0.000    0.727    0.000    7.636    0.000   10.545 
#
# Total GULP energy -545440.339995 kJ/mol
# GULP energy per Si atom -12396.371364 kJ/mol
# Density = 2.028996 g / cm^3
# Si number density = 20.336247 Si / 1000 Ang^3
#
#
#
# Elastic Constant Matrix: (Units=GPa)
#
#
# Indices 1 2 3 4 5 6 
#
# 1 190.4157 94.1189 41.6638 0.0000 0.0000 0.0000
# 2 94.1189 146.4028 23.2329 0.0000 0.0000 0.0000
# 3 41.6638 23.2329 44.3645 0.0000 0.0000 0.0000
# 4 0.0000 0.0000 0.0000 10.0088 0.0000 0.0000
# 5 0.0000 0.0000 0.0000 0.0000 -17.8371 0.0000
# 6 0.0000 0.0000 0.0000 0.0000 0.0000 14.3279
#
#
#
# Elastic Compliance Matrix: (Units=1/GPa)
#
#
# Indices 1 2 3 4 5 6 
#
# 1 0.008901 -0.004794 -0.005849 0.000000 0.000000 0.000000
# 2 -0.004794 0.010032 -0.000751 0.000000 0.000000 0.000000
# 3 -0.005849 -0.000751 0.028426 0.000000 0.000000 0.000000
# 4 0.000000 0.000000 0.000000 0.099912 0.000000 0.000000
# 5 0.000000 0.000000 0.000000 0.000000 -0.056063 0.000000
# 6 0.000000 0.000000 0.000000 0.000000 0.000000 0.069794
#
#
# Mechanical properties :
#
#
# Convention : Reuss Voigt Hill
#
# Bulk Modulus (GPa) = 40.69757 77.69047 59.19402
# Shear Modulus (GPa) = 26.04431 16.11107 21.07769
#
# Velocity S-wave (km/s) = 3.58255 2.81772 3.22290
# Velocity P-wave (km/s) = 6.09661 6.99085 6.55899
#
# Compressibility (1/GPa) = 0.02457149
#
# Stress axis : x y z
#
# Youngs Moduli (GPa) = 112.34685 99.68397 35.17853
#
# Poissons Ratio (x) = 0.47790 0.20574
# Poissons Ratio (y) = 0.53861 0.02642
# Poissons Ratio (z) = 0.65707 0.07488
#
# Static dielectric constant tensor:
#      x y z
#    x 3.876860 0.000000 0.000000 
#    y 0.000000 3.830210 0.000000 
#    z 0.000000 0.000000 3.327040 
# 
# 
# High freq. dielectric constant tensor:
#      x y z
#    x 1.798630 0.000000 0.000000 
#    y 0.000000 1.787290 0.000000 
#    z 0.000000 0.000000 1.762510 
# 
# From -- ./inp_files/13677.got.cif
#   From: 2010.03.12/outbox.cif.g09.slc.cpg/sg47_7_cif.got.tgz:13677.got - 2010.04.14 03:12:58.
