data_PCOD8196557
_publ_section_title
;
Structure prediction by ZEFSAII (Michael W. Deem and Ramdas Pophale) SiO2 
 PCOD8196557
Probable space group: P M M M
;
_chemical_formula_sum "Si O2"
_cell_formula_units_Z 52
_cell_length_a 14.705197
_cell_length_b 9.237351
_cell_length_c 22.398723
_cell_angle_alpha 90.000000
_cell_angle_beta 90.000000
_cell_angle_gamma 90.000000
_cell_volume 3042.576819
_symmetry_space_group_name_H-M "P M M M"
_symmetry_group_IT_number 47
_symmetry_cell_setting 'orthorhombic'
loop_
_space_group_symop_operation_xyz
x,y,z
-x,-y,z
x,-y,-z
-x,y,-z
-x,-y,-z
x,y,-z
-x,y,z
x,-y,z
loop_
_atom_site_type_symbol
_atom_site_label
_atom_site_fract_x
_atom_site_fract_y
_atom_site_fract_z
Si Si1 0.274087 0.331644 0.907743
Si Si2 0.607878 0.835733 0.321451
Si Si3 0.099955 0.162371 0.765176
Si Si4 0.391911 0.337336 0.565795
Si Si5 0.100135 0.162311 0.093201
Si Si6 0.726517 0.667590 0.232652
Si Si7 0.607161 0.830800 0.000000
O O1 0.280207 0.500000 0.924374
O O2 0.176505 0.272321 0.930818
O O3 0.285839 0.304691 0.837517
O O4 0.353405 0.244582 0.940773
O O5 0.500000 0.825571 0.319246
O O6 0.646714 0.768389 0.383158
O O7 0.644223 0.748147 0.264871
O O8 0.642169 0.000000 0.317806
O O9 0.099019 0.164215 0.836005
O O10 0.177694 0.270921 0.742294
O O11 0.000000 0.211821 0.741677
O O12 0.121439 0.000000 0.742339
O O13 0.358215 0.285980 0.500000
O O14 0.500000 0.335174 0.567079
O O15 0.356964 0.500000 0.578579
O O16 0.000000 0.209482 0.069467
O O17 0.122811 0.000000 0.070547
O O18 0.722827 0.500000 0.248795
O O19 0.500000 0.806230 0.000000
O O20 0.632367 0.000000 0.000000
#
# Coordination Sequence:
#
# PCOD8196557 Si02
#       7
#     8   8   8   8   8   8   4
#     4  10  21  36  54  75  97 121 151 192 239 283
#     4  10  20  31  44  65  94 128 164 201 237 274
#     4   8  14  26  45  68  94 124 155 187 226 273
#     4   8  14  26  44  64  88 121 158 194 234 280
#     4   8  14  27  49  75 101 127 151 177 217 273
#     4  10  20  32  48  71  98 127 156 190 235 283
#     4  11  25  43  60  73  86 113 155 200 242 285
#
# _framework density 17.090776999999999
#
# number of rings (size 3 to 8) (size 9 to 14) (size 15 to 20)
#    0.000    2.846    0.000    3.000    0.000    4.923 
#    0.000    8.077    0.000    2.308    0.000    0.000 
#    0.000    0.615    0.000    6.462    0.000    3.385 
#
# Total GULP energy -644548.590888 kJ/mol
# GULP energy per Si atom -12395.165209 kJ/mol
# Density = 1.705188 g / cm^3
# Si number density = 17.090777 Si / 1000 Ang^3
#
#
#
# Elastic Constant Matrix: (Units=GPa)
#
#
# Indices 1 2 3 4 5 6 
#
# 1 75.6808 58.5569 32.7611 0.0000 0.0000 0.0000
# 2 58.5569 135.6672 53.3115 0.0000 0.0000 0.0000
# 3 32.7611 53.3115 69.4511 0.0000 0.0000 0.0000
# 4 0.0000 0.0000 0.0000 23.9093 0.0000 0.0000
# 5 0.0000 0.0000 0.0000 0.0000 -0.1538 0.0000
# 6 0.0000 0.0000 0.0000 0.0000 0.0000 25.6935
#
#
#
# Elastic Compliance Matrix: (Units=1/GPa)
#
#
# Indices 1 2 3 4 5 6 
#
# 1 0.020641 -0.007279 -0.004150 0.000000 0.000000 0.000000
# 2 -0.007279 0.013121 -0.006639 0.000000 0.000000 0.000000
# 3 -0.004150 -0.006639 0.021452 0.000000 0.000000 0.000000
# 4 0.000000 0.000000 0.000000 0.041825 0.000000 0.000000
# 5 0.000000 0.000000 0.000000 0.000000 -6.503332 0.000000
# 6 0.000000 0.000000 0.000000 0.000000 0.000000 0.038920
#
#
# Mechanical properties :
#
#
# Convention : Reuss Voigt Hill
#
# Bulk Modulus (GPa) = 52.40872 63.33980 57.87426
# Shear Modulus (GPa) = -0.79053 18.96777 9.08862
#
# Velocity S-wave (km/s) = -0.68085 3.33502 2.30855
# Velocity P-wave (km/s) = 5.48757 7.20910 6.40642
#
# Compressibility (1/GPa) = 0.01908079
#
# Stress axis : x y z
#
# Youngs Moduli (GPa) = 48.44611 76.21196 46.61571
#
# Poissons Ratio (x) = 0.55472 0.19344
# Poissons Ratio (y) = 0.35262 0.30946
# Poissons Ratio (z) = 0.20104 0.50594
#
# Static dielectric constant tensor:
#      x y z
#    x 3.234500 0.000000 0.000000 
#    y 0.000000 3.377140 0.000000 
#    z 0.000000 0.000000 3.080710 
# 
# 
# High freq. dielectric constant tensor:
#      x y z
#    x 1.640240 0.000000 0.000000 
#    y 0.000000 1.666890 0.000000 
#    z 0.000000 0.000000 1.634290 
# 
# From -- ./inp_files/32643.got.cif
#   From: 2010.03.12/outbox.cif.g09.slc.cpg/sg47_17_cif.got.tgz:32643.got - 2010.04.14 03:12:58.
