data_PCOD8196113
_publ_section_title
;
Structure prediction by ZEFSAII (Michael W. Deem and Ramdas Pophale) SiO2 
 PCOD8196113
Probable space group: P M M M
;
_chemical_formula_sum "Si O2"
_cell_formula_units_Z 24
_cell_length_a 16.855402
_cell_length_b 7.823468
_cell_length_c 8.994497
_cell_angle_alpha 90.000000
_cell_angle_beta 90.000000
_cell_angle_gamma 90.000000
_cell_volume 1186.083616
_symmetry_space_group_name_H-M "P M M M"
_symmetry_group_IT_number 47
_symmetry_cell_setting 'orthorhombic'
loop_
_space_group_symop_operation_xyz
x,y,z
-x,-y,z
x,-y,-z
-x,y,-z
-x,-y,-z
x,y,-z
-x,y,z
x,-y,z
loop_
_atom_site_type_symbol
_atom_site_label
_atom_site_fract_x
_atom_site_fract_y
_atom_site_fract_z
Si Si1 0.593281 0.500000 0.828225
Si Si2 0.831261 0.304342 0.829986
Si Si3 0.318972 0.807357 0.671963
Si Si4 0.000000 0.193370 0.176042
O O1 0.500000 0.500000 0.804255
O O2 0.626310 0.326710 0.757272
O O3 0.617998 0.500000 0.000000
O O4 0.804349 0.500000 0.820190
O O5 0.770841 0.194853 0.732370
O O6 0.920239 0.284132 0.764099
O O7 0.828145 0.238060 0.000000
O O8 0.318216 0.755948 0.500000
O O9 0.352334 0.000000 0.694596
O O10 0.000000 0.000000 0.232355
O O11 0.000000 0.208360 0.000000
#
# Coordination Sequence:
#
# PCOD8196113 Si02
#       4
#     4   8   8   4
#     4  11  25  45  69  96 123 154 197 251 306 361
#     4  10  19  33  56  85 118 160 209 257 303 353
#     4  11  24  41  63  92 127 166 204 245 300 366
#     4   9  17  29  48  79 118 159 205 256 304 351
#
# _framework density 20.234660999999999
#
# number of rings (size 3 to 8) (size 9 to 14) (size 15 to 20)
#    0.000    1.667    1.667    3.000    0.000    8.000 
#    0.000    4.167    0.000    5.000    0.000    0.000 
#    0.000    0.000    0.000    0.000    0.000    0.000 
#
# Total GULP energy -297625.754256 kJ/mol
# GULP energy per Si atom -12401.073094 kJ/mol
# Density = 2.018861 g / cm^3
# Si number density = 20.234661 Si / 1000 Ang^3
#
#
#
# Elastic Constant Matrix: (Units=GPa)
#
#
# Indices 1 2 3 4 5 6 
#
# 1 106.8696 52.0127 67.6505 0.0000 0.0000 0.0000
# 2 52.0127 117.2901 61.5487 0.0000 0.0000 0.0000
# 3 67.6505 61.5487 117.7439 0.0000 0.0000 0.0000
# 4 0.0000 0.0000 0.0000 28.0347 0.0000 0.0000
# 5 0.0000 0.0000 0.0000 0.0000 -0.3667 0.0000
# 6 0.0000 0.0000 0.0000 0.0000 0.0000 22.9703
#
#
#
# Elastic Compliance Matrix: (Units=1/GPa)
#
#
# Indices 1 2 3 4 5 6 
#
# 1 0.015446 -0.003021 -0.007295 0.000000 0.000000 0.000000
# 2 -0.003021 0.012340 -0.004714 0.000000 0.000000 0.000000
# 3 -0.007295 -0.004714 0.015149 0.000000 0.000000 0.000000
# 4 0.000000 0.000000 0.000000 0.035670 0.000000 0.000000
# 5 0.000000 0.000000 0.000000 0.000000 -2.727266 0.000000
# 6 0.000000 0.000000 0.000000 0.000000 0.000000 0.043534
#
#
# Mechanical properties :
#
#
# Convention : Reuss Voigt Hill
#
# Bulk Modulus (GPa) = 77.68504 78.25861 77.97183
# Shear Modulus (GPa) = -1.94494 20.84045 9.44776
#
# Velocity S-wave (km/s) = -0.98147 3.21275 2.16315
# Velocity P-wave (km/s) = 6.09845 7.24719 6.69749
#
# Compressibility (1/GPa) = 0.01287249
#
# Stress axis : x y z
#
# Youngs Moduli (GPa) = 64.74375 81.04002 66.01184
#
# Poissons Ratio (x) = 0.24484 0.48156
# Poissons Ratio (y) = 0.19561 0.31121
# Poissons Ratio (z) = 0.47231 0.38206
#
# Static dielectric constant tensor:
#      x y z
#    x 3.769490 0.000000 0.000000 
#    y 0.000000 3.693080 0.000000 
#    z 0.000000 0.000000 3.497350 
# 
# 
# High freq. dielectric constant tensor:
#      x y z
#    x 1.796650 0.000000 0.000000 
#    y 0.000000 1.801240 0.000000 
#    z 0.000000 0.000000 1.765690 
# 
# From -- ./inp_files/649.got.cif
#   From: 2010.03.12/outbox.cif.g09.slc.cpg/sg47_1_cif.got.tgz:649.got - 2010.04.14 03:12:58.
