data_PCOD8196549
_publ_section_title
;
Structure prediction by ZEFSAII (Michael W. Deem and Ramdas Pophale) SiO2 
 PCOD8196549
Probable space group: P M M M
;
_chemical_formula_sum "Si O2"
_cell_formula_units_Z 64
_cell_length_a 22.193493
_cell_length_b 10.009344
_cell_length_c 17.391680
_cell_angle_alpha 90.000000
_cell_angle_beta 90.000000
_cell_angle_gamma 90.000000
_cell_volume 3863.427900
_symmetry_space_group_name_H-M "P M M M"
_symmetry_group_IT_number 47
_symmetry_cell_setting 'orthorhombic'
loop_
_space_group_symop_operation_xyz
x,y,z
-x,-y,z
x,-y,-z
-x,y,-z
-x,-y,-z
x,y,-z
-x,y,z
x,-y,z
loop_
_atom_site_type_symbol
_atom_site_label
_atom_site_fract_x
_atom_site_fract_y
_atom_site_fract_z
Si Si1 0.430944 0.846496 0.807872
Si Si2 0.159307 0.647941 0.700946
Si Si3 0.360710 0.349750 0.088293
Si Si4 0.672765 0.149280 0.696531
Si Si5 0.263370 0.345671 0.588749
Si Si6 0.069878 0.843405 0.770194
Si Si7 0.140686 0.155061 0.916112
Si Si8 0.247303 0.259634 0.824017
O O1 0.500000 0.814407 0.788905
O O2 0.408988 0.752372 0.876866
O O3 0.393360 0.817973 0.730197
O O4 0.421837 0.000000 0.834207
O O5 0.130434 0.500000 0.694372
O O6 0.197638 0.682341 0.624758
O O7 0.106842 0.758581 0.707280
O O8 0.203676 0.645319 0.774532
O O9 0.386274 0.500000 0.096017
O O10 0.296954 0.346154 0.132022
O O11 0.350389 0.310022 0.000000
O O12 0.686127 0.255362 0.629665
O O13 0.720828 0.155956 0.766124
O O14 0.675408 0.000000 0.661861
O O15 0.260382 0.305887 0.500000
O O16 0.281798 0.500000 0.600851
O O17 0.090900 0.794036 0.854857
O O18 0.000000 0.811922 0.759929
O O19 0.084341 0.000000 0.757839
O O20 0.208183 0.179751 0.886247
O O21 0.131074 0.000000 0.927227
O O22 0.131277 0.224784 0.000000
#
# Coordination Sequence:
#
# PCOD8196549 Si02
#       8
#     8   8   8   8   8   8   8   8
#     4   9  19  35  51  66  88 121 159 196 232 269
#     4   9  17  29  48  70  89 114 149 183 215 261
#     4  10  20  31  44  65  92 121 155 197 242 284
#     4   9  17  29  48  72  94 118 152 189 221 263
#     4   9  18  32  50  74 103 126 141 168 217 272
#     4   9  18  31  45  62  87 119 153 190 229 264
#     4   9  16  25  40  63  88 115 150 191 232 273
#     4   9  16  28  44  63  91 121 148 184 233 281
#
# _framework density 16.565598999999999
#
# number of rings (size 3 to 8) (size 9 to 14) (size 15 to 20)
#    0.000    2.875    0.000    1.125    0.000    8.000 
#    0.000    2.500    0.000    4.125    0.000    8.750 
#    0.000    0.000    0.000    0.000    0.000    0.000 
#
# Total GULP energy -793371.402489 kJ/mol
# GULP energy per Si atom -12396.428164 kJ/mol
# Density = 1.652790 g / cm^3
# Si number density = 16.565599 Si / 1000 Ang^3
#
#
#
# Elastic Constant Matrix: (Units=GPa)
#
#
# Indices 1 2 3 4 5 6 
#
# 1 106.9888 52.7745 46.2361 0.0000 0.0000 0.0000
# 2 52.7745 80.5585 52.6003 0.0000 0.0000 0.0000
# 3 46.2361 52.6003 106.3684 0.0000 0.0000 0.0000
# 4 0.0000 0.0000 0.0000 23.0414 0.0000 0.0000
# 5 0.0000 0.0000 0.0000 0.0000 7.5900 0.0000
# 6 0.0000 0.0000 0.0000 0.0000 0.0000 22.5467
#
#
#
# Elastic Compliance Matrix: (Units=1/GPa)
#
#
# Indices 1 2 3 4 5 6 
#
# 1 0.014186 -0.007779 -0.002320 0.000000 0.000000 0.000000
# 2 -0.007779 0.022598 -0.007794 0.000000 0.000000 0.000000
# 3 -0.002320 -0.007794 0.014264 0.000000 0.000000 0.000000
# 4 0.000000 0.000000 0.000000 0.043400 0.000000 0.000000
# 5 0.000000 0.000000 0.000000 0.000000 0.131752 0.000000
# 6 0.000000 0.000000 0.000000 0.000000 0.000000 0.044352
#
#
# Mechanical properties :
#
#
# Convention : Reuss Voigt Hill
#
# Bulk Modulus (GPa) = 65.51572 66.34860 65.93216
# Shear Modulus (GPa) = 16.05522 20.12261 18.08891
#
# Velocity S-wave (km/s) = 3.11656 3.48907 3.30806
# Velocity P-wave (km/s) = 7.25160 7.50803 7.38093
#
# Compressibility (1/GPa) = 0.01526351
#
# Stress axis : x y z
#
# Youngs Moduli (GPa) = 70.49003 44.25120 70.10789
#
# Poissons Ratio (x) = 0.34423 0.16263
# Poissons Ratio (y) = 0.54834 0.54640
# Poissons Ratio (z) = 0.16352 0.34488
#
# Static dielectric constant tensor:
#      x y z
#    x 3.060260 0.000000 0.000000 
#    y 0.000000 3.061100 0.000000 
#    z 0.000000 0.000000 3.159970 
# 
# 
# High freq. dielectric constant tensor:
#      x y z
#    x 1.625880 0.000000 0.000000 
#    y 0.000000 1.634970 0.000000 
#    z 0.000000 0.000000 1.622010 
# 
# From -- ./inp_files/28886.got.cif
#   From: 2010.03.12/outbox.cif.g09.slc.cpg/sg47_15_cif.got.tgz:28886.got - 2010.04.14 03:12:58.
