data_PCOD8196997
_publ_section_title
;
Structure prediction by ZEFSAII (Michael W. Deem and Ramdas Pophale) SiO2 
 PCOD8196997
Probable space group: P M M M
;
_chemical_formula_sum "Si O2"
_cell_formula_units_Z 52
_cell_length_a 8.849445
_cell_length_b 23.099642
_cell_length_c 15.134171
_cell_angle_alpha 90.000000
_cell_angle_beta 90.000000
_cell_angle_gamma 90.000000
_cell_volume 3093.712274
_symmetry_space_group_name_H-M "P M M M"
_symmetry_group_IT_number 47
_symmetry_cell_setting 'orthorhombic'
loop_
_space_group_symop_operation_xyz
x,y,z
-x,-y,z
x,-y,-z
-x,y,-z
-x,-y,-z
x,y,-z
-x,y,z
x,-y,z
loop_
_atom_site_type_symbol
_atom_site_label
_atom_site_fract_x
_atom_site_fract_y
_atom_site_fract_z
Si Si1 0.666257 0.567072 0.000000
Si Si2 0.822503 0.686638 0.401303
Si Si3 0.331220 0.063262 0.104466
Si Si4 0.322103 0.271606 0.769387
Si Si5 0.172197 0.562601 0.351968
Si Si6 0.176662 0.178807 0.102446
Si Si7 0.827743 0.385829 0.167461
O O1 0.765968 0.583025 0.082783
O O2 0.637795 0.500000 0.000000
O O3 0.500000 0.597577 0.000000
O O4 0.792991 0.710678 0.500000
O O5 0.745010 0.729405 0.330624
O O6 0.755195 0.620545 0.395529
O O7 0.000000 0.684305 0.377928
O O8 0.500000 0.077350 0.139993
O O9 0.216213 0.113535 0.133541
O O10 0.278119 0.000000 0.141012
O O11 0.335563 0.060102 0.000000
O O12 0.500000 0.265920 0.761853
O O13 0.262367 0.220284 0.830410
O O14 0.276565 0.330885 0.815336
O O15 0.248851 0.500000 0.378089
O O16 0.183117 0.568436 0.246582
O O17 0.000000 0.559563 0.383865
O O18 0.000000 0.189034 0.112705
O O19 0.226867 0.189883 0.000000
O O20 0.000000 0.364935 0.153152
#
# Coordination Sequence:
#
# PCOD8196997 Si02
#       7
#     4   8   8   8   8   8   8
#     4  11  23  35  47  67  93 119 152 195 244 295
#     4   9  18  33  52  73  97 124 155 195 244 298
#     4   8  14  26  44  67  98 135 171 204 239 278
#     4  11  22  35  51  70  96 127 162 205 251 297
#     4   8  14  26  46  71  93 112 141 183 231 283
#     4  10  20  32  48  71 100 134 172 209 245 287
#     4  10  20  34  50  66  88 120 159 199 239 286
#
# _framework density 16.808287
#
# number of rings (size 3 to 8) (size 9 to 14) (size 15 to 20)
#    0.000    2.538    0.000    4.385    1.077    3.077 
#    0.000    3.077    0.000    4.154    0.000    4.308 
#    0.000    0.615    0.000    6.462    0.000    3.077 
#
# Total GULP energy -644312.804831 kJ/mol
# GULP energy per Si atom -12390.630862 kJ/mol
# Density = 1.677003 g / cm^3
# Si number density = 16.808287 Si / 1000 Ang^3
#
#
#
# Elastic Constant Matrix: (Units=GPa)
#
#
# Indices 1 2 3 4 5 6 
#
# 1 81.7758 37.7336 44.8919 0.0000 0.0000 0.0000
# 2 37.7336 91.8429 38.3244 0.0000 0.0000 0.0000
# 3 44.8919 38.3244 93.9938 0.0000 0.0000 0.0000
# 4 0.0000 0.0000 0.0000 8.8317 0.0000 0.0000
# 5 0.0000 0.0000 0.0000 0.0000 16.9461 0.0000
# 6 0.0000 0.0000 0.0000 0.0000 0.0000 24.4256
#
#
#
# Elastic Compliance Matrix: (Units=1/GPa)
#
#
# Indices 1 2 3 4 5 6 
#
# 1 0.018056 -0.004603 -0.006747 0.000000 0.000000 0.000000
# 2 -0.004603 0.014294 -0.003630 0.000000 0.000000 0.000000
# 3 -0.006747 -0.003630 0.015341 0.000000 0.000000 0.000000
# 4 0.000000 0.000000 0.000000 0.113229 0.000000 0.000000
# 5 0.000000 0.000000 0.000000 0.000000 0.059011 0.000000
# 6 0.000000 0.000000 0.000000 0.000000 0.000000 0.040941
#
#
# Mechanical properties :
#
#
# Convention : Reuss Voigt Hill
#
# Bulk Modulus (GPa) = 56.39459 56.61249 56.50354
# Shear Modulus (GPa) = 16.84966 19.81818 18.33392
#
# Velocity S-wave (km/s) = 3.16960 3.43749 3.30626
# Velocity P-wave (km/s) = 6.85709 7.03630 6.94727
#
# Compressibility (1/GPa) = 0.01773220
#
# Stress axis : x y z
#
# Youngs Moduli (GPa) = 55.38209 69.95978 65.18344
#
# Poissons Ratio (x) = 0.32203 0.43979
# Poissons Ratio (y) = 0.25493 0.23659
# Poissons Ratio (z) = 0.37366 0.25393
#
# Static dielectric constant tensor:
#      x y z
#    x 3.110710 0.000000 0.000000 
#    y 0.000000 3.340140 0.000000 
#    z 0.000000 0.000000 3.058280 
# 
# 
# High freq. dielectric constant tensor:
#      x y z
#    x 1.637620 0.000000 0.000000 
#    y 0.000000 1.634860 0.000000 
#    z 0.000000 0.000000 1.626340 
# 
# From -- ./inp_files/21425.got.cif
#   From: 2010.03.12/outbox.cif.g09.slc.cpg/sg47_11_cif.got.tgz:21425.got - 2010.04.14 03:12:58.
