data_PCOD8196663
_publ_section_title
;
Structure prediction by ZEFSAII (Michael W. Deem and Ramdas Pophale) SiO2 
 PCOD8196663
Probable space group: P M M M
;
_chemical_formula_sum "Si O2"
_cell_formula_units_Z 36
_cell_length_a 9.243249
_cell_length_b 9.446557
_cell_length_c 22.730009
_cell_angle_alpha 90.000000
_cell_angle_beta 90.000000
_cell_angle_gamma 90.000000
_cell_volume 1984.713435
_symmetry_space_group_name_H-M "P M M M"
_symmetry_group_IT_number 47
_symmetry_cell_setting 'orthorhombic'
loop_
_space_group_symop_operation_xyz
x,y,z
-x,-y,z
x,-y,-z
-x,y,-z
-x,-y,-z
x,y,-z
-x,y,z
x,-y,z
loop_
_atom_site_type_symbol
_atom_site_label
_atom_site_fract_x
_atom_site_fract_y
_atom_site_fract_z
Si Si1 0.828023 0.841125 0.064983
Si Si2 0.666699 0.162383 0.595754
Si Si3 0.170293 0.335958 0.500000
Si Si4 0.333257 0.161820 0.268164
Si Si5 0.171721 0.338797 0.826610
O O1 0.765940 0.736510 0.114655
O O2 0.000000 0.838614 0.066150
O O3 0.772543 0.000000 0.078353
O O4 0.774074 0.792828 0.000000
O O5 0.500000 0.191409 0.579864
O O6 0.766635 0.265112 0.558361
O O7 0.696336 0.195175 0.663808
O O8 0.705592 0.000000 0.581112
O O9 0.213520 0.500000 0.500000
O O10 0.000000 0.313582 0.500000
O O11 0.500000 0.189615 0.252522
O O12 0.233561 0.265218 0.231042
O O13 0.291635 0.000000 0.253852
O O14 0.224590 0.500000 0.828218
O O15 0.000000 0.327428 0.823871
#
# Coordination Sequence:
#
# PCOD8196663 Si02
#       5
#     8   8   4   8   8
#     4   8  14  26  45  68  94 127 168 210 249 292
#     4   9  19  37  59  79  98 126 169 214 250 291
#     4  11  24  37  50  76 112 141 164 197 244 296
#     4   9  19  36  56  76  98 128 168 211 252 294
#     4  10  20  31  46  73 106 136 165 201 249 302
#
# _framework density 18.138636999999999
#
# number of rings (size 3 to 8) (size 9 to 14) (size 15 to 20)
#    0.000    2.778    0.000    3.333    0.000    6.667 
#    0.000    8.889    0.000    0.667    0.000    4.667 
#    0.000    0.000    0.000    0.000    0.000    0.000 
#
# Total GULP energy -446365.036547 kJ/mol
# GULP energy per Si atom -12399.028793 kJ/mol
# Density = 1.809735 g / cm^3
# Si number density = 18.138637 Si / 1000 Ang^3
#
#
#
# Elastic Constant Matrix: (Units=GPa)
#
#
# Indices 1 2 3 4 5 6 
#
# 1 39.4225 48.7271 40.6500 0.0000 0.0000 0.0000
# 2 48.7271 142.1493 88.1461 0.0000 0.0000 0.0000
# 3 40.6500 88.1461 124.6878 0.0000 0.0000 0.0000
# 4 0.0000 0.0000 0.0000 13.3570 0.0000 0.0000
# 5 0.0000 0.0000 0.0000 0.0000 -3.3137 0.0000
# 6 0.0000 0.0000 0.0000 0.0000 0.0000 26.4196
#
#
#
# Elastic Compliance Matrix: (Units=1/GPa)
#
#
# Indices 1 2 3 4 5 6 
#
# 1 0.047249 -0.011831 -0.007040 0.000000 0.000000 0.000000
# 2 -0.011831 0.015488 -0.007092 0.000000 0.000000 0.000000
# 3 -0.007040 -0.007092 0.015329 0.000000 0.000000 0.000000
# 4 0.000000 0.000000 0.000000 0.074867 0.000000 0.000000
# 5 0.000000 0.000000 0.000000 0.000000 -0.301774 0.000000
# 6 0.000000 0.000000 0.000000 0.000000 0.000000 0.037851
#
#
# Mechanical properties :
#
#
# Convention : Reuss Voigt Hill
#
# Bulk Modulus (GPa) = 38.25604 73.47844 55.86724
# Shear Modulus (GPa) = -99.30201 15.87499 -41.71351
#
# Velocity S-wave (km/s) = -7.40709 2.96159 -4.80073
# Velocity P-wave (km/s) = 7.21225 7.23132 0.37107
#
# Compressibility (1/GPa) = 0.02613966
#
# Stress axis : x y z
#
# Youngs Moduli (GPa) = 21.16459 64.56598 65.23654
#
# Poissons Ratio (x) = 0.76386 0.45928
# Poissons Ratio (y) = 0.25039 0.46266
# Poissons Ratio (z) = 0.14900 0.45790
#
# Static dielectric constant tensor:
#      x y z
#    x 3.007160 0.000000 0.000000 
#    y 0.000000 3.423740 0.000000 
#    z 0.000000 0.000000 3.500940 
# 
# 
# High freq. dielectric constant tensor:
#      x y z
#    x 1.670590 0.000000 0.000000 
#    y 0.000000 1.702960 0.000000 
#    z 0.000000 0.000000 1.717610 
# 
# From -- ./inp_files/1388.got.cif
#   From: 2010.03.12/outbox.cif.g09.slc.cpg/sg47_1_cif.got.tgz:1388.got - 2010.04.14 03:12:58.
