data_PCOD8196044
_publ_section_title
;
Structure prediction by ZEFSAII (Michael W. Deem and Ramdas Pophale) SiO2 
 PCOD8196044
Probable space group: P M M M
;
_chemical_formula_sum "Si O2"
_cell_formula_units_Z 48
_cell_length_a 8.984054
_cell_length_b 16.572914
_cell_length_c 16.530284
_cell_angle_alpha 90.000000
_cell_angle_beta 90.000000
_cell_angle_gamma 90.000000
_cell_volume 2461.226290
_symmetry_space_group_name_H-M "P M M M"
_symmetry_group_IT_number 47
_symmetry_cell_setting 'orthorhombic'
loop_
_space_group_symop_operation_xyz
x,y,z
-x,-y,z
x,-y,-z
-x,y,-z
-x,-y,-z
x,y,-z
-x,y,z
x,-y,z
loop_
_atom_site_type_symbol
_atom_site_label
_atom_site_fract_x
_atom_site_fract_y
_atom_site_fract_z
Si Si1 0.329882 0.339224 0.406752
Si Si2 0.675780 0.500000 0.174735
Si Si3 0.168589 0.345595 0.867369
Si Si4 0.822202 0.500000 0.651392
Si Si5 0.830953 0.236421 0.281361
Si Si6 0.660234 0.741837 0.000000
Si Si7 0.829876 0.087559 0.821227
Si Si8 0.268262 0.911280 0.000000
O O1 0.320390 0.314553 0.500000
O O2 0.500000 0.355710 0.379837
O O3 0.235564 0.420310 0.393639
O O4 0.267802 0.261577 0.358094
O O5 0.500000 0.500000 0.189642
O O6 0.726626 0.423175 0.123023
O O7 0.765071 0.500000 0.257701
O O8 0.168802 0.314689 0.775930
O O9 0.000000 0.364825 0.895543
O O10 0.240739 0.277106 0.922321
O O11 0.000000 0.500000 0.650780
O O12 0.758078 0.159902 0.232707
O O13 0.000000 0.218175 0.309430
O O14 0.617917 0.837012 0.000000
O O15 0.500000 0.696638 0.000000
O O16 0.827344 0.099547 0.918126
O O17 0.000000 0.087382 0.795412
O O18 0.756778 0.000000 0.798923
O O19 0.346666 0.000000 0.000000
#
# Coordination Sequence:
#
# PCOD8196044 Si02
#       8
#     8   4   8   4   8   4   8   4
#     4  11  24  40  59  85 117 152 191 237 289 346
#     4  12  24  40  62  86 115 153 196 240 288 344
#     4  11  23  40  61  85 114 152 199 246 291 338
#     4  12  23  37  59  88 119 152 187 231 286 345
#     4  10  20  35  59  87 116 150 190 238 289 346
#     4  12  25  39  57  83 118 159 202 246 289 340
#     4   9  17  31  55  87 119 152 192 237 286 340
#     4  10  19  33  54  83 122 160 193 235 288 344
#
# _framework density 19.502472000000001
#
# number of rings (size 3 to 8) (size 9 to 14) (size 15 to 20)
#    0.000    1.333    3.333    3.250    0.000    5.167 
#    0.000    1.667    0.000    1.000    0.000    3.500 
#    0.000    0.000    0.000    0.000    0.000    0.000 
#
# Total GULP energy -594856.007250 kJ/mol
# GULP energy per Si atom -12392.833484 kJ/mol
# Density = 1.945808 g / cm^3
# Si number density = 19.502472 Si / 1000 Ang^3
#
#
#
# Elastic Constant Matrix: (Units=GPa)
#
#
# Indices 1 2 3 4 5 6 
#
# 1 128.6957 44.7492 44.1828 0.0000 0.0000 0.0000
# 2 44.7492 143.1785 51.7013 0.0000 0.0000 0.0000
# 3 44.1828 51.7013 91.9440 0.0000 0.0000 0.0000
# 4 0.0000 0.0000 0.0000 25.9844 0.0000 0.0000
# 5 0.0000 0.0000 0.0000 0.0000 23.1366 0.0000
# 6 0.0000 0.0000 0.0000 0.0000 0.0000 11.6914
#
#
#
# Elastic Compliance Matrix: (Units=1/GPa)
#
#
# Indices 1 2 3 4 5 6 
#
# 1 0.009616 -0.001677 -0.003678 0.000000 0.000000 0.000000
# 2 -0.001677 0.009056 -0.004286 0.000000 0.000000 0.000000
# 3 -0.003678 -0.004286 0.015054 0.000000 0.000000 0.000000
# 4 0.000000 0.000000 0.000000 0.038485 0.000000 0.000000
# 5 0.000000 0.000000 0.000000 0.000000 0.043222 0.000000
# 6 0.000000 0.000000 0.000000 0.000000 0.000000 0.085533
#
#
# Mechanical properties :
#
#
# Convention : Reuss Voigt Hill
#
# Bulk Modulus (GPa) = 69.23698 71.67610 70.45654
# Shear Modulus (GPa) = 22.21599 27.04145 24.62872
#
# Velocity S-wave (km/s) = 3.37877 3.72770 3.55752
# Velocity P-wave (km/s) = 7.12742 7.44041 7.28560
#
# Compressibility (1/GPa) = 0.01444315
#
# Stress axis : x y z
#
# Youngs Moduli (GPa) = 103.99184 110.41944 66.42845
#
# Poissons Ratio (x) = 0.18522 0.24430
# Poissons Ratio (y) = 0.17444 0.28474
# Poissons Ratio (z) = 0.38245 0.47331
#
# Static dielectric constant tensor:
#      x y z
#    x 3.424020 0.000000 0.000000 
#    y 0.000000 3.892900 0.000000 
#    z 0.000000 0.000000 3.383650 
# 
# 
# High freq. dielectric constant tensor:
#      x y z
#    x 1.749390 0.000000 0.000000 
#    y 0.000000 1.765600 0.000000 
#    z 0.000000 0.000000 1.741070 
# 
# From -- ./inp_files/21172.got.cif
#   From: 2010.03.12/outbox.cif.g09.slc.cpg/sg47_11_cif.got.tgz:21172.got - 2010.04.14 03:12:58.
