data_PCOD8196074
_publ_section_title
;
Structure prediction by ZEFSAII (Michael W. Deem and Ramdas Pophale) SiO2 
 PCOD8196074
Probable space group: P M M M
;
_chemical_formula_sum "Si O2"
_cell_formula_units_Z 48
_cell_length_a 29.592089
_cell_length_b 9.683470
_cell_length_c 8.705675
_cell_angle_alpha 90.000000
_cell_angle_beta 90.000000
_cell_angle_gamma 90.000000
_cell_volume 2494.646917
_symmetry_space_group_name_H-M "P M M M"
_symmetry_group_IT_number 47
_symmetry_cell_setting 'orthorhombic'
loop_
_space_group_symop_operation_xyz
x,y,z
-x,-y,z
x,-y,-z
-x,y,-z
-x,-y,-z
x,y,-z
-x,y,z
x,-y,z
loop_
_atom_site_type_symbol
_atom_site_label
_atom_site_fract_x
_atom_site_fract_y
_atom_site_fract_z
Si Si1 0.450679 0.336737 0.328418
Si Si2 0.109949 0.253185 0.682002
Si Si3 0.202682 0.341447 0.181563
Si Si4 0.948918 0.000000 0.317659
Si Si5 0.640383 0.339216 0.178499
Si Si6 0.950295 0.500000 0.317785
Si Si7 0.717495 0.160601 0.680933
O O1 0.439980 0.280696 0.500000
O O2 0.500000 0.279921 0.273304
O O3 0.453103 0.500000 0.333710
O O4 0.411151 0.292179 0.211947
O O5 0.118320 0.253271 0.500000
O O6 0.157860 0.264049 0.763439
O O7 0.081338 0.124827 0.740855
O O8 0.077925 0.372713 0.741659
O O9 0.205334 0.500000 0.245261
O O10 0.243491 0.248647 0.239800
O O11 0.204199 0.345276 0.000000
O O12 0.953693 0.000000 0.500000
O O13 0.000000 0.000000 0.247809
O O14 0.648701 0.500000 0.226389
O O15 0.670960 0.235578 0.276113
O O16 0.651052 0.319342 0.000000
O O17 0.954936 0.500000 0.500000
O O18 0.000000 0.500000 0.242890
O O19 0.724737 0.166353 0.500000
O O20 0.717624 0.000000 0.736766
#
# Coordination Sequence:
#
# PCOD8196074 Si02
#       7
#     8   8   8   4   8   4   8
#     4   8  14  26  47  77 113 153 196 239 281 325
#     4  10  19  33  55  82 112 144 181 226 271 319
#     4  11  24  41  60  83 113 146 182 225 278 337
#     4   9  18  32  53  83 115 145 181 227 272 315
#     4  10  20  34  55  85 119 153 189 230 281 338
#     4   9  16  28  51  81 109 141 183 227 270 313
#     4  11  25  42  61  84 109 141 185 234 283 336
#
# _framework density 19.241199999999999
#
# number of rings (size 3 to 8) (size 9 to 14) (size 15 to 20)
#    0.000    2.167    0.833    3.000    1.167    7.667 
#    0.000    1.667    0.000    3.500    0.000    3.500 
#    0.000    0.000    0.000    0.000    0.000    0.000 
#
# Total GULP energy -594881.137372 kJ/mol
# GULP energy per Si atom -12393.357029 kJ/mol
# Density = 1.919741 g / cm^3
# Si number density = 19.241200 Si / 1000 Ang^3
#
#
#
# Elastic Constant Matrix: (Units=GPa)
#
#
# Indices 1 2 3 4 5 6 
#
# 1 151.2094 63.0500 25.0705 0.0000 0.0000 0.0000
# 2 63.0500 128.7781 25.6771 0.0000 0.0000 0.0000
# 3 25.0705 25.6771 46.5765 0.0000 0.0000 0.0000
# 4 0.0000 0.0000 0.0000 20.4104 0.0000 0.0000
# 5 0.0000 0.0000 0.0000 0.0000 -34.6197 0.0000
# 6 0.0000 0.0000 0.0000 0.0000 0.0000 21.5977
#
#
#
# Elastic Compliance Matrix: (Units=1/GPa)
#
#
# Indices 1 2 3 4 5 6 
#
# 1 0.008578 -0.003684 -0.002586 0.000000 0.000000 0.000000
# 2 -0.003684 0.010307 -0.003699 0.000000 0.000000 0.000000
# 3 -0.002586 -0.003699 0.024901 0.000000 0.000000 0.000000
# 4 0.000000 0.000000 0.000000 0.048995 0.000000 0.000000
# 5 0.000000 0.000000 0.000000 0.000000 -0.028885 0.000000
# 6 0.000000 0.000000 0.000000 0.000000 0.000000 0.046301
#
#
# Mechanical properties :
#
#
# Convention : Reuss Voigt Hill
#
# Bulk Modulus (GPa) = 41.93321 61.57327 51.75324
# Shear Modulus (GPa) = 36.20955 15.66209 25.93582
#
# Velocity S-wave (km/s) = 4.34277 2.85614 3.67540
# Velocity P-wave (km/s) = 6.85470 6.55339 6.70574
#
# Compressibility (1/GPa) = 0.02384745
#
# Stress axis : x y z
#
# Youngs Moduli (GPa) = 116.57163 97.02472 40.15852
#
# Poissons Ratio (x) = 0.35747 0.10386
# Poissons Ratio (y) = 0.42949 0.14854
# Poissons Ratio (z) = 0.30149 0.35888
#
# Static dielectric constant tensor:
#      x y z
#    x 4.064930 0.000000 0.000000 
#    y 0.000000 3.639530 0.000000 
#    z 0.000000 0.000000 3.281480 
# 
# 
# High freq. dielectric constant tensor:
#      x y z
#    x 1.770190 0.000000 0.000000 
#    y 0.000000 1.735000 0.000000 
#    z 0.000000 0.000000 1.725310 
# 
# From -- ./inp_files/2556.got.cif
#   From: 2010.03.12/outbox.cif.g09.slc.cpg/sg47_2_cif.got.tgz:2556.got - 2010.04.14 03:12:58.
