data_PCOD8196138
_publ_section_title
;
Structure prediction by ZEFSAII (Michael W. Deem and Ramdas Pophale) SiO2 
 PCOD8196138
Probable space group: P M M M
;
_chemical_formula_sum "Si O2"
_cell_formula_units_Z 52
_cell_length_a 22.304967
_cell_length_b 9.363730
_cell_length_c 14.865840
_cell_angle_alpha 90.000000
_cell_angle_beta 90.000000
_cell_angle_gamma 90.000000
_cell_volume 3104.844982
_symmetry_space_group_name_H-M "P M M M"
_symmetry_group_IT_number 47
_symmetry_cell_setting 'orthorhombic'
loop_
_space_group_symop_operation_xyz
x,y,z
-x,-y,z
x,-y,-z
-x,y,-z
-x,-y,-z
x,y,-z
-x,y,z
x,-y,z
loop_
_atom_site_type_symbol
_atom_site_label
_atom_site_fract_x
_atom_site_fract_y
_atom_site_fract_z
Si Si1 0.225243 0.665762 0.274310
Si Si2 0.618654 0.162717 0.152289
Si Si3 0.640838 0.667559 0.675923
Si Si4 0.000000 0.161588 0.606966
Si Si5 0.114568 0.666023 0.604193
Si Si6 0.244329 0.837926 0.101154
Si Si7 0.431446 0.331489 0.500000
Si Si8 0.567489 0.346050 0.000000
O O1 0.221610 0.500000 0.251669
O O2 0.287907 0.702123 0.324265
O O3 0.173373 0.714330 0.342070
O O4 0.214268 0.743804 0.179064
O O5 0.610898 0.236765 0.248151
O O6 0.684870 0.170790 0.112590
O O7 0.577537 0.252001 0.087201
O O8 0.596286 0.000000 0.159099
O O9 0.630047 0.500000 0.694747
O O10 0.607878 0.718293 0.585231
O O11 0.941089 0.243055 0.642362
O O12 0.000000 0.164821 0.500000
O O13 0.000000 0.000000 0.644063
O O14 0.126971 0.699550 0.500000
O O15 0.099516 0.500000 0.618635
O O16 0.221840 0.000000 0.112901
O O17 0.227973 0.782915 0.000000
O O18 0.436810 0.500000 0.500000
O O19 0.500000 0.268086 0.500000
O O20 0.603478 0.500000 0.000000
O O21 0.500000 0.391718 0.000000
#
# Coordination Sequence:
#
# PCOD8196138 Si02
#       8
#     8   8   8   4   8   8   4   4
#     4   9  18  29  45  73  99 125 161 203 244 284
#     4  10  19  34  52  70  94 123 154 191 241 296
#     4   9  18  32  50  72  97 126 164 207 248 289
#     4   9  17  29  45  67  96 131 170 203 235 280
#     4   9  17  29  46  68  99 134 167 201 240 283
#     4   9  17  31  49  68  93 125 155 190 237 290
#     4   9  18  32  51  71  93 126 165 204 246 291
#     4  11  23  35  49  71  95 119 151 192 239 296
#
# _framework density 16.748017999999998
#
# number of rings (size 3 to 8) (size 9 to 14) (size 15 to 20)
#    0.000    2.692    0.769    0.923    1.077    3.692 
#    0.000    1.923    0.000    0.462    0.000    0.538 
#    0.000    4.308    0.000    0.000    0.000    0.000 
#
# Total GULP energy -644553.557678 kJ/mol
# GULP energy per Si atom -12395.260725 kJ/mol
# Density = 1.670990 g / cm^3
# Si number density = 16.748018 Si / 1000 Ang^3
#
#
#
# Elastic Constant Matrix: (Units=GPa)
#
#
# Indices 1 2 3 4 5 6 
#
# 1 90.6411 46.7413 65.6044 0.0000 0.0000 0.0000
# 2 46.7413 88.1846 61.9484 0.0000 0.0000 0.0000
# 3 65.6044 61.9484 135.4510 0.0000 0.0000 0.0000
# 4 0.0000 0.0000 0.0000 481.8595 0.0000 0.0000
# 5 0.0000 0.0000 0.0000 0.0000 40.5497 0.0000
# 6 0.0000 0.0000 0.0000 0.0000 0.0000 16.0917
#
#
#
# Elastic Compliance Matrix: (Units=1/GPa)
#
#
# Indices 1 2 3 4 5 6 
#
# 1 0.018455 -0.005161 -0.006578 0.000000 0.000000 0.000000
# 2 -0.005161 0.018151 -0.005802 0.000000 0.000000 0.000000
# 3 -0.006578 -0.005802 0.013222 0.000000 0.000000 0.000000
# 4 0.000000 0.000000 0.000000 0.002075 0.000000 0.000000
# 5 0.000000 0.000000 0.000000 0.000000 0.024661 0.000000
# 6 0.000000 0.000000 0.000000 0.000000 0.000000 0.062144
#
#
# Mechanical properties :
#
#
# Convention : Reuss Voigt Hill
#
# Bulk Modulus (GPa) = 67.81176 73.65166 70.73171
# Shear Modulus (GPa) = 27.97900 117.03234 72.50567
#
# Velocity S-wave (km/s) = 4.09171 8.36839 6.58681
# Velocity P-wave (km/s) = 7.93096 11.72370 10.00863
#
# Compressibility (1/GPa) = 0.01474670
#
# Stress axis : x y z
#
# Youngs Moduli (GPa) = 54.18575 55.09372 75.63001
#
# Poissons Ratio (x) = 0.28433 0.49751
# Poissons Ratio (y) = 0.27964 0.43878
# Poissons Ratio (z) = 0.35645 0.31964
#
# Static dielectric constant tensor:
#      x y z
#    x 3.051610 0.000000 0.000000 
#    y 0.000000 3.175150 0.000000 
#    z 0.000000 0.000000 3.226350 
# 
# 
# High freq. dielectric constant tensor:
#      x y z
#    x 1.624210 0.000000 0.000000 
#    y 0.000000 1.643940 0.000000 
#    z 0.000000 0.000000 1.638780 
# 
# From -- ./inp_files/25067.got.cif
#   From: 2010.03.12/outbox.cif.g09.slc.cpg/sg47_13_cif.got.tgz:25067.got - 2010.04.14 03:12:58.
