data_PCOD8196105
_publ_section_title
;
Structure prediction by ZEFSAII (Michael W. Deem and Ramdas Pophale) SiO2 
 PCOD8196105
Probable space group: P M M M
;
_chemical_formula_sum "Si O2"
_cell_formula_units_Z 48
_cell_length_a 13.964313
_cell_length_b 8.769285
_cell_length_c 20.575772
_cell_angle_alpha 90.000000
_cell_angle_beta 90.000000
_cell_angle_gamma 90.000000
_cell_volume 2519.648146
_symmetry_space_group_name_H-M "P M M M"
_symmetry_group_IT_number 47
_symmetry_cell_setting 'orthorhombic'
loop_
_space_group_symop_operation_xyz
x,y,z
-x,-y,z
x,-y,-z
-x,y,-z
-x,-y,-z
x,y,-z
-x,y,z
x,-y,z
loop_
_atom_site_type_symbol
_atom_site_label
_atom_site_fract_x
_atom_site_fract_y
_atom_site_fract_z
Si Si1 0.787601 0.821924 0.121988
Si Si2 0.608738 0.176460 0.687986
Si Si3 0.892201 0.681463 0.500000
Si Si4 0.108556 0.319738 0.000000
Si Si5 0.219277 0.678123 0.626431
Si Si6 0.608675 0.678522 0.825489
Si Si7 0.111650 0.324625 0.758379
O O1 0.677410 0.767003 0.124835
O O2 0.839358 0.783980 0.189369
O O3 0.790940 0.000000 0.108493
O O4 0.839537 0.737590 0.063904
O O5 0.500000 0.205159 0.664430
O O6 0.680033 0.232468 0.631604
O O7 0.632338 0.273780 0.751983
O O8 0.625911 0.000000 0.704625
O O9 0.897687 0.500000 0.500000
O O10 0.836162 0.740492 0.436576
O O11 0.000000 0.748607 0.500000
O O12 0.110422 0.500000 0.000000
O O13 0.000000 0.258027 0.000000
O O14 0.241988 0.500000 0.619889
O O15 0.152927 0.714352 0.687940
O O16 0.500000 0.722022 0.843738
O O17 0.627935 0.500000 0.831709
O O18 0.131983 0.500000 0.777439
O O19 0.000000 0.288875 0.756870
#
# Coordination Sequence:
#
# PCOD8196105 Si02
#       7
#     8   8   4   4   8   8   8
#     4  12  24  38  59  88 121 154 190 237 291 345
#     4  10  20  34  54  82 115 149 186 234 293 349
#     4   9  18  34  56  83 114 150 193 241 292 343
#     4  11  25  45  66  85 114 159 203 242 286 339
#     4  10  19  33  56  83 112 149 193 240 290 343
#     4  10  20  36  60  88 117 151 192 237 286 343
#     4  10  20  34  54  81 112 148 193 241 287 341
#
# _framework density 19.050279
#
# number of rings (size 3 to 8) (size 9 to 14) (size 15 to 20)
#    0.000    1.667    1.667    3.750    0.000    7.000 
#    0.000    1.250    0.000    7.000    0.000    0.000 
#    0.000    0.000    0.000    0.000    0.000    0.000 
#
# Total GULP energy -595404.716393 kJ/mol
# GULP energy per Si atom -12404.264925 kJ/mol
# Density = 1.900692 g / cm^3
# Si number density = 19.050279 Si / 1000 Ang^3
#
#
#
# Elastic Constant Matrix: (Units=GPa)
#
#
# Indices 1 2 3 4 5 6 
#
# 1 150.3925 37.2387 61.4686 0.0000 0.0000 0.0000
# 2 37.2387 54.6649 28.1344 0.0000 0.0000 0.0000
# 3 61.4686 28.1344 105.4528 0.0000 0.0000 0.0000
# 4 0.0000 0.0000 0.0000 21.0501 0.0000 0.0000
# 5 0.0000 0.0000 0.0000 0.0000 32.0261 0.0000
# 6 0.0000 0.0000 0.0000 0.0000 0.0000 23.4100
#
#
#
# Elastic Compliance Matrix: (Units=1/GPa)
#
#
# Indices 1 2 3 4 5 6 
#
# 1 0.009492 -0.004194 -0.004414 0.000000 0.000000 0.000000
# 2 -0.004194 0.023058 -0.003707 0.000000 0.000000 0.000000
# 3 -0.004414 -0.003707 0.013045 0.000000 0.000000 0.000000
# 4 0.000000 0.000000 0.000000 0.047506 0.000000 0.000000
# 5 0.000000 0.000000 0.000000 0.000000 0.031225 0.000000
# 6 0.000000 0.000000 0.000000 0.000000 0.000000 0.042717
#
#
# Mechanical properties :
#
#
# Convention : Reuss Voigt Hill
#
# Bulk Modulus (GPa) = 47.69916 62.68818 55.19367
# Shear Modulus (GPa) = 25.16855 27.54180 26.35518
#
# Velocity S-wave (km/s) = 3.63873 3.80642 3.72352
# Velocity P-wave (km/s) = 6.53809 7.23164 6.89359
#
# Compressibility (1/GPa) = 0.02096473
#
# Stress axis : x y z
#
# Youngs Moduli (GPa) = 105.35367 43.36803 76.65934
#
# Poissons Ratio (x) = 0.18190 0.33836
# Poissons Ratio (y) = 0.44189 0.28418
# Poissons Ratio (z) = 0.46501 0.16077
#
# Static dielectric constant tensor:
#      x y z
#    x 3.801000 0.000000 0.000000 
#    y 0.000000 3.390520 0.000000 
#    z 0.000000 0.000000 4.232610 
# 
# 
# High freq. dielectric constant tensor:
#      x y z
#    x 1.761470 0.000000 0.000000 
#    y 0.000000 1.733160 0.000000 
#    z 0.000000 0.000000 1.723120 
# 
# From -- ./inp_files/9204.got.cif
#   From: 2010.03.12/outbox.cif.g09.slc.cpg/sg47_5_cif.got.tgz:9204.got - 2010.04.14 03:12:58.
