data_PCOD8196947
_publ_section_title
;
Structure prediction by ZEFSAII (Michael W. Deem and Ramdas Pophale) SiO2 
 PCOD8196947
Probable space group: P M M M
;
_chemical_formula_sum "Si O2"
_cell_formula_units_Z 48
_cell_length_a 9.452950
_cell_length_b 9.220956
_cell_length_c 31.375356
_cell_angle_alpha 90.000000
_cell_angle_beta 90.000000
_cell_angle_gamma 90.000000
_cell_volume 2734.840311
_symmetry_space_group_name_H-M "P M M M"
_symmetry_group_IT_number 47
_symmetry_cell_setting 'orthorhombic'
loop_
_space_group_symop_operation_xyz
x,y,z
-x,-y,z
x,-y,-z
-x,y,-z
-x,-y,-z
x,y,-z
-x,y,z
x,-y,z
loop_
_atom_site_type_symbol
_atom_site_label
_atom_site_fract_x
_atom_site_fract_y
_atom_site_fract_z
Si Si1 0.336441 0.165184 0.950689
Si Si2 0.831204 0.663525 0.282650
Si Si3 0.834515 0.331920 0.117903
Si Si4 0.169411 0.163645 0.363650
Si Si5 0.158551 0.172341 0.454879
Si Si6 0.168440 0.163844 0.798992
O O1 0.500000 0.191185 0.939852
O O2 0.243208 0.275920 0.923964
O O3 0.293635 0.000000 0.939689
O O4 0.306549 0.197776 0.000000
O O5 0.773880 0.500000 0.279435
O O6 0.772122 0.734132 0.326189
O O7 0.771977 0.753887 0.242556
O O8 0.000000 0.666085 0.282565
O O9 0.800263 0.500000 0.124968
O O10 0.776643 0.245760 0.158979
O O11 0.000000 0.304645 0.111364
O O12 0.228926 0.222692 0.409838
O O13 0.000000 0.165993 0.365181
O O14 0.222012 0.000000 0.354521
O O15 0.235202 0.220064 0.500000
O O16 0.000000 0.234751 0.456808
O O17 0.152637 0.000000 0.452610
O O18 0.000000 0.164711 0.797940
O O19 0.227220 0.000000 0.799206
#
# Coordination Sequence:
#
# PCOD8196947 Si02
#       6
#     8   8   8   8   8   8
#     4   9  19  36  55  73  94 122 156 190 221 255
#     4   9  15  21  29  42  62  86 111 143 186 235
#     4  10  20  32  47  70  98 123 148 181 222 267
#     4   8  12  17  25  36  49  68  98 134 173 223
#     4   7   9  13  21  32  44  59  85 126 173 217
#     4   9  16  26  40  56  75 101 132 164 200 244
#
# _framework density 17.551300000000001
#
# number of rings (size 3 to 8) (size 9 to 14) (size 15 to 20)
#    0.000    3.333    0.000    3.500    0.000    6.000 
#    0.000    2.500    0.000    0.500    0.000    3.500 
#    0.000    0.000    0.000    0.000    0.000    0.000 
#
# Total GULP energy -594668.467490 kJ/mol
# GULP energy per Si atom -12388.926406 kJ/mol
# Density = 1.751135 g / cm^3
# Si number density = 17.551300 Si / 1000 Ang^3
#
#
#
# Elastic Constant Matrix: (Units=GPa)
#
#
# Indices 1 2 3 4 5 6 
#
# 1 12.6674 21.2733 26.6712 0.0000 0.0000 0.0000
# 2 21.2733 121.7605 84.1619 0.0000 0.0000 0.0000
# 3 26.6712 84.1619 165.3513 0.0000 0.0000 0.0000
# 4 0.0000 0.0000 0.0000 15.8106 0.0000 0.0000
# 5 0.0000 0.0000 0.0000 0.0000 -0.7060 0.0000
# 6 0.0000 0.0000 0.0000 0.0000 0.0000 11.6453
#
#
#
# Elastic Compliance Matrix: (Units=1/GPa)
#
#
# Indices 1 2 3 4 5 6 
#
# 1 0.131328 -0.012809 -0.014663 0.000000 0.000000 0.000000
# 2 -0.012809 0.013920 -0.005019 0.000000 0.000000 0.000000
# 3 -0.014663 -0.005019 0.010968 0.000000 0.000000 0.000000
# 4 0.000000 0.000000 0.000000 0.063249 0.000000 0.000000
# 5 0.000000 0.000000 0.000000 0.000000 -1.416498 0.000000
# 6 0.000000 0.000000 0.000000 0.000000 0.000000 0.085871
#
#
# Mechanical properties :
#
#
# Convention : Reuss Voigt Hill
#
# Bulk Modulus (GPa) = 10.96103 62.66576 36.81340
# Shear Modulus (GPa) = -4.92239 16.52817 5.80289
#
# Velocity S-wave (km/s) = -1.67650 3.07205 1.82028
# Velocity P-wave (km/s) = 1.58466 6.95451 5.04363
#
# Compressibility (1/GPa) = 0.09123228
#
# Stress axis : x y z
#
# Youngs Moduli (GPa) = 7.61450 71.83933 91.17815
#
# Poissons Ratio (x) = 0.92022 1.33699
# Poissons Ratio (y) = 0.09754 0.45762
# Poissons Ratio (z) = 0.11166 0.36056
#
# Static dielectric constant tensor:
#      x y z
#    x 2.463140 0.000000 0.000000 
#    y 0.000000 3.205590 0.000000 
#    z 0.000000 0.000000 3.742460 
# 
# 
# High freq. dielectric constant tensor:
#      x y z
#    x 1.585510 0.000000 0.000000 
#    y 0.000000 1.666710 0.000000 
#    z 0.000000 0.000000 1.707730 
# 
# From -- ./inp_files/14069.got.cif
#   From: 2010.03.12/outbox.cif.g09.slc.cpg/sg47_8_cif.got.tgz:14069.got - 2010.04.14 03:12:58.
