data_PCOD8196950
_publ_section_title
;
Structure prediction by ZEFSAII (Michael W. Deem and Ramdas Pophale) SiO2 
 PCOD8196950
Probable space group: P M M M
;
_chemical_formula_sum "Si O2"
_cell_formula_units_Z 48
_cell_length_a 30.929100
_cell_length_b 9.200566
_cell_length_c 9.452700
_cell_angle_alpha 90.000000
_cell_angle_beta 90.000000
_cell_angle_gamma 90.000000
_cell_volume 2689.909711
_symmetry_space_group_name_H-M "P M M M"
_symmetry_group_IT_number 47
_symmetry_cell_setting 'orthorhombic'
loop_
_space_group_symop_operation_xyz
x,y,z
-x,-y,z
x,-y,-z
-x,y,-z
-x,-y,-z
x,y,-z
-x,y,z
x,-y,z
loop_
_atom_site_type_symbol
_atom_site_label
_atom_site_fract_x
_atom_site_fract_y
_atom_site_fract_z
Si Si1 0.450000 0.834447 0.163615
Si Si2 0.295720 0.164343 0.668444
Si Si3 0.619758 0.668430 0.665398
Si Si4 0.952314 0.336711 0.331773
Si Si5 0.787510 0.664354 0.331294
Si Si6 0.129191 0.836552 0.668840
O O1 0.500000 0.801449 0.193693
O O2 0.422780 0.723450 0.256506
O O3 0.438910 0.000000 0.206577
O O4 0.439060 0.808656 0.000000
O O5 0.294574 0.164813 0.500000
O O6 0.338738 0.244282 0.723211
O O7 0.254080 0.249693 0.727896
O O8 0.295144 0.000000 0.727187
O O9 0.612994 0.696034 0.500000
O O10 0.627274 0.500000 0.699125
O O11 0.950240 0.336465 0.500000
O O12 0.943861 0.500000 0.276260
O O13 0.915269 0.231608 0.270288
O O14 0.000000 0.283016 0.282125
O O15 0.787110 0.664033 0.500000
O O16 0.786572 0.500000 0.273020
O O17 0.830484 0.743326 0.274000
O O18 0.128873 0.835651 0.500000
O O19 0.133369 0.000000 0.726864
#
# Coordination Sequence:
#
# PCOD8196950 Si02
#       6
#     8   8   8   8   8   8
#     4   9  19  36  55  73  94 122 156 191 226 265
#     4   9  16  26  40  57  78 104 133 165 203 247
#     4  10  20  32  47  70  98 124 151 184 223 268
#     4   8  13  20  27  33  43  62  90 127 174 226
#     4   9  15  22  32  45  63  87 114 146 187 236
#     4   9  15  20  26  37  52  71  99 135 176 226
#
# _framework density 17.844465
#
# number of rings (size 3 to 8) (size 9 to 14) (size 15 to 20)
#    0.000    3.000    0.000    3.000    0.000    8.333 
#    0.000    4.167    0.000    0.000    0.000    0.000 
#    0.000    0.000    0.000    0.000    0.000    0.000 
#
# Total GULP energy -595072.741788 kJ/mol
# GULP energy per Si atom -12397.348787 kJ/mol
# Density = 1.780385 g / cm^3
# Si number density = 17.844465 Si / 1000 Ang^3
#
#
#
# Elastic Constant Matrix: (Units=GPa)
#
#
# Indices 1 2 3 4 5 6 
#
# 1 153.4729 95.6724 24.9349 0.0000 0.0000 0.0000
# 2 95.6724 161.3687 23.1882 0.0000 0.0000 0.0000
# 3 24.9349 23.1882 12.5421 0.0000 0.0000 0.0000
# 4 0.0000 0.0000 0.0000 11.7908 0.0000 0.0000
# 5 0.0000 0.0000 0.0000 0.0000 -0.7143 0.0000
# 6 0.0000 0.0000 0.0000 0.0000 0.0000 43.1077
#
#
#
# Elastic Compliance Matrix: (Units=1/GPa)
#
#
# Indices 1 2 3 4 5 6 
#
# 1 0.012025 -0.005030 -0.014606 0.000000 0.000000 0.000000
# 2 -0.005030 0.010543 -0.009492 0.000000 0.000000 0.000000
# 3 -0.014606 -0.009492 0.126319 0.000000 0.000000 0.000000
# 4 0.000000 0.000000 0.000000 0.084812 0.000000 0.000000
# 5 0.000000 0.000000 0.000000 0.000000 -1.399985 0.000000
# 6 0.000000 0.000000 0.000000 0.000000 0.000000 0.023198
#
#
# Mechanical properties :
#
#
# Convention : Reuss Voigt Hill
#
# Bulk Modulus (GPa) = 11.03386 68.33052 39.68219
# Shear Modulus (GPa) = -4.74103 23.07607 9.16752
#
# Velocity S-wave (km/s) = -1.63176 3.59998 2.26906
# Velocity P-wave (km/s) = 1.62684 7.46024 5.39916
#
# Compressibility (1/GPa) = 0.09063012
#
# Stress axis : x y z
#
# Youngs Moduli (GPa) = 83.16212 94.84617 7.91648
#
# Poissons Ratio (x) = 0.47711 0.11563
# Poissons Ratio (y) = 0.41834 0.07514
# Poissons Ratio (z) = 1.21466 0.90028
#
# Static dielectric constant tensor:
#      x y z
#    x 3.547370 0.000000 0.000000 
#    y 0.000000 3.485850 0.000000 
#    z 0.000000 0.000000 2.489550 
# 
# 
# High freq. dielectric constant tensor:
#      x y z
#    x 1.709650 0.000000 0.000000 
#    y 0.000000 1.703250 0.000000 
#    z 0.000000 0.000000 1.598710 
# 
# From -- ./inp_files/4430.got.cif
#   From: 2010.03.12/outbox.cif.g09.slc.cpg/sg47_3_cif.got.tgz:4430.got - 2010.04.14 03:12:58.
