data_PCOD8196690
_publ_section_title
;
Structure prediction by ZEFSAII (Michael W. Deem and Ramdas Pophale) SiO2 
 PCOD8196690
Probable space group: P M M M
;
_chemical_formula_sum "Si O2"
_cell_formula_units_Z 56
_cell_length_a 9.169633
_cell_length_b 23.243414
_cell_length_c 22.061112
_cell_angle_alpha 90.000000
_cell_angle_beta 90.000000
_cell_angle_gamma 90.000000
_cell_volume 4701.963692
_symmetry_space_group_name_H-M "P M M M"
_symmetry_group_IT_number 47
_symmetry_cell_setting 'orthorhombic'
loop_
_space_group_symop_operation_xyz
x,y,z
-x,-y,z
x,-y,-z
-x,y,-z
-x,-y,-z
x,y,-z
-x,y,z
x,-y,z
loop_
_atom_site_type_symbol
_atom_site_label
_atom_site_fract_x
_atom_site_fract_y
_atom_site_fract_z
Si Si1 0.836772 0.671751 0.928023
Si Si2 0.837568 0.068744 0.500000
Si Si3 0.172924 0.000000 0.932362
Si Si4 0.671901 0.933541 0.251285
Si Si5 0.173850 0.887921 0.138995
Si Si6 0.336170 0.563531 0.927913
Si Si7 0.338746 0.931647 0.386274
Si Si8 0.329932 0.214618 0.928833
O O1 0.770070 0.612525 0.901093
O O2 0.733773 0.724134 0.907809
O O3 0.000000 0.680071 0.901880
O O4 0.842243 0.668297 0.000000
O O5 0.762882 0.093555 0.439229
O O6 0.000000 0.092710 0.500000
O O7 0.832583 0.000000 0.500000
O O8 0.228916 0.056495 0.898058
O O9 0.000000 0.000000 0.934951
O O10 0.239231 0.000000 0.000000
O O11 0.500000 0.924559 0.240826
O O12 0.764724 0.893219 0.206895
O O13 0.717059 0.914204 0.319336
O O14 0.714528 0.000000 0.240314
O O15 0.241188 0.832795 0.107383
O O16 0.000000 0.882512 0.140308
O O17 0.500000 0.574446 0.903804
O O18 0.281757 0.500000 0.907252
O O19 0.337108 0.567021 0.000000
O O20 0.500000 0.906507 0.397145
O O21 0.344696 0.000000 0.389913
O O22 0.500000 0.212208 0.912034
O O23 0.304549 0.204353 0.000000
#
# Coordination Sequence:
#
# PCOD8196690 Si02
#       8
#     8   4   4   8   8   8   8   8
#     4   9  16  25  37  52  68  85 105 130 159 191
#     4   9  15  21  31  51  73  89 105 129 151 171
#     4   9  18  30  41  53  67  80  95 122 165 213
#     4   9  17  29  42  54  69  87 107 131 158 194
#     4  11  20  30  43  56  69  84 103 131 169 210
#     4   8  13  21  33  49  69  91 110 126 147 179
#     4   8  14  24  37  50  66  90 111 125 146 180
#     4  10  20  32  43  53  65  83 107 135 168 206
#
# _framework density 11.909917999999999
#
# number of rings (size 3 to 8) (size 9 to 14) (size 15 to 20)
#    0.000    2.857    0.714    3.214    0.000    4.857 
#    0.000    2.857    0.000    1.714    0.000    0.000 
#    0.000    0.000    0.000    0.000    0.000    0.000 
#
# Total GULP energy -694135.059200 kJ/mol
# GULP energy per Si atom -12395.268914 kJ/mol
# Density = 1.188281 g / cm^3
# Si number density = 11.909918 Si / 1000 Ang^3
#
#
#
# Elastic Constant Matrix: (Units=GPa)
#
#
# Indices 1 2 3 4 5 6 
#
# 1 75.4609 37.1603 37.1608 0.0000 0.0000 0.0000
# 2 37.1603 70.9742 26.8536 0.0000 0.0000 0.0000
# 3 37.1608 26.8536 64.9796 0.0000 0.0000 0.0000
# 4 0.0000 0.0000 0.0000 0.8651 0.0000 0.0000
# 5 0.0000 0.0000 0.0000 0.0000 14.7720 0.0000
# 6 0.0000 0.0000 0.0000 0.0000 0.0000 19.0127
#
#
#
# Elastic Compliance Matrix: (Units=1/GPa)
#
#
# Indices 1 2 3 4 5 6 
#
# 1 0.021612 -0.007870 -0.009107 0.000000 0.000000 0.000000
# 2 -0.007870 0.019567 -0.003586 0.000000 0.000000 0.000000
# 3 -0.009107 -0.003586 0.022080 0.000000 0.000000 0.000000
# 4 0.000000 0.000000 0.000000 1.155902 0.000000 0.000000
# 5 0.000000 0.000000 0.000000 0.000000 0.067696 0.000000
# 6 0.000000 0.000000 0.000000 0.000000 0.000000 0.052596
#
#
# Mechanical properties :
#
#
# Convention : Reuss Voigt Hill
#
# Bulk Modulus (GPa) = 45.18138 45.97379 45.57759
# Shear Modulus (GPa) = 3.60242 14.27930 8.94086
#
# Velocity S-wave (km/s) = 1.74106 3.46633 2.74288
# Velocity P-wave (km/s) = 6.48537 7.39633 6.95578
#
# Compressibility (1/GPa) = 0.02213301
#
# Stress axis : x y z
#
# Youngs Moduli (GPa) = 46.26993 51.10735 45.29054
#
# Poissons Ratio (x) = 0.40220 0.41248
# Poissons Ratio (y) = 0.36413 0.16239
# Poissons Ratio (z) = 0.42140 0.18325
#
# Static dielectric constant tensor:
#      x y z
#    x 2.593930 0.000000 0.000000 
#    y 0.000000 2.365330 0.000000 
#    z 0.000000 0.000000 2.329840 
# 
# 
# High freq. dielectric constant tensor:
#      x y z
#    x 1.461260 0.000000 0.000000 
#    y 0.000000 1.420100 0.000000 
#    z 0.000000 0.000000 1.414730 
# 
# From -- ./inp_files/30098.got.cif
#   From: 2010.03.12/outbox.cif.g09.slc.cpg/sg47_16_cif.got.tgz:30098.got - 2010.04.14 03:12:58.
