data_PCOD8196594
_publ_section_title
;
Structure prediction by ZEFSAII (Michael W. Deem and Ramdas Pophale) SiO2 
 PCOD8196594
Probable space group: P M M M
;
_chemical_formula_sum "Si O2"
_cell_formula_units_Z 64
_cell_length_a 18.733452
_cell_length_b 8.963602
_cell_length_c 20.932089
_cell_angle_alpha 90.000000
_cell_angle_beta 90.000000
_cell_angle_gamma 90.000000
_cell_volume 3514.899803
_symmetry_space_group_name_H-M "P M M M"
_symmetry_group_IT_number 47
_symmetry_cell_setting 'orthorhombic'
loop_
_space_group_symop_operation_xyz
x,y,z
-x,-y,z
x,-y,-z
-x,y,-z
-x,-y,-z
x,y,-z
-x,y,z
x,-y,z
loop_
_atom_site_type_symbol
_atom_site_label
_atom_site_fract_x
_atom_site_fract_y
_atom_site_fract_z
Si Si1 0.171786 0.177402 0.429296
Si Si2 0.919981 0.823250 0.686995
Si Si3 0.333874 0.672692 0.803524
Si Si4 0.672365 0.826783 0.929847
Si Si5 0.418945 0.177341 0.690518
Si Si6 0.834538 0.668808 0.204864
Si Si7 0.668062 0.822629 0.570586
Si Si8 0.818109 0.668811 0.068074
O O1 0.147322 0.230880 0.500000
O O2 0.118372 0.243652 0.376107
O O3 0.251798 0.235481 0.414866
O O4 0.171020 0.000000 0.426495
O O5 0.876028 0.779860 0.749488
O O6 0.000000 0.757522 0.690329
O O7 0.922109 0.000000 0.683407
O O8 0.352574 0.500000 0.797756
O O9 0.362328 0.731163 0.872462
O O10 0.375276 0.760795 0.749519
O O11 0.249747 0.704356 0.795099
O O12 0.755656 0.788776 0.933716
O O13 0.663321 0.000000 0.913131
O O14 0.637723 0.791380 0.000000
O O15 0.500000 0.234462 0.693916
O O16 0.385020 0.240062 0.624544
O O17 0.414851 0.000000 0.692421
O O18 0.849025 0.500000 0.227604
O O19 0.864781 0.695494 0.132210
O O20 0.643679 0.766887 0.500000
O O21 0.667931 0.000000 0.571497
O O22 0.785526 0.500000 0.074225
O O23 0.861157 0.682017 0.000000
#
# Coordination Sequence:
#
# PCOD8196594 Si02
#       8
#     8   8   8   8   8   8   8   8
#     4   8  14  26  45  68  93 121 154 193 235 279
#     4  10  20  31  45  68  96 126 159 195 238 287
#     4  10  20  33  50  71  96 129 167 204 242 286
#     4   9  16  26  44  72 101 125 153 194 244 293
#     4  10  20  32  48  72 101 132 164 199 240 285
#     4   9  18  31  48  70  93 122 159 196 237 282
#     4   8  14  26  46  72  99 126 157 194 239 290
#     4   8  14  26  44  67  95 123 154 195 239 283
#
# _framework density 18.208200000000001
#
# number of rings (size 3 to 8) (size 9 to 14) (size 15 to 20)
#    0.000    3.000    0.000    3.000    0.000    5.250 
#    0.000    2.500    0.000    1.500    0.000   10.500 
#    0.000    0.000    0.000    0.000    0.000    0.000 
#
# Total GULP energy -792948.390213 kJ/mol
# GULP energy per Si atom -12389.818597 kJ/mol
# Density = 1.816676 g / cm^3
# Si number density = 18.208200 Si / 1000 Ang^3
#
#
#
# Elastic Constant Matrix: (Units=GPa)
#
#
# Indices 1 2 3 4 5 6 
#
# 1 69.9699 14.7373 61.0375 0.0000 0.0000 0.0000
# 2 14.7373 17.3857 19.0641 0.0000 0.0000 0.0000
# 3 61.0375 19.0641 170.0178 0.0000 0.0000 0.0000
# 4 0.0000 0.0000 0.0000 11.2544 0.0000 0.0000
# 5 0.0000 0.0000 0.0000 0.0000 2.2014 0.0000
# 6 0.0000 0.0000 0.0000 0.0000 0.0000 13.1668
#
#
#
# Elastic Compliance Matrix: (Units=1/GPa)
#
#
# Indices 1 2 3 4 5 6 
#
# 1 0.022742 -0.011773 -0.006845 0.000000 0.000000 0.000000
# 2 -0.011773 0.071676 -0.003811 0.000000 0.000000 0.000000
# 3 -0.006845 -0.003811 0.008766 0.000000 0.000000 0.000000
# 4 0.000000 0.000000 0.000000 0.088855 0.000000 0.000000
# 5 0.000000 0.000000 0.000000 0.000000 0.454266 0.000000
# 6 0.000000 0.000000 0.000000 0.000000 0.000000 0.075948
#
#
# Mechanical properties :
#
#
# Convention : Reuss Voigt Hill
#
# Bulk Modulus (GPa) = 17.14409 49.67238 33.40823
# Shear Modulus (GPa) = 6.35686 16.16014 11.25850
#
# Velocity S-wave (km/s) = 1.87050 2.98236 2.48930
# Velocity P-wave (km/s) = 3.75514 6.26089 5.16235
#
# Compressibility (1/GPa) = 0.05832915
#
# Stress axis : x y z
#
# Youngs Moduli (GPa) = 43.97110 13.95166 114.07367
#
# Poissons Ratio (x) = 0.16425 0.78078
# Poissons Ratio (y) = 0.51765 0.43469
# Poissons Ratio (z) = 0.30096 0.05316
#
# Static dielectric constant tensor:
#      x y z
#    x 3.146910 0.000000 0.000000 
#    y 0.000000 3.044360 0.000000 
#    z 0.000000 0.000000 3.909560 
# 
# 
# High freq. dielectric constant tensor:
#      x y z
#    x 1.660240 0.000000 0.000000 
#    y 0.000000 1.674630 0.000000 
#    z 0.000000 0.000000 1.734380 
# 
# From -- ./inp_files/31333.got.cif
#   From: 2010.03.12/outbox.cif.g09.slc.cpg/sg47_16_cif.got.tgz:31333.got - 2010.04.14 03:12:58.
