data_PCOD8196345
_publ_section_title
;
Structure prediction by ZEFSAII (Michael W. Deem and Ramdas Pophale) SiO2 
 PCOD8196345
Probable space group: P M M M
;
_chemical_formula_sum "Si O2"
_cell_formula_units_Z 52
_cell_length_a 9.286388
_cell_length_b 24.847423
_cell_length_c 11.912546
_cell_angle_alpha 90.000000
_cell_angle_beta 90.000000
_cell_angle_gamma 90.000000
_cell_volume 2748.734348
_symmetry_space_group_name_H-M "P M M M"
_symmetry_group_IT_number 47
_symmetry_cell_setting 'orthorhombic'
loop_
_space_group_symop_operation_xyz
x,y,z
-x,-y,z
x,-y,-z
-x,y,-z
-x,-y,-z
x,y,-z
-x,y,z
x,-y,z
loop_
_atom_site_type_symbol
_atom_site_label
_atom_site_fract_x
_atom_site_fract_y
_atom_site_fract_z
Si Si1 0.660497 0.423317 0.000000
Si Si2 0.658266 0.702624 0.000000
Si Si3 0.169547 0.343905 0.375900
Si Si4 0.835205 0.860741 0.870000
Si Si5 0.165457 0.440536 0.221850
Si Si6 0.333105 0.063245 0.718833
Si Si7 0.837004 0.063896 0.500000
Si Si8 0.834770 0.744697 0.204639
O O1 0.744460 0.443231 0.108625
O O2 0.500000 0.448440 0.000000
O O3 0.648309 0.360300 0.000000
O O4 0.738937 0.719836 0.109845
O O5 0.500000 0.729085 0.000000
O O6 0.240174 0.344361 0.500000
O O7 0.229949 0.394628 0.304580
O O8 0.206924 0.285977 0.319713
O O9 0.000000 0.350907 0.386824
O O10 0.730544 0.907975 0.828755
O O11 0.807277 0.808749 0.790949
O O12 0.000000 0.880281 0.858416
O O13 0.799923 0.846813 0.000000
O O14 0.175412 0.500000 0.278932
O O15 0.000000 0.426373 0.192052
O O16 0.500000 0.078073 0.703347
O O17 0.246844 0.084445 0.609945
O O18 0.311987 0.000000 0.736520
O O19 0.000000 0.087037 0.500000
O O20 0.839359 0.000000 0.500000
O O21 0.000000 0.733314 0.172890
#
# Coordination Sequence:
#
# PCOD8196345 Si02
#       8
#     4   4   8   8   8   8   4   8
#     4  11  22  34  51  78 110 141 177 223 274 329
#     4  11  21  32  54  83 105 135 182 225 274 330
#     4   9  18  33  55  81 108 140 178 222 271 320
#     4  10  21  36  55  82 112 144 187 233 278 331
#     4  10  20  33  53  80 108 141 181 224 271 324
#     4  10  21  37  57  82 115 153 190 228 277 336
#     4   9  17  33  59  85 109 143 189 235 274 315
#     4  10  19  36  59  80 107 142 182 224 272 328
#
# _framework density 18.917798000000001
#
# number of rings (size 3 to 8) (size 9 to 14) (size 15 to 20)
#    0.000    2.077    2.308    1.385    0.000    5.231 
#    1.385    3.077    0.000    1.846    0.000    1.077 
#    0.000    0.000    0.000    0.000    0.000    0.000 
#
# Total GULP energy -644674.156368 kJ/mol
# GULP energy per Si atom -12397.579930 kJ/mol
# Density = 1.887474 g / cm^3
# Si number density = 18.917798 Si / 1000 Ang^3
#
#
#
# Elastic Constant Matrix: (Units=GPa)
#
#
# Indices 1 2 3 4 5 6 
#
# 1 90.6451 45.7461 50.9769 0.0000 0.0000 0.0000
# 2 45.7461 89.0530 54.3037 0.0000 0.0000 0.0000
# 3 50.9769 54.3037 127.7306 0.0000 0.0000 0.0000
# 4 0.0000 0.0000 0.0000 17.2097 0.0000 0.0000
# 5 0.0000 0.0000 0.0000 0.0000 271.1011 0.0000
# 6 0.0000 0.0000 0.0000 0.0000 0.0000 15.6807
#
#
#
# Elastic Compliance Matrix: (Units=1/GPa)
#
#
# Indices 1 2 3 4 5 6 
#
# 1 0.016256 -0.005933 -0.003966 0.000000 0.000000 0.000000
# 2 -0.005933 0.017324 -0.004998 0.000000 0.000000 0.000000
# 3 -0.003966 -0.004998 0.011536 0.000000 0.000000 0.000000
# 4 0.000000 0.000000 0.000000 0.058107 0.000000 0.000000
# 5 0.000000 0.000000 0.000000 0.000000 0.003689 0.000000
# 6 0.000000 0.000000 0.000000 0.000000 0.000000 0.063773
#
#
# Mechanical properties :
#
#
# Convention : Reuss Voigt Hill
#
# Bulk Modulus (GPa) = 65.25176 67.72024 66.48600
# Shear Modulus (GPa) = 24.32086 71.22512 47.77299
#
# Velocity S-wave (km/s) = 3.58943 6.14260 5.03068
# Velocity P-wave (km/s) = 7.19345 9.28351 8.30450
#
# Compressibility (1/GPa) = 0.01532526
#
# Stress axis : x y z
#
# Youngs Moduli (GPa) = 61.51494 57.72240 86.68250
#
# Poissons Ratio (x) = 0.34244 0.34375
# Poissons Ratio (y) = 0.36494 0.43321
# Poissons Ratio (z) = 0.24395 0.28848
#
# Static dielectric constant tensor:
#      x y z
#    x 3.513540 0.000000 0.000000 
#    y 0.000000 3.527430 0.000000 
#    z 0.000000 0.000000 3.363060 
# 
# 
# High freq. dielectric constant tensor:
#      x y z
#    x 1.719380 0.000000 0.000000 
#    y 0.000000 1.736730 0.000000 
#    z 0.000000 0.000000 1.726410 
# 
# From -- ./inp_files/15596.got.cif
#   From: 2010.03.12/outbox.cif.g09.slc.cpg/sg47_8_cif.got.tgz:15596.got - 2010.04.14 03:12:58.
