data_PCOD8196057
_publ_section_title
;
Structure prediction by ZEFSAII (Michael W. Deem and Ramdas Pophale) SiO2 
 PCOD8196057
Probable space group: P M M M
;
_chemical_formula_sum "Si O2"
_cell_formula_units_Z 32
_cell_length_a 12.089134
_cell_length_b 8.824910
_cell_length_c 15.636708
_cell_angle_alpha 90.000000
_cell_angle_beta 90.000000
_cell_angle_gamma 90.000000
_cell_volume 1668.210317
_symmetry_space_group_name_H-M "P M M M"
_symmetry_group_IT_number 47
_symmetry_cell_setting 'orthorhombic'
loop_
_space_group_symop_operation_xyz
x,y,z
-x,-y,z
x,-y,-z
-x,y,-z
-x,-y,-z
x,y,-z
-x,y,z
x,-y,z
loop_
_atom_site_type_symbol
_atom_site_label
_atom_site_fract_x
_atom_site_fract_y
_atom_site_fract_z
Si Si1 0.737674 0.821043 0.847652
Si Si2 0.500000 0.180486 0.596943
Si Si3 0.873180 0.321277 0.000000
Si Si4 0.875749 0.181004 0.500000
Si Si5 0.733101 0.179567 0.342510
Si Si6 0.500000 0.179583 0.095409
O O1 0.816448 0.740502 0.914790
O O2 0.776233 0.775432 0.751922
O O3 0.610882 0.764284 0.857391
O O4 0.745862 0.000000 0.863706
O O5 0.500000 0.238616 0.500000
O O6 0.390595 0.244633 0.643488
O O7 0.500000 0.000000 0.600065
O O8 0.862723 0.500000 0.000000
O O9 0.000000 0.267419 0.000000
O O10 0.815088 0.244516 0.415058
O O11 0.000000 0.244679 0.500000
O O12 0.875059 0.000000 0.500000
O O13 0.728117 0.000000 0.351272
O O14 0.500000 0.000000 0.092689
O O15 0.500000 0.247244 0.000000
#
# Coordination Sequence:
#
# PCOD8196057 Si02
#       6
#     8   4   4   4   8   4
#     4  10  19  33  55  80 105 134 171 212 255 307
#     4   9  13  21  39  64 101 142 169 191 236 303
#     4  11  25  42  55  70  98 135 174 219 268 313
#     4   9  16  25  35  55  94 133 161 198 246 285
#     4   9  16  25  41  67  98 132 166 200 241 292
#     4   9  15  27  49  76 105 131 155 201 260 301
#
# _framework density 19.182234000000001
#
# number of rings (size 3 to 8) (size 9 to 14) (size 15 to 20)
#    0.000    2.500    2.500    1.125    0.000    5.000 
#    0.000    3.750    0.000    0.000    0.000    0.875 
#    0.000    4.000    0.000    0.000    0.000    0.000 
#
# Total GULP energy -396652.908380 kJ/mol
# GULP energy per Si atom -12395.403387 kJ/mol
# Density = 1.913857 g / cm^3
# Si number density = 19.182234 Si / 1000 Ang^3
#
#
#
# Elastic Constant Matrix: (Units=GPa)
#
#
# Indices 1 2 3 4 5 6 
#
# 1 174.3806 25.7953 96.8693 0.0000 0.0000 0.0000
# 2 25.7953 19.5890 23.3224 0.0000 0.0000 0.0000
# 3 96.8693 23.3224 184.1566 0.0000 0.0000 0.0000
# 4 0.0000 0.0000 0.0000 1.6439 0.0000 0.0000
# 5 0.0000 0.0000 0.0000 0.0000 13.9052 0.0000
# 6 0.0000 0.0000 0.0000 0.0000 0.0000 8.7925
#
#
#
# Elastic Compliance Matrix: (Units=1/GPa)
#
#
# Indices 1 2 3 4 5 6 
#
# 1 0.008895 -0.007233 -0.003763 0.000000 0.000000 0.000000
# 2 -0.007233 0.065994 -0.004553 0.000000 0.000000 0.000000
# 3 -0.003763 -0.004553 0.007986 0.000000 0.000000 0.000000
# 4 0.000000 0.000000 0.000000 0.608300 0.000000 0.000000
# 5 0.000000 0.000000 0.000000 0.000000 0.071915 0.000000
# 6 0.000000 0.000000 0.000000 0.000000 0.000000 0.113733
#
#
# Mechanical properties :
#
#
# Convention : Reuss Voigt Hill
#
# Bulk Modulus (GPa) = 19.31342 74.45558 46.88450
# Shear Modulus (GPa) = 5.40435 20.34429 12.87432
#
# Velocity S-wave (km/s) = 1.68032 3.26019 2.59348
# Velocity P-wave (km/s) = 3.72222 7.28498 5.78471
#
# Compressibility (1/GPa) = 0.05177747
#
# Stress axis : x y z
#
# Youngs Moduli (GPa) = 112.42579 15.15280 125.21806
#
# Poissons Ratio (x) = 0.10960 0.47117
# Poissons Ratio (y) = 0.81317 0.57014
# Poissons Ratio (z) = 0.42303 0.06899
#
# Static dielectric constant tensor:
#      x y z
#    x 3.736200 0.000000 0.000000 
#    y 0.000000 2.752560 0.000000 
#    z 0.000000 0.000000 3.762020 
# 
# 
# High freq. dielectric constant tensor:
#      x y z
#    x 1.751260 0.000000 0.000000 
#    y 0.000000 1.662920 0.000000 
#    z 0.000000 0.000000 1.765890 
# 
# From -- ./inp_files/22382.got.cif
#   From: 2010.03.12/outbox.cif.g09.slc.cpg/sg47_12_cif.got.tgz:22382.got - 2010.04.14 03:12:58.
