data_PCOD8196721
_publ_section_title
;
Structure prediction by ZEFSAII (Michael W. Deem and Ramdas Pophale) SiO2 
 PCOD8196721
Probable space group: P M M M
;
_chemical_formula_sum "Si O2"
_cell_formula_units_Z 52
_cell_length_a 14.081103
_cell_length_b 9.058892
_cell_length_c 29.042236
_cell_angle_alpha 90.000000
_cell_angle_beta 90.000000
_cell_angle_gamma 90.000000
_cell_volume 3704.604138
_symmetry_space_group_name_H-M "P M M M"
_symmetry_group_IT_number 47
_symmetry_cell_setting 'orthorhombic'
loop_
_space_group_symop_operation_xyz
x,y,z
-x,-y,z
x,-y,-z
-x,y,-z
-x,-y,-z
x,y,-z
-x,y,z
x,-y,z
loop_
_atom_site_type_symbol
_atom_site_label
_atom_site_fract_x
_atom_site_fract_y
_atom_site_fract_z
Si Si1 0.112782 0.665261 0.735640
Si Si2 0.106519 0.175475 0.451248
Si Si3 0.110788 0.827261 0.172686
Si Si4 0.106370 0.324682 0.000000
Si Si5 0.217190 0.324916 0.089778
Si Si6 0.608094 0.829204 0.946955
Si Si7 0.886197 0.833394 0.352738
O O1 0.152767 0.500000 0.742084
O O2 0.145650 0.765919 0.778180
O O3 0.154484 0.731931 0.688194
O O4 0.000000 0.664012 0.732835
O O5 0.157906 0.224145 0.500000
O O6 0.153350 0.227853 0.402589
O O7 0.000000 0.238410 0.453440
O O8 0.102934 0.000000 0.448633
O O9 0.170521 0.744640 0.134356
O O10 0.000000 0.792854 0.164582
O O11 0.132181 0.000000 0.170952
O O12 0.159769 0.266734 0.045283
O O13 0.104118 0.500000 0.000000
O O14 0.000000 0.259473 0.000000
O O15 0.214324 0.500000 0.094286
O O16 0.325485 0.270927 0.085171
O O17 0.500000 0.800681 0.931471
O O18 0.635110 0.000000 0.940399
O O19 0.621401 0.782208 0.000000
O O20 0.000000 0.830348 0.354038
O O21 0.850877 0.000000 0.343522
#
# Coordination Sequence:
#
# PCOD8196721 Si02
#       7
#     8   8   8   4   8   8   8
#     4   9  16  25  36  49  65  87 116 150 187 225
#     4   7   9  13  22  37  55  74  99 133 173 216
#     4  10  20  32  44  58  77 102 131 161 192 229
#     4   9  18  30  42  59  84 110 131 151 180 221
#     4  11  20  31  47  66  86 107 129 157 191 227
#     4   9  18  33  51  68  87 109 130 155 186 220
#     4   8  12  18  29  43  58  78 106 141 179 219
#
# _framework density 14.036587000000001
#
# number of rings (size 3 to 8) (size 9 to 14) (size 15 to 20)
#    0.000    3.000    0.769    3.692    0.000    3.692 
#    0.000    0.769    0.000    2.308    0.000    3.231 
#    0.000    0.000    0.000    0.000    0.000    0.000 
#
# Total GULP energy -644272.979550 kJ/mol
# GULP energy per Si atom -12389.864991 kJ/mol
# Density = 1.400464 g / cm^3
# Si number density = 14.036587 Si / 1000 Ang^3
#
#
#
# Elastic Constant Matrix: (Units=GPa)
#
#
# Indices 1 2 3 4 5 6 
#
# 1 41.9291 25.5172 34.1851 0.0000 0.0000 0.0000
# 2 25.5172 67.7828 49.6503 0.0000 0.0000 0.0000
# 3 34.1851 49.6503 137.6519 0.0000 0.0000 0.0000
# 4 0.0000 0.0000 0.0000 16.6453 0.0000 0.0000
# 5 0.0000 0.0000 0.0000 0.0000 1.2824 0.0000
# 6 0.0000 0.0000 0.0000 0.0000 0.0000 14.1214
#
#
#
# Elastic Compliance Matrix: (Units=1/GPa)
#
#
# Indices 1 2 3 4 5 6 
#
# 1 0.033386 -0.008827 -0.005107 0.000000 0.000000 0.000000
# 2 -0.008827 0.022384 -0.005882 0.000000 0.000000 0.000000
# 3 -0.005107 -0.005882 0.010655 0.000000 0.000000 0.000000
# 4 0.000000 0.000000 0.000000 0.060077 0.000000 0.000000
# 5 0.000000 0.000000 0.000000 0.000000 0.779817 0.000000
# 6 0.000000 0.000000 0.000000 0.000000 0.000000 0.070814
#
#
# Mechanical properties :
#
#
# Convention : Reuss Voigt Hill
#
# Bulk Modulus (GPa) = 37.32417 51.78546 44.55481
# Shear Modulus (GPa) = 4.87474 15.61057 10.24266
#
# Velocity S-wave (km/s) = 1.86559 3.33849 2.70425
# Velocity P-wave (km/s) = 5.59365 7.19958 6.44682
#
# Compressibility (1/GPa) = 0.02679229
#
# Stress axis : x y z
#
# Youngs Moduli (GPa) = 29.95283 44.67397 93.85654
#
# Poissons Ratio (x) = 0.39435 0.47935
# Poissons Ratio (y) = 0.26440 0.55204
# Poissons Ratio (z) = 0.15298 0.26276
#
# Static dielectric constant tensor:
#      x y z
#    x 2.298520 0.000000 0.000000 
#    y 0.000000 2.695320 0.000000 
#    z 0.000000 0.000000 3.123200 
# 
# 
# High freq. dielectric constant tensor:
#      x y z
#    x 1.462570 0.000000 0.000000 
#    y 0.000000 1.528970 0.000000 
#    z 0.000000 0.000000 1.548630 
# 
# From -- ./inp_files/33792.got.cif
#   From: 2010.03.12/outbox.cif.g09.slc.cpg/sg47_17_cif.got.tgz:33792.got - 2010.04.14 03:12:58.
