data_PCOD8196009
_publ_section_title
;
Structure prediction by ZEFSAII (Michael W. Deem and Ramdas Pophale) SiO2 
 PCOD8196009
Probable space group: P M M M
;
_chemical_formula_sum "Si O2"
_cell_formula_units_Z 52
_cell_length_a 27.786379
_cell_length_b 11.818967
_cell_length_c 9.165992
_cell_angle_alpha 90.000000
_cell_angle_beta 90.000000
_cell_angle_gamma 90.000000
_cell_volume 3010.169486
_symmetry_space_group_name_H-M "P M M M"
_symmetry_group_IT_number 47
_symmetry_cell_setting 'orthorhombic'
loop_
_space_group_symop_operation_xyz
x,y,z
-x,-y,z
x,-y,-z
-x,y,-z
-x,-y,-z
x,y,-z
-x,y,z
x,-y,z
loop_
_atom_site_type_symbol
_atom_site_label
_atom_site_fract_x
_atom_site_fract_y
_atom_site_fract_z
Si Si1 0.802231 0.000000 0.664621
Si Si2 0.445330 0.869187 0.330900
Si Si3 0.186597 0.771987 0.828254
Si Si4 0.357188 0.206560 0.170809
Si Si5 0.000000 0.365336 0.664896
Si Si6 0.311300 0.000000 0.335146
Si Si7 0.092889 0.370181 0.831171
Si Si8 0.275707 0.374334 0.828981
O O1 0.821168 0.110055 0.747588
O O2 0.822587 0.000000 0.500000
O O3 0.745330 0.000000 0.663139
O O4 0.439860 0.838210 0.500000
O O5 0.500000 0.849011 0.279373
O O6 0.411068 0.787411 0.236409
O O7 0.430502 0.000000 0.304124
O O8 0.140639 0.696874 0.789912
O O9 0.233645 0.706279 0.765686
O O10 0.192025 0.795396 0.000000
O O11 0.328639 0.322812 0.202245
O O12 0.328057 0.109529 0.250424
O O13 0.360086 0.179794 0.000000
O O14 0.047920 0.318440 0.742718
O O15 0.000000 0.500000 0.676314
O O16 0.000000 0.321516 0.500000
O O17 0.332457 0.000000 0.500000
O O18 0.102550 0.500000 0.788400
O O19 0.079847 0.358147 0.000000
O O20 0.273483 0.500000 0.758210
O O21 0.266487 0.384736 0.000000
#
# Coordination Sequence:
#
# PCOD8196009 Si02
#       8
#     4   8   8   8   4   4   8   8
#     4  11  23  35  49  71 103 139 171 205 246 293
#     4   9  18  32  49  70  99 134 164 196 247 302
#     4  10  19  33  54  76 101 133 170 208 246 295
#     4  11  20  30  51  78 101 127 164 208 247 289
#     4   9  17  29  47  72 103 138 171 207 253 301
#     4  11  21  33  48  68 100 138 169 198 243 297
#     4   9  17  30  51  78 104 132 169 212 254 296
#     4   9  18  32  50  74 103 132 162 200 248 296
#
# _framework density 17.274775000000002
#
# number of rings (size 3 to 8) (size 9 to 14) (size 15 to 20)
#    0.000    2.231    2.308    2.077    0.000    4.308 
#    0.000    0.769    0.000    6.000    0.000    6.462 
#    0.000    0.000    0.000    0.000    0.000    0.000 
#
# Total GULP energy -644763.339007 kJ/mol
# GULP energy per Si atom -12399.294981 kJ/mol
# Density = 1.723546 g / cm^3
# Si number density = 17.274775 Si / 1000 Ang^3
#
#
#
# Elastic Constant Matrix: (Units=GPa)
#
#
# Indices 1 2 3 4 5 6 
#
# 1 121.9461 48.9142 54.9691 0.0000 0.0000 0.0000
# 2 48.9142 102.0189 44.7486 0.0000 0.0000 0.0000
# 3 54.9691 44.7486 78.4403 0.0000 0.0000 0.0000
# 4 0.0000 0.0000 0.0000 -5.5337 0.0000 0.0000
# 5 0.0000 0.0000 0.0000 0.0000 26.5643 0.0000
# 6 0.0000 0.0000 0.0000 0.0000 0.0000 77.7515
#
#
#
# Elastic Compliance Matrix: (Units=1/GPa)
#
#
# Indices 1 2 3 4 5 6 
#
# 1 0.012595 -0.002891 -0.007177 0.000000 0.000000 0.000000
# 2 -0.002891 0.013737 -0.005811 0.000000 0.000000 0.000000
# 3 -0.007177 -0.005811 0.021093 0.000000 0.000000 0.000000
# 4 0.000000 0.000000 0.000000 -0.180710 0.000000 0.000000
# 5 0.000000 0.000000 0.000000 0.000000 0.037645 0.000000
# 6 0.000000 0.000000 0.000000 0.000000 0.000000 0.012861
#
#
# Mechanical properties :
#
#
# Convention : Reuss Voigt Hill
#
# Bulk Modulus (GPa) = 63.82641 66.62992 65.22817
# Shear Modulus (GPa) = -109.17474 30.00795 -39.58339
#
# Velocity S-wave (km/s) = -7.95840 4.17237 -4.79205
# Velocity P-wave (km/s) = 6.88623 7.86549 2.68754
#
# Compressibility (1/GPa) = 0.01566749
#
# Stress axis : x y z
#
# Youngs Moduli (GPa) = 79.39586 72.79645 47.40863
#
# Poissons Ratio (x) = 0.21043 0.34026
# Poissons Ratio (y) = 0.22951 0.27549
# Poissons Ratio (z) = 0.56985 0.42301
#
# Static dielectric constant tensor:
#      x y z
#    x 3.355350 0.000000 0.000000 
#    y 0.000000 3.645410 0.000000 
#    z 0.000000 0.000000 3.169780 
# 
# 
# High freq. dielectric constant tensor:
#      x y z
#    x 1.675430 0.000000 0.000000 
#    y 0.000000 1.639820 0.000000 
#    z 0.000000 0.000000 1.655450 
# 
# From -- ./inp_files/13291.got.cif
#   From: 2010.03.12/outbox.cif.g09.slc.cpg/sg47_7_cif.got.tgz:13291.got - 2010.04.14 03:12:58.
