data_PCOD8196385
_publ_section_title
;
Structure prediction by ZEFSAII (Michael W. Deem and Ramdas Pophale) SiO2 
 PCOD8196385
Probable space group: P M M M
;
_chemical_formula_sum "Si O2"
_cell_formula_units_Z 64
_cell_length_a 9.237488
_cell_length_b 18.111921
_cell_length_c 20.550230
_cell_angle_alpha 90.000000
_cell_angle_beta 90.000000
_cell_angle_gamma 90.000000
_cell_volume 3438.231298
_symmetry_space_group_name_H-M "P M M M"
_symmetry_group_IT_number 47
_symmetry_cell_setting 'orthorhombic'
loop_
_space_group_symop_operation_xyz
x,y,z
-x,-y,z
x,-y,-z
-x,y,-z
-x,-y,-z
x,y,-z
-x,y,z
x,-y,z
loop_
_atom_site_type_symbol
_atom_site_label
_atom_site_fract_x
_atom_site_fract_y
_atom_site_fract_z
Si Si1 0.836989 0.917225 0.404482
Si Si2 0.329145 0.920545 0.144265
Si Si3 0.840341 0.870963 0.260360
Si Si4 0.660070 0.779561 0.925459
Si Si5 0.171008 0.418329 0.210970
Si Si6 0.829751 0.289737 0.693072
Si Si7 0.171375 0.366154 0.072671
Si Si8 0.332720 0.770993 0.572698
O O1 0.838471 0.914153 0.327292
O O2 0.731605 0.853908 0.431010
O O3 0.000000 0.902240 0.430588
O O4 0.786585 0.000000 0.425976
O O5 0.500000 0.916873 0.142769
O O6 0.277415 0.912189 0.217761
O O7 0.265324 0.852903 0.103274
O O8 0.276577 0.000000 0.116591
O O9 0.797947 0.784954 0.267681
O O10 0.000000 0.876404 0.228588
O O11 0.500000 0.761974 0.895285
O O12 0.771693 0.714888 0.912094
O O13 0.638354 0.795608 0.000000
O O14 0.215620 0.500000 0.235949
O O15 0.231883 0.357354 0.262081
O O16 0.226615 0.412667 0.135344
O O17 0.000000 0.407982 0.209174
O O18 0.748564 0.283615 0.623413
O O19 0.000000 0.299255 0.678129
O O20 0.000000 0.364629 0.070348
O O21 0.226885 0.393761 0.000000
O O22 0.318163 0.736850 0.500000
O O23 0.500000 0.776724 0.593910
#
# Coordination Sequence:
#
# PCOD8196385 Si02
#       8
#     8   8   8   8   8   8   8   8
#     4   9  18  32  49  70  98 132 167 201 240 290
#     4  10  20  30  41  61  86 113 152 202 250 291
#     4   9  17  30  47  66  90 121 156 191 231 281
#     4   9  18  32  47  61  82 117 158 198 240 285
#     4   9  17  30  51  80 109 132 158 197 242 286
#     4   9  18  33  53  74  97 129 166 202 240 288
#     4   9  17  30  50  75 102 132 163 194 231 281
#     4  10  21  35  51  73 100 130 166 209 254 296
#
# _framework density 18.614222000000002
#
# number of rings (size 3 to 8) (size 9 to 14) (size 15 to 20)
#    0.000    2.750    0.000    2.250    0.000    6.250 
#    0.000    4.375    0.000    1.875    0.000    7.000 
#    0.000    0.000    0.000    0.000    0.000    0.000 
#
# Total GULP energy -792850.805672 kJ/mol
# GULP energy per Si atom -12388.293839 kJ/mol
# Density = 1.857185 g / cm^3
# Si number density = 18.614222 Si / 1000 Ang^3
#
#
#
# Elastic Constant Matrix: (Units=GPa)
#
#
# Indices 1 2 3 4 5 6 
#
# 1 27.3275 17.0499 23.7129 0.0000 0.0000 0.0000
# 2 17.0499 93.6400 55.2621 0.0000 0.0000 0.0000
# 3 23.7129 55.2621 73.4808 0.0000 0.0000 0.0000
# 4 0.0000 0.0000 0.0000 3.5080 0.0000 0.0000
# 5 0.0000 0.0000 0.0000 0.0000 20.4392 0.0000
# 6 0.0000 0.0000 0.0000 0.0000 0.0000 12.5219
#
#
#
# Elastic Compliance Matrix: (Units=1/GPa)
#
#
# Indices 1 2 3 4 5 6 
#
# 1 0.050856 0.000765 -0.016987 0.000000 0.000000 0.000000
# 2 0.000765 0.019213 -0.014696 0.000000 0.000000 0.000000
# 3 -0.016987 -0.014696 0.030143 0.000000 0.000000 0.000000
# 4 0.000000 0.000000 0.000000 0.285059 0.000000 0.000000
# 5 0.000000 0.000000 0.000000 0.000000 0.048926 0.000000
# 6 0.000000 0.000000 0.000000 0.000000 0.000000 0.079860
#
#
# Mechanical properties :
#
#
# Convention : Reuss Voigt Hill
#
# Bulk Modulus (GPa) = 26.05800 42.94424 34.50112
# Shear Modulus (GPa) = 8.49349 13.85538 11.17444
#
# Velocity S-wave (km/s) = 2.13841 2.73123 2.45279
# Velocity P-wave (km/s) = 4.48625 5.75038 5.15719
#
# Compressibility (1/GPa) = 0.03837594
#
# Stress axis : x y z
#
# Youngs Moduli (GPa) = 19.66334 52.04830 33.17468
#
# Poissons Ratio (x) = -0.03983 0.56355
# Poissons Ratio (y) = -0.01505 0.48754
# Poissons Ratio (z) = 0.33403 0.76492
#
# Static dielectric constant tensor:
#      x y z
#    x 3.295590 0.000000 0.000000 
#    y 0.000000 3.533110 0.000000 
#    z 0.000000 0.000000 3.535200 
# 
# 
# High freq. dielectric constant tensor:
#      x y z
#    x 1.697850 0.000000 0.000000 
#    y 0.000000 1.709740 0.000000 
#    z 0.000000 0.000000 1.722100 
# 
# From -- ./inp_files/29994.got.cif
#   From: 2010.03.12/outbox.cif.g09.slc.cpg/sg47_15_cif.got.tgz:29994.got - 2010.04.14 03:12:58.
