data_PCOD8196573
_publ_section_title
;
Structure prediction by ZEFSAII (Michael W. Deem and Ramdas Pophale) SiO2 
 PCOD8196573
Probable space group: P M M M
;
_chemical_formula_sum "Si O2"
_cell_formula_units_Z 64
_cell_length_a 14.527472
_cell_length_b 9.065172
_cell_length_c 28.851020
_cell_angle_alpha 90.000000
_cell_angle_beta 90.000000
_cell_angle_gamma 90.000000
_cell_volume 3799.507163
_symmetry_space_group_name_H-M "P M M M"
_symmetry_group_IT_number 47
_symmetry_cell_setting 'orthorhombic'
loop_
_space_group_symop_operation_xyz
x,y,z
-x,-y,z
x,-y,-z
-x,y,-z
-x,-y,-z
x,y,-z
-x,y,z
x,-y,z
loop_
_atom_site_type_symbol
_atom_site_label
_atom_site_fract_x
_atom_site_fract_y
_atom_site_fract_z
Si Si1 0.277629 0.173863 0.949372
Si Si2 0.104780 0.672460 0.193930
Si Si3 0.891120 0.664680 0.449163
Si Si4 0.774168 0.324975 0.719727
Si Si5 0.107210 0.172985 0.358406
Si Si6 0.101995 0.171951 0.898408
Si Si7 0.393117 0.173408 0.761775
Si Si8 0.602700 0.175394 0.865685
O O1 0.169982 0.208706 0.940732
O O2 0.335489 0.244569 0.906981
O O3 0.295527 0.000000 0.950191
O O4 0.304492 0.240134 0.000000
O O5 0.113406 0.500000 0.185682
O O6 0.167395 0.726297 0.235949
O O7 0.140258 0.751305 0.147699
O O8 0.000000 0.719097 0.205077
O O9 0.852915 0.713501 0.500000
O O10 0.854689 0.500000 0.436958
O O11 0.860336 0.780436 0.409979
O O12 0.000000 0.660868 0.451509
O O13 0.769102 0.500000 0.714356
O O14 0.825618 0.259237 0.675663
O O15 0.671097 0.260521 0.725399
O O16 0.000000 0.216334 0.349432
O O17 0.122104 0.000000 0.352311
O O18 0.000000 0.229417 0.911699
O O19 0.101146 0.000000 0.887397
O O20 0.500000 0.209896 0.751143
O O21 0.367574 0.227480 0.814148
O O22 0.375073 0.000000 0.756274
O O23 0.500000 0.230514 0.875942
O O24 0.607766 0.000000 0.866387
#
# Coordination Sequence:
#
# PCOD8196573 Si02
#       8
#     8   8   8   8   8   8   8   8
#     4   9  16  24  36  57  83 107 131 164 207 254
#     4   9  18  31  45  62  85 114 147 181 219 264
#     4   8  14  26  44  64  89 126 169 208 244 279
#     4  11  21  31  46  67  93 123 152 188 234 281
#     4  10  20  31  44  66  97 132 168 203 237 276
#     4   9  17  28  42  59  78 104 139 175 209 249
#     4   9  18  33  51  68  88 116 149 186 228 275
#     4   8  14  25  41  60  81 106 135 167 208 260
#
# _framework density 16.844290000000001
#
# number of rings (size 3 to 8) (size 9 to 14) (size 15 to 20)
#    0.000    2.875    0.000    3.000    0.000    4.250 
#    0.000    5.000    0.000    0.375    0.000    1.750 
#    0.000    0.500    0.000   16.000    0.000   11.250 
#
# Total GULP energy -793185.785090 kJ/mol
# GULP energy per Si atom -12393.527892 kJ/mol
# Density = 1.680595 g / cm^3
# Si number density = 16.844290 Si / 1000 Ang^3
#
#
#
# Elastic Constant Matrix: (Units=GPa)
#
#
# Indices 1 2 3 4 5 6 
#
# 1 77.5903 29.3282 55.2537 0.0000 0.0000 0.0000
# 2 29.3282 41.6702 35.6670 0.0000 0.0000 0.0000
# 3 55.2537 35.6670 108.2791 0.0000 0.0000 0.0000
# 4 0.0000 0.0000 0.0000 18.6210 0.0000 0.0000
# 5 0.0000 0.0000 0.0000 0.0000 18.2275 0.0000
# 6 0.0000 0.0000 0.0000 0.0000 0.0000 16.8693
#
#
#
# Elastic Compliance Matrix: (Units=1/GPa)
#
#
# Indices 1 2 3 4 5 6 
#
# 1 0.022096 -0.008218 -0.008569 0.000000 0.000000 0.000000
# 2 -0.008218 0.036477 -0.007822 0.000000 0.000000 0.000000
# 3 -0.008569 -0.007822 0.016184 0.000000 0.000000 0.000000
# 4 0.000000 0.000000 0.000000 0.053703 0.000000 0.000000
# 5 0.000000 0.000000 0.000000 0.000000 0.054862 0.000000
# 6 0.000000 0.000000 0.000000 0.000000 0.000000 0.059279
#
#
# Mechanical properties :
#
#
# Convention : Reuss Voigt Hill
#
# Bulk Modulus (GPa) = 39.15275 52.00419 45.57847
# Shear Modulus (GPa) = 16.64823 17.89626 17.27224
#
# Velocity S-wave (km/s) = 3.14723 3.26306 3.20567
# Velocity P-wave (km/s) = 6.04162 6.71843 6.38899
#
# Compressibility (1/GPa) = 0.02554099
#
# Stress axis : x y z
#
# Youngs Moduli (GPa) = 45.25654 27.41466 61.78757
#
# Poissons Ratio (x) = 0.22528 0.52944
# Poissons Ratio (y) = 0.37190 0.48331
# Poissons Ratio (z) = 0.38779 0.21444
#
# Static dielectric constant tensor:
#      x y z
#    x 3.141950 0.000000 0.000000 
#    y 0.000000 2.890310 0.000000 
#    z 0.000000 0.000000 3.380810 
# 
# 
# High freq. dielectric constant tensor:
#      x y z
#    x 1.631260 0.000000 0.000000 
#    y 0.000000 1.622880 0.000000 
#    z 0.000000 0.000000 1.642580 
# 
# From -- ./inp_files/34658.got.cif
#   From: 2010.03.12/outbox.cif.g09.slc.cpg/sg47_18_cif.got.tgz:34658.got - 2010.04.14 03:12:58.
