data_PCOD8196984
_publ_section_title
;
Structure prediction by ZEFSAII (Michael W. Deem and Ramdas Pophale) SiO2 
 PCOD8196984
Probable space group: P M M M
;
_chemical_formula_sum "Si O2"
_cell_formula_units_Z 52
_cell_length_a 7.904885
_cell_length_b 14.342406
_cell_length_c 24.661701
_cell_angle_alpha 90.000000
_cell_angle_beta 90.000000
_cell_angle_gamma 90.000000
_cell_volume 2796.022079
_symmetry_space_group_name_H-M "P M M M"
_symmetry_group_IT_number 47
_symmetry_cell_setting 'orthorhombic'
loop_
_space_group_symop_operation_xyz
x,y,z
-x,-y,z
x,-y,-z
-x,y,-z
-x,-y,-z
x,y,-z
-x,y,z
x,-y,z
loop_
_atom_site_type_symbol
_atom_site_label
_atom_site_fract_x
_atom_site_fract_y
_atom_site_fract_z
Si Si1 0.804422 0.893645 0.239734
Si Si2 0.691898 0.217899 0.340896
Si Si3 0.500000 0.892594 0.063958
Si Si4 0.196774 0.399455 0.288412
Si Si5 0.701300 0.895554 0.559815
Si Si6 0.199061 0.796389 0.874196
Si Si7 0.200205 0.602760 0.831552
O O1 0.702159 0.847177 0.288290
O O2 0.767117 0.840388 0.184360
O O3 0.000000 0.886230 0.255247
O O4 0.744866 0.000000 0.232883
O O5 0.500000 0.235014 0.355818
O O6 0.769305 0.319381 0.331634
O O7 0.780792 0.169868 0.393165
O O8 0.674067 0.844998 0.083983
O O9 0.500000 0.000000 0.082875
O O10 0.500000 0.883560 0.000000
O O11 0.266746 0.500000 0.309396
O O12 0.275689 0.377946 0.228802
O O13 0.000000 0.407424 0.279435
O O14 0.755444 0.858890 0.500000
O O15 0.500000 0.898134 0.564631
O O16 0.771941 0.000000 0.568518
O O17 0.253197 0.686888 0.871619
O O18 0.000000 0.809885 0.891103
O O19 0.262152 0.500000 0.852450
O O20 0.000000 0.603939 0.828040
#
# Coordination Sequence:
#
# PCOD8196984 Si02
#       7
#     8   8   4   8   8   8   8
#     4  10  20  32  47  72 107 143 172 204 256 320
#     4  11  20  28  46  75 103 129 164 217 271 317
#     4  11  26  44  61  83 111 147 193 237 269 310
#     4   9  17  31  49  68  98 138 170 199 247 315
#     4   8  15  29  46  64  91 130 175 216 256 309
#     4  10  20  37  60  83 112 147 183 225 276 328
#     4   8  14  28  53  81 107 139 178 215 259 323
#
# _framework density 18.597850000000001
#
# number of rings (size 3 to 8) (size 9 to 14) (size 15 to 20)
#    0.000    2.538    1.538    2.769    1.077    2.462 
#    0.000    1.154    0.000    3.231    0.000   10.769 
#    0.000    0.000    0.000    0.000    0.000    0.000 
#
# Total GULP energy -644309.248346 kJ/mol
# GULP energy per Si atom -12390.562468 kJ/mol
# Density = 1.855552 g / cm^3
# Si number density = 18.597850 Si / 1000 Ang^3
#
#
#
# Elastic Constant Matrix: (Units=GPa)
#
#
# Indices 1 2 3 4 5 6 
#
# 1 44.2567 32.1244 28.0186 0.0000 0.0000 0.0000
# 2 32.1244 165.7074 61.5619 0.0000 0.0000 0.0000
# 3 28.0186 61.5619 87.9260 0.0000 0.0000 0.0000
# 4 0.0000 0.0000 0.0000 21.0214 0.0000 0.0000
# 5 0.0000 0.0000 0.0000 0.0000 -5.3093 0.0000
# 6 0.0000 0.0000 0.0000 0.0000 0.0000 18.2621
#
#
#
# Elastic Compliance Matrix: (Units=1/GPa)
#
#
# Indices 1 2 3 4 5 6 
#
# 1 0.029366 -0.002996 -0.007260 0.000000 0.000000 0.000000
# 2 -0.002996 0.008462 -0.004970 0.000000 0.000000 0.000000
# 3 -0.007260 -0.004970 0.017167 0.000000 0.000000 0.000000
# 4 0.000000 0.000000 0.000000 0.047570 0.000000 0.000000
# 5 0.000000 0.000000 0.000000 0.000000 -0.188349 0.000000
# 6 0.000000 0.000000 0.000000 0.000000 0.000000 0.054758
#
#
# Mechanical properties :
#
#
# Convention : Reuss Voigt Hill
#
# Bulk Modulus (GPa) = 40.74554 60.14440 50.44497
# Shear Modulus (GPa) = 657.22268 18.54053 337.88161
#
# Velocity S-wave (km/s) = 18.81897 3.16083 13.49341
# Velocity P-wave (km/s) = 22.22973 6.76245 16.43003
#
# Compressibility (1/GPa) = 0.02454257
#
# Stress axis : x y z
#
# Youngs Moduli (GPa) = 34.05242 118.17671 58.25252
#
# Poissons Ratio (x) = 0.35402 0.42294
# Poissons Ratio (y) = 0.10201 0.28952
# Poissons Ratio (z) = 0.24724 0.58734
#
# Static dielectric constant tensor:
#      x y z
#    x 3.175880 0.000000 0.000000 
#    y 0.000000 4.208760 0.000000 
#    z 0.000000 0.000000 3.372930 
# 
# 
# High freq. dielectric constant tensor:
#      x y z
#    x 1.700990 0.000000 0.000000 
#    y 0.000000 1.735210 0.000000 
#    z 0.000000 0.000000 1.688440 
# 
# From -- ./inp_files/29615.got.cif
#   From: 2010.03.12/outbox.cif.g09.slc.cpg/sg47_15_cif.got.tgz:29615.got - 2010.04.14 03:12:58.
