data_PCOD8196430
_publ_section_title
;
Structure prediction by ZEFSAII (Michael W. Deem and Ramdas Pophale) SiO2 
 PCOD8196430
Probable space group: P M M M
;
_chemical_formula_sum "Si O2"
_cell_formula_units_Z 40
_cell_length_a 17.565217
_cell_length_b 17.681598
_cell_length_c 9.225752
_cell_angle_alpha 90.000000
_cell_angle_beta 90.000000
_cell_angle_gamma 90.000000
_cell_volume 2865.344258
_symmetry_space_group_name_H-M "P M M M"
_symmetry_group_IT_number 47
_symmetry_cell_setting 'orthorhombic'
loop_
_space_group_symop_operation_xyz
x,y,z
-x,-y,z
x,-y,-z
-x,y,-z
-x,-y,-z
x,y,-z
-x,y,z
x,-y,z
loop_
_atom_site_type_symbol
_atom_site_label
_atom_site_fract_x
_atom_site_fract_y
_atom_site_fract_z
Si Si1 0.910537 0.793972 0.167922
Si Si2 0.909415 0.645887 0.335753
Si Si3 0.188161 0.088158 0.331157
Si Si4 0.500000 0.090384 0.838399
Si Si5 0.090811 0.500000 0.835418
Si Si6 0.358095 0.910173 0.339578
O O1 0.880395 0.720857 0.254533
O O2 0.870610 0.867840 0.231097
O O3 0.000000 0.804989 0.189990
O O4 0.889621 0.783532 0.000000
O O5 0.877621 0.644894 0.500000
O O6 0.877835 0.573501 0.248667
O O7 0.000000 0.643730 0.337134
O O8 0.173709 0.106397 0.500000
O O9 0.273841 0.113097 0.285929
O O10 0.175421 0.000000 0.300560
O O11 0.423823 0.122958 0.763386
O O12 0.500000 0.000000 0.834157
O O13 0.500000 0.121984 0.000000
O O14 0.000000 0.500000 0.837016
O O15 0.122001 0.500000 0.000000
O O16 0.372726 0.877562 0.500000
O O17 0.362785 0.000000 0.344830
#
# Coordination Sequence:
#
# PCOD8196430 Si02
#       6
#     8   8   8   4   4   8
#     4  10  20  31  41  54  73  97 126 162 203 239
#     4   9  16  26  40  56  73  94 121 151 183 223
#     4   9  18  31  44  56  70  93 128 166 200 233
#     4   9  15  21  33  55  77  93 111 138 175 220
#     4   9  15  23  37  57  79  97 113 140 181 226
#     4   8  14  25  39  53  70  92 117 146 182 224
#
# _framework density 13.959928
#
# number of rings (size 3 to 8) (size 9 to 14) (size 15 to 20)
#    0.000    3.000    0.000    3.000    0.000    7.600 
#    0.000    4.000    0.000    0.000    0.000    0.000 
#    0.000    0.000    0.000    0.000    0.000    1.000 
#
# Total GULP energy -495851.275515 kJ/mol
# GULP energy per Si atom -12396.281888 kJ/mol
# Density = 1.392815 g / cm^3
# Si number density = 13.959928 Si / 1000 Ang^3
#
#
#
# Elastic Constant Matrix: (Units=GPa)
#
#
# Indices 1 2 3 4 5 6 
#
# 1 44.8509 30.7400 43.4435 0.0000 0.0000 0.0000
# 2 30.7400 65.0208 52.2287 0.0000 0.0000 0.0000
# 3 43.4435 52.2287 122.0773 0.0000 0.0000 0.0000
# 4 0.0000 0.0000 0.0000 23.8440 0.0000 0.0000
# 5 0.0000 0.0000 0.0000 0.0000 17.0892 0.0000
# 6 0.0000 0.0000 0.0000 0.0000 0.0000 0.2742
#
#
#
# Elastic Compliance Matrix: (Units=1/GPa)
#
#
# Indices 1 2 3 4 5 6 
#
# 1 0.038566 -0.010983 -0.009026 0.000000 0.000000 0.000000
# 2 -0.010983 0.026560 -0.007455 0.000000 0.000000 0.000000
# 3 -0.009026 -0.007455 0.014593 0.000000 0.000000 0.000000
# 4 0.000000 0.000000 0.000000 0.041939 0.000000 0.000000
# 5 0.000000 0.000000 0.000000 0.000000 0.058517 0.000000
# 6 0.000000 0.000000 0.000000 0.000000 0.000000 3.646718
#
#
# Mechanical properties :
#
#
# Convention : Reuss Voigt Hill
#
# Bulk Modulus (GPa) = 40.33502 53.86371 47.09937
# Shear Modulus (GPa) = 1.28532 15.27725 8.28129
#
# Velocity S-wave (km/s) = 0.96058 3.31171 2.43825
# Velocity P-wave (km/s) = 5.49422 7.30010 6.46057
#
# Compressibility (1/GPa) = 0.02479235
#
# Stress axis : x y z
#
# Youngs Moduli (GPa) = 25.92956 37.65000 68.52654
#
# Poissons Ratio (x) = 0.41351 0.61849
# Poissons Ratio (y) = 0.28479 0.51086
# Poissons Ratio (z) = 0.23403 0.28068
#
# Static dielectric constant tensor:
#      x y z
#    x 2.572170 0.000000 0.000000 
#    y 0.000000 2.537070 0.000000 
#    z 0.000000 0.000000 2.955250 
# 
# 
# High freq. dielectric constant tensor:
#      x y z
#    x 1.494790 0.000000 0.000000 
#    y 0.000000 1.498150 0.000000 
#    z 0.000000 0.000000 1.548260 
# 
# From -- ./inp_files/6683.got.cif
#   From: 2010.03.12/outbox.cif.g09.slc.cpg/sg47_4_cif.got.tgz:6683.got - 2010.04.14 03:12:58.
