data_PCOD8196572
_publ_section_title
;
Structure prediction by ZEFSAII (Michael W. Deem and Ramdas Pophale) SiO2 
 PCOD8196572
Probable space group: P M M M
;
_chemical_formula_sum "Si O2"
_cell_formula_units_Z 52
_cell_length_a 22.471337
_cell_length_b 15.004492
_cell_length_c 9.175163
_cell_angle_alpha 90.000000
_cell_angle_beta 90.000000
_cell_angle_gamma 90.000000
_cell_volume 3093.598849
_symmetry_space_group_name_H-M "P M M M"
_symmetry_group_IT_number 47
_symmetry_cell_setting 'orthorhombic'
loop_
_space_group_symop_operation_xyz
x,y,z
-x,-y,z
x,-y,-z
-x,y,-z
-x,-y,-z
x,y,-z
-x,y,z
x,-y,z
loop_
_atom_site_type_symbol
_atom_site_label
_atom_site_fract_x
_atom_site_fract_y
_atom_site_fract_z
Si Si1 0.226474 0.901981 0.330371
Si Si2 0.093503 0.285514 0.835098
Si Si3 0.679312 0.394480 0.333034
Si Si4 0.000000 0.398128 0.328438
Si Si5 0.233472 0.270775 0.169610
Si Si6 0.434502 0.394133 0.836295
Si Si7 0.106721 0.094880 0.164701
O O1 0.229968 0.877395 0.500000
O O2 0.257215 0.822478 0.238831
O O3 0.158123 0.907582 0.283488
O O4 0.256064 0.000000 0.301234
O O5 0.163546 0.285012 0.799974
O O6 0.067779 0.184292 0.809839
O O7 0.059819 0.352414 0.729550
O O8 0.081165 0.316892 0.000000
O O9 0.683734 0.364922 0.500000
O O10 0.684256 0.500000 0.314365
O O11 0.733427 0.352926 0.243815
O O12 0.616399 0.357707 0.271273
O O13 0.000000 0.500000 0.276708
O O14 0.000000 0.389571 0.500000
O O15 0.248565 0.269885 0.000000
O O16 0.500000 0.360064 0.785403
O O17 0.434213 0.500000 0.834288
O O18 0.421197 0.360012 0.000000
O O19 0.070779 0.000000 0.176640
O O20 0.134299 0.103452 0.000000
#
# Coordination Sequence:
#
# PCOD8196572 Si02
#       7
#     8   8   8   4   8   8   8
#     4   9  16  26  43  68  96 124 152 184 226 275
#     4   9  19  35  54  73  90 114 149 187 228 273
#     4  10  20  31  44  66  97 130 161 196 238 281
#     4  11  25  41  54  67  84 112 151 195 240 281
#     4  10  20  33  50  71  95 124 157 193 233 279
#     4   8  14  26  44  64  88 122 162 199 233 272
#     4   8  14  27  48  73  98 120 142 170 211 269
#
# _framework density 16.808900999999999
#
# number of rings (size 3 to 8) (size 9 to 14) (size 15 to 20)
#    0.000    2.846    0.000    3.000    0.000    6.462 
#    0.000    5.000    0.000    2.308    0.000    0.000 
#    0.000    0.615    0.000    6.462    0.000    3.231 
#
# Total GULP energy -644250.217364 kJ/mol
# GULP energy per Si atom -12389.427257 kJ/mol
# Density = 1.677064 g / cm^3
# Si number density = 16.808901 Si / 1000 Ang^3
#
#
#
# Elastic Constant Matrix: (Units=GPa)
#
#
# Indices 1 2 3 4 5 6 
#
# 1 68.6128 39.8912 43.3019 0.0000 0.0000 0.0000
# 2 39.8912 96.4923 54.2361 0.0000 0.0000 0.0000
# 3 43.3019 54.2361 104.1485 0.0000 0.0000 0.0000
# 4 0.0000 0.0000 0.0000 27.3780 0.0000 0.0000
# 5 0.0000 0.0000 0.0000 0.0000 22.2845 0.0000
# 6 0.0000 0.0000 0.0000 0.0000 0.0000 -1.0474
#
#
#
# Elastic Compliance Matrix: (Units=1/GPa)
#
#
# Indices 1 2 3 4 5 6 
#
# 1 0.021644 -0.005500 -0.006135 0.000000 0.000000 0.000000
# 2 -0.005500 0.016050 -0.006071 0.000000 0.000000 0.000000
# 3 -0.006135 -0.006071 0.015314 0.000000 0.000000 0.000000
# 4 0.000000 0.000000 0.000000 0.036526 0.000000 0.000000
# 5 0.000000 0.000000 0.000000 0.000000 0.044874 0.000000
# 6 0.000000 0.000000 0.000000 0.000000 0.000000 -0.954716
#
#
# Mechanical properties :
#
#
# Convention : Reuss Voigt Hill
#
# Bulk Modulus (GPa) = 56.83175 60.45689 58.64432
# Shear Modulus (GPa) = -6.41823 18.51131 6.04654
#
# Velocity S-wave (km/s) = -1.95618 3.32215 1.89869
# Velocity P-wave (km/s) = 5.36486 7.12467 6.30645
#
# Compressibility (1/GPa) = 0.01759580
#
# Stress axis : x y z
#
# Youngs Moduli (GPa) = 46.20283 62.30631 65.29913
#
# Poissons Ratio (x) = 0.34265 0.40060
# Poissons Ratio (y) = 0.25409 0.39646
# Poissons Ratio (z) = 0.28345 0.37829
#
# Static dielectric constant tensor:
#      x y z
#    x 2.943580 0.000000 0.000000 
#    y 0.000000 3.356300 0.000000 
#    z 0.000000 0.000000 3.234410 
# 
# 
# High freq. dielectric constant tensor:
#      x y z
#    x 1.608720 0.000000 0.000000 
#    y 0.000000 1.640400 0.000000 
#    z 0.000000 0.000000 1.656810 
# 
# From -- ./inp_files/11041.got.cif
#   From: 2010.03.12/outbox.cif.g09.slc.cpg/sg47_6_cif.got.tgz:11041.got - 2010.04.14 03:12:58.
