data_PCOD8196124
_publ_section_title
;
Structure prediction by ZEFSAII (Michael W. Deem and Ramdas Pophale) SiO2 
 PCOD8196124
Probable space group: P M M M
;
_chemical_formula_sum "Si O2"
_cell_formula_units_Z 52
_cell_length_a 15.090593
_cell_length_b 8.726931
_cell_length_c 20.364673
_cell_angle_alpha 90.000000
_cell_angle_beta 90.000000
_cell_angle_gamma 90.000000
_cell_volume 2681.916729
_symmetry_space_group_name_H-M "P M M M"
_symmetry_group_IT_number 47
_symmetry_cell_setting 'orthorhombic'
loop_
_space_group_symop_operation_xyz
x,y,z
-x,-y,z
x,-y,-z
-x,y,-z
-x,-y,-z
x,y,-z
-x,y,z
x,-y,z
loop_
_atom_site_type_symbol
_atom_site_label
_atom_site_fract_x
_atom_site_fract_y
_atom_site_fract_z
Si Si1 0.843267 0.320655 0.132750
Si Si2 0.101334 0.820142 0.269175
Si Si3 0.000000 0.165076 0.072621
Si Si4 0.597833 0.675985 0.804444
Si Si5 0.668504 0.180516 0.925652
Si Si6 0.598908 0.318055 0.573224
Si Si7 0.725477 0.682571 0.687275
O O1 0.824224 0.500000 0.133826
O O2 0.879845 0.268422 0.202499
O O3 0.756929 0.233922 0.109812
O O4 0.916800 0.274108 0.081366
O O5 0.176765 0.758145 0.319052
O O6 0.000000 0.783552 0.292894
O O7 0.113799 0.000000 0.259121
O O8 0.000000 0.000000 0.113621
O O9 0.000000 0.106209 0.000000
O O10 0.500000 0.695503 0.772110
O O11 0.617960 0.500000 0.820159
O O12 0.593991 0.763856 0.874474
O O13 0.673640 0.734990 0.753840
O O14 0.666862 0.000000 0.931150
O O15 0.656969 0.248578 0.000000
O O16 0.627532 0.265558 0.500000
O O17 0.500000 0.255682 0.589085
O O18 0.597052 0.500000 0.577646
O O19 0.669227 0.253696 0.625647
O O20 0.734966 0.500000 0.685528
#
# Coordination Sequence:
#
# PCOD8196124 Si02
#       7
#     8   8   4   8   8   8   8
#     4  12  23  36  56  79 103 134 178 232 288 344
#     4  11  23  38  57  79 109 147 186 231 286 344
#     4  11  23  37  53  75 105 139 174 219 282 351
#     4  10  21  36  55  81 111 143 183 233 286 338
#     4  11  24  40  56  74 102 142 186 233 285 341
#     4   8  14  27  52  89 129 162 189 221 269 329
#     4  10  19  33  57  87 117 149 188 233 277 328
#
# _framework density 19.389116999999999
#
# number of rings (size 3 to 8) (size 9 to 14) (size 15 to 20)
#    0.000    1.615    2.308    3.923    0.000    7.077 
#    0.000    1.538    0.000    2.308    0.000    4.308 
#    0.000    0.000    0.000    0.000    0.000    0.000 
#
# Total GULP energy -644346.587019 kJ/mol
# GULP energy per Si atom -12391.280520 kJ/mol
# Density = 1.934499 g / cm^3
# Si number density = 19.389117 Si / 1000 Ang^3
#
#
#
# Elastic Constant Matrix: (Units=GPa)
#
#
# Indices 1 2 3 4 5 6 
#
# 1 124.7618 7.2314 47.7624 0.0000 0.0000 0.0000
# 2 7.2314 -5.7003 12.3026 0.0000 0.0000 0.0000
# 3 47.7624 12.3026 112.9635 0.0000 0.0000 0.0000
# 4 0.0000 0.0000 0.0000 8.7232 0.0000 0.0000
# 5 0.0000 0.0000 0.0000 0.0000 27.8181 0.0000
# 6 0.0000 0.0000 0.0000 0.0000 0.0000 59.9664
#
#
#
# Elastic Compliance Matrix: (Units=1/GPa)
#
#
# Indices 1 2 3 4 5 6 
#
# 1 0.009510 0.002742 -0.004320 0.000000 0.000000 0.000000
# 2 0.002742 -0.141252 0.014224 0.000000 0.000000 0.000000
# 3 -0.004320 0.014224 0.009130 0.000000 0.000000 0.000000
# 4 0.000000 0.000000 0.000000 0.114637 0.000000 0.000000
# 5 0.000000 0.000000 0.000000 0.000000 0.035948 0.000000
# 6 0.000000 0.000000 0.000000 0.000000 0.000000 0.016676
#
#
# Mechanical properties :
#
#
# Convention : Reuss Voigt Hill
#
# Bulk Modulus (GPa) = -10.27547 40.73535 15.22994
# Shear Modulus (GPa) = -382.13842 30.28345 -175.92748
#
# Velocity S-wave (km/s) = -14.05407 3.95635 -9.53584
# Velocity P-wave (km/s) = 16.39107 6.47497 10.64758
#
# Compressibility (1/GPa) = -0.09731916
#
# Stress axis : x y z
#
# Youngs Moduli (GPa) = 105.15245 -7.07956 109.53327
#
# Poissons Ratio (x) = 0.01941 0.47313
# Poissons Ratio (y) = -0.28831 -1.55802
# Poissons Ratio (z) = 0.45421 0.10070
#
# Static dielectric constant tensor:
#      x y z
#    x 4.062100 0.000000 0.000000 
#    y 0.000000 3.443020 0.000000 
#    z 0.000000 0.000000 3.712820 
# 
# 
# High freq. dielectric constant tensor:
#      x y z
#    x 1.766070 0.000000 0.000000 
#    y 0.000000 1.738160 0.000000 
#    z 0.000000 0.000000 1.734620 
# 
# From -- ./inp_files/30861.got.cif
#   From: 2010.03.12/outbox.cif.g09.slc.cpg/sg47_16_cif.got.tgz:30861.got - 2010.04.14 03:12:58.
