data_PCOD8196329
_publ_section_title
;
Structure prediction by ZEFSAII (Michael W. Deem and Ramdas Pophale) SiO2 
 PCOD8196329
Probable space group: P M M M
;
_chemical_formula_sum "Si O2"
_cell_formula_units_Z 64
_cell_length_a 25.279045
_cell_length_b 14.328277
_cell_length_c 9.214718
_cell_angle_alpha 90.000000
_cell_angle_beta 90.000000
_cell_angle_gamma 90.000000
_cell_volume 3337.618399
_symmetry_space_group_name_H-M "P M M M"
_symmetry_group_IT_number 47
_symmetry_cell_setting 'orthorhombic'
loop_
_space_group_symop_operation_xyz
x,y,z
-x,-y,z
x,-y,-z
-x,y,-z
-x,-y,-z
x,y,-z
-x,y,z
x,-y,z
loop_
_atom_site_type_symbol
_atom_site_label
_atom_site_fract_x
_atom_site_fract_y
_atom_site_fract_z
Si Si1 0.559136 0.230431 0.831890
Si Si2 0.145489 0.892302 0.330233
Si Si3 0.654097 0.895907 0.171958
Si Si4 0.287727 0.603832 0.165253
Si Si5 0.239177 0.206442 0.831977
Si Si6 0.937181 0.397263 0.662821
Si Si7 0.394570 0.606188 0.331530
Si Si8 0.062236 0.218419 0.832231
O O1 0.500000 0.189980 0.809263
O O2 0.601726 0.156567 0.769472
O O3 0.563366 0.327682 0.746739
O O4 0.570620 0.250960 0.000000
O O5 0.139989 0.872633 0.500000
O O6 0.192306 0.830317 0.266636
O O7 0.090584 0.864966 0.253247
O O8 0.157525 0.000000 0.297288
O O9 0.706359 0.840819 0.221231
O O10 0.655431 0.000000 0.238953
O O11 0.651547 0.901520 0.000000
O O12 0.264145 0.500000 0.194316
O O13 0.242878 0.681760 0.192636
O O14 0.336426 0.624777 0.269480
O O15 0.308553 0.612739 0.000000
O O16 0.227544 0.182080 0.000000
O O17 0.916919 0.375062 0.500000
O O18 0.916594 0.500000 0.712231
O O19 0.916490 0.317865 0.771967
O O20 0.000000 0.397796 0.664225
O O21 0.393163 0.630572 0.500000
O O22 0.412411 0.500000 0.303410
O O23 0.000000 0.206125 0.807276
O O24 0.077795 0.213506 0.000000
#
# Coordination Sequence:
#
# PCOD8196329 Si02
#       8
#     8   8   8   8   8   8   8   8
#     4  10  20  34  52  76 107 143 185 230 275 327
#     4  11  25  42  59  82 112 147 189 236 286 339
#     4   9  17  31  53  81 108 136 176 225 278 331
#     4   9  17  32  57  86 114 143 177 218 266 325
#     4  10  19  35  60  85 111 143 179 224 277 331
#     4   8  14  27  50  80 114 152 190 226 268 320
#     4  10  20  33  51  76 107 143 180 221 272 328
#     4  10  21  37  59  87 117 151 192 236 282 334
#
# _framework density 19.175350000000002
#
# number of rings (size 3 to 8) (size 9 to 14) (size 15 to 20)
#    0.000    2.375    1.250    1.875    0.000    4.750 
#    0.000    5.625    0.000    2.625    0.000    0.875 
#    0.000    0.000    0.000    0.000    0.000    0.000 
#
# Total GULP energy -793548.483127 kJ/mol
# GULP energy per Si atom -12399.195049 kJ/mol
# Density = 1.913171 g / cm^3
# Si number density = 19.175350 Si / 1000 Ang^3
#
#
#
# Elastic Constant Matrix: (Units=GPa)
#
#
# Indices 1 2 3 4 5 6 
#
# 1 82.8681 51.4206 41.7148 0.0000 0.0000 0.0000
# 2 51.4206 124.0267 50.2530 0.0000 0.0000 0.0000
# 3 41.7148 50.2530 83.8896 0.0000 0.0000 0.0000
# 4 0.0000 0.0000 0.0000 25.3625 0.0000 0.0000
# 5 0.0000 0.0000 0.0000 0.0000 20.0556 0.0000
# 6 0.0000 0.0000 0.0000 0.0000 0.0000 26.0587
#
#
#
# Elastic Compliance Matrix: (Units=1/GPa)
#
#
# Indices 1 2 3 4 5 6 
#
# 1 0.018286 -0.005146 -0.006010 0.000000 0.000000 0.000000
# 2 -0.005146 0.012095 -0.004687 0.000000 0.000000 0.000000
# 3 -0.006010 -0.004687 0.017716 0.000000 0.000000 0.000000
# 4 0.000000 0.000000 0.000000 0.039428 0.000000 0.000000
# 5 0.000000 0.000000 0.000000 0.000000 0.049862 0.000000
# 6 0.000000 0.000000 0.000000 0.000000 0.000000 0.038375
#
#
# Mechanical properties :
#
#
# Convention : Reuss Voigt Hill
#
# Bulk Modulus (GPa) = 60.93073 64.17344 62.55208
# Shear Modulus (GPa) = 23.48315 24.12175 23.80245
#
# Velocity S-wave (km/s) = 3.50330 3.55062 3.52704
# Velocity P-wave (km/s) = 6.94325 7.09566 7.01987
#
# Compressibility (1/GPa) = 0.01641208
#
# Stress axis : x y z
#
# Youngs Moduli (GPa) = 54.68662 82.67757 56.44465
#
# Poissons Ratio (x) = 0.42546 0.33924
# Poissons Ratio (y) = 0.28142 0.26453
# Poissons Ratio (z) = 0.32868 0.38747
#
# Static dielectric constant tensor:
#      x y z
#    x 3.273150 0.000000 0.000000 
#    y 0.000000 3.869050 0.000000 
#    z 0.000000 0.000000 3.405900 
# 
# 
# High freq. dielectric constant tensor:
#      x y z
#    x 1.725700 0.000000 0.000000 
#    y 0.000000 1.756630 0.000000 
#    z 0.000000 0.000000 1.729720 
# 
# From -- ./inp_files/12666.got.cif
#   From: 2010.03.12/outbox.cif.g09.slc.cpg/sg47_7_cif.got.tgz:12666.got - 2010.04.14 03:12:58.
