data_PCOD8196003
_publ_section_title
;
Structure prediction by ZEFSAII (Michael W. Deem and Ramdas Pophale) SiO2 
 PCOD8196003
Probable space group: P M M M
;
_chemical_formula_sum "Si O2"
_cell_formula_units_Z 52
_cell_length_a 28.276128
_cell_length_b 9.113204
_cell_length_c 11.833127
_cell_angle_alpha 90.000000
_cell_angle_beta 90.000000
_cell_angle_gamma 90.000000
_cell_volume 3049.232617
_symmetry_space_group_name_H-M "P M M M"
_symmetry_group_IT_number 47
_symmetry_cell_setting 'orthorhombic'
loop_
_space_group_symop_operation_xyz
x,y,z
-x,-y,z
x,-y,-z
-x,y,-z
-x,-y,-z
x,y,-z
-x,y,z
x,-y,z
loop_
_atom_site_type_symbol
_atom_site_label
_atom_site_fract_x
_atom_site_fract_y
_atom_site_fract_z
Si Si1 0.946233 0.169091 0.783806
Si Si2 0.862997 0.173347 0.625318
Si Si3 0.799754 0.674245 0.000000
Si Si4 0.091280 0.326821 0.000000
Si Si5 0.591544 0.665304 0.634506
Si Si6 0.500000 0.165679 0.365124
Si Si7 0.224105 0.826925 0.225811
Si Si8 0.315545 0.170351 0.370402
O O1 0.912853 0.218762 0.680674
O O2 0.935590 0.266869 0.891617
O O3 0.000000 0.193338 0.744190
O O4 0.936570 0.000000 0.816446
O O5 0.860278 0.243611 0.500000
O O6 0.820370 0.233115 0.702332
O O7 0.858070 0.000000 0.615093
O O8 0.854364 0.725196 0.000000
O O9 0.773751 0.740413 0.108707
O O10 0.794567 0.500000 0.000000
O O11 0.087442 0.500000 0.000000
O O12 0.590182 0.667913 0.500000
O O13 0.589618 0.500000 0.681189
O O14 0.546402 0.752730 0.682619
O O15 0.639661 0.740677 0.677108
O O16 0.500000 0.167616 0.500000
O O17 0.500000 0.000000 0.319118
O O18 0.270846 0.787158 0.295188
O O19 0.219835 0.000000 0.201988
O O20 0.303835 0.212056 0.500000
O O21 0.328252 0.000000 0.360644
#
# Coordination Sequence:
#
# PCOD8196003 Si02
#       8
#     8   8   4   4   8   4   8   8
#     4  10  20  33  52  77 101 125 156 196 239 285
#     4   9  17  30  50  75 100 125 155 192 235 284
#     4  11  23  36  52  73  96 121 155 200 245 288
#     4  11  22  36  53  72  96 126 159 197 241 288
#     4   9  16  25  38  59  90 129 168 202 241 289
#     4   9  15  23  37  57  85 124 169 214 251 281
#     4  10  19  33  54  74  94 124 160 197 240 290
#     4   9  17  29  46  70  98 126 160 200 240 287
#
# _framework density 17.053470999999998
#
# number of rings (size 3 to 8) (size 9 to 14) (size 15 to 20)
#    0.000    2.385    1.538    1.846    0.000    7.385 
#    0.000    1.538    0.000    2.769    0.000    1.077 
#    0.000    0.615    0.000    6.462    0.000    4.923 
#
# Total GULP energy -644857.191596 kJ/mol
# GULP energy per Si atom -12401.099838 kJ/mol
# Density = 1.701466 g / cm^3
# Si number density = 17.053471 Si / 1000 Ang^3
#
#
#
# Elastic Constant Matrix: (Units=GPa)
#
#
# Indices 1 2 3 4 5 6 
#
# 1 153.6888 60.7554 54.5585 0.0000 0.0000 0.0000
# 2 60.7554 72.5132 34.7665 0.0000 0.0000 0.0000
# 3 54.5585 34.7665 100.3754 0.0000 0.0000 0.0000
# 4 0.0000 0.0000 0.0000 5.8316 0.0000 0.0000
# 5 0.0000 0.0000 0.0000 0.0000 20.6468 0.0000
# 6 0.0000 0.0000 0.0000 0.0000 0.0000 22.9175
#
#
#
# Elastic Compliance Matrix: (Units=1/GPa)
#
#
# Indices 1 2 3 4 5 6 
#
# 1 0.010520 -0.007282 -0.003196 0.000000 0.000000 0.000000
# 2 -0.007282 0.021577 -0.003516 0.000000 0.000000 0.000000
# 3 -0.003196 -0.003516 0.012917 0.000000 0.000000 0.000000
# 4 0.000000 0.000000 0.000000 0.171480 0.000000 0.000000
# 5 0.000000 0.000000 0.000000 0.000000 0.048434 0.000000
# 6 0.000000 0.000000 0.000000 0.000000 0.000000 0.043635
#
#
# Mechanical properties :
#
#
# Convention : Reuss Voigt Hill
#
# Bulk Modulus (GPa) = 58.72709 69.63759 64.18234
# Shear Modulus (GPa) = 14.61026 21.64564 18.12795
#
# Velocity S-wave (km/s) = 2.93017 3.56656 3.26392
# Velocity P-wave (km/s) = 6.77936 7.60815 7.20568
#
# Compressibility (1/GPa) = 0.01702792
#
# Stress axis : x y z
#
# Youngs Moduli (GPa) = 95.05949 46.34520 77.41527
#
# Poissons Ratio (x) = 0.33747 0.24740
# Poissons Ratio (y) = 0.69220 0.27216
# Poissons Ratio (z) = 0.30379 0.16293
#
# Static dielectric constant tensor:
#      x y z
#    x 3.326810 0.000000 0.000000 
#    y 0.000000 3.073350 0.000000 
#    z 0.000000 0.000000 3.095570 
# 
# 
# High freq. dielectric constant tensor:
#      x y z
#    x 1.668360 0.000000 0.000000 
#    y 0.000000 1.644760 0.000000 
#    z 0.000000 0.000000 1.622040 
# 
# From -- ./inp_files/19875.got.cif
#   From: 2010.03.12/outbox.cif.g09.slc.cpg/sg47_10_cif.got.tgz:19875.got - 2010.04.14 03:12:58.
