data_PCOD8196076
_publ_section_title
;
Structure prediction by ZEFSAII (Michael W. Deem and Ramdas Pophale) SiO2 
 PCOD8196076
Probable space group: P M M M
;
_chemical_formula_sum "Si O2"
_cell_formula_units_Z 48
_cell_length_a 9.566892
_cell_length_b 8.620038
_cell_length_c 29.194198
_cell_angle_alpha 90.000000
_cell_angle_beta 90.000000
_cell_angle_gamma 90.000000
_cell_volume 2407.557126
_symmetry_space_group_name_H-M "P M M M"
_symmetry_group_IT_number 47
_symmetry_cell_setting 'orthorhombic'
loop_
_space_group_symop_operation_xyz
x,y,z
-x,-y,z
x,-y,-z
-x,y,-z
-x,-y,-z
x,y,-z
-x,y,z
x,-y,z
loop_
_atom_site_type_symbol
_atom_site_label
_atom_site_fract_x
_atom_site_fract_y
_atom_site_fract_z
Si Si1 0.659460 0.317130 0.293231
Si Si2 0.161511 0.817395 0.210923
Si Si3 0.747187 0.183687 0.387706
Si Si4 0.500000 0.815938 0.449561
Si Si5 0.337461 0.681264 0.129393
Si Si6 0.000000 0.184188 0.551675
Si Si7 0.158992 0.820107 0.946703
O O1 0.500000 0.249795 0.290847
O O2 0.652314 0.500000 0.290866
O O3 0.753584 0.258741 0.251960
O O4 0.738043 0.265412 0.339005
O O5 0.242189 0.775688 0.164644
O O6 0.000000 0.757701 0.209501
O O7 0.162933 0.000000 0.217869
O O8 0.627229 0.244401 0.420375
O O9 0.875136 0.243710 0.417301
O O10 0.746943 0.000000 0.379190
O O11 0.500000 0.740270 0.500000
O O12 0.500000 0.000000 0.454508
O O13 0.500000 0.734805 0.131491
O O14 0.326970 0.500000 0.140541
O O15 0.272527 0.716174 0.079650
O O16 0.000000 0.255348 0.500000
O O17 0.000000 0.000000 0.546626
O O18 0.000000 0.775655 0.932462
O O19 0.185658 0.000000 0.935380
O O20 0.181577 0.786512 0.000000
#
# Coordination Sequence:
#
# PCOD8196076 Si02
#       7
#     8   8   8   4   8   4   8
#     4  11  24  41  60  84 117 153 190 233 286 347
#     4  11  25  43  65  91 116 146 191 244 295 350
#     4  10  19  33  55  82 113 147 186 234 283 334
#     4   9  16  28  51  81 109 143 189 235 280 329
#     4  11  24  40  59  88 126 163 200 244 296 354
#     4   9  18  32  53  83 115 145 183 235 286 331
#     4   9  19  37  61  89 122 162 210 260 304 348
#
# _framework density 19.937221000000001
#
# number of rings (size 3 to 8) (size 9 to 14) (size 15 to 20)
#    0.000    1.833    0.833    3.500    1.167   10.667 
#    0.000    2.500    0.000    3.000    0.000    0.000 
#    0.000    0.000    0.000    0.000    0.000    0.000 
#
# Total GULP energy -595020.438544 kJ/mol
# GULP energy per Si atom -12396.259136 kJ/mol
# Density = 1.989184 g / cm^3
# Si number density = 19.937221 Si / 1000 Ang^3
#
#
#
# Elastic Constant Matrix: (Units=GPa)
#
#
# Indices 1 2 3 4 5 6 
#
# 1 163.2141 26.3192 63.9546 0.0000 0.0000 0.0000
# 2 26.3192 43.6744 19.2268 0.0000 0.0000 0.0000
# 3 63.9546 19.2268 122.6174 0.0000 0.0000 0.0000
# 4 0.0000 0.0000 0.0000 -58.7633 0.0000 0.0000
# 5 0.0000 0.0000 0.0000 0.0000 -419.0522 0.0000
# 6 0.0000 0.0000 0.0000 0.0000 0.0000 28.5996
#
#
#
# Elastic Compliance Matrix: (Units=1/GPa)
#
#
# Indices 1 2 3 4 5 6 
#
# 1 0.008108 -0.003249 -0.003720 0.000000 0.000000 0.000000
# 2 -0.003249 0.025896 -0.002366 0.000000 0.000000 0.000000
# 3 -0.003720 -0.002366 0.010467 0.000000 0.000000 0.000000
# 4 0.000000 0.000000 0.000000 -0.017017 0.000000 0.000000
# 5 0.000000 0.000000 0.000000 0.000000 -0.002386 0.000000
# 6 0.000000 0.000000 0.000000 0.000000 0.000000 0.034966
#
#
# Mechanical properties :
#
#
# Convention : Reuss Voigt Hill
#
# Bulk Modulus (GPa) = 38.75684 60.94522 49.85103
# Shear Modulus (GPa) = 57.27199 -75.17616 -8.95208
#
# Velocity S-wave (km/s) = 5.36549 -6.14722 -2.12129
# Velocity P-wave (km/s) = 7.60699 4.44404 4.36560
#
# Compressibility (1/GPa) = 0.02580190
#
# Stress axis : x y z
#
# Youngs Moduli (GPa) = 123.32954 38.61582 95.54206
#
# Poissons Ratio (x) = 0.12545 0.35539
# Poissons Ratio (y) = 0.40067 0.22606
# Poissons Ratio (z) = 0.45875 0.09137
#
# Static dielectric constant tensor:
#      x y z
#    x 4.005980 0.000000 0.000000 
#    y 0.000000 3.348100 0.000000 
#    z 0.000000 0.000000 4.117320 
# 
# 
# High freq. dielectric constant tensor:
#      x y z
#    x 1.793450 0.000000 0.000000 
#    y 0.000000 1.752380 0.000000 
#    z 0.000000 0.000000 1.795490 
# 
# From -- ./inp_files/34156.got.cif
#   From: 2010.03.12/outbox.cif.g09.slc.cpg/sg47_18_cif.got.tgz:34156.got - 2010.04.14 03:12:58.
