data_PCOD8196032
_publ_section_title
;
Structure prediction by ZEFSAII (Michael W. Deem and Ramdas Pophale) SiO2 
 PCOD8196032
Probable space group: P M M M
;
_chemical_formula_sum "Si O2"
_cell_formula_units_Z 52
_cell_length_a 14.649584
_cell_length_b 8.633513
_cell_length_c 20.923629
_cell_angle_alpha 90.000000
_cell_angle_beta 90.000000
_cell_angle_gamma 90.000000
_cell_volume 2646.365649
_symmetry_space_group_name_H-M "P M M M"
_symmetry_group_IT_number 47
_symmetry_cell_setting 'orthorhombic'
loop_
_space_group_symop_operation_xyz
x,y,z
-x,-y,z
x,-y,-z
-x,y,-z
-x,-y,-z
x,y,-z
-x,y,z
x,-y,z
loop_
_atom_site_type_symbol
_atom_site_label
_atom_site_fract_x
_atom_site_fract_y
_atom_site_fract_z
Si Si1 0.000000 0.827731 0.425619
Si Si2 0.899066 0.825927 0.215615
Si Si3 0.349750 0.317287 0.670257
Si Si4 0.776378 0.678470 0.118059
Si Si5 0.397749 0.684585 0.188569
Si Si6 0.856545 0.681690 0.655919
Si Si7 0.500000 0.684650 0.427275
Si Si8 0.893526 0.314223 0.000000
O O1 0.909114 0.731873 0.407632
O O2 0.000000 0.843780 0.500000
O O3 0.000000 0.000000 0.394658
O O4 0.834445 0.701770 0.181886
O O5 0.905748 0.777392 0.288726
O O6 0.000000 0.817290 0.185393
O O7 0.859850 0.000000 0.208112
O O8 0.362309 0.500000 0.674288
O O9 0.375515 0.248730 0.740417
O O10 0.248368 0.267665 0.651156
O O11 0.413195 0.253246 0.613079
O O12 0.765483 0.500000 0.101496
O O13 0.674916 0.746917 0.134760
O O14 0.834560 0.753824 0.059890
O O15 0.500000 0.736749 0.168492
O O16 0.389550 0.500000 0.191005
O O17 0.866619 0.500000 0.668604
O O18 0.500000 0.500000 0.431376
O O19 0.500000 0.752273 0.500000
O O20 0.896548 0.500000 0.000000
O O21 0.000000 0.254173 0.000000
#
# Coordination Sequence:
#
# PCOD8196032 Si02
#       8
#     4   8   8   8   8   8   4   4
#     4  11  25  43  57  73 107 152 187 224 283 341
#     4  11  22  34  51  78 110 140 174 221 275 326
#     4   9  16  27  45  73 104 134 170 214 267 322
#     4  10  19  33  54  79 105 141 186 224 269 327
#     4   9  15  26  47  75 105 136 172 221 277 325
#     4  11  21  34  56  82 106 137 181 230 273 320
#     4   9  16  26  42  68 107 144 166 201 266 331
#     4   9  18  32  50  76 110 145 181 229 280 327
#
# _framework density 19.649591000000001
#
# number of rings (size 3 to 8) (size 9 to 14) (size 15 to 20)
#    0.000    2.077    3.077    1.615    0.000    2.769 
#    0.000    2.308    0.000    4.154    0.000    1.615 
#    0.000    4.923    0.000    0.000    0.000    0.000 
#
# Total GULP energy -644366.015120 kJ/mol
# GULP energy per Si atom -12391.654137 kJ/mol
# Density = 1.960487 g / cm^3
# Si number density = 19.649591 Si / 1000 Ang^3
#
#
#
# Elastic Constant Matrix: (Units=GPa)
#
#
# Indices 1 2 3 4 5 6 
#
# 1 187.5253 20.7079 74.5350 0.0000 0.0000 0.0000
# 2 20.7079 19.7051 8.6258 0.0000 0.0000 0.0000
# 3 74.5350 8.6258 108.2379 0.0000 0.0000 0.0000
# 4 0.0000 0.0000 0.0000 10.6856 0.0000 0.0000
# 5 0.0000 0.0000 0.0000 0.0000 11.3732 0.0000
# 6 0.0000 0.0000 0.0000 0.0000 0.0000 5.8201
#
#
#
# Elastic Compliance Matrix: (Units=1/GPa)
#
#
# Indices 1 2 3 4 5 6 
#
# 1 0.008017 -0.006226 -0.005025 0.000000 0.000000 0.000000
# 2 -0.006226 0.057417 -0.000289 0.000000 0.000000 0.000000
# 3 -0.005025 -0.000289 0.012722 0.000000 0.000000 0.000000
# 4 0.000000 0.000000 0.000000 0.093584 0.000000 0.000000
# 5 0.000000 0.000000 0.000000 0.000000 0.087926 0.000000
# 6 0.000000 0.000000 0.000000 0.000000 0.000000 0.171818
#
#
# Mechanical properties :
#
#
# Convention : Reuss Voigt Hill
#
# Bulk Modulus (GPa) = 18.15590 58.13397 38.14493
# Shear Modulus (GPa) = 10.57256 19.68241 15.12749
#
# Velocity S-wave (km/s) = 2.32212 3.16835 2.77765
# Velocity P-wave (km/s) = 4.05580 6.56004 5.45361
#
# Compressibility (1/GPa) = 0.05507852
#
# Stress axis : x y z
#
# Youngs Moduli (GPa) = 124.73087 17.41637 78.60378
#
# Poissons Ratio (x) = 0.10843 0.39496
# Poissons Ratio (y) = 0.77654 0.02268
# Poissons Ratio (z) = 0.62674 0.00503
#
# Static dielectric constant tensor:
#      x y z
#    x 4.071130 0.000000 0.000000 
#    y 0.000000 3.046640 0.000000 
#    z 0.000000 0.000000 3.596530 
# 
# 
# High freq. dielectric constant tensor:
#      x y z
#    x 1.782380 0.000000 0.000000 
#    y 0.000000 1.710790 0.000000 
#    z 0.000000 0.000000 1.754590 
# 
# From -- ./inp_files/30918.got.cif
#   From: 2010.03.12/outbox.cif.g09.slc.cpg/sg47_16_cif.got.tgz:30918.got - 2010.04.14 03:12:58.
