data_PCOD8196776
_publ_section_title
;
Structure prediction by ZEFSAII (Michael W. Deem and Ramdas Pophale) SiO2 
 PCOD8196776
Probable space group: P M M M
;
_chemical_formula_sum "Si O2"
_cell_formula_units_Z 64
_cell_length_a 24.066595
_cell_length_b 9.440760
_cell_length_c 18.633272
_cell_angle_alpha 90.000000
_cell_angle_beta 90.000000
_cell_angle_gamma 90.000000
_cell_volume 4233.608851
_symmetry_space_group_name_H-M "P M M M"
_symmetry_group_IT_number 47
_symmetry_cell_setting 'orthorhombic'
loop_
_space_group_symop_operation_xyz
x,y,z
-x,-y,z
x,-y,-z
-x,y,-z
-x,-y,-z
x,y,-z
-x,y,z
x,-y,z
loop_
_atom_site_type_symbol
_atom_site_label
_atom_site_fract_x
_atom_site_fract_y
_atom_site_fract_z
Si Si1 0.060985 0.840177 0.914713
Si Si2 0.388459 0.663190 0.080788
Si Si3 0.337546 0.334676 0.582038
Si Si4 0.674599 0.165127 0.714552
Si Si5 0.562656 0.838036 0.793089
Si Si6 0.560181 0.153896 0.583357
Si Si7 0.723500 0.337018 0.158462
Si Si8 0.163662 0.334839 0.917735
O O1 0.109966 0.742279 0.883330
O O2 0.000000 0.789646 0.886890
O O3 0.072087 0.000000 0.888937
O O4 0.061319 0.831191 0.000000
O O5 0.405582 0.500000 0.087576
O O6 0.426833 0.747655 0.135744
O O7 0.323427 0.683627 0.098130
O O8 0.398860 0.718624 0.000000
O O9 0.318643 0.300792 0.500000
O O10 0.330862 0.500000 0.599047
O O11 0.304879 0.239392 0.640157
O O12 0.400975 0.288544 0.596119
O O13 0.608462 0.195314 0.730784
O O14 0.711950 0.234036 0.775637
O O15 0.688473 0.000000 0.710699
O O16 0.500000 0.806440 0.764703
O O17 0.569198 0.000000 0.816884
O O18 0.552239 0.132259 0.500000
O O19 0.500000 0.183709 0.619024
O O20 0.583534 0.000000 0.613902
O O21 0.724734 0.500000 0.184894
O O22 0.781947 0.289215 0.125635
O O23 0.152248 0.500000 0.911335
O O24 0.172858 0.289161 0.000000
#
# Coordination Sequence:
#
# PCOD8196776 Si02
#       8
#     8   8   8   8   8   8   8   8
#     4   8  14  24  36  52  79 114 147 179 215 248
#     4   9  17  29  45  63  81 101 127 162 203 246
#     4  10  20  32  46  64  83 101 123 153 191 237
#     4  10  20  33  48  63  79 102 132 164 199 243
#     4   9  19  34  47  59  77 101 128 158 196 243
#     4   8  14  25  40  57  77  99 120 143 174 214
#     4   9  17  30  45  60  82 109 135 167 209 250
#     4   9  16  25  40  62  84 109 144 182 216 249
#
# _framework density 15.117127
#
# number of rings (size 3 to 8) (size 9 to 14) (size 15 to 20)
#    0.000    3.000    0.000    1.875    0.000    5.000 
#    0.000    5.000    0.000    2.250    0.000    0.000 
#    0.000    0.000    0.000    0.000    0.000    0.625 
#
# Total GULP energy -793006.346088 kJ/mol
# GULP energy per Si atom -12390.724158 kJ/mol
# Density = 1.508272 g / cm^3
# Si number density = 15.117127 Si / 1000 Ang^3
#
#
#
# Elastic Constant Matrix: (Units=GPa)
#
#
# Indices 1 2 3 4 5 6 
#
# 1 82.0370 34.9923 21.8906 0.0000 0.0000 0.0000
# 2 34.9923 73.0790 47.1824 0.0000 0.0000 0.0000
# 3 21.8906 47.1824 83.9730 0.0000 0.0000 0.0000
# 4 0.0000 0.0000 0.0000 19.8015 0.0000 0.0000
# 5 0.0000 0.0000 0.0000 0.0000 8.2889 0.0000
# 6 0.0000 0.0000 0.0000 0.0000 0.0000 21.6412
#
#
#
# Elastic Compliance Matrix: (Units=1/GPa)
#
#
# Indices 1 2 3 4 5 6 
#
# 1 0.015320 -0.007466 0.000201 0.000000 0.000000 0.000000
# 2 -0.007466 0.025112 -0.012164 0.000000 0.000000 0.000000
# 3 0.000201 -0.012164 0.018691 0.000000 0.000000 0.000000
# 4 0.000000 0.000000 0.000000 0.050501 0.000000 0.000000
# 5 0.000000 0.000000 0.000000 0.000000 0.120643 0.000000
# 6 0.000000 0.000000 0.000000 0.000000 0.000000 0.046208
#
#
# Mechanical properties :
#
#
# Convention : Reuss Voigt Hill
#
# Bulk Modulus (GPa) = 49.34276 49.69108 49.51692
# Shear Modulus (GPa) = 15.52375 18.94789 17.23582
#
# Velocity S-wave (km/s) = 3.20800 3.54419 3.38028
# Velocity P-wave (km/s) = 6.81417 7.04914 6.93265
#
# Compressibility (1/GPa) = 0.02026640
#
# Stress axis : x y z
#
# Youngs Moduli (GPa) = 65.27253 39.82204 53.50282
#
# Poissons Ratio (x) = 0.29729 -0.01075
# Poissons Ratio (y) = 0.48729 0.65078
# Poissons Ratio (z) = -0.01311 0.48438
#
# Static dielectric constant tensor:
#      x y z
#    x 2.860580 0.000000 0.000000 
#    y 0.000000 2.953420 0.000000 
#    z 0.000000 0.000000 2.865740 
# 
# 
# High freq. dielectric constant tensor:
#      x y z
#    x 1.543240 0.000000 0.000000 
#    y 0.000000 1.584000 0.000000 
#    z 0.000000 0.000000 1.562210 
# 
# From -- ./inp_files/31559.got.cif
#   From: 2010.03.12/outbox.cif.g09.slc.cpg/sg47_16_cif.got.tgz:31559.got - 2010.04.14 03:12:58.
