data_PCOD8196051
_publ_section_title
;
Structure prediction by ZEFSAII (Michael W. Deem and Ramdas Pophale) SiO2 
 PCOD8196051
Probable space group: P M M M
;
_chemical_formula_sum "Si O2"
_cell_formula_units_Z 56
_cell_length_a 9.157273
_cell_length_b 16.922212
_cell_length_c 20.718423
_cell_angle_alpha 90.000000
_cell_angle_beta 90.000000
_cell_angle_gamma 90.000000
_cell_volume 3210.554074
_symmetry_space_group_name_H-M "P M M M"
_symmetry_group_IT_number 47
_symmetry_cell_setting 'orthorhombic'
loop_
_space_group_symop_operation_xyz
x,y,z
-x,-y,z
x,-y,-z
-x,y,-z
-x,-y,-z
x,y,-z
-x,y,z
x,-y,z
loop_
_atom_site_type_symbol
_atom_site_label
_atom_site_fract_x
_atom_site_fract_y
_atom_site_fract_z
Si Si1 0.329987 0.588762 0.730747
Si Si2 0.827003 0.157595 0.807027
Si Si3 0.170207 0.734096 0.314317
Si Si4 0.167001 0.151355 0.572983
Si Si5 0.673593 0.000000 0.232173
Si Si6 0.672081 0.000000 0.619026
Si Si7 0.167906 0.587799 0.863730
Si Si8 0.827618 0.744528 0.070504
O O1 0.500000 0.606983 0.734086
O O2 0.299114 0.500000 0.705106
O O3 0.255225 0.651305 0.683134
O O4 0.266297 0.599936 0.801624
O O5 0.783856 0.214316 0.747764
O O6 0.769935 0.198104 0.873138
O O7 0.000000 0.141041 0.807341
O O8 0.740627 0.076194 0.802154
O O9 0.217189 0.779646 0.378985
O O10 0.000000 0.714913 0.312753
O O11 0.184824 0.182516 0.500000
O O12 0.000000 0.126902 0.587891
O O13 0.267276 0.075917 0.582870
O O14 0.500000 0.000000 0.224094
O O15 0.722174 0.000000 0.306699
O O16 0.500000 0.000000 0.612560
O O17 0.189701 0.500000 0.893501
O O18 0.215265 0.653232 0.915805
O O19 0.000000 0.601148 0.842298
O O20 0.000000 0.752675 0.068300
O O21 0.761931 0.767562 0.000000
#
# Coordination Sequence:
#
# PCOD8196051 Si02
#       8
#     8   8   8   8   4   4   8   8
#     4  10  20  32  49  76 107 137 171 212 256 299
#     4  10  19  34  55  77  99 131 171 212 256 301
#     4  10  19  33  55  79 102 132 173 213 250 297
#     4  10  21  36  54  77 107 140 171 206 252 305
#     4  11  23  36  53  78 104 132 169 214 256 297
#     4  11  22  34  51  79 111 141 171 204 249 303
#     4   9  16  28  48  74 104 136 169 205 250 303
#     4   9  17  30  49  75 104 131 166 212 258 303
#
# _framework density 17.442471999999999
#
# number of rings (size 3 to 8) (size 9 to 14) (size 15 to 20)
#    0.000    2.143    2.857    1.071    0.000    4.000 
#    0.000    1.786    0.000    4.286    0.000    5.000 
#    0.000    0.000    0.000    0.000    0.000    0.000 
#
# Total GULP energy -694370.915544 kJ/mol
# GULP energy per Si atom -12399.480635 kJ/mol
# Density = 1.740277 g / cm^3
# Si number density = 17.442472 Si / 1000 Ang^3
#
#
#
# Elastic Constant Matrix: (Units=GPa)
#
#
# Indices 1 2 3 4 5 6 
#
# 1 52.5373 49.5864 33.9901 0.0000 0.0000 0.0000
# 2 49.5864 127.9565 69.0779 0.0000 0.0000 0.0000
# 3 33.9901 69.0779 129.5338 0.0000 0.0000 0.0000
# 4 0.0000 0.0000 0.0000 30.8800 0.0000 0.0000
# 5 0.0000 0.0000 0.0000 0.0000 11.7349 0.0000
# 6 0.0000 0.0000 0.0000 0.0000 0.0000 19.1489
#
#
#
# Elastic Compliance Matrix: (Units=1/GPa)
#
#
# Indices 1 2 3 4 5 6 
#
# 1 0.030529 -0.010541 -0.002390 0.000000 0.000000 0.000000
# 2 -0.010541 0.014614 -0.005027 0.000000 0.000000 0.000000
# 3 -0.002390 -0.005027 0.011028 0.000000 0.000000 0.000000
# 4 0.000000 0.000000 0.000000 0.032383 0.000000 0.000000
# 5 0.000000 0.000000 0.000000 0.000000 0.085216 0.000000
# 6 0.000000 0.000000 0.000000 0.000000 0.000000 0.052222
#
#
# Mechanical properties :
#
#
# Convention : Reuss Voigt Hill
#
# Bulk Modulus (GPa) = 49.36990 68.37072 58.87031
# Shear Modulus (GPa) = 18.61090 22.84431 20.72760
#
# Velocity S-wave (km/s) = 3.27002 3.62290 3.45097
# Velocity P-wave (km/s) = 6.52865 7.53548 7.05006
#
# Compressibility (1/GPa) = 0.02025526
#
# Stress axis : x y z
#
# Youngs Moduli (GPa) = 32.75606 68.42758 90.67710
#
# Poissons Ratio (x) = 0.72126 0.21670
# Poissons Ratio (y) = 0.34527 0.45588
# Poissons Ratio (z) = 0.07828 0.34402
#
# Static dielectric constant tensor:
#      x y z
#    x 3.089410 0.000000 0.000000 
#    y 0.000000 3.376870 0.000000 
#    z 0.000000 0.000000 3.355060 
# 
# 
# High freq. dielectric constant tensor:
#      x y z
#    x 1.656890 0.000000 0.000000 
#    y 0.000000 1.678270 0.000000 
#    z 0.000000 0.000000 1.660750 
# 
# From -- ./inp_files/29787.got.cif
#   From: 2010.03.12/outbox.cif.g09.slc.cpg/sg47_15_cif.got.tgz:29787.got - 2010.04.14 03:12:58.
