data_PCOD8196335
_publ_section_title
;
Structure prediction by ZEFSAII (Michael W. Deem and Ramdas Pophale) SiO2 
 PCOD8196335
Probable space group: P M M M
;
_chemical_formula_sum "Si O2"
_cell_formula_units_Z 48
_cell_length_a 17.493878
_cell_length_b 15.869559
_cell_length_c 8.795242
_cell_angle_alpha 90.000000
_cell_angle_beta 90.000000
_cell_angle_gamma 90.000000
_cell_volume 2441.736219
_symmetry_space_group_name_H-M "P M M M"
_symmetry_group_IT_number 47
_symmetry_cell_setting 'orthorhombic'
loop_
_space_group_symop_operation_xyz
x,y,z
-x,-y,z
x,-y,-z
-x,y,-z
-x,-y,-z
x,y,-z
-x,y,z
x,-y,z
loop_
_atom_site_type_symbol
_atom_site_label
_atom_site_fract_x
_atom_site_fract_y
_atom_site_fract_z
Si Si1 0.672733 0.357170 0.329862
Si Si2 0.820312 0.843748 0.318867
Si Si3 0.910345 0.000000 0.179590
Si Si4 0.588748 0.500000 0.167791
Si Si5 0.500000 0.907319 0.821644
Si Si6 0.353551 0.166803 0.668711
Si Si7 0.085679 0.500000 0.819463
Si Si8 0.828842 0.334024 0.178520
O O1 0.699154 0.384099 0.500000
O O2 0.609635 0.418712 0.264796
O O3 0.635119 0.266204 0.337066
O O4 0.742409 0.358660 0.213292
O O5 0.826270 0.845374 0.500000
O O6 0.871714 0.916993 0.248715
O O7 0.731449 0.856442 0.268311
O O8 0.851724 0.753146 0.262172
O O9 0.000000 0.000000 0.221705
O O10 0.897635 0.000000 0.000000
O O11 0.500000 0.500000 0.143920
O O12 0.627999 0.500000 0.000000
O O13 0.578957 0.864882 0.774042
O O14 0.500000 0.000000 0.750679
O O15 0.500000 0.908588 0.000000
O O16 0.362940 0.128115 0.500000
O O17 0.122724 0.413281 0.758041
O O18 0.000000 0.500000 0.759526
O O19 0.092316 0.500000 0.000000
O O20 0.841221 0.319968 0.000000
#
# Coordination Sequence:
#
# PCOD8196335 Si02
#       8
#     8   8   4   4   4   8   4   8
#     4  10  21  38  59  82 111 151 197 243 292 349
#     4  10  22  41  64  91 122 159 204 251 304 364
#     4  11  25  43  65  94 125 160 201 249 308 369
#     4  11  24  37  52  80 114 149 192 243 298 352
#     4  11  25  39  55  86 119 150 191 241 294 343
#     4   9  21  40  61  85 114 155 197 238 292 354
#     4   9  19  34  54  84 120 155 192 237 290 350
#     4  10  19  35  61  89 118 156 199 244 295 353
#
# _framework density 19.658144
#
# number of rings (size 3 to 8) (size 9 to 14) (size 15 to 20)
#    0.000    2.000    0.000    3.750    2.333    7.333 
#    0.000    2.917    0.000    3.500    0.000    0.000 
#    0.000    0.000    0.000    0.000    0.000    0.000 
#
# Total GULP energy -595059.539577 kJ/mol
# GULP energy per Si atom -12397.073741 kJ/mol
# Density = 1.961340 g / cm^3
# Si number density = 19.658144 Si / 1000 Ang^3
#
#
#
# Elastic Constant Matrix: (Units=GPa)
#
#
# Indices 1 2 3 4 5 6 
#
# 1 115.8154 84.0328 43.4599 0.0000 0.0000 0.0000
# 2 84.0328 144.2704 53.5390 0.0000 0.0000 0.0000
# 3 43.4599 53.5390 83.1959 0.0000 0.0000 0.0000
# 4 0.0000 0.0000 0.0000 39.2688 0.0000 0.0000
# 5 0.0000 0.0000 0.0000 0.0000 19.7788 0.0000
# 6 0.0000 0.0000 0.0000 0.0000 0.0000 16.7265
#
#
#
# Elastic Compliance Matrix: (Units=1/GPa)
#
#
# Indices 1 2 3 4 5 6 
#
# 1 0.015506 -0.007917 -0.003006 0.000000 0.000000 0.000000
# 2 -0.007917 0.013148 -0.004326 0.000000 0.000000 0.000000
# 3 -0.003006 -0.004326 0.016374 0.000000 0.000000 0.000000
# 4 0.000000 0.000000 0.000000 0.025466 0.000000 0.000000
# 5 0.000000 0.000000 0.000000 0.000000 0.050559 0.000000
# 6 0.000000 0.000000 0.000000 0.000000 0.000000 0.059785
#
#
# Mechanical properties :
#
#
# Convention : Reuss Voigt Hill
#
# Bulk Modulus (GPa) = 68.81295 78.37167 73.59231
# Shear Modulus (GPa) = 23.12917 25.97149 24.55033
#
# Velocity S-wave (km/s) = 3.43384 3.63872 3.53776
# Velocity P-wave (km/s) = 7.12758 7.58996 7.36240
#
# Compressibility (1/GPa) = 0.01453215
#
# Stress axis : x y z
#
# Youngs Moduli (GPa) = 64.48968 76.05861 61.07417
#
# Poissons Ratio (x) = 0.60212 0.18357
# Poissons Ratio (y) = 0.51053 0.26418
# Poissons Ratio (z) = 0.19384 0.32899
#
# Static dielectric constant tensor:
#      x y z
#    x 3.514230 0.000000 0.000000 
#    y 0.000000 3.827560 0.000000 
#    z 0.000000 0.000000 3.623690 
# 
# 
# High freq. dielectric constant tensor:
#      x y z
#    x 1.760110 0.000000 0.000000 
#    y 0.000000 1.779160 0.000000 
#    z 0.000000 0.000000 1.768050 
# 
# From -- ./inp_files/9306.got.cif
#   From: 2010.03.12/outbox.cif.g09.slc.cpg/sg47_5_cif.got.tgz:9306.got - 2010.04.14 03:12:58.
