data_PCOD8196593
_publ_section_title
;
Structure prediction by ZEFSAII (Michael W. Deem and Ramdas Pophale) SiO2 
 PCOD8196593
Probable space group: P M M M
;
_chemical_formula_sum "Si O2"
_cell_formula_units_Z 56
_cell_length_a 24.073214
_cell_length_b 14.643919
_cell_length_c 8.615920
_cell_angle_alpha 90.000000
_cell_angle_beta 90.000000
_cell_angle_gamma 90.000000
_cell_volume 3037.337502
_symmetry_space_group_name_H-M "P M M M"
_symmetry_group_IT_number 47
_symmetry_cell_setting 'orthorhombic'
loop_
_space_group_symop_operation_xyz
x,y,z
-x,-y,z
x,-y,-z
-x,y,-z
-x,-y,-z
x,y,-z
-x,y,z
x,-y,z
loop_
_atom_site_type_symbol
_atom_site_label
_atom_site_fract_x
_atom_site_fract_y
_atom_site_fract_z
Si Si1 0.850179 0.395473 0.315860
Si Si2 0.355705 0.250001 0.185192
Si Si3 0.438785 0.398792 0.815321
Si Si4 0.561215 0.898791 0.815321
Si Si5 0.230377 0.250000 0.184010
Si Si6 0.850179 0.104527 0.315860
Si Si7 0.061592 0.250000 0.683701
O O1 0.844429 0.393198 0.500000
O O2 0.852652 0.500000 0.254673
O O3 0.797702 0.342831 0.245027
O O4 0.905770 0.341360 0.262371
O O5 0.389261 0.336929 0.251210
O O6 0.389262 0.163073 0.251208
O O7 0.293143 0.249999 0.248883
O O8 0.354819 0.250003 0.000000
O O9 0.500000 0.363360 0.762997
O O10 0.428807 0.500000 0.749776
O O11 0.436644 0.398728 0.000000
O O12 0.500000 0.863367 0.762984
O O13 0.571198 0.000000 0.749787
O O14 0.563352 0.898720 0.000000
O O15 0.202298 0.157168 0.245026
O O16 0.227898 0.250000 0.000000
O O17 0.844429 0.106802 0.500000
O O18 0.905771 0.158640 0.262372
O O19 0.852653 0.000000 0.254674
O O20 0.056695 0.250001 0.500000
O O21 0.000000 0.250001 0.758898
#
# Coordination Sequence:
#
# PCOD8196593 Si02
#       7
#     8   8   8   8   8   8   8
#     4   9  18  33  51  69  93 126 158 188 226 272
#     4   9  16  24  35  54  81 112 144 179 220 264
#     4   8  13  21  33  49  72 105 141 174 214 268
#     4   8  13  21  33  49  72 105 141 174 214 268
#     4  10  20  31  45  68  96 125 158 195 230 267
#     4   9  18  33  51  69  93 126 158 188 226 272
#     4   8  14  26  47  76 101 115 140 189 238 275
#
# _framework density 18.437201000000002
#
# number of rings (size 3 to 8) (size 9 to 14) (size 15 to 20)
#    0.000    3.286    0.000    2.571    0.000    4.000 
#    0.000    5.714    0.000    6.857    0.000    8.000 
#    0.000    9.143    0.000   25.143    0.000   20.571 
#
# Total GULP energy -693927.349281 kJ/mol
# GULP energy per Si atom -12391.559809 kJ/mol
# Density = 1.839524 g / cm^3
# Si number density = 18.437201 Si / 1000 Ang^3
#
#
#
# Elastic Constant Matrix: (Units=GPa)
#
#
# Indices 1 2 3 4 5 6 
#
# 1 200.1060 105.1261 15.0861 0.0000 0.0000 0.0000
# 2 105.1261 175.6372 16.1516 0.0000 0.0000 0.0000
# 3 15.0861 16.1516 13.5822 0.0000 0.0000 0.0000
# 4 0.0000 0.0000 0.0000 15.6406 0.0000 0.0000
# 5 0.0000 0.0000 0.0000 0.0000 450.2369 0.0000
# 6 0.0000 0.0000 0.0000 0.0000 0.0000 12.8275
#
#
#
# Elastic Compliance Matrix: (Units=1/GPa)
#
#
# Indices 1 2 3 4 5 6 
#
# 1 0.007421 -0.004136 -0.003324 0.000000 0.000000 0.000000
# 2 -0.004136 0.008698 -0.005749 0.000000 0.000000 0.000000
# 3 -0.003324 -0.005749 0.084154 0.000000 0.000000 0.000000
# 4 0.000000 0.000000 0.000000 0.063936 0.000000 0.000000
# 5 0.000000 0.000000 0.000000 0.000000 0.002221 0.000000
# 6 0.000000 0.000000 0.000000 0.000000 0.000000 0.077958
#
#
# Mechanical properties :
#
#
# Convention : Reuss Voigt Hill
#
# Bulk Modulus (GPa) = 13.54014 73.56146 43.55080
# Shear Modulus (GPa) = 16.92478 112.60509 64.76494
#
# Velocity S-wave (km/s) = 3.03309 7.82352 5.93326
# Velocity P-wave (km/s) = 4.43013 11.02701 8.40301
#
# Compressibility (1/GPa) = 0.07385447
#
# Stress axis : x y z
#
# Youngs Moduli (GPa) = 134.75638 114.97157 11.88291
#
# Poissons Ratio (x) = 0.47552 0.03950
# Poissons Ratio (y) = 0.55735 0.06832
# Poissons Ratio (z) = 0.44794 0.66100
#
# Static dielectric constant tensor:
#      x y z
#    x 3.727850 0.000000 0.000000 
#    y 0.000000 3.740570 0.000000 
#    z 0.000000 0.000000 2.786610 
# 
# 
# High freq. dielectric constant tensor:
#      x y z
#    x 1.720730 0.000000 0.000000 
#    y 0.000000 1.723730 0.000000 
#    z 0.000000 0.000000 1.652420 
# 
# From -- ./inp_files/11258.got.cif
#   From: 2010.03.12/outbox.cif.g09.slc.cpg/sg47_6_cif.got.tgz:11258.got - 2010.04.14 03:12:58.
