data_PCOD8196701
_publ_section_title
;
Structure prediction by ZEFSAII (Michael W. Deem and Ramdas Pophale) SiO2 
 PCOD8196701
Probable space group: P M M M
;
_chemical_formula_sum "Si O2"
_cell_formula_units_Z 52
_cell_length_a 27.479940
_cell_length_b 9.000220
_cell_length_c 13.801761
_cell_angle_alpha 90.000000
_cell_angle_beta 90.000000
_cell_angle_gamma 90.000000
_cell_volume 3413.527517
_symmetry_space_group_name_H-M "P M M M"
_symmetry_group_IT_number 47
_symmetry_cell_setting 'orthorhombic'
loop_
_space_group_symop_operation_xyz
x,y,z
-x,-y,z
x,-y,-z
-x,y,-z
-x,-y,-z
x,y,-z
-x,y,z
x,-y,z
loop_
_atom_site_type_symbol
_atom_site_label
_atom_site_fract_x
_atom_site_fract_y
_atom_site_fract_z
Si Si1 0.054671 0.823568 0.108936
Si Si2 0.500000 0.832343 0.384553
Si Si3 0.595918 0.332272 0.384358
Si Si4 0.790062 0.324203 0.388311
Si Si5 0.874195 0.172408 0.275023
Si Si6 0.690612 0.166035 0.614289
Si Si7 0.946939 0.662328 0.613069
O O1 0.098277 0.764094 0.178529
O O2 0.000000 0.766231 0.137293
O O3 0.054412 0.000000 0.116050
O O4 0.067091 0.771000 0.000000
O O5 0.500000 0.831946 0.500000
O O6 0.452257 0.749048 0.344870
O O7 0.500000 0.000000 0.344596
O O8 0.596509 0.332210 0.500000
O O9 0.596346 0.500000 0.344567
O O10 0.643076 0.247099 0.342427
O O11 0.803925 0.277801 0.500000
O O12 0.788416 0.500000 0.380452
O O13 0.826334 0.261919 0.306344
O O14 0.737857 0.260608 0.358406
O O15 0.913054 0.200165 0.359523
O O16 0.860651 0.000000 0.266177
O O17 0.684892 0.155671 0.500000
O O18 0.694796 0.000000 0.658288
O O19 0.952440 0.662817 0.500000
O O20 0.925663 0.500000 0.645830
O O21 0.000000 0.685529 0.660637
#
# Coordination Sequence:
#
# PCOD8196701 Si02
#       7
#     8   4   8   8   8   8   8
#     4   8  15  29  47  65  84 103 122 148 187 234
#     4   9  15  21  29  43  63  87 119 161 204 239
#     4   9  15  22  32  46  65  90 120 155 199 247
#     4  10  20  32  43  55  76 107 136 159 190 234
#     4  11  20  28  43  65  82  97 123 159 192 221
#     4   9  16  26  39  53  69  91 123 163 200 231
#     4   9  18  31  43  55  76 106 131 148 176 222
#
# _framework density 15.233509
#
# number of rings (size 3 to 8) (size 9 to 14) (size 15 to 20)
#    0.000    2.692    0.000    3.923    0.000    8.615 
#    0.000    0.769    0.000    1.846    0.000    5.385 
#    0.000    0.000    0.000    0.000    0.000    0.000 
#
# Total GULP energy -644264.668830 kJ/mol
# GULP energy per Si atom -12389.705170 kJ/mol
# Density = 1.519884 g / cm^3
# Si number density = 15.233509 Si / 1000 Ang^3
#
#
#
# Elastic Constant Matrix: (Units=GPa)
#
#
# Indices 1 2 3 4 5 6 
#
# 1 135.3910 54.8549 40.6448 0.0000 0.0000 0.0000
# 2 54.8549 85.6168 21.5568 0.0000 0.0000 0.0000
# 3 40.6448 21.5568 39.4349 0.0000 0.0000 0.0000
# 4 0.0000 0.0000 0.0000 7.7148 0.0000 0.0000
# 5 0.0000 0.0000 0.0000 0.0000 12.9820 0.0000
# 6 0.0000 0.0000 0.0000 0.0000 0.0000 28.9545
#
#
#
# Elastic Compliance Matrix: (Units=1/GPa)
#
#
# Indices 1 2 3 4 5 6 
#
# 1 0.012647 -0.005590 -0.009979 0.000000 0.000000 0.000000
# 2 -0.005590 0.016015 -0.002993 0.000000 0.000000 0.000000
# 3 -0.009979 -0.002993 0.037279 0.000000 0.000000 0.000000
# 4 0.000000 0.000000 0.000000 0.129621 0.000000 0.000000
# 5 0.000000 0.000000 0.000000 0.000000 0.077030 0.000000
# 6 0.000000 0.000000 0.000000 0.000000 0.000000 0.034537
#
#
# Mechanical properties :
#
#
# Convention : Reuss Voigt Hill
#
# Bulk Modulus (GPa) = 34.70137 54.95063 44.82600
# Shear Modulus (GPa) = 14.12999 19.48935 16.80967
#
# Velocity S-wave (km/s) = 3.04889 3.58071 3.32545
# Velocity P-wave (km/s) = 5.93493 7.29698 6.65091
#
# Compressibility (1/GPa) = 0.02881730
#
# Stress axis : x y z
#
# Youngs Moduli (GPa) = 79.07261 62.44079 26.82467
#
# Poissons Ratio (x) = 0.34906 0.26768
# Poissons Ratio (y) = 0.44204 0.08028
# Poissons Ratio (z) = 0.78904 0.18687
#
# Static dielectric constant tensor:
#      x y z
#    x 3.098600 0.000000 0.000000 
#    y 0.000000 3.039040 0.000000 
#    z 0.000000 0.000000 2.543200 
# 
# 
# High freq. dielectric constant tensor:
#      x y z
#    x 1.589540 0.000000 0.000000 
#    y 0.000000 1.589330 0.000000 
#    z 0.000000 0.000000 1.509770 
# 
# From -- ./inp_files/25702.got.cif
#   From: 2010.03.12/outbox.cif.g09.slc.cpg/sg47_13_cif.got.tgz:25702.got - 2010.04.14 03:12:58.
