data_PCOD8196325
_publ_section_title
;
Structure prediction by ZEFSAII (Michael W. Deem and Ramdas Pophale) SiO2 
 PCOD8196325
Probable space group: P M M M
;
_chemical_formula_sum "Si O2"
_cell_formula_units_Z 64
_cell_length_a 14.463213
_cell_length_b 25.220820
_cell_length_c 9.407104
_cell_angle_alpha 90.000000
_cell_angle_beta 90.000000
_cell_angle_gamma 90.000000
_cell_volume 3431.467817
_symmetry_space_group_name_H-M "P M M M"
_symmetry_group_IT_number 47
_symmetry_cell_setting 'orthorhombic'
loop_
_space_group_symop_operation_xyz
x,y,z
-x,-y,z
x,-y,-z
-x,y,-z
-x,-y,-z
x,y,-z
-x,y,z
x,-y,z
loop_
_atom_site_type_symbol
_atom_site_label
_atom_site_fract_x
_atom_site_fract_y
_atom_site_fract_z
Si Si1 0.274691 0.059831 0.163395
Si Si2 0.271883 0.440337 0.835757
Si Si3 0.101065 0.436969 0.659272
Si Si4 0.104844 0.092980 0.334870
Si Si5 0.608149 0.143810 0.334700
Si Si6 0.099908 0.214087 0.331628
Si Si7 0.293113 0.747021 0.332487
Si Si8 0.605140 0.656341 0.165278
O O1 0.174363 0.059803 0.237865
O O2 0.346892 0.097467 0.242859
O O3 0.313395 0.000000 0.171787
O O4 0.264796 0.078219 0.000000
O O5 0.295529 0.500000 0.782080
O O6 0.182405 0.415202 0.758498
O O7 0.359304 0.403166 0.804056
O O8 0.246130 0.441247 0.000000
O O9 0.119230 0.416131 0.500000
O O10 0.101698 0.500000 0.662483
O O11 0.000000 0.416621 0.711625
O O12 0.132645 0.086503 0.500000
O O13 0.114680 0.153637 0.284471
O O14 0.000000 0.072742 0.310810
O O15 0.627453 0.131826 0.500000
O O16 0.500000 0.146392 0.300485
O O17 0.652397 0.199811 0.290593
O O18 0.097330 0.215216 0.500000
O O19 0.186582 0.248745 0.278218
O O20 0.000000 0.235142 0.272860
O O21 0.299241 0.736887 0.500000
O O22 0.336130 0.697555 0.253833
O O23 0.500000 0.658680 0.217227
O O24 0.614498 0.670655 0.000000
#
# Coordination Sequence:
#
# PCOD8196325 Si02
#       8
#     8   8   8   8   8   8   8   8
#     4  11  24  38  52  76 113 151 183 221 271 327
#     4   9  18  33  53  76 103 140 184 223 261 309
#     4   8  14  26  46  73 104 136 170 210 257 308
#     4   9  17  33  58  83 107 140 183 226 266 314
#     4  10  21  38  60  83 104 133 180 233 279 323
#     4   8  14  28  54  84 109 134 167 209 257 309
#     4  10  19  35  60  85 109 136 171 218 266 318
#     4  10  22  38  54  76 107 140 176 222 273 320
#
# _framework density 18.650908999999999
#
# number of rings (size 3 to 8) (size 9 to 14) (size 15 to 20)
#    0.000    2.625    1.250    1.875    0.000    4.250 
#    0.000    5.625    0.000    2.625    0.000    2.625 
#    0.000    0.000    0.000    0.000    0.000    0.000 
#
# Total GULP energy -793362.273214 kJ/mol
# GULP energy per Si atom -12396.285519 kJ/mol
# Density = 1.860846 g / cm^3
# Si number density = 18.650909 Si / 1000 Ang^3
#
#
#
# Elastic Constant Matrix: (Units=GPa)
#
#
# Indices 1 2 3 4 5 6 
#
# 1 141.9902 59.9521 49.2748 0.0000 0.0000 0.0000
# 2 59.9521 88.6314 41.6200 0.0000 0.0000 0.0000
# 3 49.2748 41.6200 60.7054 0.0000 0.0000 0.0000
# 4 0.0000 0.0000 0.0000 27.1819 0.0000 0.0000
# 5 0.0000 0.0000 0.0000 0.0000 25.1274 0.0000
# 6 0.0000 0.0000 0.0000 0.0000 0.0000 23.2723
#
#
#
# Elastic Compliance Matrix: (Units=1/GPa)
#
#
# Indices 1 2 3 4 5 6 
#
# 1 0.011038 -0.004806 -0.005664 0.000000 0.000000 0.000000
# 2 -0.004806 0.018733 -0.008942 0.000000 0.000000 0.000000
# 3 -0.005664 -0.008942 0.027201 0.000000 0.000000 0.000000
# 4 0.000000 0.000000 0.000000 0.036789 0.000000 0.000000
# 5 0.000000 0.000000 0.000000 0.000000 0.039797 0.000000
# 6 0.000000 0.000000 0.000000 0.000000 0.000000 0.042970
#
#
# Mechanical properties :
#
#
# Convention : Reuss Voigt Hill
#
# Bulk Modulus (GPa) = 55.10586 65.89121 60.49854
# Shear Modulus (GPa) = 22.58339 24.48165 23.53252
#
# Velocity S-wave (km/s) = 3.48350 3.62695 3.55595
# Velocity P-wave (km/s) = 6.76681 7.27633 7.02619
#
# Compressibility (1/GPa) = 0.01814689
#
# Stress axis : x y z
#
# Youngs Moduli (GPa) = 90.59834 53.38216 36.76306
#
# Poissons Ratio (x) = 0.25658 0.20823
# Poissons Ratio (y) = 0.43545 0.32874
# Poissons Ratio (z) = 0.51316 0.47734
#
# Static dielectric constant tensor:
#      x y z
#    x 3.949450 0.000000 0.000000 
#    y 0.000000 3.271060 0.000000 
#    z 0.000000 0.000000 3.276040 
# 
# 
# High freq. dielectric constant tensor:
#      x y z
#    x 1.737810 0.000000 0.000000 
#    y 0.000000 1.707530 0.000000 
#    z 0.000000 0.000000 1.701590 
# 
# From -- ./inp_files/7854.got.cif
#   From: 2010.03.12/outbox.cif.g09.slc.cpg/sg47_4_cif.got.tgz:7854.got - 2010.04.14 03:12:58.
