data_PCOD8196102
_publ_section_title
;
Structure prediction by ZEFSAII (Michael W. Deem and Ramdas Pophale) SiO2 
 PCOD8196102
Probable space group: P M M M
;
_chemical_formula_sum "Si O2"
_cell_formula_units_Z 52
_cell_length_a 14.236886
_cell_length_b 20.018787
_cell_length_c 10.077647
_cell_angle_alpha 90.000000
_cell_angle_beta 90.000000
_cell_angle_gamma 90.000000
_cell_volume 2872.181682
_symmetry_space_group_name_H-M "P M M M"
_symmetry_group_IT_number 47
_symmetry_cell_setting 'orthorhombic'
loop_
_space_group_symop_operation_xyz
x,y,z
-x,-y,z
x,-y,-z
-x,y,-z
-x,-y,-z
x,y,-z
-x,y,z
x,-y,z
loop_
_atom_site_type_symbol
_atom_site_label
_atom_site_fract_x
_atom_site_fract_y
_atom_site_fract_z
Si Si1 0.715094 0.076571 0.253327
Si Si2 0.396992 0.079105 0.000000
Si Si3 0.396541 0.807979 0.351014
Si Si4 0.295274 0.676383 0.346145
Si Si5 0.894024 0.861907 0.845097
Si Si6 0.392158 0.421834 0.849305
Si Si7 0.895387 0.260088 0.350534
O O1 0.658242 0.103804 0.127082
O O2 0.672885 0.127396 0.360426
O O3 0.825342 0.082922 0.219749
O O4 0.693835 0.000000 0.293810
O O5 0.500000 0.111265 0.000000
O O6 0.401717 0.000000 0.000000
O O7 0.415536 0.786981 0.500000
O O8 0.500000 0.821814 0.284534
O O9 0.343802 0.744020 0.287681
O O10 0.321424 0.662406 0.500000
O O11 0.326640 0.615122 0.255908
O O12 0.182439 0.682855 0.330515
O O13 0.879401 0.794984 0.761970
O O14 0.000000 0.889268 0.829581
O O15 0.870593 0.848968 0.000000
O O16 0.500000 0.402653 0.821082
O O17 0.376221 0.500000 0.828612
O O18 0.365257 0.401523 0.000000
O O19 0.883965 0.229049 0.500000
O O20 0.000000 0.291123 0.334887
#
# Coordination Sequence:
#
# PCOD8196102 Si02
#       7
#     8   4   8   8   8   8   8
#     4  11  21  34  51  70  96 133 174 217 267 324
#     4   9  18  32  47  63  87 123 165 209 255 306
#     4  10  21  36  52  74 105 136 171 220 270 315
#     4  10  19  33  56  83 110 140 177 221 265 311
#     4  10  20  34  53  76 101 131 172 223 278 331
#     4   9  19  36  56  81 116 152 182 214 254 303
#     4   9  18  34  56  79 105 138 174 216 268 319
#
# _framework density 18.104704000000002
#
# number of rings (size 3 to 8) (size 9 to 14) (size 15 to 20)
#    0.000    2.231    2.308    1.385    0.000    3.385 
#    1.385    2.308    0.000    0.462    0.000    6.462 
#    0.000    0.000    0.000    0.000    0.000    0.000 
#
# Total GULP energy -644352.556137 kJ/mol
# GULP energy per Si atom -12391.395310 kJ/mol
# Density = 1.806350 g / cm^3
# Si number density = 18.104704 Si / 1000 Ang^3
#
#
#
# Elastic Constant Matrix: (Units=GPa)
#
#
# Indices 1 2 3 4 5 6 
#
# 1 128.8718 43.8336 35.9812 0.0000 0.0000 0.0000
# 2 43.8336 74.0121 35.5444 0.0000 0.0000 0.0000
# 3 35.9812 35.5444 62.9582 0.0000 0.0000 0.0000
# 4 0.0000 0.0000 0.0000 20.6533 0.0000 0.0000
# 5 0.0000 0.0000 0.0000 0.0000 27.4244 0.0000
# 6 0.0000 0.0000 0.0000 0.0000 0.0000 28.3427
#
#
#
# Elastic Compliance Matrix: (Units=1/GPa)
#
#
# Indices 1 2 3 4 5 6 
#
# 1 0.010198 -0.004446 -0.003318 0.000000 0.000000 0.000000
# 2 -0.004446 0.020476 -0.009019 0.000000 0.000000 0.000000
# 3 -0.003318 -0.009019 0.022872 0.000000 0.000000 0.000000
# 4 0.000000 0.000000 0.000000 0.048418 0.000000 0.000000
# 5 0.000000 0.000000 0.000000 0.000000 0.036464 0.000000
# 6 0.000000 0.000000 0.000000 0.000000 0.000000 0.035282
#
#
# Mechanical properties :
#
#
# Convention : Reuss Voigt Hill
#
# Bulk Modulus (GPa) = 50.05243 55.17339 52.61291
# Shear Modulus (GPa) = 23.37123 25.31627 24.34375
#
# Velocity S-wave (km/s) = 3.59680 3.74348 3.67087
# Velocity P-wave (km/s) = 6.70488 7.01609 6.86225
#
# Compressibility (1/GPa) = 0.01997905
#
# Stress axis : x y z
#
# Youngs Moduli (GPa) = 98.05377 48.83729 43.72188
#
# Poissons Ratio (x) = 0.21715 0.14508
# Poissons Ratio (y) = 0.43600 0.39433
# Poissons Ratio (z) = 0.32536 0.44047
#
# Static dielectric constant tensor:
#      x y z
#    x 3.702590 0.000000 0.000000 
#    y 0.000000 2.915160 0.000000 
#    z 0.000000 0.000000 3.399630 
# 
# 
# High freq. dielectric constant tensor:
#      x y z
#    x 1.716710 0.000000 0.000000 
#    y 0.000000 1.663320 0.000000 
#    z 0.000000 0.000000 1.699080 
# 
# From -- ./inp_files/7086.got.cif
#   From: 2010.03.12/outbox.cif.g09.slc.cpg/sg47_4_cif.got.tgz:7086.got - 2010.04.14 03:12:58.
