data_PCOD8196637
_publ_section_title
;
Structure prediction by ZEFSAII (Michael W. Deem and Ramdas Pophale) SiO2 
 PCOD8196637
Probable space group: P M M M
;
_chemical_formula_sum "Si O2"
_cell_formula_units_Z 56
_cell_length_a 14.140311
_cell_length_b 25.732156
_cell_length_c 9.008969
_cell_angle_alpha 90.000000
_cell_angle_beta 90.000000
_cell_angle_gamma 90.000000
_cell_volume 3278.009663
_symmetry_space_group_name_H-M "P M M M"
_symmetry_group_IT_number 47
_symmetry_cell_setting 'orthorhombic'
loop_
_space_group_symop_operation_xyz
x,y,z
-x,-y,z
x,-y,-z
-x,y,-z
-x,-y,-z
x,y,-z
-x,y,z
x,-y,z
loop_
_atom_site_type_symbol
_atom_site_label
_atom_site_fract_x
_atom_site_fract_y
_atom_site_fract_z
Si Si1 0.778083 0.558657 0.670950
Si Si2 0.887791 0.842086 0.668829
Si Si3 0.218618 0.750748 0.825207
Si Si4 0.393241 0.396885 0.827472
Si Si5 0.887672 0.057138 0.833314
Si Si6 0.393115 0.712855 0.327136
Si Si7 0.108668 0.646916 0.826926
O O1 0.761592 0.572970 0.500000
O O2 0.816114 0.500000 0.689417
O O3 0.677872 0.562143 0.755357
O O4 0.855694 0.597011 0.738081
O O5 0.854807 0.833975 0.500000
O O6 0.844313 0.798404 0.772742
O O7 0.849675 0.898289 0.723311
O O8 0.000000 0.838612 0.684319
O O9 0.320750 0.753756 0.745471
O O10 0.166932 0.697539 0.778028
O O11 0.232799 0.754642 0.000000
O O12 0.500000 0.417128 0.803008
O O13 0.376644 0.341862 0.751366
O O14 0.369337 0.390073 0.000000
O O15 0.000000 0.057478 0.832990
O O16 0.851779 0.000000 0.780324
O O17 0.850849 0.068385 0.000000
O O18 0.371101 0.706225 0.500000
O O19 0.500000 0.732957 0.300601
O O20 0.000000 0.657037 0.786001
O O21 0.122205 0.635400 0.000000
#
# Coordination Sequence:
#
# PCOD8196637 Si02
#       7
#     8   8   8   8   8   8   8
#     4  11  24  39  55  76 101 129 162 202 249 300
#     4  10  20  31  45  70 104 141 179 217 257 299
#     4  11  21  34  54  77 102 133 169 207 248 298
#     4  10  20  35  56  80 103 128 159 194 238 295
#     4   8  14  26  44  65  93 133 178 220 260 300
#     4  10  20  34  54  79 105 131 159 195 243 299
#     4  10  22  39  57  76  97 127 167 207 249 296
#
# _framework density 17.083537
#
# number of rings (size 3 to 8) (size 9 to 14) (size 15 to 20)
#    0.000    2.000    1.429    3.000    0.000    6.000 
#    0.000    4.286    0.000    0.000    0.000    0.000 
#    0.000    0.571    0.000    6.000    0.000    2.857 
#
# Total GULP energy -694447.794127 kJ/mol
# GULP energy per Si atom -12400.853467 kJ/mol
# Density = 1.704465 g / cm^3
# Si number density = 17.083537 Si / 1000 Ang^3
#
#
#
# Elastic Constant Matrix: (Units=GPa)
#
#
# Indices 1 2 3 4 5 6 
#
# 1 76.5061 34.5815 44.7526 0.0000 0.0000 0.0000
# 2 34.5815 95.6039 50.2192 0.0000 0.0000 0.0000
# 3 44.7526 50.2192 97.9312 0.0000 0.0000 0.0000
# 4 0.0000 0.0000 0.0000 28.9630 0.0000 0.0000
# 5 0.0000 0.0000 0.0000 0.0000 26.9389 0.0000
# 6 0.0000 0.0000 0.0000 0.0000 0.0000 9.0631
#
#
#
# Elastic Compliance Matrix: (Units=1/GPa)
#
#
# Indices 1 2 3 4 5 6 
#
# 1 0.018478 -0.003077 -0.006866 0.000000 0.000000 0.000000
# 2 -0.003077 0.014829 -0.006198 0.000000 0.000000 0.000000
# 3 -0.006866 -0.006198 0.016527 0.000000 0.000000 0.000000
# 4 0.000000 0.000000 0.000000 0.034527 0.000000 0.000000
# 5 0.000000 0.000000 0.000000 0.000000 0.037121 0.000000
# 6 0.000000 0.000000 0.000000 0.000000 0.000000 0.110338
#
#
# Mechanical properties :
#
#
# Convention : Reuss Voigt Hill
#
# Bulk Modulus (GPa) = 56.97521 58.79418 57.88470
# Shear Modulus (GPa) = 18.52177 22.35884 20.44030
#
# Velocity S-wave (km/s) = 3.29627 3.62165 3.46279
# Velocity P-wave (km/s) = 6.92175 7.20964 7.06716
#
# Compressibility (1/GPa) = 0.01755149
#
# Stress axis : x y z
#
# Youngs Moduli (GPa) = 54.11793 67.43750 60.50613
#
# Poissons Ratio (x) = 0.20752 0.41545
# Poissons Ratio (y) = 0.16653 0.37501
# Poissons Ratio (z) = 0.37158 0.41797
#
# Static dielectric constant tensor:
#      x y z
#    x 3.129360 0.000000 0.000000 
#    y 0.000000 3.188900 0.000000 
#    z 0.000000 0.000000 3.342710 
# 
# 
# High freq. dielectric constant tensor:
#      x y z
#    x 1.638210 0.000000 0.000000 
#    y 0.000000 1.645650 0.000000 
#    z 0.000000 0.000000 1.673390 
# 
# From -- ./inp_files/7366.got.cif
#   From: 2010.03.12/outbox.cif.g09.slc.cpg/sg47_4_cif.got.tgz:7366.got - 2010.04.14 03:12:58.
