data_PCOD8196099
_publ_section_title
;
Structure prediction by ZEFSAII (Michael W. Deem and Ramdas Pophale) SiO2 
 PCOD8196099
Probable space group: P M M M
;
_chemical_formula_sum "Si O2"
_cell_formula_units_Z 48
_cell_length_a 18.930968
_cell_length_b 7.864125
_cell_length_c 15.536887
_cell_angle_alpha 90.000000
_cell_angle_beta 90.000000
_cell_angle_gamma 90.000000
_cell_volume 2313.061801
_symmetry_space_group_name_H-M "P M M M"
_symmetry_group_IT_number 47
_symmetry_cell_setting 'orthorhombic'
loop_
_space_group_symop_operation_xyz
x,y,z
-x,-y,z
x,-y,-z
-x,y,-z
-x,-y,-z
x,y,-z
-x,y,z
x,-y,z
loop_
_atom_site_type_symbol
_atom_site_label
_atom_site_fract_x
_atom_site_fract_y
_atom_site_fract_z
Si Si1 0.582782 0.000000 0.598860
Si Si2 0.820751 0.298349 0.404152
Si Si3 0.319300 0.190594 0.149483
Si Si4 0.581621 0.699635 0.000000
Si Si5 0.829448 0.302138 0.095432
Si Si6 0.079266 0.297178 0.254263
Si Si7 0.329940 0.307576 0.333613
O O1 0.610077 0.174530 0.640809
O O2 0.500000 0.000000 0.612939
O O3 0.605166 0.000000 0.500000
O O4 0.836661 0.226881 0.500000
O O5 0.825147 0.500000 0.403786
O O6 0.878127 0.225081 0.336852
O O7 0.742929 0.241514 0.375335
O O8 0.383359 0.225626 0.085258
O O9 0.245325 0.208953 0.100506
O O10 0.322209 0.316124 0.230634
O O11 0.326887 0.000000 0.184955
O O12 0.592808 0.500000 0.000000
O O13 0.500000 0.752806 0.000000
O O14 0.815397 0.500000 0.111771
O O15 0.883738 0.230823 0.166727
O O16 0.861378 0.269819 0.000000
O O17 0.077991 0.500000 0.255245
O O18 0.000000 0.223593 0.257675
O O19 0.348523 0.500000 0.365151
#
# Coordination Sequence:
#
# PCOD8196099 Si02
#       7
#     4   8   8   4   8   8   8
#     4  11  26  46  66  95 130 160 203 263 322 380
#     4   9  17  30  53  85 118 157 204 253 308 371
#     4  12  23  38  62  91 123 162 208 259 309 367
#     4  11  25  43  63  91 126 163 202 248 313 386
#     4  10  19  33  56  82 114 157 204 253 306 367
#     4   9  17  29  48  80 120 158 200 253 310 369
#     4  11  22  41  67  93 125 167 215 261 312 377
#
# _framework density 20.751715999999998
#
# number of rings (size 3 to 8) (size 9 to 14) (size 15 to 20)
#    0.000    1.667    3.333    2.250    0.000    3.333 
#    0.000    4.167    0.000    0.500    0.000    1.167 
#    0.000    3.333    0.000    0.167    0.000    0.000 
#
# Total GULP energy -595252.800338 kJ/mol
# GULP energy per Si atom -12401.100007 kJ/mol
# Density = 2.070448 g / cm^3
# Si number density = 20.751716 Si / 1000 Ang^3
#
#
#
# Elastic Constant Matrix: (Units=GPa)
#
#
# Indices 1 2 3 4 5 6 
#
# 1 122.1600 30.2773 68.7417 0.0000 0.0000 0.0000
# 2 30.2773 67.8881 18.4856 0.0000 0.0000 0.0000
# 3 68.7417 18.4856 170.4876 0.0000 0.0000 0.0000
# 4 0.0000 0.0000 0.0000 16.2896 0.0000 0.0000
# 5 0.0000 0.0000 0.0000 0.0000 37.7295 0.0000
# 6 0.0000 0.0000 0.0000 0.0000 0.0000 6.8769
#
#
#
# Elastic Compliance Matrix: (Units=1/GPa)
#
#
# Indices 1 2 3 4 5 6 
#
# 1 0.011556 -0.004003 -0.004225 0.000000 0.000000 0.000000
# 2 -0.004003 0.016565 -0.000182 0.000000 0.000000 0.000000
# 3 -0.004225 -0.000182 0.007589 0.000000 0.000000 0.000000
# 4 0.000000 0.000000 0.000000 0.061389 0.000000 0.000000
# 5 0.000000 0.000000 0.000000 0.000000 0.026504 0.000000
# 6 0.000000 0.000000 0.000000 0.000000 0.000000 0.145413
#
#
# Mechanical properties :
#
#
# Convention : Reuss Voigt Hill
#
# Bulk Modulus (GPa) = 52.94155 66.17167 59.55661
# Shear Modulus (GPa) = 17.11543 28.38129 22.74836
#
# Velocity S-wave (km/s) = 2.87500 3.70220 3.31451
# Velocity P-wave (km/s) = 6.04881 7.08743 6.58862
#
# Compressibility (1/GPa) = 0.01888876
#
# Stress axis : x y z
#
# Youngs Moduli (GPa) = 86.53618 60.36800 131.77066
#
# Poissons Ratio (x) = 0.24167 0.55678
# Poissons Ratio (y) = 0.34643 0.02398
# Poissons Ratio (z) = 0.36564 0.01099
#
# Static dielectric constant tensor:
#      x y z
#    x 3.728140 0.000000 0.000000 
#    y 0.000000 3.443660 0.000000 
#    z 0.000000 0.000000 3.972900 
# 
# 
# High freq. dielectric constant tensor:
#      x y z
#    x 1.801560 0.000000 0.000000 
#    y 0.000000 1.791280 0.000000 
#    z 0.000000 0.000000 1.826670 
# 
# From -- ./inp_files/24486.got.cif
#   From: 2010.03.12/outbox.cif.g09.slc.cpg/sg47_13_cif.got.tgz:24486.got - 2010.04.14 03:12:58.
