data_PCOD8196006
_publ_section_title
;
Structure prediction by ZEFSAII (Michael W. Deem and Ramdas Pophale) SiO2 
 PCOD8196006
Probable space group: P M M M
;
_chemical_formula_sum "Si O2"
_cell_formula_units_Z 44
_cell_length_a 14.363800
_cell_length_b 18.278234
_cell_length_c 9.384894
_cell_angle_alpha 90.000000
_cell_angle_beta 90.000000
_cell_angle_gamma 90.000000
_cell_volume 2463.956034
_symmetry_space_group_name_H-M "P M M M"
_symmetry_group_IT_number 47
_symmetry_cell_setting 'orthorhombic'
loop_
_space_group_symop_operation_xyz
x,y,z
-x,-y,z
x,-y,-z
-x,y,-z
-x,-y,-z
x,y,-z
-x,y,z
x,-y,z
loop_
_atom_site_type_symbol
_atom_site_label
_atom_site_fract_x
_atom_site_fract_y
_atom_site_fract_z
Si Si1 0.603025 0.345850 0.666053
Si Si2 0.397516 0.800030 0.162851
Si Si3 0.105464 0.000000 0.830613
Si Si4 0.212642 0.579840 0.331441
Si Si5 0.202712 0.853784 0.166055
Si Si6 0.891940 0.277461 0.332397
O O1 0.612346 0.328612 0.500000
O O2 0.500000 0.376497 0.703693
O O3 0.623235 0.270048 0.742699
O O4 0.680459 0.404224 0.714052
O O5 0.500000 0.833984 0.199171
O O6 0.314749 0.858341 0.189957
O O7 0.395221 0.773560 0.000000
O O8 0.158366 0.928301 0.772730
O O9 0.000000 0.000000 0.772020
O O10 0.106849 0.000000 0.000000
O O11 0.204099 0.576151 0.500000
O O12 0.184848 0.500000 0.267422
O O13 0.144938 0.643936 0.275383
O O14 0.161174 0.786003 0.250693
O O15 0.177886 0.843636 0.000000
O O16 0.872301 0.268661 0.500000
O O17 0.000000 0.272323 0.295711
#
# Coordination Sequence:
#
# PCOD8196006 Si02
#       6
#     8   8   4   8   8   8
#     4   9  16  27  46  70  94 123 159 198 239 283
#     4   9  17  29  47  72  99 125 155 193 237 284
#     4   9  18  32  50  74 100 125 159 201 240 281
#     4   9  17  29  45  68  98 127 158 199 243 286
#     4  10  19  33  54  75  97 128 162 196 237 288
#     4  10  20  33  50  72  97 126 163 205 245 286
#
# _framework density 17.857461000000001
#
# number of rings (size 3 to 8) (size 9 to 14) (size 15 to 20)
#    0.000    2.636    1.818    0.545    0.000    1.818 
#    0.000    4.545    0.000    6.545    0.000    3.818 
#    0.000    4.364    0.000    0.000    0.000    0.000 
#
# Total GULP energy -545313.030852 kJ/mol
# GULP energy per Si atom -12393.477974 kJ/mol
# Density = 1.781682 g / cm^3
# Si number density = 17.857461 Si / 1000 Ang^3
#
#
#
# Elastic Constant Matrix: (Units=GPa)
#
#
# Indices 1 2 3 4 5 6 
#
# 1 135.4780 80.2657 26.9848 0.0000 0.0000 0.0000
# 2 80.2657 129.5089 21.8617 0.0000 0.0000 0.0000
# 3 26.9848 21.8617 23.1867 0.0000 0.0000 0.0000
# 4 0.0000 0.0000 0.0000 20.9676 0.0000 0.0000
# 5 0.0000 0.0000 0.0000 0.0000 19.1328 0.0000
# 6 0.0000 0.0000 0.0000 0.0000 0.0000 27.1246
#
#
#
# Elastic Compliance Matrix: (Units=1/GPa)
#
#
# Indices 1 2 3 4 5 6 
#
# 1 0.013077 -0.006583 -0.009011 0.000000 0.000000 0.000000
# 2 -0.006583 0.012497 -0.004121 0.000000 0.000000 0.000000
# 3 -0.009011 -0.004121 0.057502 0.000000 0.000000 0.000000
# 4 0.000000 0.000000 0.000000 0.047693 0.000000 0.000000
# 5 0.000000 0.000000 0.000000 0.000000 0.052266 0.000000
# 6 0.000000 0.000000 0.000000 0.000000 0.000000 0.036867
#
#
# Mechanical properties :
#
#
# Convention : Reuss Voigt Hill
#
# Bulk Modulus (GPa) = 22.91317 60.71090 41.81203
# Shear Modulus (GPa) = 18.25606 24.04909 21.15257
#
# Velocity S-wave (km/s) = 3.20084 3.67376 3.44542
# Velocity P-wave (km/s) = 5.14971 7.21572 6.26842
#
# Compressibility (1/GPa) = 0.04364303
#
# Stress axis : x y z
#
# Youngs Moduli (GPa) = 76.47276 80.01724 17.39080
#
# Poissons Ratio (x) = 0.52677 0.15672
# Poissons Ratio (y) = 0.50344 0.07168
# Poissons Ratio (z) = 0.68913 0.32979
#
# Static dielectric constant tensor:
#      x y z
#    x 3.731730 0.000000 0.000000 
#    y 0.000000 3.395560 0.000000 
#    z 0.000000 0.000000 3.030910 
# 
# 
# High freq. dielectric constant tensor:
#      x y z
#    x 1.712240 0.000000 0.000000 
#    y 0.000000 1.674850 0.000000 
#    z 0.000000 0.000000 1.654920 
# 
# From -- ./inp_files/6101.got.cif
#   From: 2010.03.12/outbox.cif.g09.slc.cpg/sg47_4_cif.got.tgz:6101.got - 2010.04.14 03:12:58.
