data_PCOD8196100
_publ_section_title
;
Structure prediction by ZEFSAII (Michael W. Deem and Ramdas Pophale) SiO2 
 PCOD8196100
Probable space group: P M M M
;
_chemical_formula_sum "Si O2"
_cell_formula_units_Z 48
_cell_length_a 9.556640
_cell_length_b 9.169013
_cell_length_c 29.356167
_cell_angle_alpha 90.000000
_cell_angle_beta 90.000000
_cell_angle_gamma 90.000000
_cell_volume 2572.332853
_symmetry_space_group_name_H-M "P M M M"
_symmetry_group_IT_number 47
_symmetry_cell_setting 'orthorhombic'
loop_
_space_group_symop_operation_xyz
x,y,z
-x,-y,z
x,-y,-z
-x,y,-z
-x,-y,-z
x,y,-z
-x,y,z
x,-y,z
loop_
_atom_site_type_symbol
_atom_site_label
_atom_site_fract_x
_atom_site_fract_y
_atom_site_fract_z
Si Si1 0.658904 0.326986 0.295679
Si Si2 0.339022 0.327189 0.125068
Si Si3 0.000000 0.827499 0.447773
Si Si4 0.236974 0.671394 0.393897
Si Si5 0.159911 0.673597 0.788831
Si Si6 0.500000 0.670732 0.549401
Si Si7 0.158243 0.831111 0.053036
O O1 0.500000 0.262881 0.293472
O O2 0.646787 0.500000 0.293049
O O3 0.738988 0.281812 0.341711
O O4 0.754469 0.265796 0.254662
O O5 0.500000 0.275035 0.131109
O O6 0.333153 0.500000 0.121489
O O7 0.244670 0.270792 0.167086
O O8 0.273510 0.262051 0.079377
O O9 0.873867 0.770124 0.418304
O O10 0.000000 0.766637 0.500000
O O11 0.000000 0.000000 0.449036
O O12 0.199505 0.500000 0.397663
O O13 0.370883 0.719579 0.421381
O O14 0.155935 0.500000 0.787486
O O15 0.000000 0.734410 0.789168
O O16 0.500000 0.500000 0.541925
O O17 0.500000 0.748822 0.500000
O O18 0.000000 0.782796 0.066302
O O19 0.179434 0.000000 0.065003
O O20 0.183887 0.802533 0.000000
#
# Coordination Sequence:
#
# PCOD8196100 Si02
#       7
#     8   8   4   8   8   4   8
#     4   9  16  28  48  78 111 135 162 208 265 317
#     4  10  20  33  50  76 110 145 180 219 264 312
#     4  11  25  41  53  71 105 145 179 213 258 311
#     4  10  19  33  56  83 106 133 171 216 262 308
#     4   9  17  28  46  74 108 143 175 211 257 310
#     4   9  16  28  49  79 109 131 161 211 264 307
#     4   9  19  36  56  77 103 138 180 225 272 320
#
# _framework density 18.660105999999999
#
# number of rings (size 3 to 8) (size 9 to 14) (size 15 to 20)
#    0.000    2.500    0.833    2.250    1.167    5.333 
#    0.000    2.917    0.000    2.500    0.000    0.000 
#    0.000    0.000    0.000    0.000    0.000    0.000 
#
# Total GULP energy -594921.012032 kJ/mol
# GULP energy per Si atom -12394.187751 kJ/mol
# Density = 1.861763 g / cm^3
# Si number density = 18.660106 Si / 1000 Ang^3
#
#
#
# Elastic Constant Matrix: (Units=GPa)
#
#
# Indices 1 2 3 4 5 6 
#
# 1 169.4501 33.7447 85.1049 0.0000 0.0000 0.0000
# 2 33.7447 22.6696 28.0783 0.0000 0.0000 0.0000
# 3 85.1049 28.0783 140.7586 0.0000 0.0000 0.0000
# 4 0.0000 0.0000 0.0000 10.7413 0.0000 0.0000
# 5 0.0000 0.0000 0.0000 0.0000 35.4581 0.0000
# 6 0.0000 0.0000 0.0000 0.0000 0.0000 -3.6029
#
#
#
# Elastic Compliance Matrix: (Units=1/GPa)
#
#
# Indices 1 2 3 4 5 6 
#
# 1 0.009850 -0.009677 -0.004025 0.000000 0.000000 0.000000
# 2 -0.009677 0.068094 -0.007733 0.000000 0.000000 0.000000
# 3 -0.004025 -0.007733 0.011081 0.000000 0.000000 0.000000
# 4 0.000000 0.000000 0.000000 0.093099 0.000000 0.000000
# 5 0.000000 0.000000 0.000000 0.000000 0.028202 0.000000
# 6 0.000000 0.000000 0.000000 0.000000 0.000000 -0.277557
#
#
# Mechanical properties :
#
#
# Convention : Reuss Voigt Hill
#
# Bulk Modulus (GPa) = 21.66597 69.63713 45.65155
# Shear Modulus (GPa) = -556.97123 20.91599 -268.02762
#
# Velocity S-wave (km/s) = -17.29538 3.35161 -11.99786
# Velocity P-wave (km/s) = 19.67751 7.23722 12.93884
#
# Compressibility (1/GPa) = 0.04615532
#
# Stress axis : x y z
#
# Youngs Moduli (GPa) = 101.52146 14.68567 90.24818
#
# Poissons Ratio (x) = 0.14211 0.36327
# Poissons Ratio (y) = 0.98240 0.69785
# Poissons Ratio (z) = 0.40865 0.11356
#
# Static dielectric constant tensor:
#      x y z
#    x 3.559280 0.000000 0.000000 
#    y 0.000000 2.861970 0.000000 
#    z 0.000000 0.000000 3.697610 
# 
# 
# High freq. dielectric constant tensor:
#      x y z
#    x 1.741100 0.000000 0.000000 
#    y 0.000000 1.664400 0.000000 
#    z 0.000000 0.000000 1.741780 
# 
# From -- ./inp_files/34053.got.cif
#   From: 2010.03.12/outbox.cif.g09.slc.cpg/sg47_18_cif.got.tgz:34053.got - 2010.04.14 03:12:58.
