data_PCOD8196270
_publ_section_title
;
Structure prediction by ZEFSAII (Michael W. Deem and Ramdas Pophale) SiO2 
 PCOD8196270
Probable space group: P M M M
;
_chemical_formula_sum "Si O2"
_cell_formula_units_Z 56
_cell_length_a 15.328289
_cell_length_b 20.125066
_cell_length_c 9.323172
_cell_angle_alpha 90.000000
_cell_angle_beta 90.000000
_cell_angle_gamma 90.000000
_cell_volume 2876.038463
_symmetry_space_group_name_H-M "P M M M"
_symmetry_group_IT_number 47
_symmetry_cell_setting 'orthorhombic'
loop_
_space_group_symop_operation_xyz
x,y,z
-x,-y,z
x,-y,-z
-x,y,-z
-x,-y,-z
x,y,-z
-x,y,z
x,-y,z
loop_
_atom_site_type_symbol
_atom_site_label
_atom_site_fract_x
_atom_site_fract_y
_atom_site_fract_z
Si Si1 0.500000 0.578226 0.159735
Si Si2 0.156493 0.886054 0.654340
Si Si3 0.000000 0.074153 0.834022
Si Si4 0.101601 0.742522 0.656787
Si Si5 0.331705 0.422730 0.332008
Si Si6 0.401629 0.203460 0.834210
Si Si7 0.651834 0.075405 0.331636
Si Si8 0.251814 0.690590 0.169406
O O1 0.500000 0.500000 0.141631
O O2 0.581948 0.601403 0.250727
O O3 0.500000 0.611371 0.000000
O O4 0.130725 0.918811 0.500000
O O5 0.087155 0.894266 0.777509
O O6 0.159521 0.807806 0.632878
O O7 0.246736 0.916746 0.708037
O O8 0.000000 0.000000 0.780268
O O9 0.000000 0.084550 0.000000
O O10 0.104299 0.705439 0.500000
O O11 0.152447 0.708002 0.787453
O O12 0.000000 0.755019 0.700270
O O13 0.341460 0.407647 0.500000
O O14 0.310196 0.500000 0.305406
O O15 0.259074 0.377805 0.258255
O O16 0.500000 0.233133 0.810851
O O17 0.399488 0.132780 0.752068
O O18 0.326710 0.255741 0.782862
O O19 0.384887 0.187302 0.000000
O O20 0.636080 0.086852 0.500000
O O21 0.622207 0.000000 0.288314
O O22 0.257186 0.677633 0.000000
#
# Coordination Sequence:
#
# PCOD8196270 Si02
#       8
#     4   8   4   8   8   8   8   8
#     4   9  17  31  53  83 121 161 198 237 282 337
#     4  10  19  35  56  77 104 142 184 230 288 352
#     4  11  23  33  45  73 109 141 176 223 282 347
#     4  10  20  37  61  86 113 148 190 238 293 355
#     4  10  21  37  58  87 123 162 203 244 289 348
#     4  10  23  41  58  81 115 155 198 242 292 349
#     4  10  21  37  58  82 108 143 192 248 298 346
#     4  11  23  38  61  89 119 157 196 243 296 349
#
# _framework density 19.471228
#
# number of rings (size 3 to 8) (size 9 to 14) (size 15 to 20)
#    0.000    1.857    2.143    1.714    1.000    5.714 
#    0.000    1.429    0.000    0.429    0.000    3.000 
#    0.000    0.000    0.000    0.000    0.000    0.000 
#
# Total GULP energy -693776.220044 kJ/mol
# GULP energy per Si atom -12388.861072 kJ/mol
# Density = 1.942691 g / cm^3
# Si number density = 19.471228 Si / 1000 Ang^3
#
#
#
# Elastic Constant Matrix: (Units=GPa)
#
#
# Indices 1 2 3 4 5 6 
#
# 1 85.0903 25.1593 39.9532 0.0000 0.0000 0.0000
# 2 25.1593 78.1653 33.3634 0.0000 0.0000 0.0000
# 3 39.9532 33.3634 121.1220 0.0000 0.0000 0.0000
# 4 0.0000 0.0000 0.0000 29.8829 0.0000 0.0000
# 5 0.0000 0.0000 0.0000 0.0000 31.9837 0.0000
# 6 0.0000 0.0000 0.0000 0.0000 0.0000 25.6218
#
#
#
# Elastic Compliance Matrix: (Units=1/GPa)
#
#
# Indices 1 2 3 4 5 6 
#
# 1 0.014491 -0.002974 -0.003961 0.000000 0.000000 0.000000
# 2 -0.002974 0.015108 -0.003181 0.000000 0.000000 0.000000
# 3 -0.003961 -0.003181 0.010439 0.000000 0.000000 0.000000
# 4 0.000000 0.000000 0.000000 0.033464 0.000000 0.000000
# 5 0.000000 0.000000 0.000000 0.000000 0.031266 0.000000
# 6 0.000000 0.000000 0.000000 0.000000 0.000000 0.039029
#
#
# Mechanical properties :
#
#
# Convention : Reuss Voigt Hill
#
# Bulk Modulus (GPa) = 50.48569 53.48103 51.98336
# Shear Modulus (GPa) = 29.30303 29.89111 29.59707
#
# Velocity S-wave (km/s) = 3.88356 3.92234 3.90300
# Velocity P-wave (km/s) = 6.78926 6.93104 6.86052
#
# Compressibility (1/GPa) = 0.01980759
#
# Stress axis : x y z
#
# Youngs Moduli (GPa) = 69.00685 66.18935 95.79615
#
# Poissons Ratio (x) = 0.19683 0.37945
# Poissons Ratio (y) = 0.20521 0.30470
# Poissons Ratio (z) = 0.27333 0.21053
#
# Static dielectric constant tensor:
#      x y z
#    x 3.503500 0.000000 0.000000 
#    y 0.000000 3.483290 0.000000 
#    z 0.000000 0.000000 3.593690 
# 
# 
# High freq. dielectric constant tensor:
#      x y z
#    x 1.750300 0.000000 0.000000 
#    y 0.000000 1.742900 0.000000 
#    z 0.000000 0.000000 1.762380 
# 
# From -- ./inp_files/7376.got.cif
#   From: 2010.03.12/outbox.cif.g09.slc.cpg/sg47_4_cif.got.tgz:7376.got - 2010.04.14 03:12:58.
