data_PCOD8196534
_publ_section_title
;
Structure prediction by ZEFSAII (Michael W. Deem and Ramdas Pophale) SiO2 
 PCOD8196534
Probable space group: P M M M
;
_chemical_formula_sum "Si O2"
_cell_formula_units_Z 64
_cell_length_a 28.505601
_cell_length_b 9.082288
_cell_length_c 14.582883
_cell_angle_alpha 90.000000
_cell_angle_beta 90.000000
_cell_angle_gamma 90.000000
_cell_volume 3775.451213
_symmetry_space_group_name_H-M "P M M M"
_symmetry_group_IT_number 47
_symmetry_cell_setting 'orthorhombic'
loop_
_space_group_symop_operation_xyz
x,y,z
-x,-y,z
x,-y,-z
-x,y,-z
-x,-y,-z
x,y,-z
-x,y,z
x,-y,z
loop_
_atom_site_type_symbol
_atom_site_label
_atom_site_fract_x
_atom_site_fract_y
_atom_site_fract_z
Si Si1 0.090131 0.671563 0.604663
Si Si2 0.867082 0.174987 0.898559
Si Si3 0.356878 0.827638 0.392880
Si Si4 0.051922 0.171790 0.768921
Si Si5 0.551488 0.664373 0.391512
Si Si6 0.805154 0.674803 0.600963
Si Si7 0.238545 0.827447 0.893834
Si Si8 0.278323 0.675338 0.273266
O O1 0.076618 0.705146 0.500000
O O2 0.086091 0.500000 0.625916
O O3 0.054055 0.757029 0.668687
O O4 0.142759 0.729942 0.626329
O O5 0.907441 0.241927 0.833023
O O6 0.814663 0.222124 0.868058
O O7 0.870070 0.000000 0.900736
O O8 0.877064 0.237455 0.000000
O O9 0.348030 0.787345 0.500000
O O10 0.409028 0.780395 0.360632
O O11 0.322221 0.738229 0.327999
O O12 0.350640 0.000000 0.375766
O O13 0.000000 0.202748 0.810271
O O14 0.060786 0.000000 0.757879
O O15 0.549238 0.660578 0.500000
O O16 0.500000 0.712786 0.353565
O O17 0.563905 0.500000 0.355235
O O18 0.791032 0.734863 0.500000
O O19 0.805283 0.500000 0.597890
O O20 0.768089 0.733372 0.674495
O O21 0.275004 0.738248 0.830055
O O22 0.245419 0.000000 0.876036
O O23 0.249173 0.789503 0.000000
O O24 0.282251 0.500000 0.270243
#
# Coordination Sequence:
#
# PCOD8196534 Si02
#       8
#     8   8   8   8   8   8   8   8
#     4   9  18  33  50  64  81 111 150 184 214 257
#     4   8  15  30  51  71  90 114 143 174 213 266
#     4  10  20  31  43  64  97 134 169 202 235 276
#     4  10  20  31  45  68  93 113 137 175 220 261
#     4   8  14  26  44  64  88 123 167 210 247 280
#     4   8  15  28  45  65  87 112 145 183 221 262
#     4   9  18  33  51  68  88 116 149 186 228 275
#     4  11  20  29  46  69  94 123 152 188 234 280
#
# _framework density 16.951616000000001
#
# number of rings (size 3 to 8) (size 9 to 14) (size 15 to 20)
#    0.000    2.875    0.000    3.750    0.000    2.750 
#    0.000    4.375    0.000    2.625    0.000    0.875 
#    0.000    0.500    0.000    5.250    0.000    2.500 
#
# Total GULP energy -793234.712926 kJ/mol
# GULP energy per Si atom -12394.292389 kJ/mol
# Density = 1.691303 g / cm^3
# Si number density = 16.951616 Si / 1000 Ang^3
#
#
#
# Elastic Constant Matrix: (Units=GPa)
#
#
# Indices 1 2 3 4 5 6 
#
# 1 90.7472 39.2538 53.7966 0.0000 0.0000 0.0000
# 2 39.2538 50.3910 37.7051 0.0000 0.0000 0.0000
# 3 53.7966 37.7051 84.8859 0.0000 0.0000 0.0000
# 4 0.0000 0.0000 0.0000 20.2972 0.0000 0.0000
# 5 0.0000 0.0000 0.0000 0.0000 17.1101 0.0000
# 6 0.0000 0.0000 0.0000 0.0000 0.0000 22.5533
#
#
#
# Elastic Compliance Matrix: (Units=1/GPa)
#
#
# Indices 1 2 3 4 5 6 
#
# 1 0.020144 -0.009196 -0.008682 0.000000 0.000000 0.000000
# 2 -0.009196 0.033922 -0.009240 0.000000 0.000000 0.000000
# 3 -0.008682 -0.009240 0.021387 0.000000 0.000000 0.000000
# 4 0.000000 0.000000 0.000000 0.049268 0.000000 0.000000
# 5 0.000000 0.000000 0.000000 0.000000 0.058445 0.000000
# 6 0.000000 0.000000 0.000000 0.000000 0.000000 0.044339
#
#
# Mechanical properties :
#
#
# Convention : Reuss Voigt Hill
#
# Bulk Modulus (GPa) = 47.12950 54.17056 50.65003
# Shear Modulus (GPa) = 17.31229 18.34335 17.82782
#
# Velocity S-wave (km/s) = 3.19921 3.29310 3.24649
# Velocity P-wave (km/s) = 6.44277 6.81797 6.63302
#
# Compressibility (1/GPa) = 0.02121813
#
# Stress axis : x y z
#
# Youngs Moduli (GPa) = 49.64248 29.47956 46.75801
#
# Poissons Ratio (x) = 0.27109 0.40594
# Poissons Ratio (y) = 0.45650 0.43203
# Poissons Ratio (z) = 0.43098 0.27238
#
# Static dielectric constant tensor:
#      x y z
#    x 3.359950 0.000000 0.000000 
#    y 0.000000 2.901370 0.000000 
#    z 0.000000 0.000000 3.101450 
# 
# 
# High freq. dielectric constant tensor:
#      x y z
#    x 1.647310 0.000000 0.000000 
#    y 0.000000 1.632450 0.000000 
#    z 0.000000 0.000000 1.632840 
# 
# From -- ./inp_files/8334.got.cif
#   From: 2010.03.12/outbox.cif.g09.slc.cpg/sg47_5_cif.got.tgz:8334.got - 2010.04.14 03:12:58.
