data_PCOD8196002
_publ_section_title
;
Structure prediction by ZEFSAII (Michael W. Deem and Ramdas Pophale) SiO2 
 PCOD8196002
Probable space group: P M M M
;
_chemical_formula_sum "Si O2"
_cell_formula_units_Z 40
_cell_length_a 10.460278
_cell_length_b 9.456439
_cell_length_c 22.914411
_cell_angle_alpha 90.000000
_cell_angle_beta 90.000000
_cell_angle_gamma 90.000000
_cell_volume 2266.624354
_symmetry_space_group_name_H-M "P M M M"
_symmetry_group_IT_number 47
_symmetry_cell_setting 'orthorhombic'
loop_
_space_group_symop_operation_xyz
x,y,z
-x,-y,z
x,-y,-z
-x,y,-z
-x,-y,-z
x,y,-z
-x,y,z
x,-y,z
loop_
_atom_site_type_symbol
_atom_site_label
_atom_site_fract_x
_atom_site_fract_y
_atom_site_fract_z
Si Si1 0.500000 0.335513 0.064968
Si Si2 0.143708 0.846991 0.000000
Si Si3 0.769786 0.666823 0.892642
Si Si4 0.143465 0.667761 0.766274
Si Si5 0.352529 0.667092 0.325826
Si Si6 0.651444 0.842088 0.564131
O O1 0.500000 0.500000 0.052498
O O2 0.620447 0.293695 0.104198
O O3 0.500000 0.262193 0.000000
O O4 0.165042 0.752613 0.056453
O O5 0.000000 0.892407 0.000000
O O6 0.219328 0.000000 0.000000
O O7 0.795109 0.500000 0.901649
O O8 0.824676 0.721321 0.831236
O O9 0.148090 0.500000 0.765367
O O10 0.254292 0.725190 0.723184
O O11 0.000000 0.720289 0.748682
O O12 0.500000 0.710979 0.310862
O O13 0.342989 0.500000 0.332573
O O14 0.302552 0.733889 0.386362
O O15 0.703050 0.794799 0.500000
O O16 0.500000 0.842980 0.562386
O O17 0.701651 0.000000 0.578725
#
# Coordination Sequence:
#
# PCOD8196002 Si02
#       6
#     4   4   8   8   8   8
#     4   9  16  28  48  78 100 114 145 196 245 283
#     4  11  23  36  49  68  96 125 156 201 250 289
#     4  10  19  33  54  74  94 123 161 197 236 290
#     4   9  18  31  48  71  97 126 161 198 234 280
#     4   9  17  28  45  72 100 124 154 196 242 280
#     4   8  14  26  45  69  97 128 160 194 233 278
#
# _framework density 17.647387999999999
#
# number of rings (size 3 to 8) (size 9 to 14) (size 15 to 20)
#    0.000    2.800    1.000    1.500    1.400    2.000 
#    0.000    4.000    0.000    2.400    0.000    4.200 
#    0.000    0.000    0.000    0.000    0.000    0.000 
#
# Total GULP energy -495577.344986 kJ/mol
# GULP energy per Si atom -12389.433625 kJ/mol
# Density = 1.760722 g / cm^3
# Si number density = 17.647388 Si / 1000 Ang^3
#
#
#
# Elastic Constant Matrix: (Units=GPa)
#
#
# Indices 1 2 3 4 5 6 
#
# 1 101.2672 23.4210 61.5988 0.0000 0.0000 0.0000
# 2 23.4210 46.4110 47.0193 0.0000 0.0000 0.0000
# 3 61.5988 47.0193 156.5847 0.0000 0.0000 0.0000
# 4 0.0000 0.0000 0.0000 1.4470 0.0000 0.0000
# 5 0.0000 0.0000 0.0000 0.0000 12.7115 0.0000
# 6 0.0000 0.0000 0.0000 0.0000 0.0000 8.6757
#
#
#
# Elastic Compliance Matrix: (Units=1/GPa)
#
#
# Indices 1 2 3 4 5 6 
#
# 1 0.013109 -0.001999 -0.004557 0.000000 0.000000 0.000000
# 2 -0.001999 0.031272 -0.008604 0.000000 0.000000 0.000000
# 3 -0.004557 -0.008604 0.010762 0.000000 0.000000 0.000000
# 4 0.000000 0.000000 0.000000 0.691087 0.000000 0.000000
# 5 0.000000 0.000000 0.000000 0.000000 0.078669 0.000000
# 6 0.000000 0.000000 0.000000 0.000000 0.000000 0.115265
#
#
# Mechanical properties :
#
#
# Convention : Reuss Voigt Hill
#
# Bulk Modulus (GPa) = 40.28313 63.14900 51.71607
# Shear Modulus (GPa) = 5.10851 16.04843 10.57847
#
# Velocity S-wave (km/s) = 1.70325 3.01889 2.45099
# Velocity P-wave (km/s) = 5.17149 6.92914 6.11381
#
# Compressibility (1/GPa) = 0.02482429
#
# Stress axis : x y z
#
# Youngs Moduli (GPa) = 76.28409 31.97727 92.91531
#
# Poissons Ratio (x) = 0.06392 0.42338
# Poissons Ratio (y) = 0.15249 0.79945
# Poissons Ratio (z) = 0.34760 0.27513
#
# Static dielectric constant tensor:
#      x y z
#    x 3.849030 0.000000 0.000000 
#    y 0.000000 3.026680 0.000000 
#    z 0.000000 0.000000 3.527770 
# 
# 
# High freq. dielectric constant tensor:
#      x y z
#    x 1.667040 0.000000 0.000000 
#    y 0.000000 1.647650 0.000000 
#    z 0.000000 0.000000 1.686640 
# 
# From -- ./inp_files/30361.got.cif
#   From: 2010.03.12/outbox.cif.g09.slc.cpg/sg47_16_cif.got.tgz:30361.got - 2010.04.14 03:12:58.
