data_PCOD8196388
_publ_section_title
;
Structure prediction by ZEFSAII (Michael W. Deem and Ramdas Pophale) SiO2 
 PCOD8196388
Probable space group: P M M M
;
_chemical_formula_sum "Si O2"
_cell_formula_units_Z 56
_cell_length_a 9.110254
_cell_length_b 15.288290
_cell_length_c 20.603768
_cell_angle_alpha 90.000000
_cell_angle_beta 90.000000
_cell_angle_gamma 90.000000
_cell_volume 2869.697033
_symmetry_space_group_name_H-M "P M M M"
_symmetry_group_IT_number 47
_symmetry_cell_setting 'orthorhombic'
loop_
_space_group_symop_operation_xyz
x,y,z
-x,-y,z
x,-y,-z
-x,y,-z
-x,-y,-z
x,y,-z
-x,y,z
x,-y,z
loop_
_atom_site_type_symbol
_atom_site_label
_atom_site_fract_x
_atom_site_fract_y
_atom_site_fract_z
Si Si1 0.836342 0.130220 0.262355
Si Si2 0.827125 0.736222 0.571045
Si Si3 0.668454 0.096675 0.387656
Si Si4 0.162724 0.671100 0.297003
Si Si5 0.668393 0.265574 0.926146
Si Si6 0.173822 0.598525 0.167361
Si Si7 0.829120 0.097866 0.116972
O O1 0.724152 0.091091 0.313958
O O2 0.837772 0.234304 0.264659
O O3 0.782109 0.100319 0.192091
O O4 0.000000 0.093844 0.276396
O O5 0.796302 0.693437 0.500000
O O6 0.759047 0.832976 0.571053
O O7 0.761296 0.677003 0.630706
O O8 0.000000 0.748561 0.583504
O O9 0.500000 0.126529 0.387724
O O10 0.685857 0.000000 0.419051
O O11 0.237065 0.610266 0.241643
O O12 0.000000 0.634299 0.309144
O O13 0.500000 0.261420 0.903697
O O14 0.751546 0.334854 0.881573
O O15 0.735663 0.168509 0.922302
O O16 0.682359 0.298230 0.000000
O O17 0.208811 0.500000 0.144678
O O18 0.000000 0.617953 0.167479
O O19 0.000000 0.122044 0.109362
O O20 0.797685 0.000000 0.089881
#
# Coordination Sequence:
#
# PCOD8196388 Si02
#       7
#     8   8   8   8   8   8   8
#     4   9  16  30  52  74 101 138 178 223 273 324
#     4   9  18  32  50  70  96 138 185 224 267 324
#     4  10  20  30  41  64 100 137 175 226 281 327
#     4   8  14  29  53  79 106 134 170 220 273 323
#     4  11  25  42  58  80 117 159 191 229 282 338
#     4  10  20  37  64  92 114 141 183 235 288 342
#     4  10  20  35  58  85 112 147 193 241 283 327
#
# _framework density 19.514254999999999
#
# number of rings (size 3 to 8) (size 9 to 14) (size 15 to 20)
#    0.000    2.429    1.429    2.143    0.000    5.143 
#    0.000    4.286    0.000    0.429    0.000    3.000 
#    0.000    0.000    0.000    5.000    0.000    6.286 
#
# Total GULP energy -693898.472684 kJ/mol
# GULP energy per Si atom -12391.044155 kJ/mol
# Density = 1.946984 g / cm^3
# Si number density = 19.514255 Si / 1000 Ang^3
#
#
#
# Elastic Constant Matrix: (Units=GPa)
#
#
# Indices 1 2 3 4 5 6 
#
# 1 62.3792 33.0041 37.6650 0.0000 0.0000 0.0000
# 2 33.0041 87.0281 46.1539 0.0000 0.0000 0.0000
# 3 37.6650 46.1539 117.7296 0.0000 0.0000 0.0000
# 4 0.0000 0.0000 0.0000 -10.7121 0.0000 0.0000
# 5 0.0000 0.0000 0.0000 0.0000 9.9559 0.0000
# 6 0.0000 0.0000 0.0000 0.0000 0.0000 9.4515
#
#
#
# Elastic Compliance Matrix: (Units=1/GPa)
#
#
# Indices 1 2 3 4 5 6 
#
# 1 0.021976 -0.005814 -0.004751 0.000000 0.000000 0.000000
# 2 -0.005814 0.016045 -0.004430 0.000000 0.000000 0.000000
# 3 -0.004751 -0.004430 0.011751 0.000000 0.000000 0.000000
# 4 0.000000 0.000000 0.000000 -0.093352 0.000000 0.000000
# 5 0.000000 0.000000 0.000000 0.000000 0.100443 0.000000
# 6 0.000000 0.000000 0.000000 0.000000 0.000000 0.105803
#
#
# Mechanical properties :
#
#
# Convention : Reuss Voigt Hill
#
# Bulk Modulus (GPa) = 50.55468 55.64256 53.09862
# Shear Modulus (GPa) = 25.09405 11.75999 18.42702
#
# Velocity S-wave (km/s) = 3.58988 2.45753 3.07626
# Velocity P-wave (km/s) = 6.56855 6.05213 6.31562
#
# Compressibility (1/GPa) = 0.01978056
#
# Stress axis : x y z
#
# Youngs Moduli (GPa) = 45.50380 62.32518 85.10028
#
# Poissons Ratio (x) = 0.36238 0.40435
# Poissons Ratio (y) = 0.26457 0.37699
# Poissons Ratio (z) = 0.21621 0.27610
#
# Static dielectric constant tensor:
#      x y z
#    x 3.334690 0.000000 0.000000 
#    y 0.000000 3.441680 0.000000 
#    z 0.000000 0.000000 3.711790 
# 
# 
# High freq. dielectric constant tensor:
#      x y z
#    x 1.729360 0.000000 0.000000 
#    y 0.000000 1.741050 0.000000 
#    z 0.000000 0.000000 1.767370 
# 
# From -- ./inp_files/7281.got.cif
#   From: 2010.03.12/outbox.cif.g09.slc.cpg/sg47_4_cif.got.tgz:7281.got - 2010.04.14 03:12:58.
