data_PCOD8196558
_publ_section_title
;
Structure prediction by ZEFSAII (Michael W. Deem and Ramdas Pophale) SiO2 
 PCOD8196558
Probable space group: P M M M
;
_chemical_formula_sum "Si O2"
_cell_formula_units_Z 56
_cell_length_a 9.452659
_cell_length_b 19.103382
_cell_length_c 18.277280
_cell_angle_alpha 90.000000
_cell_angle_beta 90.000000
_cell_angle_gamma 90.000000
_cell_volume 3300.470204
_symmetry_space_group_name_H-M "P M M M"
_symmetry_group_IT_number 47
_symmetry_cell_setting 'orthorhombic'
loop_
_space_group_symop_operation_xyz
x,y,z
-x,-y,z
x,-y,-z
-x,y,-z
-x,-y,-z
x,y,-z
-x,y,z
x,-y,z
loop_
_atom_site_type_symbol
_atom_site_label
_atom_site_fract_x
_atom_site_fract_y
_atom_site_fract_z
Si Si1 0.337265 0.841095 0.083832
Si Si2 0.162724 0.423066 0.804171
Si Si3 0.838767 0.278731 0.855885
Si Si4 0.336221 0.422544 0.341584
Si Si5 0.163779 0.920416 0.201339
Si Si6 0.666251 0.717288 0.582502
Si Si7 0.839471 0.792883 0.703006
O O1 0.500000 0.836189 0.108914
O O2 0.266448 0.764672 0.092889
O O3 0.257720 0.899027 0.131871
O O4 0.325306 0.864729 0.000000
O O5 0.194393 0.500000 0.838659
O O6 0.196027 0.361781 0.863090
O O7 0.253611 0.410317 0.732699
O O8 0.000000 0.417037 0.779720
O O9 0.815055 0.258570 0.771248
O O10 0.000000 0.262187 0.879698
O O11 0.500000 0.415451 0.321544
O O12 0.303327 0.500000 0.374526
O O13 0.291030 0.362976 0.399182
O O14 0.199268 0.871752 0.271066
O O15 0.000000 0.909916 0.178778
O O16 0.197577 0.000000 0.223279
O O17 0.716363 0.732581 0.500000
O O18 0.500000 0.728302 0.591068
O O19 0.739939 0.772363 0.636060
O O20 0.000000 0.788702 0.674967
#
# Coordination Sequence:
#
# PCOD8196558 Si02
#       7
#     8   8   8   8   8   8   8
#     4  10  21  34  49  74 106 135 161 190 226 273
#     4   9  16  27  45  68  93 120 155 204 254 291
#     4   9  17  30  49  71  94 125 165 204 242 285
#     4   9  17  28  42  62  90 125 163 201 243 289
#     4   9  19  36  57  79 101 126 156 190 231 281
#     4  10  20  31  44  65  94 129 166 203 243 286
#     4   9  17  31  50  72  94 118 155 198 238 282
#
# _framework density 16.967279999999999
#
# number of rings (size 3 to 8) (size 9 to 14) (size 15 to 20)
#    0.000    2.714    1.429    1.286    0.000    5.143 
#    0.000    2.857    0.000    0.857    0.000    9.000 
#    0.000    0.000    0.000    0.000    0.000    0.000 
#
# Total GULP energy -694186.332149 kJ/mol
# GULP energy per Si atom -12396.184503 kJ/mol
# Density = 1.692866 g / cm^3
# Si number density = 16.967280 Si / 1000 Ang^3
#
#
#
# Elastic Constant Matrix: (Units=GPa)
#
#
# Indices 1 2 3 4 5 6 
#
# 1 65.9586 45.8766 37.1725 0.0000 0.0000 0.0000
# 2 45.8766 135.7289 41.7176 0.0000 0.0000 0.0000
# 3 37.1725 41.7176 61.6031 0.0000 0.0000 0.0000
# 4 0.0000 0.0000 0.0000 16.8527 0.0000 0.0000
# 5 0.0000 0.0000 0.0000 0.0000 -8.7558 0.0000
# 6 0.0000 0.0000 0.0000 0.0000 0.0000 21.8082
#
#
#
# Elastic Compliance Matrix: (Units=1/GPa)
#
#
# Indices 1 2 3 4 5 6 
#
# 1 0.025291 -0.004872 -0.011962 0.000000 0.000000 0.000000
# 2 -0.004872 0.010243 -0.003997 0.000000 0.000000 0.000000
# 3 -0.011962 -0.003997 0.026157 0.000000 0.000000 0.000000
# 4 0.000000 0.000000 0.000000 0.059338 0.000000 0.000000
# 5 0.000000 0.000000 0.000000 0.000000 -0.114210 0.000000
# 6 0.000000 0.000000 0.000000 0.000000 0.000000 0.045854
#
#
# Mechanical properties :
#
#
# Convention : Reuss Voigt Hill
#
# Bulk Modulus (GPa) = 49.92371 56.98045 53.45208
# Shear Modulus (GPa) = 49.50010 15.21596 32.35803
#
# Velocity S-wave (km/s) = 5.40714 2.99788 4.37176
# Velocity P-wave (km/s) = 8.27468 6.75563 7.55344
#
# Compressibility (1/GPa) = 0.02003056
#
# Stress axis : x y z
#
# Youngs Moduli (GPa) = 39.53992 97.63041 38.23002
#
# Poissons Ratio (x) = 0.47563 0.45730
# Poissons Ratio (y) = 0.19263 0.15279
# Poissons Ratio (z) = 0.47297 0.39019
#
# Static dielectric constant tensor:
#      x y z
#    x 3.185360 0.000000 0.000000 
#    y 0.000000 3.440230 0.000000 
#    z 0.000000 0.000000 2.852970 
# 
# 
# High freq. dielectric constant tensor:
#      x y z
#    x 1.655210 0.000000 0.000000 
#    y 0.000000 1.661480 0.000000 
#    z 0.000000 0.000000 1.616440 
# 
# From -- ./inp_files/9802.got.cif
#   From: 2010.03.12/outbox.cif.g09.slc.cpg/sg47_5_cif.got.tgz:9802.got - 2010.04.14 03:12:58.
