data_PCOD8196116
_publ_section_title
;
Structure prediction by ZEFSAII (Michael W. Deem and Ramdas Pophale) SiO2 
 PCOD8196116
Probable space group: P M M M
;
_chemical_formula_sum "Si O2"
_cell_formula_units_Z 48
_cell_length_a 9.297056
_cell_length_b 17.695926
_cell_length_c 15.482435
_cell_angle_alpha 90.000000
_cell_angle_beta 90.000000
_cell_angle_gamma 90.000000
_cell_volume 2547.170438
_symmetry_space_group_name_H-M "P M M M"
_symmetry_group_IT_number 47
_symmetry_cell_setting 'orthorhombic'
loop_
_space_group_symop_operation_xyz
x,y,z
-x,-y,z
x,-y,-z
-x,y,-z
-x,-y,-z
x,y,-z
-x,y,z
x,-y,z
loop_
_atom_site_type_symbol
_atom_site_label
_atom_site_fract_x
_atom_site_fract_y
_atom_site_fract_z
Si Si1 0.832331 0.353177 0.664307
Si Si2 0.830907 0.693137 0.145130
Si Si3 0.829358 0.417461 0.000000
Si Si4 0.833242 0.807534 0.597174
Si Si5 0.668212 0.915358 0.272484
Si Si6 0.333267 0.500000 0.398494
Si Si7 0.665589 0.158355 0.903534
O O1 0.783668 0.327194 0.758851
O O2 0.798125 0.281786 0.602963
O O3 0.739861 0.425098 0.638342
O O4 0.000000 0.375991 0.660627
O O5 0.759419 0.768447 0.111468
O O6 0.000000 0.706129 0.138127
O O7 0.776477 0.625005 0.085448
O O8 0.757945 0.500000 0.000000
O O9 0.000000 0.423658 0.000000
O O10 0.795077 0.834104 0.500000
O O11 0.745875 0.855784 0.666111
O O12 0.000000 0.820737 0.618569
O O13 0.500000 0.906292 0.289894
O O14 0.704309 0.901853 0.171216
O O15 0.720225 0.000000 0.295279
O O16 0.500000 0.500000 0.371929
O O17 0.311621 0.500000 0.500000
O O18 0.500000 0.182356 0.895816
O O19 0.697227 0.125024 0.000000
#
# Coordination Sequence:
#
# PCOD8196116 Si02
#       7
#     8   8   4   8   8   4   8
#     4  10  21  37  60  86 112 146 191 237 284 338
#     4  10  19  33  57  83 107 143 187 231 275 330
#     4   9  18  30  49  79 112 141 176 222 269 321
#     4  10  21  38  61  87 113 146 190 239 291 344
#     4  10  22  39  58  83 116 153 192 235 285 344
#     4  11  25  41  57  82 115 150 188 232 284 339
#     4  10  20  35  57  83 113 148 186 232 283 335
#
# _framework density 18.844439000000001
#
# number of rings (size 3 to 8) (size 9 to 14) (size 15 to 20)
#    0.000    2.000    2.500    0.750    1.167    4.000 
#    0.000    3.333    0.000    0.500    0.000    2.333 
#    0.000    0.000    0.000    0.000    0.000    0.000 
#
# Total GULP energy -595131.557016 kJ/mol
# GULP energy per Si atom -12398.574104 kJ/mol
# Density = 1.880155 g / cm^3
# Si number density = 18.844439 Si / 1000 Ang^3
#
#
#
# Elastic Constant Matrix: (Units=GPa)
#
#
# Indices 1 2 3 4 5 6 
#
# 1 51.7736 42.1168 43.1183 0.0000 0.0000 0.0000
# 2 42.1168 105.8493 44.6199 0.0000 0.0000 0.0000
# 3 43.1183 44.6199 124.5188 0.0000 0.0000 0.0000
# 4 0.0000 0.0000 0.0000 22.3812 0.0000 0.0000
# 5 0.0000 0.0000 0.0000 0.0000 21.5744 0.0000
# 6 0.0000 0.0000 0.0000 0.0000 0.0000 30.6691
#
#
#
# Elastic Compliance Matrix: (Units=1/GPa)
#
#
# Indices 1 2 3 4 5 6 
#
# 1 0.034567 -0.010258 -0.008294 0.000000 0.000000 0.000000
# 2 -0.010258 0.014172 -0.001526 0.000000 0.000000 0.000000
# 3 -0.008294 -0.001526 0.011450 0.000000 0.000000 0.000000
# 4 0.000000 0.000000 0.000000 0.044680 0.000000 0.000000
# 5 0.000000 0.000000 0.000000 0.000000 0.046351 0.000000
# 6 0.000000 0.000000 0.000000 0.000000 0.000000 0.032606
#
#
# Mechanical properties :
#
#
# Convention : Reuss Voigt Hill
#
# Bulk Modulus (GPa) = 49.91834 60.20575 55.06204
# Shear Modulus (GPa) = 21.67688 25.07739 23.37713
#
# Velocity S-wave (km/s) = 3.39530 3.65191 3.52594
# Velocity P-wave (km/s) = 6.47440 7.05692 6.77193
#
# Compressibility (1/GPa) = 0.02003272
#
# Stress axis : x y z
#
# Youngs Moduli (GPa) = 28.92959 70.56012 87.33647
#
# Poissons Ratio (x) = 0.72378 0.72437
# Poissons Ratio (y) = 0.29675 0.13332
# Poissons Ratio (z) = 0.23994 0.10771
#
# Static dielectric constant tensor:
#      x y z
#    x 3.313050 0.000000 0.000000 
#    y 0.000000 3.520820 0.000000 
#    z 0.000000 0.000000 3.774920 
# 
# 
# High freq. dielectric constant tensor:
#      x y z
#    x 1.713600 0.000000 0.000000 
#    y 0.000000 1.732030 0.000000 
#    z 0.000000 0.000000 1.750560 
# 
# From -- ./inp_files/6487.got.cif
#   From: 2010.03.12/outbox.cif.g09.slc.cpg/sg47_4_cif.got.tgz:6487.got - 2010.04.14 03:12:58.
