data_PCOD8196782
_publ_section_title
;
Structure prediction by ZEFSAII (Michael W. Deem and Ramdas Pophale) SiO2 
 PCOD8196782
Probable space group: P M M M
;
_chemical_formula_sum "Si O2"
_cell_formula_units_Z 64
_cell_length_a 21.031363
_cell_length_b 19.907692
_cell_length_c 9.169931
_cell_angle_alpha 90.000000
_cell_angle_beta 90.000000
_cell_angle_gamma 90.000000
_cell_volume 3839.320786
_symmetry_space_group_name_H-M "P M M M"
_symmetry_group_IT_number 47
_symmetry_cell_setting 'orthorhombic'
loop_
_space_group_symop_operation_xyz
x,y,z
-x,-y,z
x,-y,-z
-x,y,-z
-x,-y,-z
x,y,-z
-x,y,z
x,-y,z
loop_
_atom_site_type_symbol
_atom_site_label
_atom_site_fract_x
_atom_site_fract_y
_atom_site_fract_z
Si Si1 0.874940 0.076100 0.330140
Si Si2 0.255568 0.074475 0.831944
Si Si3 0.429952 0.291324 0.825875
Si Si4 0.814158 0.286275 0.826321
Si Si5 0.689038 0.789150 0.828932
Si Si6 0.227731 0.426925 0.173374
Si Si7 0.071033 0.196364 0.830851
Si Si8 0.628599 0.426920 0.826836
O O1 0.872401 0.092341 0.500000
O O2 0.805203 0.088016 0.266362
O O3 0.924091 0.126011 0.253652
O O4 0.897898 0.000000 0.300615
O O5 0.307959 0.131086 0.793377
O O6 0.284272 0.000000 0.802597
O O7 0.234040 0.082064 0.000000
O O8 0.500000 0.270235 0.768291
O O9 0.376364 0.240599 0.761962
O O10 0.415152 0.366613 0.767426
O O11 0.429214 0.290102 0.000000
O O12 0.751622 0.247959 0.765074
O O13 0.814070 0.363804 0.769433
O O14 0.877959 0.249975 0.768020
O O15 0.813711 0.284631 0.000000
O O16 0.687746 0.775403 0.000000
O O17 0.201669 0.500000 0.228938
O O18 0.299568 0.416380 0.229918
O O19 0.227657 0.426867 0.000000
O O20 0.000000 0.225335 0.807070
O O21 0.084532 0.181828 0.000000
O O22 0.602829 0.500000 0.773456
O O23 0.629004 0.424992 0.000000
#
# Coordination Sequence:
#
# PCOD8196782 Si02
#       8
#     8   8   8   8   8   8   8   8
#     4  10  20  32  46  66  92 117 139 169 215 263
#     4   9  16  27  45  65  83 108 145 181 210 246
#     4   9  15  20  27  44  72 104 136 171 210 249
#     4   9  14  23  39  56  75 103 140 179 212 245
#     4   9  14  22  37  54  72 101 139 175 209 246
#     4   8  12  18  31  51  74 101 135 174 214 254
#     4  10  20  32  46  64  85 114 151 183 208 241
#     4   8  12  17  24  37  61  96 137 171 197 236
#
# _framework density 16.669615
#
# number of rings (size 3 to 8) (size 9 to 14) (size 15 to 20)
#    0.000    3.000    2.500    1.125    0.000    1.500 
#    0.000    2.500    0.000    0.750    0.000    5.250 
#    0.000    1.000    0.000    4.250    0.000    4.875 
#
# Total GULP energy -792923.439865 kJ/mol
# GULP energy per Si atom -12389.428748 kJ/mol
# Density = 1.663167 g / cm^3
# Si number density = 16.669615 Si / 1000 Ang^3
#
#
#
# Elastic Constant Matrix: (Units=GPa)
#
#
# Indices 1 2 3 4 5 6 
#
# 1 118.1184 77.6540 15.0110 0.0000 0.0000 0.0000
# 2 77.6540 141.7773 16.1410 0.0000 0.0000 0.0000
# 3 15.0110 16.1410 18.1941 0.0000 0.0000 0.0000
# 4 0.0000 0.0000 0.0000 4.6374 0.0000 0.0000
# 5 0.0000 0.0000 0.0000 0.0000 2.2091 0.0000
# 6 0.0000 0.0000 0.0000 0.0000 0.0000 25.4724
#
#
#
# Elastic Compliance Matrix: (Units=1/GPa)
#
#
# Indices 1 2 3 4 5 6 
#
# 1 0.013650 -0.006890 -0.005149 0.000000 0.000000 0.000000
# 2 -0.006890 0.011324 -0.004361 0.000000 0.000000 0.000000
# 3 -0.005149 -0.004361 0.063081 0.000000 0.000000 0.000000
# 4 0.000000 0.000000 0.000000 0.215637 0.000000 0.000000
# 5 0.000000 0.000000 0.000000 0.000000 0.452683 0.000000
# 6 0.000000 0.000000 0.000000 0.000000 0.000000 0.039258
#
#
# Mechanical properties :
#
#
# Convention : Reuss Voigt Hill
#
# Bulk Modulus (GPa) = 18.09858 55.07798 36.58828
# Shear Modulus (GPa) = 5.90422 17.74935 11.82678
#
# Velocity S-wave (km/s) = 1.88404 3.26663 2.66650
# Velocity P-wave (km/s) = 3.95140 6.88044 5.61044
#
# Compressibility (1/GPa) = 0.05525295
#
# Stress axis : x y z
#
# Youngs Moduli (GPa) = 73.25818 88.30986 15.85275
#
# Poissons Ratio (x) = 0.60848 0.08163
# Poissons Ratio (y) = 0.50477 0.06914
# Poissons Ratio (z) = 0.37724 0.38513
#
# Static dielectric constant tensor:
#      x y z
#    x 3.129190 0.000000 0.000000 
#    y 0.000000 3.587760 0.000000 
#    z 0.000000 0.000000 2.533740 
# 
# 
# High freq. dielectric constant tensor:
#      x y z
#    x 1.618680 0.000000 0.000000 
#    y 0.000000 1.655850 0.000000 
#    z 0.000000 0.000000 1.570590 
# 
# From -- ./inp_files/11806.got.cif
#   From: 2010.03.12/outbox.cif.g09.slc.cpg/sg47_6_cif.got.tgz:11806.got - 2010.04.14 03:12:58.
