data_PCOD8196402
_publ_section_title
;
Structure prediction by ZEFSAII (Michael W. Deem and Ramdas Pophale) SiO2 
 PCOD8196402
Probable space group: P M M M
;
_chemical_formula_sum "Si O2"
_cell_formula_units_Z 56
_cell_length_a 15.336782
_cell_length_b 30.891419
_cell_length_c 9.160215
_cell_angle_alpha 90.000000
_cell_angle_beta 90.000000
_cell_angle_gamma 90.000000
_cell_volume 4339.880485
_symmetry_space_group_name_H-M "P M M M"
_symmetry_group_IT_number 47
_symmetry_cell_setting 'orthorhombic'
loop_
_space_group_symop_operation_xyz
x,y,z
-x,-y,z
x,-y,-z
-x,y,-z
-x,-y,-z
x,y,-z
-x,y,z
x,-y,z
loop_
_atom_site_type_symbol
_atom_site_label
_atom_site_fract_x
_atom_site_fract_y
_atom_site_fract_z
Si Si1 0.896333 0.547699 0.164060
Si Si2 0.896036 0.286637 0.164981
Si Si3 0.895952 0.370332 0.335951
Si Si4 0.219172 0.050365 0.327249
Si Si5 0.896217 0.202925 0.334941
Si Si6 0.102705 0.117757 0.168829
Si Si7 0.592136 0.051369 0.663990
O O1 0.865988 0.500000 0.219046
O O2 0.858312 0.585054 0.268432
O O3 0.000000 0.549875 0.164341
O O4 0.862058 0.555815 0.000000
O O5 0.860657 0.329964 0.242376
O O6 0.859625 0.245236 0.252592
O O7 0.000000 0.286264 0.164827
O O8 0.860156 0.285193 0.000000
O O9 0.860282 0.365975 0.500000
O O10 0.000000 0.370699 0.334636
O O11 0.211092 0.059131 0.500000
O O12 0.146202 0.075982 0.239991
O O13 0.315236 0.066342 0.267374
O O14 0.204228 0.000000 0.293057
O O15 0.859857 0.202285 0.500000
O O16 0.862653 0.160602 0.250236
O O17 0.000000 0.204127 0.335502
O O18 0.000000 0.112342 0.189415
O O19 0.128549 0.121519 0.000000
O O20 0.588712 0.069406 0.500000
O O21 0.500000 0.066166 0.742952
O O22 0.595453 0.000000 0.659349
#
# Coordination Sequence:
#
# PCOD8196402 Si02
#       7
#     8   8   8   8   8   8   8
#     4   8  13  20  27  33  43  61  83 105 132 169
#     4   9  15  22  32  44  57  71  87 110 143 182
#     4   9  15  20  26  37  51  65  83 108 137 169
#     4   9  17  28  42  59  75  91 113 139 164 190
#     4   9  16  26  39  51  61  74  96 127 159 188
#     4  10  20  31  40  50  67  92 118 140 164 195
#     4   7  10  19  37  59  78  92 107 130 160 192
#
# _framework density 12.903582
#
# number of rings (size 3 to 8) (size 9 to 14) (size 15 to 20)
#    0.000    3.286    0.000    3.429    0.000    6.857 
#    0.000    2.857    0.000    0.429    0.000    2.000 
#    0.000    0.000    0.000    0.000    0.000    0.000 
#
# Total GULP energy -693747.849243 kJ/mol
# GULP energy per Si atom -12388.354451 kJ/mol
# Density = 1.287421 g / cm^3
# Si number density = 12.903582 Si / 1000 Ang^3
#
#
#
# Elastic Constant Matrix: (Units=GPa)
#
#
# Indices 1 2 3 4 5 6 
#
# 1 19.6493 23.3477 19.2873 0.0000 0.0000 0.0000
# 2 23.3477 98.9716 60.7013 0.0000 0.0000 0.0000
# 3 19.2873 60.7013 98.2662 0.0000 0.0000 0.0000
# 4 0.0000 0.0000 0.0000 26.0359 0.0000 0.0000
# 5 0.0000 0.0000 0.0000 0.0000 4.1262 0.0000
# 6 0.0000 0.0000 0.0000 0.0000 0.0000 0.2190
#
#
#
# Elastic Compliance Matrix: (Units=1/GPa)
#
#
# Indices 1 2 3 4 5 6 
#
# 1 0.072795 -0.013539 -0.005925 0.000000 0.000000 0.000000
# 2 -0.013539 0.018785 -0.008946 0.000000 0.000000 0.000000
# 3 -0.005925 -0.008946 0.016866 0.000000 0.000000 0.000000
# 4 0.000000 0.000000 0.000000 0.038408 0.000000 0.000000
# 5 0.000000 0.000000 0.000000 0.000000 0.242354 0.000000
# 6 0.000000 0.000000 0.000000 0.000000 0.000000 4.565604
#
#
# Mechanical properties :
#
#
# Convention : Reuss Voigt Hill
#
# Bulk Modulus (GPa) = 19.37019 47.06218 33.21618
# Shear Modulus (GPa) = 0.99427 13.64629 7.32028
#
# Velocity S-wave (km/s) = 0.87875 3.25554 2.38440
# Velocity P-wave (km/s) = 4.00920 7.11918 5.77739
#
# Compressibility (1/GPa) = 0.05162572
#
# Stress axis : x y z
#
# Youngs Moduli (GPa) = 13.73719 53.23453 59.29179
#
# Poissons Ratio (x) = 0.72073 0.35128
# Poissons Ratio (y) = 0.18599 0.53045
# Poissons Ratio (z) = 0.08139 0.47626
#
# Static dielectric constant tensor:
#      x y z
#    x 2.265390 0.000000 0.000000 
#    y 0.000000 2.692440 0.000000 
#    z 0.000000 0.000000 2.671550 
# 
# 
# High freq. dielectric constant tensor:
#      x y z
#    x 1.414950 0.000000 0.000000 
#    y 0.000000 1.489180 0.000000 
#    z 0.000000 0.000000 1.492750 
# 
# From -- ./inp_files/8128.got.cif
#   From: 2010.03.12/outbox.cif.g09.slc.cpg/sg47_5_cif.got.tgz:8128.got - 2010.04.14 03:12:58.
