data_PCOD8196930
_publ_section_title
;
Structure prediction by ZEFSAII (Michael W. Deem and Ramdas Pophale) SiO2 
 PCOD8196930
Probable space group: P M M M
;
_chemical_formula_sum "Si O2"
_cell_formula_units_Z 64
_cell_length_a 28.140495
_cell_length_b 14.375216
_cell_length_c 9.120369
_cell_angle_alpha 90.000000
_cell_angle_beta 90.000000
_cell_angle_gamma 90.000000
_cell_volume 3689.423599
_symmetry_space_group_name_H-M "P M M M"
_symmetry_group_IT_number 47
_symmetry_cell_setting 'orthorhombic'
loop_
_space_group_symop_operation_xyz
x,y,z
-x,-y,z
x,-y,-z
-x,y,-z
-x,-y,-z
x,y,-z
-x,y,z
x,-y,z
loop_
_atom_site_type_symbol
_atom_site_label
_atom_site_fract_x
_atom_site_fract_y
_atom_site_fract_z
Si Si1 0.447349 0.604025 0.674125
Si Si2 0.816270 0.395735 0.667400
Si Si3 0.134138 0.212792 0.331357
Si Si4 0.676194 0.894230 0.829453
Si Si5 0.214770 0.108786 0.833977
Si Si6 0.053920 0.895095 0.827404
Si Si7 0.720668 0.391744 0.831497
Si Si8 0.640306 0.723102 0.674278
O O1 0.446105 0.602638 0.500000
O O2 0.500000 0.634395 0.728531
O O3 0.435648 0.500000 0.732576
O O4 0.408365 0.676470 0.733525
O O5 0.797744 0.387923 0.500000
O O6 0.835228 0.500000 0.700052
O O7 0.859318 0.323558 0.694034
O O8 0.773435 0.369743 0.775386
O O9 0.126693 0.187794 0.500000
O O10 0.181747 0.162464 0.278482
O O11 0.087643 0.180121 0.246493
O O12 0.730756 0.865757 0.799429
O O13 0.642062 0.828031 0.735123
O O14 0.666956 0.000000 0.779112
O O15 0.664225 0.882625 0.000000
O O16 0.206147 0.000000 0.813192
O O17 0.201757 0.137853 0.000000
O O18 0.000000 0.874609 0.778192
O O19 0.068422 0.000000 0.780253
O O20 0.059186 0.884768 0.000000
O O21 0.708797 0.500000 0.813407
O O22 0.684085 0.335306 0.734344
O O23 0.717134 0.359330 0.000000
O O24 0.642642 0.724725 0.500000
#
# Coordination Sequence:
#
# PCOD8196930 Si02
#       8
#     8   8   8   8   8   8   8   8
#     4   8  15  29  48  70  96 124 154 190 235 289
#     4   9  19  35  50  66  95 132 166 200 237 278
#     4  11  21  30  47  75  99 122 155 195 239 280
#     4   9  19  35  51  67  93 131 169 202 237 279
#     4   9  18  32  48  66  92 128 163 190 223 274
#     4   9  19  36  55  73  95 125 157 187 227 283
#     4  10  20  32  47  70 100 132 165 199 236 283
#     4  11  20  29  48  75  98 123 158 200 246 292
#
# _framework density 17.346882999999998
#
# number of rings (size 3 to 8) (size 9 to 14) (size 15 to 20)
#    0.000    2.500    0.000    4.125    0.000    7.250 
#    0.000    1.875    0.000    2.250    0.000    9.625 
#    0.000    0.000    0.000    0.000    0.000    0.000 
#
# Total GULP energy -793552.669953 kJ/mol
# GULP energy per Si atom -12399.260468 kJ/mol
# Density = 1.730740 g / cm^3
# Si number density = 17.346883 Si / 1000 Ang^3
#
#
#
# Elastic Constant Matrix: (Units=GPa)
#
#
# Indices 1 2 3 4 5 6 
#
# 1 98.2673 76.4808 41.3688 0.0000 0.0000 0.0000
# 2 76.4808 93.3976 43.2080 0.0000 0.0000 0.0000
# 3 41.3688 43.2080 58.6930 0.0000 0.0000 0.0000
# 4 0.0000 0.0000 0.0000 28.3187 0.0000 0.0000
# 5 0.0000 0.0000 0.0000 0.0000 14.5530 0.0000
# 6 0.0000 0.0000 0.0000 0.0000 0.0000 30.5326
#
#
#
# Elastic Compliance Matrix: (Units=1/GPa)
#
#
# Indices 1 2 3 4 5 6 
#
# 1 0.028808 -0.021528 -0.004456 0.000000 0.000000 0.000000
# 2 -0.021528 0.032325 -0.008623 0.000000 0.000000 0.000000
# 3 -0.004456 -0.008623 0.026526 0.000000 0.000000 0.000000
# 4 0.000000 0.000000 0.000000 0.035312 0.000000 0.000000
# 5 0.000000 0.000000 0.000000 0.000000 0.068715 0.000000
# 6 0.000000 0.000000 0.000000 0.000000 0.000000 0.032752
#
#
# Mechanical properties :
#
#
# Convention : Reuss Voigt Hill
#
# Bulk Modulus (GPa) = 54.21624 63.60814 58.91219
# Shear Modulus (GPa) = 16.67776 20.63420 18.65598
#
# Velocity S-wave (km/s) = 3.10405 3.45266 3.28299
# Velocity P-wave (km/s) = 6.64597 7.25551 6.95742
#
# Compressibility (1/GPa) = 0.01844466
#
# Stress axis : x y z
#
# Youngs Moduli (GPa) = 34.71307 30.93583 37.69822
#
# Poissons Ratio (x) = 0.66600 0.16799
# Poissons Ratio (y) = 0.74731 0.32507
# Poissons Ratio (z) = 0.15468 0.26675
#
# Static dielectric constant tensor:
#      x y z
#    x 3.191470 0.000000 0.000000 
#    y 0.000000 3.404740 0.000000 
#    z 0.000000 0.000000 3.132320 
# 
# 
# High freq. dielectric constant tensor:
#      x y z
#    x 1.650070 0.000000 0.000000 
#    y 0.000000 1.674630 0.000000 
#    z 0.000000 0.000000 1.661920 
# 
# From -- ./inp_files/12716.got.cif
#   From: 2010.03.12/outbox.cif.g09.slc.cpg/sg47_7_cif.got.tgz:12716.got - 2010.04.14 03:12:58.
