data_PCOD8196512
_publ_section_title
;
Structure prediction by ZEFSAII (Michael W. Deem and Ramdas Pophale) SiO2 
 PCOD8196512
Probable space group: P M M M
;
_chemical_formula_sum "Si O2"
_cell_formula_units_Z 56
_cell_length_a 9.526919
_cell_length_b 19.206364
_cell_length_c 18.590562
_cell_angle_alpha 90.000000
_cell_angle_beta 90.000000
_cell_angle_gamma 90.000000
_cell_volume 3401.654077
_symmetry_space_group_name_H-M "P M M M"
_symmetry_group_IT_number 47
_symmetry_cell_setting 'orthorhombic'
loop_
_space_group_symop_operation_xyz
x,y,z
-x,-y,z
x,-y,-z
-x,y,-z
-x,-y,-z
x,y,-z
-x,y,z
x,-y,z
loop_
_atom_site_type_symbol
_atom_site_label
_atom_site_fract_x
_atom_site_fract_y
_atom_site_fract_z
Si Si1 0.838055 0.577892 0.205479
Si Si2 0.837864 0.712644 0.285576
Si Si3 0.664048 0.643812 0.081352
Si Si4 0.334399 0.074161 0.189009
Si Si5 0.837875 0.199677 0.419123
Si Si6 0.662534 0.079147 0.352312
Si Si7 0.336495 0.221470 0.837883
O O1 0.802245 0.500000 0.232338
O O2 0.801998 0.631085 0.270637
O O3 0.748383 0.593939 0.134401
O O4 0.000000 0.584482 0.182762
O O5 0.800581 0.734889 0.367051
O O6 0.746356 0.759722 0.233563
O O7 0.000000 0.727109 0.267873
O O8 0.500000 0.628386 0.091960
O O9 0.698145 0.725146 0.097866
O O10 0.711544 0.628426 0.000000
O O11 0.500000 0.066221 0.190707
O O12 0.282617 0.086335 0.270501
O O13 0.292203 0.141801 0.140883
O O14 0.271826 0.000000 0.159259
O O15 0.803712 0.224542 0.500000
O O16 0.749857 0.130931 0.402078
O O17 0.000000 0.179055 0.410353
O O18 0.500000 0.100198 0.358232
O O19 0.685573 0.000000 0.379394
O O20 0.500000 0.224411 0.817771
#
# Coordination Sequence:
#
# PCOD8196512 Si02
#       7
#     8   8   8   8   8   8   8
#     4   9  18  32  50  70  89 112 143 177 212 250
#     4   9  17  30  46  63  85 110 140 179 216 253
#     4   9  18  30  44  67  97 123 144 169 206 253
#     4   8  13  22  39  62  83 105 139 183 222 249
#     4  10  20  31  43  61  87 118 146 176 220 268
#     4   9  17  29  44  62  85 113 147 186 223 258
#     4   9  15  26  46  64  82 113 149 181 212 250
#
# _framework density 16.462579000000002
#
# number of rings (size 3 to 8) (size 9 to 14) (size 15 to 20)
#    0.000    3.000    1.429    0.857    0.000    1.714 
#    0.000    2.857    0.000    1.286    0.000    6.000 
#    0.000    0.000    0.000   15.571    0.000   16.286 
#
# Total GULP energy -693863.733367 kJ/mol
# GULP energy per Si atom -12390.423810 kJ/mol
# Density = 1.642511 g / cm^3
# Si number density = 16.462579 Si / 1000 Ang^3
#
#
#
# Elastic Constant Matrix: (Units=GPa)
#
#
# Indices 1 2 3 4 5 6 
#
# 1 34.2295 30.8559 24.7883 0.0000 0.0000 0.0000
# 2 30.8559 128.9919 39.9895 0.0000 0.0000 0.0000
# 3 24.7883 39.9895 63.4821 0.0000 0.0000 0.0000
# 4 0.0000 0.0000 0.0000 17.3108 0.0000 0.0000
# 5 0.0000 0.0000 0.0000 0.0000 17.8182 0.0000
# 6 0.0000 0.0000 0.0000 0.0000 0.0000 20.6604
#
#
#
# Elastic Compliance Matrix: (Units=1/GPa)
#
#
# Indices 1 2 3 4 5 6 
#
# 1 0.044818 -0.006581 -0.013355 0.000000 0.000000 0.000000
# 2 -0.006581 0.010600 -0.004108 0.000000 0.000000 0.000000
# 3 -0.013355 -0.004108 0.023555 0.000000 0.000000 0.000000
# 4 0.000000 0.000000 0.000000 0.057767 0.000000 0.000000
# 5 0.000000 0.000000 0.000000 0.000000 0.056122 0.000000
# 6 0.000000 0.000000 0.000000 0.000000 0.000000 0.048402
#
#
# Mechanical properties :
#
#
# Convention : Reuss Voigt Hill
#
# Bulk Modulus (GPa) = 32.37695 46.44123 39.40909
# Shear Modulus (GPa) = 16.68632 19.89586 18.29109
#
# Velocity S-wave (km/s) = 3.18715 3.48019 3.33689
# Velocity P-wave (km/s) = 5.76659 6.66486 6.23193
#
# Compressibility (1/GPa) = 0.03088617
#
# Stress axis : x y z
#
# Youngs Moduli (GPa) = 22.31247 94.33949 42.45398
#
# Poissons Ratio (x) = 0.62081 0.56698
# Poissons Ratio (y) = 0.14683 0.17439
# Poissons Ratio (z) = 0.29798 0.38752
#
# Static dielectric constant tensor:
#      x y z
#    x 2.979110 0.000000 0.000000 
#    y 0.000000 3.484970 0.000000 
#    z 0.000000 0.000000 2.957700 
# 
# 
# High freq. dielectric constant tensor:
#      x y z
#    x 1.618440 0.000000 0.000000 
#    y 0.000000 1.642200 0.000000 
#    z 0.000000 0.000000 1.601180 
# 
# From -- ./inp_files/9839.got.cif
#   From: 2010.03.12/outbox.cif.g09.slc.cpg/sg47_5_cif.got.tgz:9839.got - 2010.04.14 03:12:58.
