data_PCOD8196246
_publ_section_title
;
Structure prediction by ZEFSAII (Michael W. Deem and Ramdas Pophale) SiO2 
 PCOD8196246
Probable space group: P M M M
;
_chemical_formula_sum "Si O2"
_cell_formula_units_Z 48
_cell_length_a 19.535666
_cell_length_b 13.912895
_cell_length_c 8.193975
_cell_angle_alpha 90.000000
_cell_angle_beta 90.000000
_cell_angle_gamma 90.000000
_cell_volume 2227.103312
_symmetry_space_group_name_H-M "P M M M"
_symmetry_group_IT_number 47
_symmetry_cell_setting 'orthorhombic'
loop_
_space_group_symop_operation_xyz
x,y,z
-x,-y,z
x,-y,-z
-x,y,-z
-x,-y,-z
x,y,-z
-x,y,z
x,-y,z
loop_
_atom_site_type_symbol
_atom_site_label
_atom_site_fract_x
_atom_site_fract_y
_atom_site_fract_z
Si Si1 0.135281 0.000000 0.694139
Si Si2 0.643299 0.820342 0.312620
Si Si3 0.305549 0.363946 0.815550
Si Si4 0.500000 0.106885 0.693765
Si Si5 0.922742 0.208181 0.306898
Si Si6 0.716120 0.000000 0.810826
Si Si7 0.158186 0.605541 0.689273
Si Si8 0.423071 0.500000 0.192967
O O1 0.097732 0.900416 0.748333
O O2 0.148386 0.000000 0.500000
O O3 0.202971 0.000000 0.800730
O O4 0.644038 0.785029 0.500000
O O5 0.682303 0.748484 0.193952
O O6 0.566355 0.835531 0.246731
O O7 0.686977 0.914578 0.295480
O O8 0.239957 0.392355 0.710483
O O9 0.376780 0.409876 0.749372
O O10 0.290808 0.396945 0.000000
O O11 0.500000 0.096820 0.500000
O O12 0.500000 0.000000 0.770947
O O13 0.916653 0.211527 0.500000
O O14 0.877451 0.298052 0.232383
O O15 0.000000 0.226188 0.247113
O O16 0.692522 0.000000 0.000000
O O17 0.140751 0.607779 0.500000
O O18 0.132407 0.500000 0.758198
O O19 0.500000 0.500000 0.272908
O O20 0.432735 0.500000 0.000000
#
# Coordination Sequence:
#
# PCOD8196246 Si02
#       8
#     4   8   8   4   8   4   8   4
#     4  10  19  34  59  85 114 153 191 235 289 344
#     4  11  22  38  59  82 113 150 190 240 295 351
#     4  11  22  38  60  85 114 152 196 245 296 351
#     4   9  18  36  58  79 108 149 191 235 293 353
#     4   9  18  33  56  87 117 148 192 242 291 344
#     4  12  24  38  56  85 117 151 194 237 278 338
#     4  10  20  35  57  84 116 154 196 245 298 355
#     4   9  20  38  57  79 112 151 192 242 299 349
#
# _framework density 21.552659999999999
#
# number of rings (size 3 to 8) (size 9 to 14) (size 15 to 20)
#    0.000    1.833    1.667    3.000    1.167    2.667 
#    0.000    3.333    0.000    4.500    0.000    1.167 
#    0.000    0.000    0.000    0.000    0.000    0.000 
#
# Total GULP energy -594668.973665 kJ/mol
# GULP energy per Si atom -12388.936951 kJ/mol
# Density = 2.150360 g / cm^3
# Si number density = 21.552660 Si / 1000 Ang^3
#
#
#
# Elastic Constant Matrix: (Units=GPa)
#
#
# Indices 1 2 3 4 5 6 
#
# 1 147.0629 67.3591 4.8199 0.0000 0.0000 0.0000
# 2 67.3591 189.5089 6.6664 0.0000 0.0000 0.0000
# 3 4.8199 6.6664 24.1760 0.0000 0.0000 0.0000
# 4 0.0000 0.0000 0.0000 23.3685 0.0000 0.0000
# 5 0.0000 0.0000 0.0000 0.0000 15.4808 0.0000
# 6 0.0000 0.0000 0.0000 0.0000 0.0000 31.5522
#
#
#
# Elastic Compliance Matrix: (Units=1/GPa)
#
#
# Indices 1 2 3 4 5 6 
#
# 1 0.008139 -0.002864 -0.000833 0.000000 0.000000 0.000000
# 2 -0.002864 0.006336 -0.001176 0.000000 0.000000 0.000000
# 3 -0.000833 -0.001176 0.041854 0.000000 0.000000 0.000000
# 4 0.000000 0.000000 0.000000 0.042793 0.000000 0.000000
# 5 0.000000 0.000000 0.000000 0.000000 0.064596 0.000000
# 6 0.000000 0.000000 0.000000 0.000000 0.000000 0.031694
#
#
# Mechanical properties :
#
#
# Convention : Reuss Voigt Hill
#
# Bulk Modulus (GPa) = 21.46710 57.60429 39.53570
# Shear Modulus (GPa) = 22.65688 32.87380 27.76534
#
# Velocity S-wave (km/s) = 3.24579 3.90972 3.59312
# Velocity P-wave (km/s) = 4.90192 6.86778 5.96637
#
# Compressibility (1/GPa) = 0.04658290
#
# Stress axis : x y z
#
# Youngs Moduli (GPa) = 122.86995 157.82871 23.89277
#
# Poissons Ratio (x) = 0.45195 0.01990
# Poissons Ratio (y) = 0.35184 0.02810
# Poissons Ratio (z) = 0.10235 0.18564
#
# Static dielectric constant tensor:
#      x y z
#    x 4.063400 0.000000 0.000000 
#    y 0.000000 4.357480 0.000000 
#    z 0.000000 0.000000 3.322130 
# 
# 
# High freq. dielectric constant tensor:
#      x y z
#    x 1.847160 0.000000 0.000000 
#    y 0.000000 1.868340 0.000000 
#    z 0.000000 0.000000 1.798620 
# 
# From -- ./inp_files/9295.got.cif
#   From: 2010.03.12/outbox.cif.g09.slc.cpg/sg47_5_cif.got.tgz:9295.got - 2010.04.14 03:12:58.
