data_PCOD8196271
_publ_section_title
;
Structure prediction by ZEFSAII (Michael W. Deem and Ramdas Pophale) SiO2 
 PCOD8196271
Probable space group: P M M M
;
_chemical_formula_sum "Si O2"
_cell_formula_units_Z 44
_cell_length_a 14.872543
_cell_length_b 15.267777
_cell_length_c 9.787238
_cell_angle_alpha 90.000000
_cell_angle_beta 90.000000
_cell_angle_gamma 90.000000
_cell_volume 2222.394690
_symmetry_space_group_name_H-M "P M M M"
_symmetry_group_IT_number 47
_symmetry_cell_setting 'orthorhombic'
loop_
_space_group_symop_operation_xyz
x,y,z
-x,-y,z
x,-y,-z
-x,y,-z
-x,-y,-z
x,y,-z
-x,y,z
x,-y,z
loop_
_atom_site_type_symbol
_atom_site_label
_atom_site_fract_x
_atom_site_fract_y
_atom_site_fract_z
Si Si1 0.148415 0.151465 0.851034
Si Si2 0.399386 0.257783 0.656783
Si Si3 0.649794 0.099689 0.843693
Si Si4 0.895534 0.349272 0.846852
Si Si5 0.256750 0.597345 0.656538
Si Si6 0.000000 0.900334 0.353894
O O1 0.244195 0.109106 0.826104
O O2 0.151772 0.255502 0.846813
O O3 0.088214 0.119924 0.729048
O O4 0.110828 0.121669 0.000000
O O5 0.377121 0.233443 0.500000
O O6 0.500000 0.296994 0.668815
O O7 0.397339 0.168989 0.744814
O O8 0.329475 0.331574 0.710727
O O9 0.622058 0.000000 0.804296
O O10 0.621122 0.119490 0.000000
O O11 0.835848 0.405199 0.742787
O O12 0.000000 0.344419 0.798523
O O13 0.891266 0.389443 0.000000
O O14 0.231521 0.618594 0.500000
O O15 0.299500 0.500000 0.668624
O O16 0.000000 0.848870 0.500000
O O17 0.000000 0.000000 0.390609
#
# Coordination Sequence:
#
# PCOD8196271 Si02
#       6
#     8   8   8   8   8   4
#     4  10  19  35  56  77 106 150 198 241 288 342
#     4  10  22  40  62  88 118 153 192 238 294 351
#     4  10  21  37  59  86 115 151 195 241 289 342
#     4  10  20  36  59  86 115 150 193 238 287 343
#     4  10  22  40  62  88 117 151 192 239 292 348
#     4  11  23  33  45  75 114 149 192 243 291 340
#
# _framework density 19.798463000000002
#
# number of rings (size 3 to 8) (size 9 to 14) (size 15 to 20)
#    0.000    1.909    2.727    0.818    0.000    5.455 
#    0.000    5.455    0.000    0.000    0.000    2.545 
#    0.000    0.000    0.000    0.000    0.000    0.000 
#
# Total GULP energy -545359.411372 kJ/mol
# GULP energy per Si atom -12394.532077 kJ/mol
# Density = 1.975340 g / cm^3
# Si number density = 19.798463 Si / 1000 Ang^3
#
#
#
# Elastic Constant Matrix: (Units=GPa)
#
#
# Indices 1 2 3 4 5 6 
#
# 1 89.8950 36.9463 49.1047 0.0000 0.0000 0.0000
# 2 36.9463 98.9302 38.0746 0.0000 0.0000 0.0000
# 3 49.1047 38.0746 104.0688 0.0000 0.0000 0.0000
# 4 0.0000 0.0000 0.0000 26.9396 0.0000 0.0000
# 5 0.0000 0.0000 0.0000 0.0000 28.9188 0.0000
# 6 0.0000 0.0000 0.0000 0.0000 0.0000 10.2487
#
#
#
# Elastic Compliance Matrix: (Units=1/GPa)
#
#
# Indices 1 2 3 4 5 6 
#
# 1 0.016003 -0.003574 -0.006244 0.000000 0.000000 0.000000
# 2 -0.003574 0.012563 -0.002910 0.000000 0.000000 0.000000
# 3 -0.006244 -0.002910 0.013620 0.000000 0.000000 0.000000
# 4 0.000000 0.000000 0.000000 0.037120 0.000000 0.000000
# 5 0.000000 0.000000 0.000000 0.000000 0.034580 0.000000
# 6 0.000000 0.000000 0.000000 0.000000 0.000000 0.097573
#
#
# Mechanical properties :
#
#
# Convention : Reuss Voigt Hill
#
# Bulk Modulus (GPa) = 59.76857 60.12723 59.94790
# Shear Modulus (GPa) = 20.61939 24.47266 22.54602
#
# Velocity S-wave (km/s) = 3.23067 3.51962 3.37824
# Velocity P-wave (km/s) = 6.64608 6.85219 6.74992
#
# Compressibility (1/GPa) = 0.01673120
#
# Stress axis : x y z
#
# Youngs Moduli (GPa) = 62.48658 79.60083 73.42269
#
# Poissons Ratio (x) = 0.28446 0.45843
# Poissons Ratio (y) = 0.22330 0.21366
# Poissons Ratio (z) = 0.39015 0.23164
#
# Static dielectric constant tensor:
#      x y z
#    x 3.495200 0.000000 0.000000 
#    y 0.000000 3.591750 0.000000 
#    z 0.000000 0.000000 3.953170 
# 
# 
# High freq. dielectric constant tensor:
#      x y z
#    x 1.767230 0.000000 0.000000 
#    y 0.000000 1.767990 0.000000 
#    z 0.000000 0.000000 1.773170 
# 
# From -- ./inp_files/6080.got.cif
#   From: 2010.03.12/outbox.cif.g09.slc.cpg/sg47_4_cif.got.tgz:6080.got - 2010.04.14 03:12:58.
