data_PCOD8196231
_publ_section_title
;
Structure prediction by ZEFSAII (Michael W. Deem and Ramdas Pophale) SiO2 
 PCOD8196231
Probable space group: P M M M
;
_chemical_formula_sum "Si O2"
_cell_formula_units_Z 64
_cell_length_a 9.075075
_cell_length_b 14.382560
_cell_length_c 25.610415
_cell_angle_alpha 90.000000
_cell_angle_beta 90.000000
_cell_angle_gamma 90.000000
_cell_volume 3342.743349
_symmetry_space_group_name_H-M "P M M M"
_symmetry_group_IT_number 47
_symmetry_cell_setting 'orthorhombic'
loop_
_space_group_symop_operation_xyz
x,y,z
-x,-y,z
x,-y,-z
-x,y,-z
-x,-y,-z
x,y,-z
-x,y,z
x,-y,z
loop_
_atom_site_type_symbol
_atom_site_label
_atom_site_fract_x
_atom_site_fract_y
_atom_site_fract_z
Si Si1 0.169480 0.276596 0.558972
Si Si2 0.326319 0.723465 0.748573
Si Si3 0.835403 0.101042 0.061977
Si Si4 0.327967 0.607434 0.645860
Si Si5 0.324689 0.397046 0.154523
Si Si6 0.673846 0.719401 0.058476
Si Si7 0.828547 0.895177 0.290101
Si Si8 0.327917 0.104929 0.599945
O O1 0.183902 0.314348 0.500000
O O2 0.239661 0.352963 0.596776
O O3 0.252433 0.177477 0.561086
O O4 0.000000 0.261356 0.574743
O O5 0.500000 0.742360 0.751594
O O6 0.284058 0.664435 0.697412
O O7 0.267394 0.667256 0.798638
O O8 0.240835 0.821673 0.750139
O O9 0.727978 0.181966 0.081497
O O10 0.000000 0.121117 0.082750
O O11 0.781284 0.000000 0.082971
O O12 0.835429 0.098961 0.000000
O O13 0.500000 0.618257 0.633770
O O14 0.285096 0.500000 0.654637
O O15 0.500000 0.400443 0.156380
O O16 0.258542 0.500000 0.161609
O O17 0.270309 0.359348 0.098281
O O18 0.500000 0.723607 0.056792
O O19 0.736031 0.698764 0.000000
O O20 0.743247 0.881363 0.343853
O O21 0.000000 0.873981 0.299200
O O22 0.805509 0.000000 0.268534
O O23 0.500000 0.128150 0.604821
O O24 0.302515 0.000000 0.578972
#
# Coordination Sequence:
#
# PCOD8196231 Si02
#       8
#     8   8   8   8   8   8   8   8
#     4  11  24  39  55  79 113 150 185 224 273 327
#     4  10  19  34  58  83 106 137 178 222 267 318
#     4   8  14  26  45  68  95 131 173 213 257 311
#     4  10  21  37  58  82 104 133 179 231 280 329
#     4   9  18  33  53  78 108 140 176 222 272 319
#     4   9  17  29  48  76 107 140 179 221 266 315
#     4  10  20  34  55  83 114 145 174 210 263 324
#     4  10  20  35  57  84 112 144 183 224 266 317
#
# _framework density 19.145951
#
# number of rings (size 3 to 8) (size 9 to 14) (size 15 to 20)
#    0.000    2.375    1.250    1.875    0.000    5.250 
#    0.000    6.250    0.000    6.000    0.000    1.750 
#    0.000    0.000    0.000    0.000    0.000    0.000 
#
# Total GULP energy -793466.862504 kJ/mol
# GULP energy per Si atom -12397.919727 kJ/mol
# Density = 1.910237 g / cm^3
# Si number density = 19.145951 Si / 1000 Ang^3
#
#
#
# Elastic Constant Matrix: (Units=GPa)
#
#
# Indices 1 2 3 4 5 6 
#
# 1 65.8236 48.0340 37.6214 0.0000 0.0000 0.0000
# 2 48.0340 141.2461 62.4137 0.0000 0.0000 0.0000
# 3 37.6214 62.4137 100.1581 0.0000 0.0000 0.0000
# 4 0.0000 0.0000 0.0000 29.0142 0.0000 0.0000
# 5 0.0000 0.0000 0.0000 0.0000 10.6121 0.0000
# 6 0.0000 0.0000 0.0000 0.0000 0.0000 19.4976
#
#
#
# Elastic Compliance Matrix: (Units=1/GPa)
#
#
# Indices 1 2 3 4 5 6 
#
# 1 0.021841 -0.005247 -0.004934 0.000000 0.000000 0.000000
# 2 -0.005247 0.011031 -0.004903 0.000000 0.000000 0.000000
# 3 -0.004934 -0.004903 0.014893 0.000000 0.000000 0.000000
# 4 0.000000 0.000000 0.000000 0.034466 0.000000 0.000000
# 5 0.000000 0.000000 0.000000 0.000000 0.094232 0.000000
# 6 0.000000 0.000000 0.000000 0.000000 0.000000 0.051288
#
#
# Mechanical properties :
#
#
# Convention : Reuss Voigt Hill
#
# Bulk Modulus (GPa) = 56.83024 67.04067 61.93545
# Shear Modulus (GPa) = 18.95475 22.43533 20.69504
#
# Velocity S-wave (km/s) = 3.14986 3.42688 3.29129
# Velocity P-wave (km/s) = 6.55560 7.12388 6.84564
#
# Compressibility (1/GPa) = 0.01759627
#
# Stress axis : x y z
#
# Youngs Moduli (GPa) = 45.78451 90.65520 67.14650
#
# Poissons Ratio (x) = 0.47570 0.33131
# Poissons Ratio (y) = 0.24025 0.32921
# Poissons Ratio (z) = 0.22591 0.44447
#
# Static dielectric constant tensor:
#      x y z
#    x 3.380310 0.000000 0.000000 
#    y 0.000000 3.853800 0.000000 
#    z 0.000000 0.000000 3.386340 
# 
# 
# High freq. dielectric constant tensor:
#      x y z
#    x 1.727830 0.000000 0.000000 
#    y 0.000000 1.755910 0.000000 
#    z 0.000000 0.000000 1.726470 
# 
# From -- ./inp_files/32135.got.cif
#   From: 2010.03.12/outbox.cif.g09.slc.cpg/sg47_17_cif.got.tgz:32135.got - 2010.04.14 03:12:58.
