data_PCOD8196282
_publ_section_title
;
Structure prediction by ZEFSAII (Michael W. Deem and Ramdas Pophale) SiO2 
 PCOD8196282
Probable space group: P M M M
;
_chemical_formula_sum "Si O2"
_cell_formula_units_Z 64
_cell_length_a 13.505354
_cell_length_b 18.226754
_cell_length_c 13.718728
_cell_angle_alpha 90.000000
_cell_angle_beta 90.000000
_cell_angle_gamma 90.000000
_cell_volume 3376.985142
_symmetry_space_group_name_H-M "P M M M"
_symmetry_group_IT_number 47
_symmetry_cell_setting 'orthorhombic'
loop_
_space_group_symop_operation_xyz
x,y,z
-x,-y,z
x,-y,-z
-x,y,-z
-x,-y,-z
x,y,-z
-x,y,z
x,-y,z
loop_
_atom_site_type_symbol
_atom_site_label
_atom_site_fract_x
_atom_site_fract_y
_atom_site_fract_z
Si Si1 0.689626 0.916013 0.197375
Si Si2 0.887095 0.224446 0.611498
Si Si3 0.749604 0.319290 0.249579
Si Si4 0.614495 0.414839 0.611127
Si Si5 0.612176 0.776823 0.888236
Si Si6 0.228560 0.918141 0.392703
Si Si7 0.886214 0.414631 0.888530
Si Si8 0.892966 0.086706 0.891498
O O1 0.614260 0.862965 0.141922
O O2 0.682270 0.906961 0.314635
O O3 0.802203 0.888435 0.175452
O O4 0.669502 0.000000 0.163526
O O5 0.872204 0.250925 0.500000
O O6 0.816754 0.270911 0.680547
O O7 0.860846 0.138584 0.621002
O O8 0.000000 0.235607 0.644518
O O9 0.679302 0.368703 0.314992
O O10 0.683666 0.268454 0.180906
O O11 0.817429 0.369591 0.182974
O O12 0.641065 0.393377 0.500000
O O13 0.500000 0.397628 0.632026
O O14 0.637210 0.500000 0.628845
O O15 0.500000 0.748790 0.875673
O O16 0.646474 0.768263 0.000000
O O17 0.276833 0.909443 0.500000
O O18 0.183256 0.000000 0.377964
O O19 0.867721 0.500000 0.868617
O O20 0.000000 0.394292 0.867414
O O21 0.859105 0.395311 0.000000
O O22 0.000000 0.116212 0.852150
O O23 0.896483 0.000000 0.896426
O O24 0.874953 0.118416 0.000000
#
# Coordination Sequence:
#
# PCOD8196282 Si02
#       8
#     8   8   8   8   8   8   8   8
#     4  10  19  35  57  78  99 137 185 230 280 337
#     4  10  21  35  53  82 117 150 185 224 267 323
#     4  12  20  36  58  83 112 155 185 218 273 338
#     4   9  19  36  59  88 116 142 182 233 276 319
#     4  11  25  41  55  78 110 142 185 242 291 331
#     4   9  18  34  55  78 105 139 181 228 273 321
#     4   9  19  36  58  85 115 147 186 226 261 312
#     4   8  14  25  43  69  98 124 156 207 267 321
#
# _framework density 18.951816000000001
#
# number of rings (size 3 to 8) (size 9 to 14) (size 15 to 20)
#    0.000    2.250    1.250    3.375    0.000    1.750 
#    0.000    3.125    0.000    3.375    0.000   12.250 
#    0.000    0.000    0.000    0.000    0.000    0.000 
#
# Total GULP energy -793298.254052 kJ/mol
# GULP energy per Si atom -12395.285220 kJ/mol
# Density = 1.890868 g / cm^3
# Si number density = 18.951816 Si / 1000 Ang^3
#
#
#
# Elastic Constant Matrix: (Units=GPa)
#
#
# Indices 1 2 3 4 5 6 
#
# 1 87.8920 56.4230 66.5754 0.0000 0.0000 0.0000
# 2 56.4230 95.7013 67.2280 0.0000 0.0000 0.0000
# 3 66.5754 67.2280 130.4500 0.0000 0.0000 0.0000
# 4 0.0000 0.0000 0.0000 47.1964 0.0000 0.0000
# 5 0.0000 0.0000 0.0000 0.0000 36.9043 0.0000
# 6 0.0000 0.0000 0.0000 0.0000 0.0000 44.2532
#
#
#
# Elastic Compliance Matrix: (Units=1/GPa)
#
#
# Indices 1 2 3 4 5 6 
#
# 1 0.021784 -0.007890 -0.007051 0.000000 0.000000 0.000000
# 2 -0.007890 0.019236 -0.005887 0.000000 0.000000 0.000000
# 3 -0.007051 -0.005887 0.014298 0.000000 0.000000 0.000000
# 4 0.000000 0.000000 0.000000 0.021188 0.000000 0.000000
# 5 0.000000 0.000000 0.000000 0.000000 0.027097 0.000000
# 6 0.000000 0.000000 0.000000 0.000000 0.000000 0.022597
#
#
# Mechanical properties :
#
#
# Convention : Reuss Voigt Hill
#
# Bulk Modulus (GPa) = 73.19465 77.16624 75.18044
# Shear Modulus (GPa) = 29.00058 33.92524 31.46291
#
# Velocity S-wave (km/s) = 3.91606 4.23552 4.07892
# Velocity P-wave (km/s) = 7.69107 8.04518 7.87012
#
# Compressibility (1/GPa) = 0.01366220
#
# Stress axis : x y z
#
# Youngs Moduli (GPa) = 45.90611 51.98548 69.93833
#
# Poissons Ratio (x) = 0.41015 0.49316
# Poissons Ratio (y) = 0.36218 0.41172
# Poissons Ratio (z) = 0.32370 0.30604
#
# Static dielectric constant tensor:
#      x y z
#    x 3.411070 0.000000 0.000000 
#    y 0.000000 3.355000 0.000000 
#    z 0.000000 0.000000 3.714400 
# 
# 
# High freq. dielectric constant tensor:
#      x y z
#    x 1.719660 0.000000 0.000000 
#    y 0.000000 1.725140 0.000000 
#    z 0.000000 0.000000 1.753330 
# 
# From -- ./inp_files/22971.got.cif
#   From: 2010.03.12/outbox.cif.g09.slc.cpg/sg47_12_cif.got.tgz:22971.got - 2010.04.14 03:12:58.
