data_PCOD8196972
_publ_section_title
;
Structure prediction by ZEFSAII (Michael W. Deem and Ramdas Pophale) SiO2 
 PCOD8196972
Probable space group: P M M M
;
_chemical_formula_sum "Si O2"
_cell_formula_units_Z 52
_cell_length_a 8.673147
_cell_length_b 27.002503
_cell_length_c 12.295439
_cell_angle_alpha 90.000000
_cell_angle_beta 90.000000
_cell_angle_gamma 90.000000
_cell_volume 2879.550967
_symmetry_space_group_name_H-M "P M M M"
_symmetry_group_IT_number 47
_symmetry_cell_setting 'orthorhombic'
loop_
_space_group_symop_operation_xyz
x,y,z
-x,-y,z
x,-y,-z
-x,y,-z
-x,-y,-z
x,y,-z
-x,y,z
x,-y,z
loop_
_atom_site_type_symbol
_atom_site_label
_atom_site_fract_x
_atom_site_fract_y
_atom_site_fract_z
Si Si1 0.177550 0.718048 0.876920
Si Si2 0.683252 0.555387 0.121589
Si Si3 0.318300 0.217985 0.500000
Si Si4 0.181361 0.673077 0.500000
Si Si5 0.315855 0.055054 0.500000
Si Si6 0.677793 0.822676 0.880531
Si Si7 0.319075 0.359108 0.277495
Si Si8 0.680631 0.864932 0.337920
O O1 0.213241 0.775797 0.866242
O O2 0.285788 0.689534 0.793165
O O3 0.000000 0.708927 0.846219
O O4 0.212768 0.700147 0.000000
O O5 0.500000 0.558206 0.120673
O O6 0.738109 0.500000 0.153197
O O7 0.748683 0.593734 0.210844
O O8 0.744141 0.568836 0.000000
O O9 0.500000 0.229036 0.500000
O O10 0.234211 0.270229 0.500000
O O11 0.264180 0.186107 0.395034
O O12 0.239966 0.643768 0.605564
O O13 0.000000 0.672049 0.500000
O O14 0.500000 0.050935 0.500000
O O15 0.252728 0.085407 0.394387
O O16 0.243098 0.000000 0.500000
O O17 0.500000 0.806095 0.864287
O O18 0.725081 0.863253 0.789633
O O19 0.701640 0.846631 0.000000
O O20 0.500000 0.363748 0.296577
O O21 0.500000 0.867617 0.357296
#
# Coordination Sequence:
#
# PCOD8196972 Si02
#       8
#     8   8   4   4   4   8   8   8
#     4  10  20  32  47  71 103 132 158 194 238 282
#     4   8  15  30  54  82 103 116 142 193 246 282
#     4   9  16  29  48  66  86 115 154 197 232 267
#     4  12  25  37  48  67 100 136 166 199 240 284
#     4   8  13  22  38  60  85 112 143 184 236 286
#     4   9  16  26  41  61  88 123 158 188 222 271
#     4  11  21  34  53  74  97 128 165 199 235 284
#     4   8  14  24  40  62  85 112 149 191 230 269
#
# _framework density 18.058371000000001
#
# number of rings (size 3 to 8) (size 9 to 14) (size 15 to 20)
#    0.000    2.692    0.000    4.385    0.000    2.769 
#    0.000    0.385    0.000    4.615    0.000    8.615 
#    0.000   11.077    0.000    3.846    0.000    4.000 
#
# Total GULP energy -644477.420283 kJ/mol
# GULP energy per Si atom -12393.796544 kJ/mol
# Density = 1.801727 g / cm^3
# Si number density = 18.058371 Si / 1000 Ang^3
#
#
#
# Elastic Constant Matrix: (Units=GPa)
#
#
# Indices 1 2 3 4 5 6 
#
# 1 45.5792 20.7208 30.1075 0.0000 0.0000 0.0000
# 2 20.7208 116.9736 83.4633 0.0000 0.0000 0.0000
# 3 30.1075 83.4633 166.7810 0.0000 0.0000 0.0000
# 4 0.0000 0.0000 0.0000 19.2878 0.0000 0.0000
# 5 0.0000 0.0000 0.0000 0.0000 16.8068 0.0000
# 6 0.0000 0.0000 0.0000 0.0000 0.0000 0.9404
#
#
#
# Elastic Compliance Matrix: (Units=1/GPa)
#
#
# Indices 1 2 3 4 5 6 
#
# 1 0.025177 -0.001893 -0.003598 0.000000 0.000000 0.000000
# 2 -0.001893 0.013439 -0.006384 0.000000 0.000000 0.000000
# 3 -0.003598 -0.006384 0.009840 0.000000 0.000000 0.000000
# 4 0.000000 0.000000 0.000000 0.051846 0.000000 0.000000
# 5 0.000000 0.000000 0.000000 0.000000 0.059500 0.000000
# 6 0.000000 0.000000 0.000000 0.000000 0.000000 1.063332
#
#
# Mechanical properties :
#
#
# Convention : Reuss Voigt Hill
#
# Bulk Modulus (GPa) = 40.47363 66.43522 53.45443
# Shear Modulus (GPa) = 3.98369 20.40982 12.19675
#
# Velocity S-wave (km/s) = 1.48687 3.36551 2.60168
# Velocity P-wave (km/s) = 5.04074 7.20911 6.22014
#
# Compressibility (1/GPa) = 0.02470745
#
# Stress axis : x y z
#
# Youngs Moduli (GPa) = 39.71911 74.40919 101.62580
#
# Poissons Ratio (x) = 0.14084 0.36562
# Poissons Ratio (y) = 0.07518 0.64876
# Poissons Ratio (z) = 0.14290 0.47501
#
# Static dielectric constant tensor:
#      x y z
#    x 2.957190 0.000000 0.000000 
#    y 0.000000 3.343140 0.000000 
#    z 0.000000 0.000000 3.676040 
# 
# 
# High freq. dielectric constant tensor:
#      x y z
#    x 1.663050 0.000000 0.000000 
#    y 0.000000 1.675590 0.000000 
#    z 0.000000 0.000000 1.710170 
# 
# From -- ./inp_files/15578.got.cif
#   From: 2010.03.12/outbox.cif.g09.slc.cpg/sg47_8_cif.got.tgz:15578.got - 2010.04.14 03:12:58.
