data_PCOD8196674
_publ_section_title
;
Structure prediction by ZEFSAII (Michael W. Deem and Ramdas Pophale) SiO2 
 PCOD8196674
Probable space group: P M M M
;
_chemical_formula_sum "Si O2"
_cell_formula_units_Z 48
_cell_length_a 9.230924
_cell_length_b 7.648780
_cell_length_c 34.377909
_cell_angle_alpha 90.000000
_cell_angle_beta 90.000000
_cell_angle_gamma 90.000000
_cell_volume 2427.262815
_symmetry_space_group_name_H-M "P M M M"
_symmetry_group_IT_number 47
_symmetry_cell_setting 'orthorhombic'
loop_
_space_group_symop_operation_xyz
x,y,z
-x,-y,z
x,-y,-z
-x,y,-z
-x,-y,-z
x,y,-z
-x,y,z
x,-y,z
loop_
_atom_site_type_symbol
_atom_site_label
_atom_site_fract_x
_atom_site_fract_y
_atom_site_fract_z
Si Si1 0.666580 0.700272 0.454713
Si Si2 0.169857 0.700468 0.265560
Si Si3 0.336102 0.705896 0.188407
Si Si4 0.841408 0.799067 0.886234
Si Si5 0.827405 0.000000 0.589689
Si Si6 0.171008 0.000000 0.677245
Si Si7 0.662190 0.792068 0.957116
O O1 0.697159 0.731642 0.500000
O O2 0.500000 0.745048 0.445152
O O3 0.701209 0.500000 0.443429
O O4 0.770851 0.825144 0.430625
O O5 0.207183 0.500000 0.276604
O O6 0.254406 0.764025 0.227432
O O7 0.222954 0.824381 0.300671
O O8 0.000000 0.723546 0.257041
O O9 0.500000 0.777889 0.189784
O O10 0.333369 0.500000 0.184135
O O11 0.255247 0.786474 0.151924
O O12 0.763281 0.709338 0.923427
O O13 0.000000 0.711361 0.879805
O O14 0.863486 0.000000 0.896289
O O15 0.766359 0.000000 0.633718
O O16 0.000000 0.000000 0.587738
O O17 0.000000 0.000000 0.674906
O O18 0.500000 0.719257 0.950842
O O19 0.658964 0.000000 0.953950
O O20 0.719297 0.735646 0.000000
#
# Coordination Sequence:
#
# PCOD8196674 Si02
#       7
#     8   8   8   8   4   4   8
#     4   9  19  37  59  81 110 154 203 245 288 341
#     4   9  18  35  57  76  99 136 179 221 264 317
#     4  10  21  36  53  74 100 128 160 205 261 312
#     4  10  20  31  47  74 102 129 163 202 244 296
#     4  11  22  34  53  86 122 152 186 237 295 346
#     4   9  20  36  54  79 110 146 185 221 270 338
#     4   8  14  26  44  66  95 130 164 199 242 292
#
# _framework density 19.775359999999999
#
# number of rings (size 3 to 8) (size 9 to 14) (size 15 to 20)
#    0.000    2.667    0.000    2.500    1.167    4.667 
#    0.000    5.833    0.000    2.500    0.000    3.500 
#    0.000    0.000    0.000    0.000    0.000    0.000 
#
# Total GULP energy -595063.626657 kJ/mol
# GULP energy per Si atom -12397.158889 kJ/mol
# Density = 1.973035 g / cm^3
# Si number density = 19.775360 Si / 1000 Ang^3
#
#
#
# Elastic Constant Matrix: (Units=GPa)
#
#
# Indices 1 2 3 4 5 6 
#
# 1 114.4010 39.6977 76.3128 0.0000 0.0000 0.0000
# 2 39.6977 75.2282 60.9957 0.0000 0.0000 0.0000
# 3 76.3128 60.9957 159.2861 0.0000 0.0000 0.0000
# 4 0.0000 0.0000 0.0000 89.6287 0.0000 0.0000
# 5 0.0000 0.0000 0.0000 0.0000 17.1036 0.0000
# 6 0.0000 0.0000 0.0000 0.0000 0.0000 20.1831
#
#
#
# Elastic Compliance Matrix: (Units=1/GPa)
#
#
# Indices 1 2 3 4 5 6 
#
# 1 0.013206 -0.002667 -0.005306 0.000000 0.000000 0.000000
# 2 -0.002667 0.019817 -0.006311 0.000000 0.000000 0.000000
# 3 -0.005306 -0.006311 0.011237 0.000000 0.000000 0.000000
# 4 0.000000 0.000000 0.000000 0.011157 0.000000 0.000000
# 5 0.000000 0.000000 0.000000 0.000000 0.058467 0.000000
# 6 0.000000 0.000000 0.000000 0.000000 0.000000 0.049546
#
#
# Mechanical properties :
#
#
# Convention : Reuss Voigt Hill
#
# Bulk Modulus (GPa) = 63.72379 78.10309 70.91344
# Shear Modulus (GPa) = 25.35140 36.84369 31.09754
#
# Velocity S-wave (km/s) = 3.58434 4.32106 3.96983
# Velocity P-wave (km/s) = 7.03021 8.02971 7.54653
#
# Compressibility (1/GPa) = 0.01569273
#
# Stress axis : x y z
#
# Youngs Moduli (GPa) = 75.72464 50.46134 88.99539
#
# Poissons Ratio (x) = 0.13457 0.47217
# Poissons Ratio (y) = 0.20194 0.56165
# Poissons Ratio (z) = 0.40176 0.31846
#
# Static dielectric constant tensor:
#      x y z
#    x 3.745490 0.000000 0.000000 
#    y 0.000000 3.445870 0.000000 
#    z 0.000000 0.000000 3.737030 
# 
# 
# High freq. dielectric constant tensor:
#      x y z
#    x 1.763360 0.000000 0.000000 
#    y 0.000000 1.761570 0.000000 
#    z 0.000000 0.000000 1.770760 
# 
# From -- ./inp_files/34089.got.cif
#   From: 2010.03.12/outbox.cif.g09.slc.cpg/sg47_18_cif.got.tgz:34089.got - 2010.04.14 03:12:58.
