data_PCOD8196064
_publ_section_title
;
Structure prediction by ZEFSAII (Michael W. Deem and Ramdas Pophale) SiO2 
 PCOD8196064
Probable space group: P M M M
;
_chemical_formula_sum "Si O2"
_cell_formula_units_Z 48
_cell_length_a 17.863609
_cell_length_b 15.518691
_cell_length_c 9.164326
_cell_angle_alpha 90.000000
_cell_angle_beta 90.000000
_cell_angle_gamma 90.000000
_cell_volume 2540.532879
_symmetry_space_group_name_H-M "P M M M"
_symmetry_group_IT_number 47
_symmetry_cell_setting 'orthorhombic'
loop_
_space_group_symop_operation_xyz
x,y,z
-x,-y,z
x,-y,-z
-x,y,-z
-x,-y,-z
x,y,-z
-x,y,z
x,-y,z
loop_
_atom_site_type_symbol
_atom_site_label
_atom_site_fract_x
_atom_site_fract_y
_atom_site_fract_z
Si Si1 0.333396 0.000000 0.830430
Si Si2 0.084122 0.163640 0.326711
Si Si3 0.087305 0.500000 0.170644
Si Si4 0.159620 0.660189 0.670961
Si Si5 0.415461 0.500000 0.326396
Si Si6 0.414614 0.175699 0.170924
Si Si7 0.823683 0.000000 0.326183
Si Si8 0.666326 0.670415 0.329041
O O1 0.382678 0.917578 0.788474
O O2 0.258967 0.000000 0.736141
O O3 0.311330 0.000000 0.000000
O O4 0.081885 0.160255 0.500000
O O5 0.122450 0.251505 0.273458
O O6 0.132218 0.083592 0.267229
O O7 0.000000 0.158240 0.263211
O O8 0.123007 0.416100 0.240335
O O9 0.000000 0.500000 0.205737
O O10 0.104261 0.500000 0.000000
O O11 0.145278 0.644703 0.500000
O O12 0.246766 0.663269 0.707663
O O13 0.500000 0.500000 0.266537
O O14 0.413400 0.500000 0.500000
O O15 0.373880 0.415109 0.267015
O O16 0.500000 0.180602 0.225534
O O17 0.366019 0.246393 0.251895
O O18 0.409301 0.193368 0.000000
O O19 0.818247 0.000000 0.500000
O O20 0.651898 0.680878 0.500000
#
# Coordination Sequence:
#
# PCOD8196064 Si02
#       8
#     4   8   4   8   4   8   4   8
#     4  10  21  37  55  75 105 144 180 216 262 316
#     4   9  17  30  51  79 107 136 172 214 262 316
#     4  11  24  39  55  79 110 143 182 229 276 316
#     4  10  20  35  56  80 107 142 182 221 265 324
#     4   9  17  30  49  73 104 141 172 202 254 319
#     4  10  21  37  56  78 106 143 184 221 261 314
#     4  10  19  33  55  81 107 134 170 218 264 310
#     4  10  20  35  56  82 109 137 175 223 270 316
#
# _framework density 18.893674000000001
#
# number of rings (size 3 to 8) (size 9 to 14) (size 15 to 20)
#    0.000    2.167    0.000    3.250    0.000    8.333 
#    0.000    1.250    0.000    5.000    0.000    0.000 
#    0.000    0.000    0.000    0.000    0.000    0.000 
#
# Total GULP energy -595346.071159 kJ/mol
# GULP energy per Si atom -12403.043149 kJ/mol
# Density = 1.885067 g / cm^3
# Si number density = 18.893674 Si / 1000 Ang^3
#
#
#
# Elastic Constant Matrix: (Units=GPa)
#
#
# Indices 1 2 3 4 5 6 
#
# 1 147.8642 84.5859 56.9480 0.0000 0.0000 0.0000
# 2 84.5859 187.9535 56.9298 0.0000 0.0000 0.0000
# 3 56.9480 56.9298 40.6454 0.0000 0.0000 0.0000
# 4 0.0000 0.0000 0.0000 23.0609 0.0000 0.0000
# 5 0.0000 0.0000 0.0000 0.0000 16.4563 0.0000
# 6 0.0000 0.0000 0.0000 0.0000 0.0000 51.7306
#
#
#
# Elastic Compliance Matrix: (Units=1/GPa)
#
#
# Indices 1 2 3 4 5 6 
#
# 1 0.014736 -0.000657 -0.019727 0.000000 0.000000 0.000000
# 2 -0.000657 0.009270 -0.012064 0.000000 0.000000 0.000000
# 3 -0.019727 -0.012064 0.069140 0.000000 0.000000 0.000000
# 4 0.000000 0.000000 0.000000 0.043363 0.000000 0.000000
# 5 0.000000 0.000000 0.000000 0.000000 0.060767 0.000000
# 6 0.000000 0.000000 0.000000 0.000000 0.000000 0.019331
#
#
# Mechanical properties :
#
#
# Convention : Reuss Voigt Hill
#
# Bulk Modulus (GPa) = 35.39739 85.93225 60.66482
# Shear Modulus (GPa) = 17.18684 30.11619 23.65152
#
# Velocity S-wave (km/s) = 3.01933 3.99680 3.54195
# Velocity P-wave (km/s) = 5.56155 8.17802 6.99324
#
# Compressibility (1/GPa) = 0.02825067
#
# Stress axis : x y z
#
# Youngs Moduli (GPa) = 67.85997 107.87357 14.46340
#
# Poissons Ratio (x) = 0.07083 0.28532
# Poissons Ratio (y) = 0.04456 0.17449
# Poissons Ratio (z) = 1.33868 1.30140
#
# Static dielectric constant tensor:
#      x y z
#    x 3.694610 0.000000 0.000000 
#    y 0.000000 3.688230 0.000000 
#    z 0.000000 0.000000 3.115650 
# 
# 
# High freq. dielectric constant tensor:
#      x y z
#    x 1.754520 0.000000 0.000000 
#    y 0.000000 1.755380 0.000000 
#    z 0.000000 0.000000 1.695910 
# 
# From -- ./inp_files/9266.got.cif
#   From: 2010.03.12/outbox.cif.g09.slc.cpg/sg47_5_cif.got.tgz:9266.got - 2010.04.14 03:12:58.
