data_PCOD8196372
_publ_section_title
;
Structure prediction by ZEFSAII (Michael W. Deem and Ramdas Pophale) SiO2 
 PCOD8196372
Probable space group: P M M M
;
_chemical_formula_sum "Si O2"
_cell_formula_units_Z 48
_cell_length_a 24.991506
_cell_length_b 9.527231
_cell_length_c 15.094837
_cell_angle_alpha 90.000000
_cell_angle_beta 90.000000
_cell_angle_gamma 90.000000
_cell_volume 3594.078436
_symmetry_space_group_name_H-M "P M M M"
_symmetry_group_IT_number 47
_symmetry_cell_setting 'orthorhombic'
loop_
_space_group_symop_operation_xyz
x,y,z
-x,-y,z
x,-y,-z
-x,y,-z
-x,-y,-z
x,y,-z
-x,y,z
x,-y,z
loop_
_atom_site_type_symbol
_atom_site_label
_atom_site_fract_x
_atom_site_fract_y
_atom_site_fract_z
Si Si1 0.747373 0.655604 0.394735
Si Si2 0.627292 0.337230 0.396801
Si Si3 0.563550 0.160445 0.739869
Si Si4 0.156221 0.842139 0.394139
Si Si5 0.436422 0.657394 0.901897
Si Si6 0.940681 0.657449 0.605317
O O1 0.749737 0.651642 0.500000
O O2 0.761130 0.500000 0.358393
O O3 0.687670 0.699616 0.365456
O O4 0.790717 0.765194 0.357076
O O5 0.619881 0.304231 0.500000
O O6 0.614481 0.500000 0.377209
O O7 0.586477 0.238620 0.345394
O O8 0.500000 0.170621 0.734623
O O9 0.585976 0.234621 0.828965
O O10 0.583084 0.000000 0.740714
O O11 0.156049 0.841107 0.500000
O O12 0.103692 0.763444 0.356304
O O13 0.155952 0.000000 0.357121
O O14 0.500000 0.659860 0.901038
O O15 0.416258 0.500000 0.879233
O O16 0.415953 0.701877 0.000000
O O17 0.938400 0.658458 0.500000
O O18 0.928332 0.500000 0.639430
O O19 0.000000 0.704907 0.637017
#
# Coordination Sequence:
#
# PCOD8196372 Si02
#       6
#     8   8   8   8   8   8
#     4   8  14  25  38  48  58  75 103 138 172 204
#     4   9  18  31  44  55  67  89 122 155 183 211
#     4  10  20  30  40  57  79  99 116 138 174 218
#     4   9  15  20  28  43  59  74  94 123 161 202
#     4   8  14  26  44  62  77  94 116 140 165 197
#     4   8  13  20  28  37  51  73  98 122 152 192
#
# _framework density 13.355302
#
# number of rings (size 3 to 8) (size 9 to 14) (size 15 to 20)
#    0.000    3.333    0.000    3.000    0.000    5.000 
#    0.000    6.667    0.000    0.000    0.000    0.000 
#    0.000    0.000    0.000    0.000    0.000    0.000 
#
# Total GULP energy -594866.291981 kJ/mol
# GULP energy per Si atom -12393.047750 kJ/mol
# Density = 1.332490 g / cm^3
# Si number density = 13.355302 Si / 1000 Ang^3
#
#
#
# Elastic Constant Matrix: (Units=GPa)
#
#
# Indices 1 2 3 4 5 6 
#
# 1 44.7900 42.2364 21.5935 0.0000 0.0000 0.0000
# 2 42.2364 105.5595 39.1770 0.0000 0.0000 0.0000
# 3 21.5935 39.1770 43.3656 0.0000 0.0000 0.0000
# 4 0.0000 0.0000 0.0000 12.6711 0.0000 0.0000
# 5 0.0000 0.0000 0.0000 0.0000 0.2883 0.0000
# 6 0.0000 0.0000 0.0000 0.0000 0.0000 18.2888
#
#
#
# Elastic Compliance Matrix: (Units=1/GPa)
#
#
# Indices 1 2 3 4 5 6 
#
# 1 0.037488 -0.012143 -0.007696 0.000000 0.000000 0.000000
# 2 -0.012143 0.018185 -0.010382 0.000000 0.000000 0.000000
# 3 -0.007696 -0.010382 0.036271 0.000000 0.000000 0.000000
# 4 0.000000 0.000000 0.000000 0.078920 0.000000 0.000000
# 5 0.000000 0.000000 0.000000 0.000000 3.469200 0.000000
# 6 0.000000 0.000000 0.000000 0.000000 0.000000 0.054678
#
#
# Mechanical properties :
#
#
# Convention : Reuss Voigt Hill
#
# Bulk Modulus (GPa) = 31.74506 44.41431 38.07969
# Shear Modulus (GPa) = 1.32778 12.29684 6.81231
#
# Velocity S-wave (km/s) = 0.99818 3.03767 2.26095
# Velocity P-wave (km/s) = 5.01495 6.75510 5.94900
#
# Compressibility (1/GPa) = 0.03150097
#
# Stress axis : x y z
#
# Youngs Moduli (GPa) = 26.67539 54.98960 27.56987
#
# Poissons Ratio (x) = 0.66775 0.21219
# Poissons Ratio (y) = 0.32392 0.28624
# Poissons Ratio (z) = 0.20530 0.57091
#
# Static dielectric constant tensor:
#      x y z
#    x 2.713850 0.000000 0.000000 
#    y 0.000000 2.875050 0.000000 
#    z 0.000000 0.000000 2.278180 
# 
# 
# High freq. dielectric constant tensor:
#      x y z
#    x 1.496450 0.000000 0.000000 
#    y 0.000000 1.518670 0.000000 
#    z 0.000000 0.000000 1.441790 
# 
# From -- ./inp_files/4449.got.cif
#   From: 2010.03.12/outbox.cif.g09.slc.cpg/sg47_3_cif.got.tgz:4449.got - 2010.04.14 03:12:58.
