data_PCOD8196621
_publ_section_title
;
Structure prediction by ZEFSAII (Michael W. Deem and Ramdas Pophale) SiO2 
 PCOD8196621
Probable space group: P M M M
;
_chemical_formula_sum "Si O2"
_cell_formula_units_Z 44
_cell_length_a 28.332787
_cell_length_b 9.160019
_cell_length_c 9.559962
_cell_angle_alpha 90.000000
_cell_angle_beta 90.000000
_cell_angle_gamma 90.000000
_cell_volume 2481.086109
_symmetry_space_group_name_H-M "P M M M"
_symmetry_group_IT_number 47
_symmetry_cell_setting 'orthorhombic'
loop_
_space_group_symop_operation_xyz
x,y,z
-x,-y,z
x,-y,-z
-x,y,-z
-x,-y,-z
x,y,-z
-x,y,z
x,-y,z
loop_
_atom_site_type_symbol
_atom_site_label
_atom_site_fract_x
_atom_site_fract_y
_atom_site_fract_z
Si Si1 0.000000 0.334879 0.166487
Si Si2 0.177846 0.826736 0.654436
Si Si3 0.907849 0.829205 0.162185
Si Si4 0.283634 0.829717 0.662544
Si Si5 0.361811 0.326506 0.159924
Si Si6 0.552317 0.326507 0.656775
O O1 0.046498 0.253451 0.223326
O O2 0.000000 0.500000 0.222363
O O3 0.000000 0.328171 0.000000
O O4 0.166617 0.764639 0.500000
O O5 0.138551 0.766627 0.760836
O O6 0.230369 0.779433 0.700599
O O7 0.176316 0.000000 0.650462
O O8 0.915512 0.000000 0.189961
O O9 0.900416 0.795093 0.000000
O O10 0.294435 0.796318 0.500000
O O11 0.316784 0.736392 0.761638
O O12 0.291132 0.000000 0.694273
O O13 0.359476 0.500000 0.169023
O O14 0.409169 0.265247 0.234555
O O15 0.362236 0.272454 0.000000
O O16 0.564646 0.271261 0.500000
O O17 0.500000 0.270555 0.700220
O O18 0.552791 0.500000 0.658816
#
# Coordination Sequence:
#
# PCOD8196621 Si02
#       6
#     4   8   8   8   8   8
#     4   9  17  29  44  63  90 122 150 177 216 264
#     4   8  15  29  48  69  91 114 145 187 230 270
#     4   9  16  27  46  69  88 110 146 187 220 256
#     4   9  18  33  52  71  92 123 161 196 233 281
#     4  10  20  31  45  70 101 128 155 191 236 283
#     4   8  14  26  45  67  90 120 159 198 234 275
#
# _framework density 17.734169000000001
#
# number of rings (size 3 to 8) (size 9 to 14) (size 15 to 20)
#    0.000    3.182    0.000    2.455    0.000    3.636 
#    0.000    5.000    0.000    7.091    0.000    3.818 
#    0.000    0.000    0.000    0.000    0.000    0.000 
#
# Total GULP energy -545399.338208 kJ/mol
# GULP energy per Si atom -12395.439505 kJ/mol
# Density = 1.769381 g / cm^3
# Si number density = 17.734169 Si / 1000 Ang^3
#
#
#
# Elastic Constant Matrix: (Units=GPa)
#
#
# Indices 1 2 3 4 5 6 
#
# 1 176.9853 35.0690 92.6926 0.0000 0.0000 0.0000
# 2 35.0690 27.1710 27.9013 0.0000 0.0000 0.0000
# 3 92.6926 27.9013 102.6447 0.0000 0.0000 0.0000
# 4 0.0000 0.0000 0.0000 17.7050 0.0000 0.0000
# 5 0.0000 0.0000 0.0000 0.0000 35.7619 0.0000
# 6 0.0000 0.0000 0.0000 0.0000 0.0000 23.0778
#
#
#
# Elastic Compliance Matrix: (Units=1/GPa)
#
#
# Indices 1 2 3 4 5 6 
#
# 1 0.011325 -0.005708 -0.008675 0.000000 0.000000 0.000000
# 2 -0.005708 0.053932 -0.009505 0.000000 0.000000 0.000000
# 3 -0.008675 -0.009505 0.020160 0.000000 0.000000 0.000000
# 4 0.000000 0.000000 0.000000 0.056481 0.000000 0.000000
# 5 0.000000 0.000000 0.000000 0.000000 0.027963 0.000000
# 6 0.000000 0.000000 0.000000 0.000000 0.000000 0.043332
#
#
# Mechanical properties :
#
#
# Convention : Reuss Voigt Hill
#
# Bulk Modulus (GPa) = 26.56761 68.68076 47.62418
# Shear Modulus (GPa) = 18.28047 25.38482 21.83264
#
# Velocity S-wave (km/s) = 3.21410 3.78750 3.51252
# Velocity P-wave (km/s) = 5.36539 7.61176 6.58507
#
# Compressibility (1/GPa) = 0.03763982
#
# Stress axis : x y z
#
# Youngs Moduli (GPa) = 88.30327 18.54179 49.60329
#
# Poissons Ratio (x) = 0.10584 0.43031
# Poissons Ratio (y) = 0.50406 0.47149
# Poissons Ratio (z) = 0.76603 0.17624
#
# Static dielectric constant tensor:
#      x y z
#    x 3.646540 0.000000 0.000000 
#    y 0.000000 2.871900 0.000000 
#    z 0.000000 0.000000 3.360850 
# 
# 
# High freq. dielectric constant tensor:
#      x y z
#    x 1.702450 0.000000 0.000000 
#    y 0.000000 1.640820 0.000000 
#    z 0.000000 0.000000 1.674380 
# 
# From -- ./inp_files/2302.got.cif
#   From: 2010.03.12/outbox.cif.g09.slc.cpg/sg47_2_cif.got.tgz:2302.got - 2010.04.14 03:12:58.
