data_PCOD8196259
_publ_section_title
;
Structure prediction by ZEFSAII (Michael W. Deem and Ramdas Pophale) SiO2 
 PCOD8196259
Probable space group: P M M M
;
_chemical_formula_sum "Si O2"
_cell_formula_units_Z 48
_cell_length_a 14.657979
_cell_length_b 17.142924
_cell_length_c 9.687570
_cell_angle_alpha 90.000000
_cell_angle_beta 90.000000
_cell_angle_gamma 90.000000
_cell_volume 2434.298596
_symmetry_space_group_name_H-M "P M M M"
_symmetry_group_IT_number 47
_symmetry_cell_setting 'orthorhombic'
loop_
_space_group_symop_operation_xyz
x,y,z
-x,-y,z
x,-y,-z
-x,y,-z
-x,-y,-z
x,y,-z
-x,y,z
x,-y,z
loop_
_atom_site_type_symbol
_atom_site_label
_atom_site_fract_x
_atom_site_fract_y
_atom_site_fract_z
Si Si1 0.896292 0.000000 0.336725
Si Si2 0.648673 0.637945 0.152052
Si Si3 0.397259 0.500000 0.648160
Si Si4 0.228111 0.856139 0.336049
Si Si5 0.395835 0.186762 0.160900
Si Si6 0.850102 0.588990 0.152033
Si Si7 0.900360 0.282715 0.654959
O O1 0.838723 0.925184 0.287092
O O2 0.904700 0.000000 0.500000
O O3 0.000000 0.000000 0.274464
O O4 0.619853 0.577105 0.265853
O O5 0.613228 0.722230 0.198300
O O6 0.756783 0.636273 0.143639
O O7 0.608302 0.616763 0.000000
O O8 0.500000 0.500000 0.605018
O O9 0.342660 0.500000 0.500000
O O10 0.247131 0.860113 0.500000
O O11 0.324570 0.861715 0.255126
O O12 0.176615 0.776747 0.291927
O O13 0.500000 0.160063 0.193439
O O14 0.372527 0.172421 0.000000
O O15 0.836096 0.500000 0.204962
O O16 0.910691 0.638115 0.257078
O O17 0.895717 0.587683 0.000000
O O18 0.875549 0.308087 0.500000
O O19 0.000000 0.241252 0.659499
#
# Coordination Sequence:
#
# PCOD8196259 Si02
#       7
#     4   8   4   8   8   8   8
#     4   9  18  36  64  95 124 154 189 229 278 339
#     4  10  19  35  55  73  99 142 192 236 283 341
#     4  11  23  33  45  73 108 139 180 239 299 344
#     4  10  20  36  61  90 118 149 186 233 283 334
#     4  10  21  37  58  83 112 150 193 234 280 337
#     4  10  20  35  54  76 103 139 187 238 283 330
#     4  10  21  36  55  81 111 144 183 228 284 344
#
# _framework density 19.718205999999999
#
# number of rings (size 3 to 8) (size 9 to 14) (size 15 to 20)
#    0.000    2.000    2.500    1.250    0.000    6.000 
#    0.000    2.500    0.000    4.500    0.000    0.000 
#    0.000    0.000    0.000    0.000    0.000    0.000 
#
# Total GULP energy -594856.163445 kJ/mol
# GULP energy per Si atom -12392.836738 kJ/mol
# Density = 1.967333 g / cm^3
# Si number density = 19.718206 Si / 1000 Ang^3
#
#
#
# Elastic Constant Matrix: (Units=GPa)
#
#
# Indices 1 2 3 4 5 6 
#
# 1 125.6801 44.6014 45.4730 0.0000 0.0000 0.0000
# 2 44.6014 92.4500 48.9820 0.0000 0.0000 0.0000
# 3 45.4730 48.9820 87.8289 0.0000 0.0000 0.0000
# 4 0.0000 0.0000 0.0000 22.8541 0.0000 0.0000
# 5 0.0000 0.0000 0.0000 0.0000 14.2143 0.0000
# 6 0.0000 0.0000 0.0000 0.0000 0.0000 25.1085
#
#
#
# Elastic Compliance Matrix: (Units=1/GPa)
#
#
# Indices 1 2 3 4 5 6 
#
# 1 0.010368 -0.003063 -0.003660 0.000000 0.000000 0.000000
# 2 -0.003063 0.016258 -0.007481 0.000000 0.000000 0.000000
# 3 -0.003660 -0.007481 0.017453 0.000000 0.000000 0.000000
# 4 0.000000 0.000000 0.000000 0.043756 0.000000 0.000000
# 5 0.000000 0.000000 0.000000 0.000000 0.070352 0.000000
# 6 0.000000 0.000000 0.000000 0.000000 0.000000 0.039827
#
#
# Mechanical properties :
#
#
# Convention : Reuss Voigt Hill
#
# Bulk Modulus (GPa) = 63.81222 64.89688 64.35455
# Shear Modulus (GPa) = 21.58476 23.56221 22.57349
#
# Velocity S-wave (km/s) = 3.31216 3.46055 3.38717
# Velocity P-wave (km/s) = 6.85999 6.99649 6.92858
#
# Compressibility (1/GPa) = 0.01567098
#
# Stress axis : x y z
#
# Youngs Moduli (GPa) = 96.45252 61.50808 57.29695
#
# Poissons Ratio (x) = 0.18839 0.20969
# Poissons Ratio (y) = 0.29541 0.42866
# Poissons Ratio (z) = 0.35299 0.46016
#
# Static dielectric constant tensor:
#      x y z
#    x 3.666100 0.000000 0.000000 
#    y 0.000000 3.392810 0.000000 
#    z 0.000000 0.000000 3.609390 
# 
# 
# High freq. dielectric constant tensor:
#      x y z
#    x 1.774410 0.000000 0.000000 
#    y 0.000000 1.749500 0.000000 
#    z 0.000000 0.000000 1.756630 
# 
# From -- ./inp_files/6508.got.cif
#   From: 2010.03.12/outbox.cif.g09.slc.cpg/sg47_4_cif.got.tgz:6508.got - 2010.04.14 03:12:58.
