data_PCOD8196369
_publ_section_title
;
Structure prediction by ZEFSAII (Michael W. Deem and Ramdas Pophale) SiO2 
 PCOD8196369
Probable space group: P M M M
;
_chemical_formula_sum "Si O2"
_cell_formula_units_Z 64
_cell_length_a 28.589319
_cell_length_b 14.357835
_cell_length_c 9.316464
_cell_angle_alpha 90.000000
_cell_angle_beta 90.000000
_cell_angle_gamma 90.000000
_cell_volume 3824.228897
_symmetry_space_group_name_H-M "P M M M"
_symmetry_group_IT_number 47
_symmetry_cell_setting 'orthorhombic'
loop_
_space_group_symop_operation_xyz
x,y,z
-x,-y,z
x,-y,-z
-x,y,-z
-x,-y,-z
x,y,-z
-x,y,z
x,-y,z
loop_
_atom_site_type_symbol
_atom_site_label
_atom_site_fract_x
_atom_site_fract_y
_atom_site_fract_z
Si Si1 0.551265 0.389460 0.338773
Si Si2 0.907781 0.397067 0.663426
Si Si3 0.947928 0.771225 0.832283
Si Si4 0.231195 0.896166 0.665339
Si Si5 0.176370 0.645327 0.156400
Si Si6 0.359847 0.393411 0.830858
Si Si7 0.855667 0.854945 0.157137
Si Si8 0.728610 0.274830 0.169450
O O1 0.561144 0.354057 0.500000
O O2 0.500000 0.352863 0.287301
O O3 0.550767 0.500000 0.334875
O O4 0.592327 0.352545 0.236128
O O5 0.903523 0.362559 0.500000
O O6 0.930685 0.500000 0.671590
O O7 0.940001 0.325306 0.748732
O O8 0.855313 0.406703 0.727694
O O9 0.910096 0.851642 0.789064
O O10 0.000000 0.808365 0.796722
O O11 0.942241 0.747827 0.000000
O O12 0.227424 0.864931 0.500000
O O13 0.178504 0.903143 0.729226
O O14 0.264203 0.823273 0.748742
O O15 0.253137 0.000000 0.678408
O O16 0.158467 0.749113 0.139579
O O17 0.230302 0.651501 0.207554
O O18 0.173214 0.595562 0.000000
O O19 0.349837 0.500000 0.780591
O O20 0.318717 0.324813 0.778950
O O21 0.365355 0.390042 0.000000
O O22 0.851755 0.904148 0.000000
O O23 0.728589 0.252561 0.000000
#
# Coordination Sequence:
#
# PCOD8196369 Si02
#       8
#     8   8   8   8   8   8   8   8
#     4   8  14  25  40  58  83 118 160 201 236 270
#     4  10  20  30  39  56  82 108 138 177 215 253
#     4   9  18  32  48  64  81 103 134 171 211 257
#     4  10  20  32  48  71  95 118 146 181 220 263
#     4   8  15  28  44  59  76 104 141 175 209 252
#     4   9  17  28  42  63  92 124 158 195 232 268
#     4   8  15  29  48  67  84 104 132 166 205 251
#     4   9  18  31  46  66  92 121 152 186 225 269
#
# _framework density 16.735401
#
# number of rings (size 3 to 8) (size 9 to 14) (size 15 to 20)
#    0.000    3.125    0.000    2.625    0.000    8.250 
#    0.000    3.750    0.000    1.875    0.000    2.625 
#    0.000    0.500    0.000    5.500    0.000    4.250 
#
# Total GULP energy -792940.156972 kJ/mol
# GULP energy per Si atom -12389.689953 kJ/mol
# Density = 1.669731 g / cm^3
# Si number density = 16.735401 Si / 1000 Ang^3
#
#
#
# Elastic Constant Matrix: (Units=GPa)
#
#
# Indices 1 2 3 4 5 6 
#
# 1 133.7262 30.6220 39.1562 0.0000 0.0000 0.0000
# 2 30.6220 53.4204 26.0738 0.0000 0.0000 0.0000
# 3 39.1562 26.0738 66.2289 0.0000 0.0000 0.0000
# 4 0.0000 0.0000 0.0000 21.9901 0.0000 0.0000
# 5 0.0000 0.0000 0.0000 0.0000 13.6279 0.0000
# 6 0.0000 0.0000 0.0000 0.0000 0.0000 9.1031
#
#
#
# Elastic Compliance Matrix: (Units=1/GPa)
#
#
# Indices 1 2 3 4 5 6 
#
# 1 0.009504 -0.003349 -0.004301 0.000000 0.000000 0.000000
# 2 -0.003349 0.024352 -0.007607 0.000000 0.000000 0.000000
# 3 -0.004301 -0.007607 0.020637 0.000000 0.000000 0.000000
# 4 0.000000 0.000000 0.000000 0.045475 0.000000 0.000000
# 5 0.000000 0.000000 0.000000 0.000000 0.073379 0.000000
# 6 0.000000 0.000000 0.000000 0.000000 0.000000 0.109852
#
#
# Mechanical properties :
#
#
# Convention : Reuss Voigt Hill
#
# Bulk Modulus (GPa) = 41.70264 49.45329 45.57796
# Shear Modulus (GPa) = 15.54214 19.44578 17.49396
#
# Velocity S-wave (km/s) = 3.05076 3.41244 3.23666
# Velocity P-wave (km/s) = 6.11412 6.71868 6.42351
#
# Compressibility (1/GPa) = 0.02397930
#
# Stress axis : x y z
#
# Youngs Moduli (GPa) = 105.21767 41.06417 48.45729
#
# Poissons Ratio (x) = 0.13752 0.20840
# Poissons Ratio (y) = 0.35237 0.36863
# Poissons Ratio (z) = 0.45250 0.31239
#
# Static dielectric constant tensor:
#      x y z
#    x 3.635100 0.000000 0.000000 
#    y 0.000000 2.856580 0.000000 
#    z 0.000000 0.000000 3.171070 
# 
# 
# High freq. dielectric constant tensor:
#      x y z
#    x 1.635980 0.000000 0.000000 
#    y 0.000000 1.606590 0.000000 
#    z 0.000000 0.000000 1.642910 
# 
# From -- ./inp_files/14263.got.cif
#   From: 2010.03.12/outbox.cif.g09.slc.cpg/sg47_8_cif.got.tgz:14263.got - 2010.04.14 03:12:58.
