data_PCOD8196585
_publ_section_title
;
Structure prediction by ZEFSAII (Michael W. Deem and Ramdas Pophale) SiO2 
 PCOD8196585
Probable space group: P M M M
;
_chemical_formula_sum "Si O2"
_cell_formula_units_Z 52
_cell_length_a 23.183562
_cell_length_b 9.075520
_cell_length_c 15.285904
_cell_angle_alpha 90.000000
_cell_angle_beta 90.000000
_cell_angle_gamma 90.000000
_cell_volume 3216.198234
_symmetry_space_group_name_H-M "P M M M"
_symmetry_group_IT_number 47
_symmetry_cell_setting 'orthorhombic'
loop_
_space_group_symop_operation_xyz
x,y,z
-x,-y,z
x,-y,-z
-x,y,-z
-x,-y,-z
x,y,-z
-x,y,z
x,-y,z
loop_
_atom_site_type_symbol
_atom_site_label
_atom_site_fract_x
_atom_site_fract_y
_atom_site_fract_z
Si Si1 0.178533 0.329270 0.596781
Si Si2 0.935443 0.167953 0.350873
Si Si3 0.233013 0.327414 0.227399
Si Si4 0.062396 0.825559 0.000000
Si Si5 0.122585 0.831744 0.172761
Si Si6 0.563142 0.335836 0.896660
Si Si7 0.323494 0.826230 0.898807
O O1 0.204557 0.298794 0.500000
O O2 0.166203 0.500000 0.612987
O O3 0.115895 0.253586 0.601349
O O4 0.225835 0.277293 0.669727
O O5 0.926104 0.177047 0.246866
O O6 0.000000 0.230678 0.372100
O O7 0.931992 0.000000 0.383213
O O8 0.245923 0.500000 0.218784
O O9 0.172395 0.285940 0.186224
O O10 0.281561 0.242236 0.173456
O O11 0.095721 0.771953 0.915555
O O12 0.000000 0.750369 0.000000
O O13 0.056351 0.000000 0.000000
O O14 0.146673 0.000000 0.165702
O O15 0.500000 0.285703 0.860250
O O16 0.578003 0.500000 0.861194
O O17 0.612523 0.221764 0.868345
O O18 0.559777 0.341189 0.000000
O O19 0.318527 0.000000 0.892938
O O20 0.310271 0.775045 0.000000
#
# Coordination Sequence:
#
# PCOD8196585 Si02
#       7
#     8   8   8   4   8   8   8
#     4   9  19  35  51  66  85 111 144 183 230 281
#     4   9  17  29  45  65  88 111 137 174 221 273
#     4  10  20  33  48  65  87 116 149 187 229 271
#     4   9  16  26  43  63  79 103 142 181 216 259
#     4   9  17  29  44  61  83 111 143 181 222 266
#     4   8  14  26  44  66  94 128 163 195 225 255
#     4  10  20  31  45  67  96 129 162 192 221 257
#
# _framework density 16.168158999999999
#
# number of rings (size 3 to 8) (size 9 to 14) (size 15 to 20)
#    0.000    2.846    0.000    1.846    1.077    4.615 
#    0.000    3.077    0.000    1.846    0.000    0.000 
#    0.000    0.615    0.000    7.077    0.000    2.308 
#
# Total GULP energy -644213.494965 kJ/mol
# GULP energy per Si atom -12388.721057 kJ/mol
# Density = 1.613136 g / cm^3
# Si number density = 16.168159 Si / 1000 Ang^3
#
#
#
# Elastic Constant Matrix: (Units=GPa)
#
#
# Indices 1 2 3 4 5 6 
#
# 1 98.8571 38.2702 50.1563 0.0000 0.0000 0.0000
# 2 38.2702 50.1677 32.2329 0.0000 0.0000 0.0000
# 3 50.1563 32.2329 106.4321 0.0000 0.0000 0.0000
# 4 0.0000 0.0000 0.0000 16.9049 0.0000 0.0000
# 5 0.0000 0.0000 0.0000 0.0000 12.2081 0.0000
# 6 0.0000 0.0000 0.0000 0.0000 0.0000 35.9731
#
#
#
# Elastic Compliance Matrix: (Units=1/GPa)
#
#
# Indices 1 2 3 4 5 6 
#
# 1 0.016119 -0.009208 -0.004808 0.000000 0.000000 0.000000
# 2 -0.009208 0.030008 -0.004749 0.000000 0.000000 0.000000
# 3 -0.004808 -0.004749 0.013100 0.000000 0.000000 0.000000
# 4 0.000000 0.000000 0.000000 0.059154 0.000000 0.000000
# 5 0.000000 0.000000 0.000000 0.000000 0.081913 0.000000
# 6 0.000000 0.000000 0.000000 0.000000 0.000000 0.027799
#
#
# Mechanical properties :
#
#
# Convention : Reuss Voigt Hill
#
# Bulk Modulus (GPa) = 46.08574 55.19731 50.64153
# Shear Modulus (GPa) = 18.32476 22.00371 20.16424
#
# Velocity S-wave (km/s) = 3.37023 3.69308 3.53534
# Velocity P-wave (km/s) = 6.61139 7.23870 6.93214
#
# Compressibility (1/GPa) = 0.02169868
#
# Stress axis : x y z
#
# Youngs Moduli (GPa) = 62.03697 33.32412 76.33858
#
# Poissons Ratio (x) = 0.30684 0.36702
# Poissons Ratio (y) = 0.57121 0.36252
# Poissons Ratio (z) = 0.29826 0.15825
#
# Static dielectric constant tensor:
#      x y z
#    x 3.225410 0.000000 0.000000 
#    y 0.000000 3.019390 0.000000 
#    z 0.000000 0.000000 3.161680 
# 
# 
# High freq. dielectric constant tensor:
#      x y z
#    x 1.606780 0.000000 0.000000 
#    y 0.000000 1.614390 0.000000 
#    z 0.000000 0.000000 1.605290 
# 
# From -- ./inp_files/21807.got.cif
#   From: 2010.03.12/outbox.cif.g09.slc.cpg/sg47_11_cif.got.tgz:21807.got - 2010.04.14 03:12:58.
