data_PCOD8196829
_publ_section_title
;
Structure prediction by ZEFSAII (Michael W. Deem and Ramdas Pophale) SiO2 
 PCOD8196829
Probable space group: P M M M
;
_chemical_formula_sum "Si O2"
_cell_formula_units_Z 56
_cell_length_a 18.439020
_cell_length_b 8.848279
_cell_length_c 21.218477
_cell_angle_alpha 90.000000
_cell_angle_beta 90.000000
_cell_angle_gamma 90.000000
_cell_volume 3461.870770
_symmetry_space_group_name_H-M "P M M M"
_symmetry_group_IT_number 47
_symmetry_cell_setting 'orthorhombic'
loop_
_space_group_symop_operation_xyz
x,y,z
-x,-y,z
x,-y,-z
-x,y,-z
-x,-y,-z
x,y,-z
-x,y,z
x,-y,z
loop_
_atom_site_type_symbol
_atom_site_label
_atom_site_fract_x
_atom_site_fract_y
_atom_site_fract_z
Si Si1 0.710108 0.664732 0.870671
Si Si2 0.150107 0.680277 0.070564
Si Si3 0.205621 0.332831 0.740511
Si Si4 0.083269 0.825885 0.188972
Si Si5 0.581947 0.680657 0.796085
Si Si6 0.663932 0.177798 0.681898
Si Si7 0.416787 0.674092 0.572813
O O1 0.692986 0.500000 0.899180
O O2 0.767293 0.745774 0.917849
O O3 0.750361 0.651627 0.804417
O O4 0.632718 0.743709 0.854242
O O5 0.150806 0.500000 0.080827
O O6 0.094961 0.751300 0.120284
O O7 0.125367 0.723744 0.000000
O O8 0.188693 0.500000 0.713353
O O9 0.130163 0.248448 0.755205
O O10 0.254530 0.241205 0.690690
O O11 0.000000 0.803969 0.208004
O O12 0.105354 0.000000 0.183323
O O13 0.500000 0.728985 0.811044
O O14 0.590665 0.500000 0.790408
O O15 0.606368 0.752058 0.730512
O O16 0.636640 0.219739 0.612380
O O17 0.666213 0.000000 0.691346
O O18 0.397857 0.700341 0.500000
O O19 0.500000 0.719131 0.586274
O O20 0.404113 0.500000 0.591764
#
# Coordination Sequence:
#
# PCOD8196829 Si02
#       7
#     8   8   8   8   8   8   8
#     4   7  12  24  40  57  76 100 135 181 224 255
#     4   9  17  29  45  62  81 113 156 190 213 251
#     4   9  17  31  49  65  84 113 148 181 213 258
#     4  10  20  32  46  67  95 119 138 171 222 271
#     4   9  16  26  41  59  80 110 148 187 226 269
#     4  11  20  28  42  65  92 118 147 186 229 270
#     4   9  18  32  47  62  86 125 168 202 230 262
#
# _framework density 16.176224000000001
#
# number of rings (size 3 to 8) (size 9 to 14) (size 15 to 20)
#    0.000    2.857    0.000    4.714    0.000    4.286 
#    0.000    2.143    0.000    0.429    0.000    3.000 
#    0.000    0.571    0.000   16.429    0.000   15.429 
#
# Total GULP energy -693863.898959 kJ/mol
# GULP energy per Si atom -12390.426767 kJ/mol
# Density = 1.613941 g / cm^3
# Si number density = 16.176224 Si / 1000 Ang^3
#
#
#
# Elastic Constant Matrix: (Units=GPa)
#
#
# Indices 1 2 3 4 5 6 
#
# 1 102.1644 39.3677 30.4979 0.0000 0.0000 0.0000
# 2 39.3677 73.5386 24.1605 0.0000 0.0000 0.0000
# 3 30.4979 24.1605 43.6987 0.0000 0.0000 0.0000
# 4 0.0000 0.0000 0.0000 14.0048 0.0000 0.0000
# 5 0.0000 0.0000 0.0000 0.0000 21.5786 0.0000
# 6 0.0000 0.0000 0.0000 0.0000 0.0000 21.4776
#
#
#
# Elastic Compliance Matrix: (Units=1/GPa)
#
#
# Indices 1 2 3 4 5 6 
#
# 1 0.013800 -0.005161 -0.006778 0.000000 0.000000 0.000000
# 2 -0.005161 0.018547 -0.006652 0.000000 0.000000 0.000000
# 3 -0.006778 -0.006652 0.031292 0.000000 0.000000 0.000000
# 4 0.000000 0.000000 0.000000 0.071404 0.000000 0.000000
# 5 0.000000 0.000000 0.000000 0.000000 0.046342 0.000000
# 6 0.000000 0.000000 0.000000 0.000000 0.000000 0.046560
#
#
# Mechanical properties :
#
#
# Convention : Reuss Voigt Hill
#
# Bulk Modulus (GPa) = 37.79736 45.27265 41.53501
# Shear Modulus (GPa) = 18.25171 19.77057 19.01114
#
# Velocity S-wave (km/s) = 3.36267 3.49979 3.43191
# Velocity P-wave (km/s) = 6.20431 6.66178 6.43711
#
# Compressibility (1/GPa) = 0.02645687
#
# Stress axis : x y z
#
# Youngs Moduli (GPa) = 72.46294 53.91803 31.95659
#
# Poissons Ratio (x) = 0.27826 0.21660
# Poissons Ratio (y) = 0.37397 0.21259
# Poissons Ratio (z) = 0.49115 0.35868
#
# Static dielectric constant tensor:
#      x y z
#    x 3.231660 0.000000 0.000000 
#    y 0.000000 2.979470 0.000000 
#    z 0.000000 0.000000 2.868220 
# 
# 
# High freq. dielectric constant tensor:
#      x y z
#    x 1.618700 0.000000 0.000000 
#    y 0.000000 1.610540 0.000000 
#    z 0.000000 0.000000 1.585400 
# 
# From -- ./inp_files/31280.got.cif
#   From: 2010.03.12/outbox.cif.g09.slc.cpg/sg47_16_cif.got.tgz:31280.got - 2010.04.14 03:12:58.
