data_PCOD8196460
_publ_section_title
;
Structure prediction by ZEFSAII (Michael W. Deem and Ramdas Pophale) SiO2 
 PCOD8196460
Probable space group: P M M M
;
_chemical_formula_sum "Si O2"
_cell_formula_units_Z 52
_cell_length_a 17.947386
_cell_length_b 9.291179
_cell_length_c 24.749334
_cell_angle_alpha 90.000000
_cell_angle_beta 90.000000
_cell_angle_gamma 90.000000
_cell_volume 4127.010247
_symmetry_space_group_name_H-M "P M M M"
_symmetry_group_IT_number 47
_symmetry_cell_setting 'orthorhombic'
loop_
_space_group_symop_operation_xyz
x,y,z
-x,-y,z
x,-y,-z
-x,y,-z
-x,-y,-z
x,y,-z
-x,y,z
x,-y,z
loop_
_atom_site_type_symbol
_atom_site_label
_atom_site_fract_x
_atom_site_fract_y
_atom_site_fract_z
Si Si1 0.000000 0.329534 0.060101
Si Si2 0.911519 0.158661 0.342645
Si Si3 0.088515 0.339033 0.558948
Si Si4 0.276348 0.833528 0.936060
Si Si5 0.086229 0.830150 0.222381
Si Si6 0.582257 0.339029 0.935921
Si Si7 0.145437 0.671914 0.123565
O O1 0.926851 0.275146 0.090726
O O2 0.000000 0.500000 0.057131
O O3 0.000000 0.262774 0.000000
O O4 0.875911 0.252075 0.391059
O O5 0.891046 0.218037 0.283164
O O6 0.000000 0.152717 0.347780
O O7 0.877870 0.000000 0.349498
O O8 0.110880 0.273425 0.500000
O O9 0.119804 0.500000 0.563054
O O10 0.000000 0.339876 0.564203
O O11 0.356834 0.776256 0.915966
O O12 0.216153 0.736720 0.906196
O O13 0.268532 0.000000 0.919380
O O14 0.266128 0.812776 0.000000
O O15 0.138973 0.737573 0.183417
O O16 0.000000 0.791830 0.211210
O O17 0.099658 0.000000 0.214141
O O18 0.500000 0.294115 0.914274
O O19 0.602514 0.500000 0.915114
O O20 0.580824 0.340333 0.000000
O O21 0.152284 0.500000 0.126519
#
# Coordination Sequence:
#
# PCOD8196460 Si02
#       7
#     4   8   8   8   8   8   8
#     4   9  18  30  41  53  67  83 108 145 184 219
#     4   8  14  23  34  47  61  81 106 132 166 206
#     4   8  13  20  29  43  63  83 101 126 162 200
#     4  10  20  31  42  58  78  97 116 139 173 215
#     4   9  17  29  41  51  67  87 110 145 184 218
#     4   8  14  26  44  63  80  97 115 134 160 198
#     4  11  20  30  43  56  70  90 118 150 183 218
#
# _framework density 12.599921
#
# number of rings (size 3 to 8) (size 9 to 14) (size 15 to 20)
#    0.000    3.000    0.769    3.231    0.000    2.769 
#    0.000    4.615    0.000    1.846    0.000    0.000 
#    0.000    0.000    0.000    0.000    0.000    0.000 
#
# Total GULP energy -644397.919646 kJ/mol
# GULP energy per Si atom -12392.267685 kJ/mol
# Density = 1.257124 g / cm^3
# Si number density = 12.599921 Si / 1000 Ang^3
#
#
#
# Elastic Constant Matrix: (Units=GPa)
#
#
# Indices 1 2 3 4 5 6 
#
# 1 57.6187 30.6667 26.5056 0.0000 0.0000 0.0000
# 2 30.6667 64.6839 41.3445 0.0000 0.0000 0.0000
# 3 26.5056 41.3445 84.2927 0.0000 0.0000 0.0000
# 4 0.0000 0.0000 0.0000 21.6395 0.0000 0.0000
# 5 0.0000 0.0000 0.0000 0.0000 1.2855 0.0000
# 6 0.0000 0.0000 0.0000 0.0000 0.0000 15.5479
#
#
#
# Elastic Compliance Matrix: (Units=1/GPa)
#
#
# Indices 1 2 3 4 5 6 
#
# 1 0.023665 -0.009415 -0.002824 0.000000 0.000000 0.000000
# 2 -0.009415 0.026266 -0.009922 0.000000 0.000000 0.000000
# 3 -0.002824 -0.009922 0.017618 0.000000 0.000000 0.000000
# 4 0.000000 0.000000 0.000000 0.046212 0.000000 0.000000
# 5 0.000000 0.000000 0.000000 0.000000 0.777933 0.000000
# 6 0.000000 0.000000 0.000000 0.000000 0.000000 0.064317
#
#
# Mechanical properties :
#
#
# Convention : Reuss Voigt Hill
#
# Bulk Modulus (GPa) = 43.05316 44.84765 43.95040
# Shear Modulus (GPa) = 4.95995 14.89982 9.92988
#
# Velocity S-wave (km/s) = 1.98621 3.44253 2.81034
# Velocity P-wave (km/s) = 6.28519 7.17441 6.74447
#
# Compressibility (1/GPa) = 0.02322710
#
# Stress axis : x y z
#
# Youngs Moduli (GPa) = 42.25591 38.07255 56.75977
#
# Poissons Ratio (x) = 0.35845 0.16026
# Poissons Ratio (y) = 0.39784 0.56320
# Poissons Ratio (z) = 0.11931 0.37777
#
# Static dielectric constant tensor:
#      x y z
#    x 2.358100 0.000000 0.000000 
#    y 0.000000 2.667900 0.000000 
#    z 0.000000 0.000000 2.616690 
# 
# 
# High freq. dielectric constant tensor:
#      x y z
#    x 1.429110 0.000000 0.000000 
#    y 0.000000 1.483000 0.000000 
#    z 0.000000 0.000000 1.464600 
# 
# From -- ./inp_files/27081.got.cif
#   From: 2010.03.12/outbox.cif.g09.slc.cpg/sg47_14_cif.got.tgz:27081.got - 2010.04.14 03:12:58.
