data_PCOD8196132
_publ_section_title
;
Structure prediction by ZEFSAII (Michael W. Deem and Ramdas Pophale) SiO2 
 PCOD8196132
Probable space group: P M M M
;
_chemical_formula_sum "Si O2"
_cell_formula_units_Z 52
_cell_length_a 22.559461
_cell_length_b 9.058439
_cell_length_c 15.367238
_cell_angle_alpha 90.000000
_cell_angle_beta 90.000000
_cell_angle_gamma 90.000000
_cell_volume 3140.348891
_symmetry_space_group_name_H-M "P M M M"
_symmetry_group_IT_number 47
_symmetry_cell_setting 'orthorhombic'
loop_
_space_group_symop_operation_xyz
x,y,z
-x,-y,z
x,-y,-z
-x,y,-z
-x,-y,-z
x,y,-z
-x,y,z
x,-y,z
loop_
_atom_site_type_symbol
_atom_site_label
_atom_site_fract_x
_atom_site_fract_y
_atom_site_fract_z
Si Si1 0.103157 0.832425 0.676072
Si Si2 0.817145 0.671553 0.094251
Si Si3 0.778686 0.324331 0.719324
Si Si4 0.934288 0.833765 0.870798
Si Si5 0.681311 0.826680 0.398719
Si Si6 0.564974 0.664564 0.602837
Si Si7 0.000000 0.340572 0.597873
O O1 0.162716 0.736994 0.674164
O O2 0.070598 0.830031 0.767694
O O3 0.058375 0.756218 0.610954
O O4 0.117812 0.000000 0.646853
O O5 0.826747 0.500000 0.108272
O O6 0.779293 0.728474 0.177996
O O7 0.882805 0.737750 0.087180
O O8 0.785581 0.704579 0.000000
O O9 0.776030 0.500000 0.711096
O O10 0.723899 0.256652 0.667826
O O11 0.000000 0.774332 0.896676
O O12 0.926590 0.000000 0.905335
O O13 0.693584 0.782063 0.500000
O O14 0.615145 0.780641 0.368865
O O15 0.688903 0.000000 0.386001
O O16 0.561639 0.659326 0.500000
O O17 0.500000 0.713691 0.639100
O O18 0.580640 0.500000 0.637841
O O19 0.000000 0.500000 0.649990
O O20 0.000000 0.387670 0.500000
#
# Coordination Sequence:
#
# PCOD8196132 Si02
#       7
#     8   8   8   8   8   8   4
#     4  10  19  34  51  65  84 112 146 187 234 281
#     4   9  19  34  49  68  92 117 149 189 235 286
#     4  10  20  34  52  71  92 124 159 196 240 283
#     4   9  17  30  47  67  88 110 138 173 220 279
#     4  10  20  32  47  70 100 133 167 201 235 273
#     4   8  14  26  45  69  98 132 166 198 232 270
#     4  11  23  35  47  65  86 109 144 189 235 286
#
# _framework density 16.558669999999999
#
# number of rings (size 3 to 8) (size 9 to 14) (size 15 to 20)
#    0.000    2.538    0.769    2.077    0.000    4.615 
#    0.000    3.077    0.000    0.000    0.000    0.000 
#    0.000    0.615    0.000    7.077    0.000    2.308 
#
# Total GULP energy -644264.209534 kJ/mol
# GULP energy per Si atom -12389.696337 kJ/mol
# Density = 1.652098 g / cm^3
# Si number density = 16.558670 Si / 1000 Ang^3
#
#
#
# Elastic Constant Matrix: (Units=GPa)
#
#
# Indices 1 2 3 4 5 6 
#
# 1 110.1610 46.0202 49.9835 0.0000 0.0000 0.0000
# 2 46.0202 76.5506 39.0118 0.0000 0.0000 0.0000
# 3 49.9835 39.0118 74.5549 0.0000 0.0000 0.0000
# 4 0.0000 0.0000 0.0000 11.9257 0.0000 0.0000
# 5 0.0000 0.0000 0.0000 0.0000 0.0691 0.0000
# 6 0.0000 0.0000 0.0000 0.0000 0.0000 29.0256
#
#
#
# Elastic Compliance Matrix: (Units=1/GPa)
#
#
# Indices 1 2 3 4 5 6 
#
# 1 0.014364 -0.005083 -0.006970 0.000000 0.000000 0.000000
# 2 -0.005083 0.019612 -0.006855 0.000000 0.000000 0.000000
# 3 -0.006970 -0.006855 0.021673 0.000000 0.000000 0.000000
# 4 0.000000 0.000000 0.000000 0.083852 0.000000 0.000000
# 5 0.000000 0.000000 0.000000 0.000000 14.479175 0.000000
# 6 0.000000 0.000000 0.000000 0.000000 0.000000 0.034452
#
#
# Mechanical properties :
#
#
# Convention : Reuss Voigt Hill
#
# Bulk Modulus (GPa) = 56.07498 59.03306 57.55402
# Shear Modulus (GPa) = 0.34021 16.62080 8.48050
#
# Velocity S-wave (km/s) = 0.45376 3.17164 2.26553
# Velocity P-wave (km/s) = 5.84914 7.01004 6.45574
#
# Compressibility (1/GPa) = 0.01783326
#
# Stress axis : x y z
#
# Youngs Moduli (GPa) = 69.62072 50.98861 46.14128
#
# Poissons Ratio (x) = 0.25917 0.32160
# Poissons Ratio (y) = 0.35388 0.31628
# Poissons Ratio (z) = 0.48526 0.34951
#
# Static dielectric constant tensor:
#      x y z
#    x 3.223230 0.000000 0.000000 
#    y 0.000000 3.229060 0.000000 
#    z 0.000000 0.000000 3.118490 
# 
# 
# High freq. dielectric constant tensor:
#      x y z
#    x 1.617620 0.000000 0.000000 
#    y 0.000000 1.647290 0.000000 
#    z 0.000000 0.000000 1.615990 
# 
# From -- ./inp_files/25027.got.cif
#   From: 2010.03.12/outbox.cif.g09.slc.cpg/sg47_13_cif.got.tgz:25027.got - 2010.04.14 03:12:58.
