data_PCOD8196816
_publ_section_title
;
Structure prediction by ZEFSAII (Michael W. Deem and Ramdas Pophale) SiO2 
 PCOD8196816
Probable space group: P M M M
;
_chemical_formula_sum "Si O2"
_cell_formula_units_Z 52
_cell_length_a 9.636827
_cell_length_b 33.534197
_cell_length_c 9.229358
_cell_angle_alpha 90.000000
_cell_angle_beta 90.000000
_cell_angle_gamma 90.000000
_cell_volume 2982.589374
_symmetry_space_group_name_H-M "P M M M"
_symmetry_group_IT_number 47
_symmetry_cell_setting 'orthorhombic'
loop_
_space_group_symop_operation_xyz
x,y,z
-x,-y,z
x,-y,-z
-x,y,-z
-x,-y,-z
x,y,-z
-x,y,z
x,-y,z
loop_
_atom_site_type_symbol
_atom_site_label
_atom_site_fract_x
_atom_site_fract_y
_atom_site_fract_z
Si Si1 0.337199 0.761277 0.167096
Si Si2 0.834889 0.618597 0.162424
Si Si3 0.161002 0.922497 0.830491
Si Si4 0.346951 0.850708 0.171809
Si Si5 0.834954 0.544006 0.337250
Si Si6 0.161250 0.696732 0.330281
Si Si7 0.834922 0.000000 0.663883
O O1 0.500000 0.752957 0.188194
O O2 0.300163 0.806303 0.217037
O O3 0.248932 0.733273 0.270306
O O4 0.294711 0.754104 0.000000
O O5 0.773125 0.578154 0.233026
O O6 0.784612 0.656460 0.254436
O O7 0.000000 0.616613 0.161508
O O8 0.775818 0.622377 0.000000
O O9 0.239701 0.883570 0.769385
O O10 0.220395 0.960830 0.746102
O O11 0.000000 0.915552 0.797651
O O12 0.188206 0.929585 0.000000
O O13 0.500000 0.860082 0.235016
O O14 0.353192 0.852330 0.000000
O O15 0.779903 0.551442 0.500000
O O16 0.787546 0.500000 0.282843
O O17 0.000000 0.546355 0.337535
O O18 0.187465 0.692112 0.500000
O O19 0.000000 0.704453 0.295181
O O20 0.778387 0.000000 0.500000
O O21 0.000000 0.000000 0.668251
#
# Coordination Sequence:
#
# PCOD8196816 Si02
#       7
#     8   8   8   8   8   8   4
#     4   9  18  33  52  72  94 121 153 190 233 281
#     4   9  16  25  38  57  82 113 149 190 234 275
#     4   9  16  27  46  70  91 114 149 187 217 253
#     4   8  15  29  48  69  92 116 143 179 224 270
#     4   8  13  21  33  50  76 112 149 182 221 273
#     4  10  20  32  46  66  93 124 157 193 233 278
#     4   9  17  29  44  63  90 122 150 179 220 262
#
# _framework density 17.434515000000001
#
# number of rings (size 3 to 8) (size 9 to 14) (size 15 to 20)
#    0.000    3.154    0.000    2.538    0.000    4.923 
#    0.000    4.231    0.000    5.538    0.000    0.000 
#    0.000    0.615    0.000    6.462    0.000    8.923 
#
# Total GULP energy -644588.148455 kJ/mol
# GULP energy per Si atom -12395.925932 kJ/mol
# Density = 1.739483 g / cm^3
# Si number density = 17.434515 Si / 1000 Ang^3
#
#
#
# Elastic Constant Matrix: (Units=GPa)
#
#
# Indices 1 2 3 4 5 6 
#
# 1 37.3564 53.5958 32.6734 0.0000 0.0000 0.0000
# 2 53.5958 180.0322 77.7678 0.0000 0.0000 0.0000
# 3 32.6734 77.7678 95.3828 0.0000 0.0000 0.0000
# 4 0.0000 0.0000 0.0000 19.2795 0.0000 0.0000
# 5 0.0000 0.0000 0.0000 0.0000 14.6582 0.0000
# 6 0.0000 0.0000 0.0000 0.0000 0.0000 0.5492
#
#
#
# Elastic Compliance Matrix: (Units=1/GPa)
#
#
# Indices 1 2 3 4 5 6 
#
# 1 0.050167 -0.011595 -0.007731 0.000000 0.000000 0.000000
# 2 -0.011595 0.011254 -0.005204 0.000000 0.000000 0.000000
# 3 -0.007731 -0.005204 0.017375 0.000000 0.000000 0.000000
# 4 0.000000 0.000000 0.000000 0.051869 0.000000 0.000000
# 5 0.000000 0.000000 0.000000 0.000000 0.068221 0.000000
# 6 0.000000 0.000000 0.000000 0.000000 0.000000 1.820771
#
#
# Mechanical properties :
#
#
# Convention : Reuss Voigt Hill
#
# Bulk Modulus (GPa) = 33.62896 71.20505 52.41700
# Shear Modulus (GPa) = 2.40543 16.81300 9.60922
#
# Velocity S-wave (km/s) = 1.17588 3.10877 2.35023
# Velocity P-wave (km/s) = 4.60154 7.33594 6.12332
#
# Compressibility (1/GPa) = 0.02973627
#
# Stress axis : x y z
#
# Youngs Moduli (GPa) = 19.93355 88.85350 57.55324
#
# Poissons Ratio (x) = 1.03028 0.44493
# Poissons Ratio (y) = 0.23114 0.29951
# Poissons Ratio (z) = 0.15410 0.46240
#
# Static dielectric constant tensor:
#      x y z
#    x 2.886020 0.000000 0.000000 
#    y 0.000000 3.564580 0.000000 
#    z 0.000000 0.000000 3.184980 
# 
# 
# High freq. dielectric constant tensor:
#      x y z
#    x 1.622390 0.000000 0.000000 
#    y 0.000000 1.690650 0.000000 
#    z 0.000000 0.000000 1.660260 
# 
# From -- ./inp_files/4520.got.cif
#   From: 2010.03.12/outbox.cif.g09.slc.cpg/sg47_3_cif.got.tgz:4520.got - 2010.04.14 03:12:58.
