data_PCOD8196353
_publ_section_title
;
Structure prediction by ZEFSAII (Michael W. Deem and Ramdas Pophale) SiO2 
 PCOD8196353
Probable space group: P M M M
;
_chemical_formula_sum "Si O2"
_cell_formula_units_Z 44
_cell_length_a 19.851968
_cell_length_b 7.446174
_cell_length_c 14.527231
_cell_angle_alpha 90.000000
_cell_angle_beta 90.000000
_cell_angle_gamma 90.000000
_cell_volume 2147.432835
_symmetry_space_group_name_H-M "P M M M"
_symmetry_group_IT_number 47
_symmetry_cell_setting 'orthorhombic'
loop_
_space_group_symop_operation_xyz
x,y,z
-x,-y,z
x,-y,-z
-x,y,-z
-x,-y,-z
x,y,-z
-x,y,z
x,-y,z
loop_
_atom_site_type_symbol
_atom_site_label
_atom_site_fract_x
_atom_site_fract_y
_atom_site_fract_z
Si Si1 0.074269 0.714092 0.783836
Si Si2 0.289070 0.287503 0.399793
Si Si3 0.800328 0.712702 0.897471
Si Si4 0.335017 0.712248 0.205625
Si Si5 0.420669 0.000000 0.893478
Si Si6 0.138135 0.286832 0.600219
O O1 0.075536 0.500000 0.784592
O O2 0.130662 0.789991 0.853565
O O3 0.090646 0.787455 0.681226
O O4 0.000000 0.784638 0.812464
O O5 0.317961 0.222305 0.500000
O O6 0.284636 0.500000 0.398855
O O7 0.335266 0.227982 0.313522
O O8 0.213757 0.210908 0.386390
O O9 0.804379 0.500000 0.900758
O O10 0.736605 0.771316 0.836869
O O11 0.792663 0.792694 0.000000
O O12 0.348369 0.500000 0.192768
O O13 0.393384 0.819609 0.154231
O O14 0.500000 0.000000 0.881421
O O15 0.399179 0.000000 0.000000
O O16 0.110161 0.225575 0.500000
O O17 0.140735 0.500000 0.605775
#
# Coordination Sequence:
#
# PCOD8196353 Si02
#       6
#     8   8   8   8   4   8
#     4   9  15  21  30  52  92 136 176 225 281 328
#     4   8  13  24  48  80 109 140 183 232 277 324
#     4   9  16  26  42  65  92 130 184 233 272 322
#     4  10  19  36  62  86 113 151 189 228 277 328
#     4  11  26  44  61  89 122 146 180 227 273 331
#     4   8  12  19  32  54  89 131 174 222 274 324
#
# _framework density 20.489581999999999
#
# number of rings (size 3 to 8) (size 9 to 14) (size 15 to 20)
#    0.000    3.000    1.818    1.636    0.000    2.182 
#    0.000    5.000    0.000    1.091    0.000    3.182 
#    0.000    2.182    0.000    4.182    0.000    8.727 
#
# Total GULP energy -545164.369831 kJ/mol
# GULP energy per Si atom -12390.099314 kJ/mol
# Density = 2.044295 g / cm^3
# Si number density = 20.489582 Si / 1000 Ang^3
#
#
#
# Elastic Constant Matrix: (Units=GPa)
#
#
# Indices 1 2 3 4 5 6 
#
# 1 99.3040 24.8941 68.8775 0.0000 0.0000 0.0000
# 2 24.8941 48.0702 24.6866 0.0000 0.0000 0.0000
# 3 68.8775 24.6866 185.5302 0.0000 0.0000 0.0000
# 4 0.0000 0.0000 0.0000 2.3595 0.0000 0.0000
# 5 0.0000 0.0000 0.0000 0.0000 30.5046 0.0000
# 6 0.0000 0.0000 0.0000 0.0000 0.0000 -905.5454
#
#
#
# Elastic Compliance Matrix: (Units=1/GPa)
#
#
# Indices 1 2 3 4 5 6 
#
# 1 0.014661 -0.005149 -0.004758 0.000000 0.000000 0.000000
# 2 -0.005149 0.024137 -0.001300 0.000000 0.000000 0.000000
# 3 -0.004758 -0.001300 0.007329 0.000000 0.000000 0.000000
# 4 0.000000 0.000000 0.000000 0.423815 0.000000 0.000000
# 5 0.000000 0.000000 0.000000 0.000000 0.032782 0.000000
# 6 0.000000 0.000000 0.000000 0.000000 0.000000 -0.001104
#
#
# Mechanical properties :
#
#
# Convention : Reuss Voigt Hill
#
# Bulk Modulus (GPa) = 42.17005 63.31341 52.74173
# Shear Modulus (GPa) = 9.39959 -160.23984 -75.42013
#
# Velocity S-wave (km/s) = 2.14417 -8.85298 -6.07363
# Velocity P-wave (km/s) = 5.17260 8.57514 4.83618
#
# Compressibility (1/GPa) = 0.02371351
#
# Stress axis : x y z
#
# Youngs Moduli (GPa) = 68.20905 41.42991 136.44038
#
# Poissons Ratio (x) = 0.21333 0.64913
# Poissons Ratio (y) = 0.35121 0.17739
# Poissons Ratio (z) = 0.32451 0.05386
#
# Static dielectric constant tensor:
#      x y z
#    x 3.438050 0.000000 0.000000 
#    y 0.000000 3.220420 0.000000 
#    z 0.000000 0.000000 4.364670 
# 
# 
# High freq. dielectric constant tensor:
#      x y z
#    x 1.756410 0.000000 0.000000 
#    y 0.000000 1.767480 0.000000 
#    z 0.000000 0.000000 1.819600 
# 
# From -- ./inp_files/24320.got.cif
#   From: 2010.03.12/outbox.cif.g09.slc.cpg/sg47_13_cif.got.tgz:24320.got - 2010.04.14 03:12:58.
