data_PCOD8196403
_publ_section_title
;
Structure prediction by ZEFSAII (Michael W. Deem and Ramdas Pophale) SiO2 
 PCOD8196403
Probable space group: P M M M
;
_chemical_formula_sum "Si O2"
_cell_formula_units_Z 52
_cell_length_a 15.514705
_cell_length_b 9.082613
_cell_length_c 28.034903
_cell_angle_alpha 90.000000
_cell_angle_beta 90.000000
_cell_angle_gamma 90.000000
_cell_volume 3950.512041
_symmetry_space_group_name_H-M "P M M M"
_symmetry_group_IT_number 47
_symmetry_cell_setting 'orthorhombic'
loop_
_space_group_symop_operation_xyz
x,y,z
-x,-y,z
x,-y,-z
-x,y,-z
-x,-y,-z
x,y,-z
-x,y,z
x,-y,z
loop_
_atom_site_type_symbol
_atom_site_label
_atom_site_fract_x
_atom_site_fract_y
_atom_site_fract_z
Si Si1 0.722700 0.669509 0.943261
Si Si2 0.908864 0.325363 0.053370
Si Si3 0.602802 0.833552 0.313400
Si Si4 0.397246 0.833534 0.500000
Si Si5 0.602741 0.333558 0.593277
Si Si6 0.397415 0.666174 0.779455
Si Si7 0.400068 0.171824 0.874073
O O1 0.705075 0.500000 0.929202
O O2 0.817479 0.723798 0.923472
O O3 0.650764 0.771762 0.920046
O O4 0.718301 0.689234 0.000000
O O5 0.905442 0.500000 0.050726
O O6 0.000000 0.275988 0.079271
O O7 0.912052 0.261366 0.000000
O O8 0.500000 0.833184 0.313180
O O9 0.638004 0.749289 0.359946
O O10 0.639108 0.751758 0.266578
O O11 0.638065 0.000000 0.313972
O O12 0.500000 0.833673 0.500000
O O13 0.361862 0.750200 0.546679
O O14 0.361839 0.000000 0.500000
O O15 0.500000 0.333732 0.593205
O O16 0.638189 0.500000 0.593141
O O17 0.500000 0.667391 0.777943
O O18 0.361623 0.500000 0.778847
O O19 0.364541 0.746522 0.827073
O O20 0.500000 0.208073 0.882793
O O21 0.384519 0.000000 0.866731
#
# Coordination Sequence:
#
# PCOD8196403 Si02
#       7
#     8   8   8   4   8   8   8
#     4   9  17  28  42  59  75  91 113 139 165 196
#     4   7  10  19  37  59  78  92 107 130 160 193
#     4   9  15  22  32  45  59  73  91 118 153 192
#     4   9  15  21  27  35  49  69  91 115 147 187
#     4   9  15  21  28  38  52  70  92 117 146 183
#     4   9  16  26  39  51  61  75  99 132 166 197
#     4  10  20  31  40  50  67  92 118 142 170 203
#
# _framework density 13.162851
#
# number of rings (size 3 to 8) (size 9 to 14) (size 15 to 20)
#    0.000    3.154    0.000    3.462    0.000    8.000 
#    0.000    1.538    0.000    0.462    0.000    2.154 
#    0.000    0.000    0.000    0.000    0.000    0.000 
#
# Total GULP energy -644281.132618 kJ/mol
# GULP energy per Si atom -12390.021781 kJ/mol
# Density = 1.313289 g / cm^3
# Si number density = 13.162851 Si / 1000 Ang^3
#
#
#
# Elastic Constant Matrix: (Units=GPa)
#
#
# Indices 1 2 3 4 5 6 
#
# 1 37.6658 25.7206 27.1789 0.0000 0.0000 0.0000
# 2 25.7206 97.3267 45.2219 0.0000 0.0000 0.0000
# 3 27.1789 45.2219 76.8593 0.0000 0.0000 0.0000
# 4 0.0000 0.0000 0.0000 25.8281 0.0000 0.0000
# 5 0.0000 0.0000 0.0000 0.0000 0.3417 0.0000
# 6 0.0000 0.0000 0.0000 0.0000 0.0000 4.7253
#
#
#
# Elastic Compliance Matrix: (Units=1/GPa)
#
#
# Indices 1 2 3 4 5 6 
#
# 1 0.037430 -0.005150 -0.010206 0.000000 0.000000 0.000000
# 2 -0.005150 0.014849 -0.006916 0.000000 0.000000 0.000000
# 3 -0.010206 -0.006916 0.020689 0.000000 0.000000 0.000000
# 4 0.000000 0.000000 0.000000 0.038718 0.000000 0.000000
# 5 0.000000 0.000000 0.000000 0.000000 2.926174 0.000000
# 6 0.000000 0.000000 0.000000 0.000000 0.000000 0.211627
#
#
# Mechanical properties :
#
#
# Convention : Reuss Voigt Hill
#
# Bulk Modulus (GPa) = 35.18002 45.34382 40.26192
# Shear Modulus (GPa) = 1.51354 13.76104 7.63729
#
# Velocity S-wave (km/s) = 1.07348 3.23684 2.41138
# Velocity P-wave (km/s) = 5.32177 6.96367 6.19733
#
# Compressibility (1/GPa) = 0.02842523
#
# Stress axis : x y z
#
# Youngs Moduli (GPa) = 26.71628 67.34529 48.33508
#
# Poissons Ratio (x) = 0.34680 0.49332
# Poissons Ratio (y) = 0.13758 0.33427
# Poissons Ratio (z) = 0.27267 0.46574
#
# Static dielectric constant tensor:
#      x y z
#    x 2.350840 0.000000 0.000000 
#    y 0.000000 2.700160 0.000000 
#    z 0.000000 0.000000 2.643730 
# 
# 
# High freq. dielectric constant tensor:
#      x y z
#    x 1.430540 0.000000 0.000000 
#    y 0.000000 1.507000 0.000000 
#    z 0.000000 0.000000 1.493360 
# 
# From -- ./inp_files/13435.got.cif
#   From: 2010.03.12/outbox.cif.g09.slc.cpg/sg47_7_cif.got.tgz:13435.got - 2010.04.14 03:12:58.
