data_PCOD8196363
_publ_section_title
;
Structure prediction by ZEFSAII (Michael W. Deem and Ramdas Pophale) SiO2 
 PCOD8196363
Probable space group: P M M M
;
_chemical_formula_sum "Si O2"
_cell_formula_units_Z 64
_cell_length_a 24.794748
_cell_length_b 9.630803
_cell_length_c 25.588382
_cell_angle_alpha 90.000000
_cell_angle_beta 90.000000
_cell_angle_gamma 90.000000
_cell_volume 6110.335035
_symmetry_space_group_name_H-M "P M M M"
_symmetry_group_IT_number 47
_symmetry_cell_setting 'orthorhombic'
loop_
_space_group_symop_operation_xyz
x,y,z
-x,-y,z
x,-y,-z
-x,y,-z
-x,-y,-z
x,y,-z
-x,y,z
x,-y,z
loop_
_atom_site_type_symbol
_atom_site_label
_atom_site_fract_x
_atom_site_fract_y
_atom_site_fract_z
Si Si1 0.373550 0.839816 0.061105
Si Si2 0.435899 0.658760 0.859058
Si Si3 0.252182 0.846088 0.062084
Si Si4 0.156352 0.656597 0.062439
Si Si5 0.059949 0.844329 0.062127
Si Si6 0.564153 0.655621 0.442452
Si Si7 0.564155 0.155457 0.351115
Si Si8 0.435913 0.843999 0.764549
O O1 0.413768 0.736986 0.090313
O O2 0.312570 0.805898 0.079675
O O3 0.387856 0.000000 0.073764
O O4 0.380484 0.810435 0.000000
O O5 0.500000 0.665169 0.861504
O O6 0.415501 0.500000 0.858158
O O7 0.413372 0.736081 0.807239
O O8 0.209606 0.734393 0.084150
O O9 0.237152 0.000000 0.083117
O O10 0.249907 0.849255 0.000000
O O11 0.156114 0.500000 0.084318
O O12 0.103627 0.736054 0.084536
O O13 0.156200 0.656469 0.000000
O O14 0.000000 0.800389 0.081180
O O15 0.073634 0.000000 0.081952
O O16 0.061974 0.843059 0.000000
O O17 0.581742 0.710967 0.500000
O O18 0.500000 0.657120 0.438695
O O19 0.585835 0.500000 0.434453
O O20 0.589811 0.748803 0.396418
O O21 0.500000 0.161040 0.353816
O O22 0.583318 0.204176 0.293336
O O23 0.584663 0.000000 0.361549
O O24 0.500000 0.845692 0.766178
O O25 0.414570 0.000000 0.776678
#
# Coordination Sequence:
#
# PCOD8196363 Si02
#       8
#     8   8   8   8   8   8   8   8
#     4   9  18  31  44  54  61  72  89 105 124 154
#     4  10  20  30  39  52  66  76  85 100 126 159
#     4   8  14  25  38  48  57  69  86 105 122 145
#     4   9  15  20  28  43  59  73  88 106 128 149
#     4   8  13  20  28  37  51  73  97 115 129 144
#     4   8  13  19  25  35  53  75  94 109 126 147
#     4   8  13  20  30  43  55  68  88 111 130 144
#     4   8  14  25  38  48  58  72  89 107 125 148
#
# _framework density 10.474057
#
# number of rings (size 3 to 8) (size 9 to 14) (size 15 to 20)
#    0.000    3.500    0.000    3.000    0.000    4.250 
#    0.000    7.500    0.000    0.000    0.000    0.000 
#    0.000    0.000    0.000    0.000    0.000    0.000 
#
# Total GULP energy -793013.747098 kJ/mol
# GULP energy per Si atom -12390.839798 kJ/mol
# Density = 1.045022 g / cm^3
# Si number density = 10.474057 Si / 1000 Ang^3
#
#
#
# Elastic Constant Matrix: (Units=GPa)
#
#
# Indices 1 2 3 4 5 6 
#
# 1 22.5588 23.6594 13.7601 0.0000 0.0000 0.0000
# 2 23.6594 79.6662 38.7213 0.0000 0.0000 0.0000
# 3 13.7601 38.7213 51.5667 0.0000 0.0000 0.0000
# 4 0.0000 0.0000 0.0000 14.4386 0.0000 0.0000
# 5 0.0000 0.0000 0.0000 0.0000 0.1190 0.0000
# 6 0.0000 0.0000 0.0000 0.0000 0.0000 11.2781
#
#
#
# Elastic Compliance Matrix: (Units=1/GPa)
#
#
# Indices 1 2 3 4 5 6 
#
# 1 0.065035 -0.017132 -0.004489 0.000000 0.000000 0.000000
# 2 -0.017132 0.024280 -0.013660 0.000000 0.000000 0.000000
# 3 -0.004489 -0.013660 0.030848 0.000000 0.000000 0.000000
# 4 0.000000 0.000000 0.000000 0.069259 0.000000 0.000000
# 5 0.000000 0.000000 0.000000 0.000000 8.406366 0.000000
# 6 0.000000 0.000000 0.000000 0.000000 0.000000 0.088667
#
#
# Mechanical properties :
#
#
# Convention : Reuss Voigt Hill
#
# Bulk Modulus (GPa) = 20.16171 34.00816 27.08493
# Shear Modulus (GPa) = 0.57002 10.34385 5.45694
#
# Velocity S-wave (km/s) = 0.73852 3.14597 2.28501
# Velocity P-wave (km/s) = 4.47417 6.76281 5.73384
#
# Compressibility (1/GPa) = 0.04959897
#
# Stress axis : x y z
#
# Youngs Moduli (GPa) = 15.37635 41.18662 32.41737
#
# Poissons Ratio (x) = 0.70562 0.14554
# Poissons Ratio (y) = 0.26343 0.44282
# Poissons Ratio (z) = 0.06903 0.56261
#
# Static dielectric constant tensor:
#      x y z
#    x 2.108000 0.000000 0.000000 
#    y 0.000000 2.494150 0.000000 
#    z 0.000000 0.000000 2.164230 
# 
# 
# High freq. dielectric constant tensor:
#      x y z
#    x 1.353920 0.000000 0.000000 
#    y 0.000000 1.406360 0.000000 
#    z 0.000000 0.000000 1.356900 
# 
# From -- ./inp_files/33866.got.cif
#   From: 2010.03.12/outbox.cif.g09.slc.cpg/sg47_17_cif.got.tgz:33866.got - 2010.04.14 03:12:58.
