data_PCOD8196727
_publ_section_title
;
Structure prediction by ZEFSAII (Michael W. Deem and Ramdas Pophale) SiO2 
 PCOD8196727
Probable space group: P M M M
;
_chemical_formula_sum "Si O2"
_cell_formula_units_Z 64
_cell_length_a 14.337522
_cell_length_b 9.161059
_cell_length_c 31.178829
_cell_angle_alpha 90.000000
_cell_angle_beta 90.000000
_cell_angle_gamma 90.000000
_cell_volume 4095.242066
_symmetry_space_group_name_H-M "P M M M"
_symmetry_group_IT_number 47
_symmetry_cell_setting 'orthorhombic'
loop_
_space_group_symop_operation_xyz
x,y,z
-x,-y,z
x,-y,-z
-x,y,-z
-x,-y,-z
x,y,-z
-x,y,z
x,-y,z
loop_
_atom_site_type_symbol
_atom_site_label
_atom_site_fract_x
_atom_site_fract_y
_atom_site_fract_z
Si Si1 0.110953 0.836470 0.128201
Si Si2 0.797027 0.826411 0.291786
Si Si3 0.605129 0.169565 0.580831
Si Si4 0.399008 0.172751 0.322917
Si Si5 0.110914 0.664014 0.952686
Si Si6 0.890078 0.669058 0.212531
Si Si7 0.775143 0.331213 0.452630
Si Si8 0.108934 0.329930 0.371012
O O1 0.152119 0.769252 0.084078
O O2 0.144256 0.737366 0.167742
O O3 0.000000 0.839056 0.126237
O O4 0.150592 0.000000 0.133642
O O5 0.687619 0.779833 0.293204
O O6 0.839090 0.754053 0.249979
O O7 0.848605 0.768147 0.333676
O O8 0.810124 0.000000 0.289482
O O9 0.500000 0.197146 0.564332
O O10 0.616797 0.232979 0.629045
O O11 0.676463 0.250612 0.549999
O O12 0.630090 0.000000 0.579751
O O13 0.500000 0.229897 0.305038
O O14 0.403262 0.000000 0.326234
O O15 0.147899 0.500000 0.944695
O O16 0.000000 0.663479 0.950199
O O17 0.142846 0.718972 0.000000
O O18 0.861735 0.500000 0.213318
O O19 0.000000 0.689375 0.218902
O O20 0.817971 0.300569 0.500000
O O21 0.753953 0.500000 0.446113
O O22 0.847362 0.278437 0.416263
O O23 0.128804 0.500000 0.361138
O O24 0.000000 0.298372 0.373736
#
# Coordination Sequence:
#
# PCOD8196727 Si02
#       8
#     8   8   8   8   8   8   8   8
#     4   9  16  25  37  54  77 105 143 191 233 265
#     4  11  20  31  51  73  90 109 138 177 214 251
#     4   9  17  32  53  73  93 117 142 166 200 251
#     4   8  15  29  49  71  92 112 134 163 203 250
#     4   8  13  21  33  49  71 103 143 184 228 277
#     4  10  20  32  44  59  85 120 151 180 219 265
#     4  10  21  35  50  69  92 116 143 176 211 247
#     4  10  21  36  51  66  87 115 145 176 211 252
#
# _framework density 15.627891999999999
#
# number of rings (size 3 to 8) (size 9 to 14) (size 15 to 20)
#    0.000    2.625    1.250    2.625    0.000    5.250 
#    0.000    3.750    0.000    1.500    0.000    1.750 
#    0.000    0.000    0.000    0.000    0.000    0.625 
#
# Total GULP energy -793282.267188 kJ/mol
# GULP energy per Si atom -12395.035425 kJ/mol
# Density = 1.559232 g / cm^3
# Si number density = 15.627892 Si / 1000 Ang^3
#
#
#
# Elastic Constant Matrix: (Units=GPa)
#
#
# Indices 1 2 3 4 5 6 
#
# 1 67.3998 38.0226 47.4828 0.0000 0.0000 0.0000
# 2 38.0226 75.6389 60.3136 0.0000 0.0000 0.0000
# 3 47.4828 60.3136 131.4046 0.0000 0.0000 0.0000
# 4 0.0000 0.0000 0.0000 22.3081 0.0000 0.0000
# 5 0.0000 0.0000 0.0000 0.0000 1.8583 0.0000
# 6 0.0000 0.0000 0.0000 0.0000 0.0000 16.2473
#
#
#
# Elastic Compliance Matrix: (Units=1/GPa)
#
#
# Indices 1 2 3 4 5 6 
#
# 1 0.022346 -0.007562 -0.004604 0.000000 0.000000 0.000000
# 2 -0.007562 0.023412 -0.008013 0.000000 0.000000 0.000000
# 3 -0.004604 -0.008013 0.012952 0.000000 0.000000 0.000000
# 4 0.000000 0.000000 0.000000 0.044827 0.000000 0.000000
# 5 0.000000 0.000000 0.000000 0.000000 0.538119 0.000000
# 6 0.000000 0.000000 0.000000 0.000000 0.000000 0.061549
#
#
# Mechanical properties :
#
#
# Convention : Reuss Voigt Hill
#
# Bulk Modulus (GPa) = 54.49198 62.89793 58.69495
# Shear Modulus (GPa) = 6.66952 16.65769 11.66360
#
# Velocity S-wave (km/s) = 2.06808 3.26835 2.73487
# Velocity P-wave (km/s) = 6.37548 7.38765 6.90015
#
# Compressibility (1/GPa) = 0.01835133
#
# Stress axis : x y z
#
# Youngs Moduli (GPa) = 44.75021 42.71358 77.21003
#
# Poissons Ratio (x) = 0.32300 0.35546
# Poissons Ratio (y) = 0.33841 0.61870
# Poissons Ratio (z) = 0.20602 0.34227
#
# Static dielectric constant tensor:
#      x y z
#    x 2.918700 0.000000 0.000000 
#    y 0.000000 2.997850 0.000000 
#    z 0.000000 0.000000 3.119460 
# 
# 
# High freq. dielectric constant tensor:
#      x y z
#    x 1.560030 0.000000 0.000000 
#    y 0.000000 1.597950 0.000000 
#    z 0.000000 0.000000 1.597130 
# 
# From -- ./inp_files/14250.got.cif
#   From: 2010.03.12/outbox.cif.g09.slc.cpg/sg47_8_cif.got.tgz:14250.got - 2010.04.14 03:12:58.
