data_PCOD8196738
_publ_section_title
;
Structure prediction by ZEFSAII (Michael W. Deem and Ramdas Pophale) SiO2 
 PCOD8196738
Probable space group: P M M M
;
_chemical_formula_sum "Si O2"
_cell_formula_units_Z 52
_cell_length_a 9.180651
_cell_length_b 13.572304
_cell_length_c 26.815490
_cell_angle_alpha 90.000000
_cell_angle_beta 90.000000
_cell_angle_gamma 90.000000
_cell_volume 3341.279407
_symmetry_space_group_name_H-M "P M M M"
_symmetry_group_IT_number 47
_symmetry_cell_setting 'orthorhombic'
loop_
_space_group_symop_operation_xyz
x,y,z
-x,-y,z
x,-y,-z
-x,y,-z
-x,-y,-z
x,y,-z
-x,y,z
x,-y,z
loop_
_atom_site_type_symbol
_atom_site_label
_atom_site_fract_x
_atom_site_fract_y
_atom_site_fract_z
Si Si1 0.329921 0.386463 0.350564
Si Si2 0.672984 0.888502 0.000000
Si Si3 0.327665 0.780074 0.099381
Si Si4 0.326927 0.301940 0.246394
Si Si5 0.168968 0.386519 0.153060
Si Si6 0.328847 0.106932 0.197242
Si Si7 0.835181 0.382905 0.554414
O O1 0.500000 0.373260 0.357413
O O2 0.285368 0.500000 0.344113
O O3 0.273756 0.330022 0.301591
O O4 0.258064 0.338792 0.399981
O O5 0.727572 0.828210 0.951925
O O6 0.500000 0.895378 0.000000
O O7 0.736982 0.000000 0.000000
O O8 0.500000 0.758659 0.099049
O O9 0.244468 0.677579 0.109452
O O10 0.283247 0.856653 0.142495
O O11 0.500000 0.318103 0.239668
O O12 0.247070 0.370024 0.206141
O O13 0.280848 0.187922 0.238033
O O14 0.186915 0.500000 0.137671
O O15 0.000000 0.356869 0.157965
O O16 0.500000 0.094342 0.199156
O O17 0.255543 0.000000 0.208076
O O18 0.777387 0.346131 0.500000
O O19 0.825068 0.500000 0.555655
O O20 0.000000 0.347336 0.561730
#
# Coordination Sequence:
#
# PCOD8196738 Si02
#       7
#     8   4   8   8   8   8   8
#     4   9  16  24  35  54  80 107 134 165 201 240
#     4   9  16  28  50  77  96 108 133 175 214 249
#     4   9  17  29  47  69  89 110 136 168 206 247
#     4   9  17  28  43  63  85 109 138 172 208 247
#     4  10  20  32  45  61  83 113 146 176 206 242
#     4   8  13  23  41  63  84 106 132 161 197 243
#     4   8  14  24  36  50  71 102 138 170 199 235
#
# _framework density 15.562901999999999
#
# number of rings (size 3 to 8) (size 9 to 14) (size 15 to 20)
#    0.000    3.154    0.000    2.769    0.000    4.615 
#    0.000    3.846    0.000   14.308    0.000    0.000 
#    0.000    0.615    0.000    7.692    0.000    1.538 
#
# Total GULP energy -644453.430618 kJ/mol
# GULP energy per Si atom -12393.335204 kJ/mol
# Density = 1.552748 g / cm^3
# Si number density = 15.562902 Si / 1000 Ang^3
#
#
#
# Elastic Constant Matrix: (Units=GPa)
#
#
# Indices 1 2 3 4 5 6 
#
# 1 40.6998 31.8221 39.1151 0.0000 0.0000 0.0000
# 2 31.8221 92.7567 60.5700 0.0000 0.0000 0.0000
# 3 39.1151 60.5700 154.6451 0.0000 0.0000 0.0000
# 4 0.0000 0.0000 0.0000 17.9715 0.0000 0.0000
# 5 0.0000 0.0000 0.0000 0.0000 14.6151 0.0000
# 6 0.0000 0.0000 0.0000 0.0000 0.0000 10.1822
#
#
#
# Elastic Compliance Matrix: (Units=1/GPa)
#
#
# Indices 1 2 3 4 5 6 
#
# 1 0.037228 -0.008899 -0.005931 0.000000 0.000000 0.000000
# 2 -0.008899 0.016613 -0.004256 0.000000 0.000000 0.000000
# 3 -0.005931 -0.004256 0.009633 0.000000 0.000000 0.000000
# 4 0.000000 0.000000 0.000000 0.055644 0.000000 0.000000
# 5 0.000000 0.000000 0.000000 0.000000 0.068423 0.000000
# 6 0.000000 0.000000 0.000000 0.000000 0.000000 0.098211
#
#
# Mechanical properties :
#
#
# Convention : Reuss Voigt Hill
#
# Bulk Modulus (GPa) = 39.52122 61.23513 50.37817
# Shear Modulus (GPa) = 15.04405 18.99337 17.01871
#
# Velocity S-wave (km/s) = 3.11249 3.49725 3.31046
# Velocity P-wave (km/s) = 6.19406 7.46592 6.85953
#
# Compressibility (1/GPa) = 0.02530286
#
# Stress axis : x y z
#
# Youngs Moduli (GPa) = 26.86161 60.19370 103.80512
#
# Poissons Ratio (x) = 0.53567 0.61564
# Poissons Ratio (y) = 0.23904 0.44179
# Poissons Ratio (z) = 0.15931 0.25618
#
# Static dielectric constant tensor:
#      x y z
#    x 2.788230 0.000000 0.000000 
#    y 0.000000 3.006740 0.000000 
#    z 0.000000 0.000000 3.210880 
# 
# 
# High freq. dielectric constant tensor:
#      x y z
#    x 1.574160 0.000000 0.000000 
#    y 0.000000 1.572020 0.000000 
#    z 0.000000 0.000000 1.596600 
# 
# From -- ./inp_files/33385.got.cif
#   From: 2010.03.12/outbox.cif.g09.slc.cpg/sg47_17_cif.got.tgz:33385.got - 2010.04.14 03:12:58.
