data_PCOD8196893
_publ_section_title
;
Structure prediction by ZEFSAII (Michael W. Deem and Ramdas Pophale) SiO2 
 PCOD8196893
Probable space group: P M M M
;
_chemical_formula_sum "Si O2"
_cell_formula_units_Z 44
_cell_length_a 28.918562
_cell_length_b 9.278017
_cell_length_c 9.146309
_cell_angle_alpha 90.000000
_cell_angle_beta 90.000000
_cell_angle_gamma 90.000000
_cell_volume 2454.017904
_symmetry_space_group_name_H-M "P M M M"
_symmetry_group_IT_number 47
_symmetry_cell_setting 'orthorhombic'
loop_
_space_group_symop_operation_xyz
x,y,z
-x,-y,z
x,-y,-z
-x,y,-z
-x,-y,-z
x,y,-z
-x,y,z
x,-y,z
loop_
_atom_site_type_symbol
_atom_site_label
_atom_site_fract_x
_atom_site_fract_y
_atom_site_fract_z
Si Si1 0.000000 0.162735 0.826077
Si Si2 0.352164 0.827762 0.335408
Si Si3 0.911032 0.332826 0.169557
Si Si4 0.818017 0.333048 0.329021
Si Si5 0.262751 0.170821 0.832918
Si Si6 0.451047 0.838548 0.326261
O O1 0.954326 0.243132 0.768085
O O2 0.000000 0.000000 0.766346
O O3 0.000000 0.167829 0.000000
O O4 0.341735 0.772415 0.500000
O O5 0.311704 0.772424 0.229539
O O6 0.402187 0.766065 0.276175
O O7 0.354979 0.000000 0.335405
O O8 0.922491 0.500000 0.194034
O O9 0.866345 0.283462 0.259438
O O10 0.901501 0.298793 0.000000
O O11 0.820067 0.301683 0.500000
O O12 0.808478 0.500000 0.294228
O O13 0.777820 0.239558 0.259820
O O14 0.259001 0.000000 0.817363
O O15 0.258759 0.221179 0.000000
O O16 0.448676 0.844874 0.500000
O O17 0.500000 0.760435 0.278160
O O18 0.453102 0.000000 0.262904
#
# Coordination Sequence:
#
# PCOD8196893 Si02
#       6
#     4   8   8   8   8   8
#     4   9  17  29  48  75 102 126 156 193 226 261
#     4   8  13  22  37  57  83 116 152 190 232 276
#     4   9  17  31  51  72  95 125 158 190 228 274
#     4  10  21  36  53  73  96 123 158 200 243 284
#     4  10  20  32  47  68  94 125 159 194 235 285
#     4   7   9  14  27  49  76 107 145 186 225 267
#
# _framework density 17.929780000000001
#
# number of rings (size 3 to 8) (size 9 to 14) (size 15 to 20)
#    0.000    3.182    0.000    3.000    0.000    4.000 
#    0.000    2.273    0.000    3.273    0.000    3.818 
#    0.000    0.727    0.000    8.364    0.000    9.636 
#
# Total GULP energy -545141.685197 kJ/mol
# GULP energy per Si atom -12389.583754 kJ/mol
# Density = 1.788897 g / cm^3
# Si number density = 17.929780 Si / 1000 Ang^3
#
#
#
# Elastic Constant Matrix: (Units=GPa)
#
#
# Indices 1 2 3 4 5 6 
#
# 1 197.2152 47.0497 61.1009 0.0000 0.0000 0.0000
# 2 47.0497 33.8881 21.4437 0.0000 0.0000 0.0000
# 3 61.1009 21.4437 65.4908 0.0000 0.0000 0.0000
# 4 0.0000 0.0000 0.0000 15.8405 0.0000 0.0000
# 5 0.0000 0.0000 0.0000 0.0000-5174.2815 0.0000
# 6 0.0000 0.0000 0.0000 0.0000 0.0000 -3.5695
#
#
#
# Elastic Compliance Matrix: (Units=1/GPa)
#
#
# Indices 1 2 3 4 5 6 
#
# 1 0.008850 -0.008909 -0.005340 0.000000 0.000000 0.000000
# 2 -0.008909 0.046188 -0.006812 0.000000 0.000000 0.000000
# 3 -0.005340 -0.006812 0.022482 0.000000 0.000000 0.000000
# 4 0.000000 0.000000 0.000000 0.063129 0.000000 0.000000
# 5 0.000000 0.000000 0.000000 0.000000 -0.000193 0.000000
# 6 0.000000 0.000000 0.000000 0.000000 0.000000 -0.280154
#
#
# Mechanical properties :
#
#
# Convention : Reuss Voigt Hill
#
# Bulk Modulus (GPa) = 28.24949 61.75364 45.00157
# Shear Modulus (GPa) = -58.29122 -1021.26877 -539.78000
#
# Velocity S-wave (km/s) = -5.70801 -23.89205 -17.36968
# Velocity P-wave (km/s) = 5.25852 26.95534 19.41961
#
# Compressibility (1/GPa) = 0.03539887
#
# Stress axis : x y z
#
# Youngs Moduli (GPa) = 112.98882 21.65072 44.47997
#
# Poissons Ratio (x) = 0.19288 0.23753
# Poissons Ratio (y) = 1.00657 0.30299
# Poissons Ratio (z) = 0.60339 0.14748
#
# Static dielectric constant tensor:
#      x y z
#    x 3.903500 0.000000 0.000000 
#    y 0.000000 2.904170 0.000000 
#    z 0.000000 0.000000 3.110420 
# 
# 
# High freq. dielectric constant tensor:
#      x y z
#    x 1.724260 0.000000 0.000000 
#    y 0.000000 1.640540 0.000000 
#    z 0.000000 0.000000 1.663890 
# 
# From -- ./inp_files/13553.got.cif
#   From: 2010.03.12/outbox.cif.g09.slc.cpg/sg47_7_cif.got.tgz:13553.got - 2010.04.14 03:12:58.
