data_PCOD8196966
_publ_section_title
;
Structure prediction by ZEFSAII (Michael W. Deem and Ramdas Pophale) SiO2 
 PCOD8196966
Probable space group: P M M M
;
_chemical_formula_sum "Si O2"
_cell_formula_units_Z 48
_cell_length_a 30.440520
_cell_length_b 9.573113
_cell_length_c 9.125172
_cell_angle_alpha 90.000000
_cell_angle_beta 90.000000
_cell_angle_gamma 90.000000
_cell_volume 2659.171279
_symmetry_space_group_name_H-M "P M M M"
_symmetry_group_IT_number 47
_symmetry_cell_setting 'orthorhombic'
loop_
_space_group_symop_operation_xyz
x,y,z
-x,-y,z
x,-y,-z
-x,y,-z
-x,-y,-z
x,y,-z
-x,y,z
x,-y,z
loop_
_atom_site_type_symbol
_atom_site_label
_atom_site_fract_x
_atom_site_fract_y
_atom_site_fract_z
Si Si1 0.741929 0.338811 0.832698
Si Si2 0.843631 0.338933 0.167441
Si Si3 0.000000 0.833878 0.165482
Si Si4 0.500000 0.166709 0.334244
Si Si5 0.585219 0.833709 0.834513
Si Si6 0.328196 0.837818 0.329387
Si Si7 0.913830 0.837813 0.329211
O O1 0.730597 0.500000 0.803953
O O2 0.792779 0.309600 0.800010
O O3 0.714446 0.244685 0.722455
O O4 0.730635 0.298531 0.000000
O O5 0.854962 0.500000 0.197226
O O6 0.871120 0.243998 0.276825
O O7 0.854947 0.299555 0.000000
O O8 0.956640 0.777566 0.246668
O O9 0.000000 0.000000 0.170583
O O10 0.000000 0.776643 0.000000
O O11 0.500000 0.223678 0.500000
O O12 0.542968 0.225146 0.251584
O O13 0.500000 0.000000 0.333597
O O14 0.629192 0.779827 0.755490
O O15 0.584021 0.000000 0.833188
O O16 0.584365 0.775804 0.000000
O O17 0.336132 0.811757 0.500000
O O18 0.320342 0.000000 0.294528
O O19 0.921172 0.812659 0.500000
O O20 0.906495 0.000000 0.292661
#
# Coordination Sequence:
#
# PCOD8196966 Si02
#       7
#     8   8   4   4   8   8   8
#     4   9  19  36  55  73  95 127 167 207 247 294
#     4   9  19  36  55  74  98 129 166 207 248 291
#     4   9  17  31  52  75 100 133 170 204 240 285
#     4   9  15  23  37  59  90 125 158 195 242 293
#     4   9  16  26  41  62  90 125 163 200 240 288
#     4  10  20  32  47  71 102 131 161 202 250 295
#     4  10  20  33  51  77 107 135 164 201 245 292
#
# _framework density 18.050737000000002
#
# number of rings (size 3 to 8) (size 9 to 14) (size 15 to 20)
#    0.000    2.667    0.000    3.000    0.000    8.000 
#    0.000    5.417    0.000    2.500    0.000    0.583 
#    0.000    4.667    0.000    0.000    0.000    0.000 
#
# Total GULP energy -595270.939777 kJ/mol
# GULP energy per Si atom -12401.477912 kJ/mol
# Density = 1.800965 g / cm^3
# Si number density = 18.050737 Si / 1000 Ang^3
#
#
#
# Elastic Constant Matrix: (Units=GPa)
#
#
# Indices 1 2 3 4 5 6 
#
# 1 123.1089 45.4224 74.8695 0.0000 0.0000 0.0000
# 2 45.4224 40.2236 41.9713 0.0000 0.0000 0.0000
# 3 74.8695 41.9713 130.7798 0.0000 0.0000 0.0000
# 4 0.0000 0.0000 0.0000 24.1111 0.0000 0.0000
# 5 0.0000 0.0000 0.0000 0.0000 36.9373 0.0000
# 6 0.0000 0.0000 0.0000 0.0000 0.0000 -1.8441
#
#
#
# Elastic Compliance Matrix: (Units=1/GPa)
#
#
# Indices 1 2 3 4 5 6 
#
# 1 0.015838 -0.012666 -0.005002 0.000000 0.000000 0.000000
# 2 -0.012666 0.047506 -0.007995 0.000000 0.000000 0.000000
# 3 -0.005002 -0.007995 0.013076 0.000000 0.000000 0.000000
# 4 0.000000 0.000000 0.000000 0.041475 0.000000 0.000000
# 5 0.000000 0.000000 0.000000 0.000000 0.027073 0.000000
# 6 0.000000 0.000000 0.000000 0.000000 0.000000 -0.542261
#
#
# Mechanical properties :
#
#
# Convention : Reuss Voigt Hill
#
# Bulk Modulus (GPa) = 39.84997 68.73764 54.29380
# Shear Modulus (GPa) = -14.81040 20.63078 2.91019
#
# Velocity S-wave (km/s) = -2.86752 3.38440 1.27111
# Velocity P-wave (km/s) = 3.34081 7.30993 5.68314
#
# Compressibility (1/GPa) = 0.02509412
#
# Stress axis : x y z
#
# Youngs Moduli (GPa) = 63.13843 21.04977 76.47473
#
# Poissons Ratio (x) = 0.26661 0.38256
# Poissons Ratio (y) = 0.79968 0.61145
# Poissons Ratio (z) = 0.31584 0.16830
#
# Static dielectric constant tensor:
#      x y z
#    x 3.409910 0.000000 0.000000 
#    y 0.000000 2.891660 0.000000 
#    z 0.000000 0.000000 3.413060 
# 
# 
# High freq. dielectric constant tensor:
#      x y z
#    x 1.711460 0.000000 0.000000 
#    y 0.000000 1.652380 0.000000 
#    z 0.000000 0.000000 1.710310 
# 
# From -- ./inp_files/13841.got.cif
#   From: 2010.03.12/outbox.cif.g09.slc.cpg/sg47_7_cif.got.tgz:13841.got - 2010.04.14 03:12:58.
