data_PCOD8196862
_publ_section_title
;
Structure prediction by ZEFSAII (Michael W. Deem and Ramdas Pophale) SiO2 
 PCOD8196862
Probable space group: P M M M
;
_chemical_formula_sum "Si O2"
_cell_formula_units_Z 32
_cell_length_a 11.544931
_cell_length_b 8.967805
_cell_length_c 18.054629
_cell_angle_alpha 90.000000
_cell_angle_beta 90.000000
_cell_angle_gamma 90.000000
_cell_volume 1869.244306
_symmetry_space_group_name_H-M "P M M M"
_symmetry_group_IT_number 47
_symmetry_cell_setting 'orthorhombic'
loop_
_space_group_symop_operation_xyz
x,y,z
-x,-y,z
x,-y,-z
-x,y,-z
-x,-y,-z
x,y,-z
-x,y,z
x,-y,z
loop_
_atom_site_type_symbol
_atom_site_label
_atom_site_fract_x
_atom_site_fract_y
_atom_site_fract_z
Si Si1 0.135711 0.673015 0.273348
Si Si2 0.500000 0.176296 0.083021
Si Si3 0.253299 0.176727 0.863055
Si Si4 0.137354 0.832838 0.581228
Si Si5 0.136710 0.668252 0.000000
O O1 0.161595 0.500000 0.261401
O O2 0.208884 0.767734 0.215585
O O3 0.180035 0.720293 0.355073
O O4 0.000000 0.708804 0.262851
O O5 0.613783 0.229609 0.127027
O O6 0.500000 0.000000 0.075911
O O7 0.500000 0.245247 0.000000
O O8 0.176737 0.246659 0.927290
O O9 0.241029 0.000000 0.867649
O O10 0.183712 0.781044 0.500000
O O11 0.000000 0.833294 0.579311
O O12 0.182362 0.000000 0.598667
O O13 0.186269 0.500000 0.000000
O O14 0.000000 0.665167 0.000000
#
# Coordination Sequence:
#
# PCOD8196862 Si02
#       5
#     8   4   8   8   4
#     4  10  20  32  46  70 106 138 163 198 243 290
#     4   9  18  36  56  74  93 116 157 214 258 287
#     4  11  21  35  55  73  93 125 165 205 246 292
#     4   8  14  26  45  69  97 130 168 204 236 280
#     4  11  23  36  49  70 102 131 156 193 242 293
#
# _framework density 17.119218
#
# number of rings (size 3 to 8) (size 9 to 14) (size 15 to 20)
#    0.000    2.250    1.250    3.375    0.000    6.000 
#    0.000    5.625    0.000    0.000    0.000    0.875 
#    0.000    7.000    0.000    0.000    0.000    0.000 
#
# Total GULP energy -396718.367040 kJ/mol
# GULP energy per Si atom -12397.448970 kJ/mol
# Density = 1.708025 g / cm^3
# Si number density = 17.119218 Si / 1000 Ang^3
#
#
#
# Elastic Constant Matrix: (Units=GPa)
#
#
# Indices 1 2 3 4 5 6 
#
# 1 69.9214 38.3960 46.2174 0.0000 0.0000 0.0000
# 2 38.3960 85.2545 51.7529 0.0000 0.0000 0.0000
# 3 46.2174 51.7529 136.3962 0.0000 0.0000 0.0000
# 4 0.0000 0.0000 0.0000 32.0379 0.0000 0.0000
# 5 0.0000 0.0000 0.0000 0.0000 -9.9126 0.0000
# 6 0.0000 0.0000 0.0000 0.0000 0.0000 11.4713
#
#
#
# Elastic Compliance Matrix: (Units=1/GPa)
#
#
# Indices 1 2 3 4 5 6 
#
# 1 0.020995 -0.006674 -0.004582 0.000000 0.000000 0.000000
# 2 -0.006674 0.017362 -0.004326 0.000000 0.000000 0.000000
# 3 -0.004582 -0.004326 0.010525 0.000000 0.000000 0.000000
# 4 0.000000 0.000000 0.000000 0.031213 0.000000 0.000000
# 5 0.000000 0.000000 0.000000 0.000000 -0.100882 0.000000
# 6 0.000000 0.000000 0.000000 0.000000 0.000000 0.087174
#
#
# Mechanical properties :
#
#
# Convention : Reuss Voigt Hill
#
# Bulk Modulus (GPa) = 56.43878 62.70054 59.56966
# Shear Modulus (GPa) = 48.32882 17.06638 32.69760
#
# Velocity S-wave (km/s) = 5.31903 3.16082 4.37509
# Velocity P-wave (km/s) = 8.41204 7.07293 7.77138
#
# Compressibility (1/GPa) = 0.01771831
#
# Stress axis : x y z
#
# Youngs Moduli (GPa) = 47.62955 57.59865 95.00758
#
# Poissons Ratio (x) = 0.38443 0.43530
# Poissons Ratio (y) = 0.31790 0.41099
# Poissons Ratio (z) = 0.21823 0.24917
#
# Static dielectric constant tensor:
#      x y z
#    x 3.032420 0.000000 0.000000 
#    y 0.000000 3.255680 0.000000 
#    z 0.000000 0.000000 3.652830 
# 
# 
# High freq. dielectric constant tensor:
#      x y z
#    x 1.620790 0.000000 0.000000 
#    y 0.000000 1.661240 0.000000 
#    z 0.000000 0.000000 1.673160 
# 
# From -- ./inp_files/5241.got.cif
#   From: 2010.03.12/outbox.cif.g09.slc.cpg/sg47_3_cif.got.tgz:5241.got - 2010.04.14 03:12:58.
