data_PCOD8196919
_publ_section_title
;
Structure prediction by ZEFSAII (Michael W. Deem and Ramdas Pophale) SiO2 
 PCOD8196919
Probable space group: P M M M
;
_chemical_formula_sum "Si O2"
_cell_formula_units_Z 44
_cell_length_a 7.855380
_cell_length_b 9.193350
_cell_length_c 30.410734
_cell_angle_alpha 90.000000
_cell_angle_beta 90.000000
_cell_angle_gamma 90.000000
_cell_volume 2196.179815
_symmetry_space_group_name_H-M "P M M M"
_symmetry_group_IT_number 47
_symmetry_cell_setting 'orthorhombic'
loop_
_space_group_symop_operation_xyz
x,y,z
-x,-y,z
x,-y,-z
-x,y,-z
-x,-y,-z
x,y,-z
-x,y,z
x,-y,z
loop_
_atom_site_type_symbol
_atom_site_label
_atom_site_fract_x
_atom_site_fract_y
_atom_site_fract_z
Si Si1 0.796546 0.336299 0.140526
Si Si2 0.500000 0.172833 0.450904
Si Si3 0.809270 0.672891 0.046525
Si Si4 0.810222 0.832331 0.608113
Si Si5 0.694546 0.334864 0.309923
Si Si6 0.798602 0.166673 0.774882
O O1 0.731338 0.500000 0.150402
O O2 0.723605 0.277516 0.092974
O O3 0.731049 0.230885 0.178953
O O4 0.000000 0.335844 0.137980
O O5 0.500000 0.239382 0.500000
O O6 0.670432 0.228189 0.426212
O O7 0.500000 0.000000 0.453503
O O8 0.816043 0.500000 0.048738
O O9 0.000000 0.735710 0.044601
O O10 0.716980 0.720700 0.000000
O O11 0.806648 0.744151 0.653377
O O12 0.000000 0.815288 0.587686
O O13 0.770713 0.000000 0.619395
O O14 0.500000 0.329614 0.325570
O O15 0.759443 0.500000 0.304702
O O16 0.710327 0.254870 0.263734
O O17 0.000000 0.184277 0.770625
O O18 0.741204 0.000000 0.771974
#
# Coordination Sequence:
#
# PCOD8196919 Si02
#       6
#     8   4   8   8   8   8
#     4   8  13  22  37  57  84 119 158 202 250 300
#     4   9  18  34  57  87 123 157 189 231 274 311
#     4   7   9  14  27  49  76 108 149 195 242 293
#     4  10  20  35  58  86 115 150 189 227 272 323
#     4  11  23  37  54  76 102 134 174 220 270 322
#     4  10  20  32  47  69  97 130 167 206 254 314
#
# _framework density 20.034789
#
# number of rings (size 3 to 8) (size 9 to 14) (size 15 to 20)
#    0.000    2.818    0.909    3.273    0.000    5.091 
#    0.000    1.818    0.000    1.636    0.000    5.091 
#    0.000    0.727    0.000    8.364    0.000    9.636 
#
# Total GULP energy -545156.552931 kJ/mol
# GULP energy per Si atom -12389.921658 kJ/mol
# Density = 1.998919 g / cm^3
# Si number density = 20.034789 Si / 1000 Ang^3
#
#
#
# Elastic Constant Matrix: (Units=GPa)
#
#
# Indices 1 2 3 4 5 6 
#
# 1 66.2615 22.9345 40.1178 0.0000 0.0000 0.0000
# 2 22.9345 87.9300 53.3627 0.0000 0.0000 0.0000
# 3 40.1178 53.3627 174.9819 0.0000 0.0000 0.0000
# 4 0.0000 0.0000 0.0000 24.5022 0.0000 0.0000
# 5 0.0000 0.0000 0.0000 0.0000 9.7100 0.0000
# 6 0.0000 0.0000 0.0000 0.0000 0.0000 13.5468
#
#
#
# Elastic Compliance Matrix: (Units=1/GPa)
#
#
# Indices 1 2 3 4 5 6 
#
# 1 0.018029 -0.002692 -0.003312 0.000000 0.000000 0.000000
# 2 -0.002692 0.014357 -0.003761 0.000000 0.000000 0.000000
# 3 -0.003312 -0.003761 0.007621 0.000000 0.000000 0.000000
# 4 0.000000 0.000000 0.000000 0.040813 0.000000 0.000000
# 5 0.000000 0.000000 0.000000 0.000000 0.102987 0.000000
# 6 0.000000 0.000000 0.000000 0.000000 0.000000 0.073818
#
#
# Mechanical properties :
#
#
# Convention : Reuss Voigt Hill
#
# Bulk Modulus (GPa) = 48.83745 62.44482 55.64113
# Shear Modulus (GPa) = 17.60667 23.73568 20.67118
#
# Velocity S-wave (km/s) = 2.96768 3.44571 3.21559
# Velocity P-wave (km/s) = 6.01432 6.86050 6.45130
#
# Compressibility (1/GPa) = 0.02047609
#
# Stress axis : x y z
#
# Youngs Moduli (GPa) = 55.46592 69.65002 131.21028
#
# Poissons Ratio (x) = 0.18751 0.43463
# Poissons Ratio (y) = 0.14933 0.49351
# Poissons Ratio (z) = 0.18373 0.26197
#
# Static dielectric constant tensor:
#      x y z
#    x 3.314950 0.000000 0.000000 
#    y 0.000000 3.353740 0.000000 
#    z 0.000000 0.000000 4.055550 
# 
# 
# High freq. dielectric constant tensor:
#      x y z
#    x 1.751180 0.000000 0.000000 
#    y 0.000000 1.740070 0.000000 
#    z 0.000000 0.000000 1.797360 
# 
# From -- ./inp_files/33876.got.cif
#   From: 2010.03.12/outbox.cif.g09.slc.cpg/sg47_17_cif.got.tgz:33876.got - 2010.04.14 03:12:58.
