data_PCOD8196452
_publ_section_title
;
Structure prediction by ZEFSAII (Michael W. Deem and Ramdas Pophale) SiO2 
 PCOD8196452
Probable space group: P M M M
;
_chemical_formula_sum "Si O2"
_cell_formula_units_Z 56
_cell_length_a 14.781837
_cell_length_b 30.520076
_cell_length_c 9.423209
_cell_angle_alpha 90.000000
_cell_angle_beta 90.000000
_cell_angle_gamma 90.000000
_cell_volume 4251.212786
_symmetry_space_group_name_H-M "P M M M"
_symmetry_group_IT_number 47
_symmetry_cell_setting 'orthorhombic'
loop_
_space_group_symop_operation_xyz
x,y,z
-x,-y,z
x,-y,-z
-x,y,-z
-x,-y,-z
x,y,-z
-x,y,z
x,-y,z
loop_
_atom_site_type_symbol
_atom_site_label
_atom_site_fract_x
_atom_site_fract_y
_atom_site_fract_z
Si Si1 0.607544 0.048437 0.659277
Si Si2 0.268427 0.448047 0.336959
Si Si3 0.392458 0.790778 0.340652
Si Si4 0.100059 0.447960 0.840835
Si Si5 0.392732 0.387756 0.163035
Si Si6 0.608134 0.871150 0.840552
Si Si7 0.392539 0.306126 0.659180
O O1 0.642794 0.057580 0.500000
O O2 0.500000 0.050495 0.660116
O O3 0.647067 0.085559 0.763126
O O4 0.639383 0.000000 0.710086
O O5 0.272499 0.432823 0.500000
O O6 0.276277 0.500000 0.323517
O O7 0.174506 0.430232 0.269589
O O8 0.351727 0.428154 0.249894
O O9 0.358742 0.800913 0.500000
O O10 0.500000 0.792189 0.336752
O O11 0.352916 0.827733 0.236153
O O12 0.358732 0.742313 0.293260
O O13 0.100190 0.500000 0.838789
O O14 0.000000 0.430931 0.796013
O O15 0.123537 0.431496 0.000000
O O16 0.500000 0.391544 0.176198
O O17 0.356026 0.342327 0.230891
O O18 0.361217 0.389584 0.000000
O O19 0.500000 0.871181 0.837577
O O20 0.645385 0.871263 0.000000
O O21 0.357420 0.316784 0.500000
O O22 0.500000 0.306583 0.658867
#
# Coordination Sequence:
#
# PCOD8196452 Si02
#       7
#     8   8   8   8   8   8   8
#     4   8  13  20  27  32  40  58  82 104 128 164
#     4  10  20  31  43  59  77  97 120 145 170 197
#     4   8  13  21  32  43  54  69  88 111 142 180
#     4   8  14  26  44  63  81  99 116 136 165 199
#     4  10  20  31  42  55  71  93 119 146 175 206
#     4   9  15  19  24  36  51  64  79 104 137 170
#     4   8  14  25  39  51  62  78 101 129 160 193
#
# _framework density 13.172712000000001
#
# number of rings (size 3 to 8) (size 9 to 14) (size 15 to 20)
#    0.000    3.286    0.000    3.000    0.000    4.857 
#    0.000    7.143    0.000    0.000    0.000    0.000 
#    0.000    0.000    0.000    0.000    0.000    0.000 
#
# Total GULP energy -693956.193993 kJ/mol
# GULP energy per Si atom -12392.074893 kJ/mol
# Density = 1.314273 g / cm^3
# Si number density = 13.172712 Si / 1000 Ang^3
#
#
#
# Elastic Constant Matrix: (Units=GPa)
#
#
# Indices 1 2 3 4 5 6 
#
# 1 21.0432 18.3621 24.3609 0.0000 0.0000 0.0000
# 2 18.3621 70.9074 55.0286 0.0000 0.0000 0.0000
# 3 24.3609 55.0286 110.8134 0.0000 0.0000 0.0000
# 4 0.0000 0.0000 0.0000 19.9938 0.0000 0.0000
# 5 0.0000 0.0000 0.0000 0.0000 12.1896 0.0000
# 6 0.0000 0.0000 0.0000 0.0000 0.0000 0.4713
#
#
#
# Elastic Compliance Matrix: (Units=1/GPa)
#
#
# Indices 1 2 3 4 5 6 
#
# 1 0.067626 -0.009721 -0.010039 0.000000 0.000000 0.000000
# 2 -0.009721 0.024343 -0.009951 0.000000 0.000000 0.000000
# 3 -0.010039 -0.009951 0.016173 0.000000 0.000000 0.000000
# 4 0.000000 0.000000 0.000000 0.050016 0.000000 0.000000
# 5 0.000000 0.000000 0.000000 0.000000 0.082037 0.000000
# 6 0.000000 0.000000 0.000000 0.000000 0.000000 2.121787
#
#
# Mechanical properties :
#
#
# Convention : Reuss Voigt Hill
#
# Bulk Modulus (GPa) = 20.52613 44.25188 32.38900
# Shear Modulus (GPa) = 2.05116 13.53176 7.79146
#
# Velocity S-wave (km/s) = 1.24920 3.20856 2.43468
# Velocity P-wave (km/s) = 4.20676 6.88426 5.70482
#
# Compressibility (1/GPa) = 0.04871840
#
# Stress axis : x y z
#
# Youngs Moduli (GPa) = 14.78718 41.07908 61.83157
#
# Poissons Ratio (x) = 0.39934 0.62074
# Poissons Ratio (y) = 0.14375 0.61532
# Poissons Ratio (z) = 0.14845 0.40880
#
# Static dielectric constant tensor:
#      x y z
#    x 2.174560 0.000000 0.000000 
#    y 0.000000 2.814630 0.000000 
#    z 0.000000 0.000000 2.863160 
# 
# 
# High freq. dielectric constant tensor:
#      x y z
#    x 1.421510 0.000000 0.000000 
#    y 0.000000 1.497780 0.000000 
#    z 0.000000 0.000000 1.513480 
# 
# From -- ./inp_files/8170.got.cif
#   From: 2010.03.12/outbox.cif.g09.slc.cpg/sg47_5_cif.got.tgz:8170.got - 2010.04.14 03:12:58.
