data_PCOD8196767
_publ_section_title
;
Structure prediction by ZEFSAII (Michael W. Deem and Ramdas Pophale) SiO2 
 PCOD8196767
Probable space group: P M M M
;
_chemical_formula_sum "Si O2"
_cell_formula_units_Z 40
_cell_length_a 9.147539
_cell_length_b 9.092214
_cell_length_c 26.155434
_cell_angle_alpha 90.000000
_cell_angle_beta 90.000000
_cell_angle_gamma 90.000000
_cell_volume 2175.383597
_symmetry_space_group_name_H-M "P M M M"
_symmetry_group_IT_number 47
_symmetry_cell_setting 'orthorhombic'
loop_
_space_group_symop_operation_xyz
x,y,z
-x,-y,z
x,-y,-z
-x,y,-z
-x,-y,-z
x,y,-z
-x,y,z
x,-y,z
loop_
_atom_site_type_symbol
_atom_site_label
_atom_site_fract_x
_atom_site_fract_y
_atom_site_fract_z
Si Si1 0.174059 0.333975 0.300712
Si Si2 0.174395 0.833747 0.599881
Si Si3 0.340959 0.326398 0.000000
Si Si4 0.174278 0.333771 0.500000
Si Si5 0.169126 0.828519 0.199709
Si Si6 0.674553 0.332868 0.110316
O O1 0.234478 0.500000 0.301782
O O2 0.235969 0.247725 0.349875
O O3 0.230648 0.255293 0.249436
O O4 0.000000 0.332085 0.302121
O O5 0.234181 0.749402 0.550048
O O6 0.000000 0.833282 0.600127
O O7 0.234211 0.000000 0.599219
O O8 0.262438 0.284883 0.053841
O O9 0.363551 0.500000 0.000000
O O10 0.500000 0.249847 0.000000
O O11 0.234479 0.500000 0.500000
O O12 0.000000 0.333956 0.500000
O O13 0.259048 0.778607 0.150692
O O14 0.000000 0.790303 0.190441
O O15 0.193356 0.000000 0.209052
O O16 0.500000 0.320742 0.110368
O O17 0.722662 0.500000 0.123439
#
# Coordination Sequence:
#
# PCOD8196767 Si02
#       6
#     8   8   4   4   8   8
#     4   9  16  26  40  56  75 104 143 183 221 264
#     4   9  15  22  32  47  69  98 133 174 220 267
#     4   7  12  26  48  71  92 114 144 183 224 267
#     4   9  15  21  29  43  65  95 134 177 216 257
#     4  10  20  32  45  64  92 124 155 187 225 270
#     4   9  17  31  52  74  93 116 149 188 228 270
#
# _framework density 18.387561999999999
#
# number of rings (size 3 to 8) (size 9 to 14) (size 15 to 20)
#    0.000    3.000    0.000    3.300    0.000    7.600 
#    0.000    1.000    0.000    4.800    0.000    0.000 
#    0.000    0.000    0.000    0.900    0.000   17.600 
#
# Total GULP energy -495761.274557 kJ/mol
# GULP energy per Si atom -12394.031864 kJ/mol
# Density = 1.834571 g / cm^3
# Si number density = 18.387562 Si / 1000 Ang^3
#
#
#
# Elastic Constant Matrix: (Units=GPa)
#
#
# Indices 1 2 3 4 5 6 
#
# 1 12.0703 15.4499 20.0205 0.0000 0.0000 0.0000
# 2 15.4499 135.0345 84.6297 0.0000 0.0000 0.0000
# 3 20.0205 84.6297 191.9852 0.0000 0.0000 0.0000
# 4 0.0000 0.0000 0.0000 29.2094 0.0000 0.0000
# 5 0.0000 0.0000 0.0000 0.0000 -10.2446 0.0000
# 6 0.0000 0.0000 0.0000 0.0000 0.0000 14.1824
#
#
#
# Elastic Compliance Matrix: (Units=1/GPa)
#
#
# Indices 1 2 3 4 5 6 
#
# 1 0.104894 -0.007110 -0.007804 0.000000 0.000000 0.000000
# 2 -0.007110 0.010714 -0.003982 0.000000 0.000000 0.000000
# 3 -0.007804 -0.003982 0.007778 0.000000 0.000000 0.000000
# 4 0.000000 0.000000 0.000000 0.034236 0.000000 0.000000
# 5 0.000000 0.000000 0.000000 0.000000 -0.097612 0.000000
# 6 0.000000 0.000000 0.000000 0.000000 0.000000 0.070510
#
#
# Mechanical properties :
#
#
# Convention : Reuss Voigt Hill
#
# Bulk Modulus (GPa) = 11.68311 64.36559 38.02435
# Shear Modulus (GPa) = 25.40103 21.22875 23.31489
#
# Velocity S-wave (km/s) = 3.72078 3.40150 3.56472
# Velocity P-wave (km/s) = 4.98263 7.10689 6.13737
#
# Compressibility (1/GPa) = 0.08559365
#
# Stress axis : x y z
#
# Youngs Moduli (GPa) = 9.53348 93.33238 128.57266
#
# Poissons Ratio (x) = 0.66361 1.00340
# Poissons Ratio (y) = 0.06779 0.51192
# Poissons Ratio (z) = 0.07440 0.37161
#
# Static dielectric constant tensor:
#      x y z
#    x 2.629150 0.000000 0.000000 
#    y 0.000000 3.414500 0.000000 
#    z 0.000000 0.000000 3.764310 
# 
# 
# High freq. dielectric constant tensor:
#      x y z
#    x 1.629550 0.000000 0.000000 
#    y 0.000000 1.714200 0.000000 
#    z 0.000000 0.000000 1.738220 
# 
# From -- ./inp_files/12997.got.cif
#   From: 2010.03.12/outbox.cif.g09.slc.cpg/sg47_7_cif.got.tgz:12997.got - 2010.04.14 03:12:58.
