data_PCOD8196188
_publ_section_title
;
Structure prediction by ZEFSAII (Michael W. Deem and Ramdas Pophale) SiO2 
 PCOD8196188
Probable space group: P M M M
;
_chemical_formula_sum "Si O2"
_cell_formula_units_Z 48
_cell_length_a 9.267962
_cell_length_b 29.630815
_cell_length_c 10.229931
_cell_angle_alpha 90.000000
_cell_angle_beta 90.000000
_cell_angle_gamma 90.000000
_cell_volume 2809.315697
_symmetry_space_group_name_H-M "P M M M"
_symmetry_group_IT_number 47
_symmetry_cell_setting 'orthorhombic'
loop_
_space_group_symop_operation_xyz
x,y,z
-x,-y,z
x,-y,-z
-x,y,-z
-x,-y,-z
x,y,-z
-x,y,z
x,-y,z
loop_
_atom_site_type_symbol
_atom_site_label
_atom_site_fract_x
_atom_site_fract_y
_atom_site_fract_z
Si Si1 0.671107 0.447271 0.500000
Si Si2 0.837627 0.134318 0.156127
Si Si3 0.828619 0.550326 0.000000
Si Si4 0.834634 0.693244 0.849861
Si Si5 0.662064 0.950181 0.844574
Si Si6 0.337537 0.780012 0.844456
Si Si7 0.831520 0.597566 0.260695
O O1 0.715122 0.500000 0.500000
O O2 0.500000 0.441386 0.500000
O O3 0.736270 0.422370 0.624545
O O4 0.767115 0.088298 0.212069
O O5 0.748806 0.176980 0.211161
O O6 0.000000 0.137384 0.209655
O O7 0.835659 0.134294 0.000000
O O8 0.772012 0.574927 0.871149
O O9 0.766487 0.500000 0.000000
O O10 0.000000 0.551482 0.000000
O O11 0.737058 0.733967 0.796528
O O12 0.807217 0.651077 0.754330
O O13 0.000000 0.709129 0.842540
O O14 0.796805 0.680055 0.000000
O O15 0.500000 0.940985 0.793589
O O16 0.714436 0.000000 0.798351
O O17 0.662574 0.948149 0.000000
O O18 0.500000 0.781589 0.789732
O O19 0.336084 0.781492 0.000000
O O20 0.000000 0.586539 0.286011
#
# Coordination Sequence:
#
# PCOD8196188 Si02
#       7
#     4   8   4   8   8   8   8
#     4  11  25  41  53  71 103 137 165 195 232 275
#     4   9  15  21  29  42  61  87 121 164 213 258
#     4   9  16  28  51  81 103 119 151 197 236 273
#     4   9  16  28  46  69  94 113 138 181 231 275
#     4   8  13  20  28  37  52  78 114 158 208 261
#     4   9  16  24  35  52  75 104 135 165 207 265
#     4  10  19  34  56  79  99 125 159 196 236 281
#
# _framework density 17.086010000000002
#
# number of rings (size 3 to 8) (size 9 to 14) (size 15 to 20)
#    0.000    2.833    0.833    2.250    0.000    6.333 
#    0.000    2.083    0.000    1.500    0.000    0.000 
#    0.000    0.000    0.000    0.000    0.000    0.000 
#
# Total GULP energy -595022.889685 kJ/mol
# GULP energy per Si atom -12396.310202 kJ/mol
# Density = 1.704712 g / cm^3
# Si number density = 17.086010 Si / 1000 Ang^3
#
#
#
# Elastic Constant Matrix: (Units=GPa)
#
#
# Indices 1 2 3 4 5 6 
#
# 1 118.6083 86.2345 30.7374 0.0000 0.0000 0.0000
# 2 86.2345 154.6074 36.1276 0.0000 0.0000 0.0000
# 3 30.7374 36.1276 54.0620 0.0000 0.0000 0.0000
# 4 0.0000 0.0000 0.0000 7.6579 0.0000 0.0000
# 5 0.0000 0.0000 0.0000 0.0000 9.1065 0.0000
# 6 0.0000 0.0000 0.0000 0.0000 0.0000 34.3093
#
#
#
# Elastic Compliance Matrix: (Units=1/GPa)
#
#
# Indices 1 2 3 4 5 6 
#
# 1 0.014694 -0.007399 -0.003410 0.000000 0.000000 0.000000
# 2 -0.007399 0.011391 -0.003405 0.000000 0.000000 0.000000
# 3 -0.003410 -0.003405 0.022712 0.000000 0.000000 0.000000
# 4 0.000000 0.000000 0.000000 0.130585 0.000000 0.000000
# 5 0.000000 0.000000 0.000000 0.000000 0.109811 0.000000
# 6 0.000000 0.000000 0.000000 0.000000 0.000000 0.029147
#
#
# Mechanical properties :
#
#
# Convention : Reuss Voigt Hill
#
# Bulk Modulus (GPa) = 49.09652 70.38627 59.74140
# Shear Modulus (GPa) = 14.14198 21.82663 17.98430
#
# Velocity S-wave (km/s) = 2.88009 3.57803 3.24786
# Velocity P-wave (km/s) = 6.31325 7.63901 7.00755
#
# Compressibility (1/GPa) = 0.02036804
#
# Stress axis : x y z
#
# Youngs Moduli (GPa) = 68.05303 87.79110 44.03047
#
# Poissons Ratio (x) = 0.64958 0.15015
# Poissons Ratio (y) = 0.50354 0.14993
# Poissons Ratio (z) = 0.23206 0.29894
#
# Static dielectric constant tensor:
#      x y z
#    x 3.226400 0.000000 0.000000 
#    y 0.000000 3.472620 0.000000 
#    z 0.000000 0.000000 2.977230 
# 
# 
# High freq. dielectric constant tensor:
#      x y z
#    x 1.655340 0.000000 0.000000 
#    y 0.000000 1.679500 0.000000 
#    z 0.000000 0.000000 1.580970 
# 
# From -- ./inp_files/2727.got.cif
#   From: 2010.03.12/outbox.cif.g09.slc.cpg/sg47_2_cif.got.tgz:2727.got - 2010.04.14 03:12:58.
