data_PCOD8196872
_publ_section_title
;
Structure prediction by ZEFSAII (Michael W. Deem and Ramdas Pophale) SiO2 
 PCOD8196872
Probable space group: P M M M
;
_chemical_formula_sum "Si O2"
_cell_formula_units_Z 52
_cell_length_a 9.105060
_cell_length_b 14.431432
_cell_length_c 25.080889
_cell_angle_alpha 90.000000
_cell_angle_beta 90.000000
_cell_angle_gamma 90.000000
_cell_volume 3295.605094
_symmetry_space_group_name_H-M "P M M M"
_symmetry_group_IT_number 47
_symmetry_cell_setting 'orthorhombic'
loop_
_space_group_symop_operation_xyz
x,y,z
-x,-y,z
x,-y,-z
-x,y,-z
-x,-y,-z
x,y,-z
-x,y,z
x,-y,z
loop_
_atom_site_type_symbol
_atom_site_label
_atom_site_fract_x
_atom_site_fract_y
_atom_site_fract_z
Si Si1 0.328853 0.895273 0.276639
Si Si2 0.327107 0.500000 0.058305
Si Si3 0.334118 0.396838 0.843047
Si Si4 0.832036 0.896957 0.386221
Si Si5 0.826728 0.722773 0.761080
Si Si6 0.172945 0.286516 0.441744
Si Si7 0.175059 0.604492 0.659929
O O1 0.500000 0.872464 0.275474
O O2 0.272767 0.881364 0.336408
O O3 0.244791 0.824490 0.238029
O O4 0.296854 0.000000 0.256956
O O5 0.500000 0.500000 0.049931
O O6 0.288058 0.591535 0.094018
O O7 0.248307 0.500000 0.000000
O O8 0.500000 0.357508 0.837636
O O9 0.326814 0.500000 0.816774
O O10 0.220363 0.329010 0.814835
O O11 0.790535 0.821436 0.430652
O O12 0.000000 0.881935 0.366654
O O13 0.811210 0.000000 0.410589
O O14 0.768839 0.665140 0.709817
O O15 0.000000 0.733330 0.760469
O O16 0.240157 0.312133 0.500000
O O17 0.238461 0.351401 0.394968
O O18 0.000000 0.301997 0.443624
O O19 0.235693 0.500000 0.665101
O O20 0.000000 0.604961 0.659304
#
# Coordination Sequence:
#
# PCOD8196872 Si02
#       7
#     8   4   8   8   8   8   8
#     4  10  20  32  47  66  87 113 146 185 233 287
#     4   7  12  26  47  69  99 139 174 201 228 258
#     4   8  16  28  44  69  99 130 165 199 226 258
#     4   9  16  28  45  64  85 106 134 175 228 288
#     4  11  19  29  46  66  93 123 153 191 233 281
#     4   9  16  26  40  60  84 108 140 181 226 277
#     4   9  17  27  39  59  85 113 144 180 225 269
#
# _framework density 15.778589
#
# number of rings (size 3 to 8) (size 9 to 14) (size 15 to 20)
#    0.462    2.385    1.538    1.385    0.000    2.462 
#    0.000    3.077    0.000    1.385    0.000    2.154 
#    0.000    1.846    0.000    7.077    0.000    2.000 
#
# Total GULP energy -644294.615810 kJ/mol
# GULP energy per Si atom -12390.281073 kJ/mol
# Density = 1.574268 g / cm^3
# Si number density = 15.778589 Si / 1000 Ang^3
#
#
#
# Elastic Constant Matrix: (Units=GPa)
#
#
# Indices 1 2 3 4 5 6 
#
# 1 46.5998 32.8358 28.4895 0.0000 0.0000 0.0000
# 2 32.8358 96.8107 49.8301 0.0000 0.0000 0.0000
# 3 28.4895 49.8301 106.6630 0.0000 0.0000 0.0000
# 4 0.0000 0.0000 0.0000 11.4021 0.0000 0.0000
# 5 0.0000 0.0000 0.0000 0.0000 14.1875 0.0000
# 6 0.0000 0.0000 0.0000 0.0000 0.0000 19.1590
#
#
#
# Elastic Compliance Matrix: (Units=1/GPa)
#
#
# Indices 1 2 3 4 5 6 
#
# 1 0.029581 -0.007855 -0.004231 0.000000 0.000000 0.000000
# 2 -0.007855 0.015686 -0.005230 0.000000 0.000000 0.000000
# 3 -0.004231 -0.005230 0.012949 0.000000 0.000000 0.000000
# 4 0.000000 0.000000 0.000000 0.087703 0.000000 0.000000
# 5 0.000000 0.000000 0.000000 0.000000 0.070485 0.000000
# 6 0.000000 0.000000 0.000000 0.000000 0.000000 0.052195
#
#
# Mechanical properties :
#
#
# Convention : Reuss Voigt Hill
#
# Bulk Modulus (GPa) = 42.40371 52.48714 47.44543
# Shear Modulus (GPa) = 16.07243 18.21092 17.14167
#
# Velocity S-wave (km/s) = 3.19505 3.40097 3.29962
# Velocity P-wave (km/s) = 6.36739 6.98277 6.68217
#
# Compressibility (1/GPa) = 0.02358284
#
# Stress axis : x y z
#
# Youngs Moduli (GPa) = 33.80509 63.75264 77.22774
#
# Poissons Ratio (x) = 0.50080 0.32678
# Poissons Ratio (y) = 0.26555 0.40388
# Poissons Ratio (z) = 0.14304 0.33341
#
# Static dielectric constant tensor:
#      x y z
#    x 2.702430 0.000000 0.000000 
#    y 0.000000 3.144080 0.000000 
#    z 0.000000 0.000000 3.038850 
# 
# 
# High freq. dielectric constant tensor:
#      x y z
#    x 1.575090 0.000000 0.000000 
#    y 0.000000 1.604320 0.000000 
#    z 0.000000 0.000000 1.577110 
# 
# From -- ./inp_files/31971.got.cif
#   From: 2010.03.12/outbox.cif.g09.slc.cpg/sg47_16_cif.got.tgz:31971.got - 2010.04.14 03:12:58.
