data_PCOD8196151
_publ_section_title
;
Structure prediction by ZEFSAII (Michael W. Deem and Ramdas Pophale) SiO2 
 PCOD8196151
Probable space group: P M M M
;
_chemical_formula_sum "Si O2"
_cell_formula_units_Z 48
_cell_length_a 15.528332
_cell_length_b 17.980248
_cell_length_c 8.843885
_cell_angle_alpha 90.000000
_cell_angle_beta 90.000000
_cell_angle_gamma 90.000000
_cell_volume 2469.241526
_symmetry_space_group_name_H-M "P M M M"
_symmetry_group_IT_number 47
_symmetry_cell_setting 'orthorhombic'
loop_
_space_group_symop_operation_xyz
x,y,z
-x,-y,z
x,-y,-z
-x,y,-z
-x,-y,-z
x,y,-z
-x,y,z
x,-y,z
loop_
_atom_site_type_symbol
_atom_site_label
_atom_site_fract_x
_atom_site_fract_y
_atom_site_fract_z
Si Si1 0.092963 0.844455 0.672746
Si Si2 0.000000 0.587174 0.169492
Si Si3 0.598862 0.000000 0.320288
Si Si4 0.283398 0.135602 0.680253
Si Si5 0.310931 0.710875 0.175258
Si Si6 0.399151 0.581531 0.667551
Si Si7 0.139386 0.677357 0.672884
O O1 0.092063 0.870560 0.500000
O O2 0.183987 0.874862 0.744023
O O3 0.090821 0.755658 0.685559
O O4 0.000000 0.872096 0.745792
O O5 0.081916 0.611340 0.265408
O O6 0.000000 0.500000 0.156541
O O7 0.000000 0.622241 0.000000
O O8 0.652940 0.928999 0.261566
O O9 0.500000 0.000000 0.256894
O O10 0.595157 0.000000 0.500000
O O11 0.278331 0.138152 0.500000
O O12 0.325620 0.212257 0.735100
O O13 0.379872 0.648191 0.217355
O O14 0.220487 0.675693 0.218274
O O15 0.316894 0.729804 0.000000
O O16 0.361382 0.599513 0.500000
O O17 0.500000 0.575606 0.656315
O O18 0.363545 0.500000 0.721766
O O19 0.166328 0.661732 0.500000
#
# Coordination Sequence:
#
# PCOD8196151 Si02
#       7
#     8   4   4   8   8   8   8
#     4   8  13  25  48  75  99 126 166 220 273 318
#     4  11  23  35  47  71 109 146 183 232 287 339
#     4   9  18  34  56  82 112 147 187 233 281 329
#     4   9  18  33  54  79 107 143 189 233 276 336
#     4  11  22  35  54  82 114 144 179 228 284 340
#     4   9  19  37  59  80 103 136 180 227 276 334
#     4  10  19  34  54  73  98 138 187 229 268 323
#
# _framework density 19.439167000000001
#
# number of rings (size 3 to 8) (size 9 to 14) (size 15 to 20)
#    0.000    2.500    0.833    3.750    0.000    2.667 
#    0.000    3.333    0.000    3.000    0.000    0.000 
#    0.000    3.000    0.000    0.000    0.000    0.000 
#
# Total GULP energy -594637.109545 kJ/mol
# GULP energy per Si atom -12388.273116 kJ/mol
# Density = 1.939492 g / cm^3
# Si number density = 19.439167 Si / 1000 Ang^3
#
#
#
# Elastic Constant Matrix: (Units=GPa)
#
#
# Indices 1 2 3 4 5 6 
#
# 1 113.2475 62.4706 19.2807 0.0000 0.0000 0.0000
# 2 62.4706 109.3720 23.8923 0.0000 0.0000 0.0000
# 3 19.2807 23.8923 46.1153 0.0000 0.0000 0.0000
# 4 0.0000 0.0000 0.0000 11.1656 0.0000 0.0000
# 5 0.0000 0.0000 0.0000 0.0000 14.5105 0.0000
# 6 0.0000 0.0000 0.0000 0.0000 0.0000 56.1146
#
#
#
# Elastic Compliance Matrix: (Units=1/GPa)
#
#
# Indices 1 2 3 4 5 6 
#
# 1 0.013023 -0.007046 -0.001794 0.000000 0.000000 0.000000
# 2 -0.007046 0.014123 -0.004371 0.000000 0.000000 0.000000
# 3 -0.001794 -0.004371 0.024699 0.000000 0.000000 0.000000
# 4 0.000000 0.000000 0.000000 0.089561 0.000000 0.000000
# 5 0.000000 0.000000 0.000000 0.000000 0.068916 0.000000
# 6 0.000000 0.000000 0.000000 0.000000 0.000000 0.017821
#
#
# Mechanical properties :
#
#
# Convention : Reuss Voigt Hill
#
# Bulk Modulus (GPa) = 39.33569 53.33579 46.33574
# Shear Modulus (GPa) = 19.00864 27.23088 23.11976
#
# Velocity S-wave (km/s) = 3.13046 3.74682 3.45242
# Velocity P-wave (km/s) = 5.77456 6.79817 6.30716
#
# Compressibility (1/GPa) = 0.02542221
#
# Stress axis : x y z
#
# Youngs Moduli (GPa) = 76.78965 70.80859 40.48679
#
# Poissons Ratio (x) = 0.49894 0.07264
# Poissons Ratio (y) = 0.54108 0.17696
# Poissons Ratio (z) = 0.13776 0.30950
#
# Static dielectric constant tensor:
#      x y z
#    x 3.342460 0.000000 0.000000 
#    y 0.000000 3.541820 0.000000 
#    z 0.000000 0.000000 3.299900 
# 
# 
# High freq. dielectric constant tensor:
#      x y z
#    x 1.764270 0.000000 0.000000 
#    y 0.000000 1.744170 0.000000 
#    z 0.000000 0.000000 1.719720 
# 
# From -- ./inp_files/6396.got.cif
#   From: 2010.03.12/outbox.cif.g09.slc.cpg/sg47_4_cif.got.tgz:6396.got - 2010.04.14 03:12:58.
