data_PCOD8196500
_publ_section_title
;
Structure prediction by ZEFSAII (Michael W. Deem and Ramdas Pophale) SiO2 
 PCOD8196500
Probable space group: P M M M
;
_chemical_formula_sum "Si O2"
_cell_formula_units_Z 64
_cell_length_a 19.100436
_cell_length_b 9.206784
_cell_length_c 23.234429
_cell_angle_alpha 90.000000
_cell_angle_beta 90.000000
_cell_angle_gamma 90.000000
_cell_volume 4085.857718
_symmetry_space_group_name_H-M "P M M M"
_symmetry_group_IT_number 47
_symmetry_cell_setting 'orthorhombic'
loop_
_space_group_symop_operation_xyz
x,y,z
-x,-y,z
x,-y,-z
-x,y,-z
-x,-y,-z
x,y,-z
-x,y,z
x,-y,z
loop_
_atom_site_type_symbol
_atom_site_label
_atom_site_fract_x
_atom_site_fract_y
_atom_site_fract_z
Si Si1 0.079378 0.167607 0.234857
Si Si2 0.277636 0.167178 0.717827
Si Si3 0.208061 0.834616 0.161631
Si Si4 0.284629 0.328177 0.064417
Si Si5 0.080651 0.833321 0.566657
Si Si6 0.155102 0.672461 0.664405
Si Si7 0.423049 0.832535 0.243284
Si Si8 0.422797 0.330026 0.874743
O O1 0.127742 0.199105 0.179417
O O2 0.101694 0.266898 0.288121
O O3 0.000000 0.203628 0.217386
O O4 0.088527 0.000000 0.254254
O O5 0.257052 0.200288 0.783819
O O6 0.233830 0.269459 0.675266
O O7 0.360747 0.202551 0.711288
O O8 0.260582 0.000000 0.702546
O O9 0.227279 0.735189 0.107735
O O10 0.217435 0.000000 0.141900
O O11 0.278754 0.500000 0.067416
O O12 0.363125 0.276358 0.081292
O O13 0.269310 0.271594 0.000000
O O14 0.096626 0.805065 0.500000
O O15 0.130250 0.726118 0.602158
O O16 0.000000 0.797909 0.580735
O O17 0.096990 0.000000 0.582943
O O18 0.155445 0.500000 0.666490
O O19 0.500000 0.798250 0.270413
O O20 0.410356 0.741653 0.186437
O O21 0.417677 0.000000 0.224929
O O22 0.500000 0.289600 0.899475
O O23 0.416313 0.500000 0.864286
#
# Coordination Sequence:
#
# PCOD8196500 Si02
#       8
#     8   8   8   8   8   8   8   8
#     4   9  18  33  51  68  88 114 143 179 224 272
#     4   9  17  30  46  64  89 120 151 184 225 270
#     4   9  17  30  47  66  83 105 139 177 221 268
#     4  10  20  31  43  60  83 112 144 178 217 264
#     4   9  18  33  51  68  91 129 169 196 222 260
#     4  11  21  29  43  70 100 126 154 189 223 257
#     4   9  16  27  45  66  87 113 146 184 225 267
#     4   9  17  28  42  60  83 112 144 177 214 259
#
# _framework density 15.663785000000001
#
# number of rings (size 3 to 8) (size 9 to 14) (size 15 to 20)
#    0.000    2.625    1.250    2.625    0.000    5.250 
#    0.000    1.875    0.000    0.375    0.000    5.250 
#    0.000    0.500    0.000    5.750    0.000    1.625 
#
# Total GULP energy -793371.914287 kJ/mol
# GULP energy per Si atom -12396.436161 kJ/mol
# Density = 1.562813 g / cm^3
# Si number density = 15.663785 Si / 1000 Ang^3
#
#
#
# Elastic Constant Matrix: (Units=GPa)
#
#
# Indices 1 2 3 4 5 6 
#
# 1 127.5320 44.0996 52.2158 0.0000 0.0000 0.0000
# 2 44.0996 61.7025 40.7441 0.0000 0.0000 0.0000
# 3 52.2158 40.7441 75.1525 0.0000 0.0000 0.0000
# 4 0.0000 0.0000 0.0000 20.7177 0.0000 0.0000
# 5 0.0000 0.0000 0.0000 0.0000 22.3801 0.0000
# 6 0.0000 0.0000 0.0000 0.0000 0.0000 18.5473
#
#
#
# Elastic Compliance Matrix: (Units=1/GPa)
#
#
# Indices 1 2 3 4 5 6 
#
# 1 0.011771 -0.004692 -0.005634 0.000000 0.000000 0.000000
# 2 -0.004692 0.027115 -0.011440 0.000000 0.000000 0.000000
# 3 -0.005634 -0.011440 0.023423 0.000000 0.000000 0.000000
# 4 0.000000 0.000000 0.000000 0.048268 0.000000 0.000000
# 5 0.000000 0.000000 0.000000 0.000000 0.044682 0.000000
# 6 0.000000 0.000000 0.000000 0.000000 0.000000 0.053916
#
#
# Mechanical properties :
#
#
# Convention : Reuss Voigt Hill
#
# Bulk Modulus (GPa) = 53.26155 59.83401 56.54778
# Shear Modulus (GPa) = 19.30750 20.81753 20.06251
#
# Velocity S-wave (km/s) = 3.51468 3.64953 3.58274
# Velocity P-wave (km/s) = 7.10967 7.48603 7.30028
#
# Compressibility (1/GPa) = 0.01877527
#
# Stress axis : x y z
#
# Youngs Moduli (GPa) = 84.95806 36.88048 42.69246
#
# Poissons Ratio (x) = 0.17304 0.24054
# Poissons Ratio (y) = 0.39863 0.48841
# Poissons Ratio (z) = 0.47868 0.42192
#
# Static dielectric constant tensor:
#      x y z
#    x 3.267770 0.000000 0.000000 
#    y 0.000000 2.917950 0.000000 
#    z 0.000000 0.000000 2.722770 
# 
# 
# High freq. dielectric constant tensor:
#      x y z
#    x 1.606860 0.000000 0.000000 
#    y 0.000000 1.597660 0.000000 
#    z 0.000000 0.000000 1.562700 
# 
# From -- ./inp_files/31524.got.cif
#   From: 2010.03.12/outbox.cif.g09.slc.cpg/sg47_16_cif.got.tgz:31524.got - 2010.04.14 03:12:58.
