data_PCOD8196495
_publ_section_title
;
Structure prediction by ZEFSAII (Michael W. Deem and Ramdas Pophale) SiO2 
 PCOD8196495
Probable space group: P M M M
;
_chemical_formula_sum "Si O2"
_cell_formula_units_Z 52
_cell_length_a 9.330037
_cell_length_b 27.159072
_cell_length_c 13.689785
_cell_angle_alpha 90.000000
_cell_angle_beta 90.000000
_cell_angle_gamma 90.000000
_cell_volume 3468.925078
_symmetry_space_group_name_H-M "P M M M"
_symmetry_group_IT_number 47
_symmetry_cell_setting 'orthorhombic'
loop_
_space_group_symop_operation_xyz
x,y,z
-x,-y,z
x,-y,-z
-x,y,-z
-x,-y,-z
x,y,-z
-x,y,z
x,-y,z
loop_
_atom_site_type_symbol
_atom_site_label
_atom_site_fract_x
_atom_site_fract_y
_atom_site_fract_z
Si Si1 0.670650 0.500000 0.392627
Si Si2 0.664821 0.887426 0.387194
Si Si3 0.168318 0.853868 0.893248
Si Si4 0.830546 0.800071 0.296868
Si Si5 0.166676 0.944250 0.233860
Si Si6 0.660874 0.394688 0.616794
Si Si7 0.167424 0.301646 0.611839
O O1 0.500000 0.500000 0.402818
O O2 0.741033 0.500000 0.500000
O O3 0.715345 0.551856 0.340465
O O4 0.675820 0.901379 0.500000
O O5 0.500000 0.881873 0.353922
O O6 0.746786 0.836243 0.368998
O O7 0.739574 0.931821 0.328810
O O8 0.215080 0.812069 0.815138
O O9 0.213237 0.907810 0.853700
O O10 0.000000 0.851802 0.906483
O O11 0.240697 0.844904 0.000000
O O12 0.785085 0.744516 0.322192
O O13 0.000000 0.808307 0.313281
O O14 0.000000 0.936180 0.260655
O O15 0.197028 0.000000 0.200235
O O16 0.666877 0.397751 0.500000
O O17 0.500000 0.383820 0.652636
O O18 0.758801 0.350390 0.655895
O O19 0.215188 0.291776 0.500000
O O20 0.000000 0.310860 0.618262
#
# Coordination Sequence:
#
# PCOD8196495 Si02
#       7
#     4   8   8   8   8   8   8
#     4   7  10  18  31  45  63  91 128 165 194 218
#     4  10  20  31  43  60  81 105 132 161 191 221
#     4   8  14  26  45  66  82  96 121 158 194 227
#     4   9  17  29  44  60  79 104 131 159 193 233
#     4   9  18  31  46  64  83 103 127 153 185 228
#     4   8  13  21  33  48  67  95 131 165 192 219
#     4   9  16  24  34  51  76 103 129 157 188 221
#
# _framework density 14.990235
#
# number of rings (size 3 to 8) (size 9 to 14) (size 15 to 20)
#    0.000    3.308    0.000    2.769    0.000    3.385 
#    0.000    5.000    0.000    9.692    0.000    4.308 
#    0.000    0.000    0.000    0.692    0.000   16.077 
#
# Total GULP energy -644293.426935 kJ/mol
# GULP energy per Si atom -12390.258210 kJ/mol
# Density = 1.495612 g / cm^3
# Si number density = 14.990235 Si / 1000 Ang^3
#
#
#
# Elastic Constant Matrix: (Units=GPa)
#
#
# Indices 1 2 3 4 5 6 
#
# 1 37.7220 32.4928 21.3368 0.0000 0.0000 0.0000
# 2 32.4928 145.5279 44.2282 0.0000 0.0000 0.0000
# 3 21.3368 44.2282 72.4862 0.0000 0.0000 0.0000
# 4 0.0000 0.0000 0.0000 3.7073 0.0000 0.0000
# 5 0.0000 0.0000 0.0000 0.0000 7.5097 0.0000
# 6 0.0000 0.0000 0.0000 0.0000 0.0000 21.6089
#
#
#
# Elastic Compliance Matrix: (Units=1/GPa)
#
#
# Indices 1 2 3 4 5 6 
#
# 1 0.035408 -0.005817 -0.006873 0.000000 0.000000 0.000000
# 2 -0.005817 0.009391 -0.004018 0.000000 0.000000 0.000000
# 3 -0.006873 -0.004018 0.018271 0.000000 0.000000 0.000000
# 4 0.000000 0.000000 0.000000 0.269737 0.000000 0.000000
# 5 0.000000 0.000000 0.000000 0.000000 0.133160 0.000000
# 6 0.000000 0.000000 0.000000 0.000000 0.000000 0.046277
#
#
# Mechanical properties :
#
#
# Convention : Reuss Voigt Hill
#
# Bulk Modulus (GPa) = 33.72279 50.20574 41.96426
# Shear Modulus (GPa) = 9.00016 17.07708 13.03862
#
# Velocity S-wave (km/s) = 2.45297 3.37889 2.95245
# Velocity P-wave (km/s) = 5.52884 6.98480 6.29903
#
# Compressibility (1/GPa) = 0.02965354
#
# Stress axis : x y z
#
# Youngs Moduli (GPa) = 28.24220 106.47994 54.73273
#
# Poissons Ratio (x) = 0.61937 0.37620
# Poissons Ratio (y) = 0.16428 0.21992
# Poissons Ratio (z) = 0.19412 0.42784
#
# Static dielectric constant tensor:
#      x y z
#    x 2.760430 0.000000 0.000000 
#    y 0.000000 3.159960 0.000000 
#    z 0.000000 0.000000 2.785900 
# 
# 
# High freq. dielectric constant tensor:
#      x y z
#    x 1.555280 0.000000 0.000000 
#    y 0.000000 1.580290 0.000000 
#    z 0.000000 0.000000 1.528950 
# 
# From -- ./inp_files/22022.got.cif
#   From: 2010.03.12/outbox.cif.g09.slc.cpg/sg47_12_cif.got.tgz:22022.got - 2010.04.14 03:12:58.
