data_PCOD8196719
_publ_section_title
;
Structure prediction by ZEFSAII (Michael W. Deem and Ramdas Pophale) SiO2 
 PCOD8196719
Probable space group: P M M M
;
_chemical_formula_sum "Si O2"
_cell_formula_units_Z 48
_cell_length_a 17.616768
_cell_length_b 9.023534
_cell_length_c 22.866710
_cell_angle_alpha 90.000000
_cell_angle_beta 90.000000
_cell_angle_gamma 90.000000
_cell_volume 3635.018103
_symmetry_space_group_name_H-M "P M M M"
_symmetry_group_IT_number 47
_symmetry_cell_setting 'orthorhombic'
loop_
_space_group_symop_operation_xyz
x,y,z
-x,-y,z
x,-y,-z
-x,y,-z
-x,-y,-z
x,y,-z
-x,y,z
x,-y,z
loop_
_atom_site_type_symbol
_atom_site_label
_atom_site_fract_x
_atom_site_fract_y
_atom_site_fract_z
Si Si1 0.909519 0.832635 0.000000
Si Si2 0.648899 0.332702 0.569587
Si Si3 0.090537 0.667456 0.114988
Si Si4 0.500000 0.832424 0.569779
Si Si5 0.199530 0.171964 0.568719
Si Si6 0.090328 0.167256 0.229585
Si Si7 0.089217 0.328083 0.653659
O O1 0.878314 0.749406 0.057335
O O2 0.000000 0.832180 0.000000
O O3 0.878363 0.000000 0.000000
O O4 0.646599 0.332920 0.500000
O O5 0.650981 0.500000 0.593977
O O6 0.574272 0.251008 0.594221
O O7 0.722865 0.245568 0.591853
O O8 0.121542 0.500000 0.115404
O O9 0.122420 0.751937 0.171917
O O10 0.000000 0.668085 0.115257
O O11 0.500000 0.831846 0.500000
O O12 0.500000 0.000000 0.593593
O O13 0.189429 0.196821 0.500000
O O14 0.128426 0.249627 0.599012
O O15 0.201593 0.000000 0.585254
O O16 0.119176 0.255103 0.286411
O O17 0.000000 0.167049 0.227728
O O18 0.121982 0.000000 0.231545
O O19 0.110839 0.500000 0.654920
O O20 0.000000 0.303430 0.645951
#
# Coordination Sequence:
#
# PCOD8196719 Si02
#       7
#     4   8   8   4   8   8   8
#     4   9  15  21  29  43  63  85 107 129 157 196
#     4   9  16  26  40  57  76  96 116 137 164 201
#     4   9  15  22  32  46  64  84 105 130 162 200
#     4   9  15  23  37  57  79  99 117 135 157 192
#     4  10  20  32  44  57  73  92 114 143 181 222
#     4   9  16  26  39  52  65  82 106 137 172 209
#     4  10  20  32  44  56  69  87 114 148 185 224
#
# _framework density 13.204885000000001
#
# number of rings (size 3 to 8) (size 9 to 14) (size 15 to 20)
#    0.000    2.667    0.000    3.000    0.000   10.333 
#    0.000    1.667    0.000    0.000    0.000    0.000 
#    0.000    0.000    0.000    0.000    0.000    0.000 
#
# Total GULP energy -595181.333650 kJ/mol
# GULP energy per Si atom -12399.611118 kJ/mol
# Density = 1.317483 g / cm^3
# Si number density = 13.204885 Si / 1000 Ang^3
#
#
#
# Elastic Constant Matrix: (Units=GPa)
#
#
# Indices 1 2 3 4 5 6 
#
# 1 37.8125 38.4007 28.5011 0.0000 0.0000 0.0000
# 2 38.4007 142.6819 50.9417 0.0000 0.0000 0.0000
# 3 28.5011 50.9417 59.3702 0.0000 0.0000 0.0000
# 4 0.0000 0.0000 0.0000 24.6198 0.0000 0.0000
# 5 0.0000 0.0000 0.0000 0.0000 0.4838 0.0000
# 6 0.0000 0.0000 0.0000 0.0000 0.0000 18.9384
#
#
#
# Elastic Compliance Matrix: (Units=1/GPa)
#
#
# Indices 1 2 3 4 5 6 
#
# 1 0.045116 -0.006357 -0.016203 0.000000 0.000000 0.000000
# 2 -0.006357 0.011000 -0.006386 0.000000 0.000000 0.000000
# 3 -0.016203 -0.006386 0.030102 0.000000 0.000000 0.000000
# 4 0.000000 0.000000 0.000000 0.040618 0.000000 0.000000
# 5 0.000000 0.000000 0.000000 0.000000 2.066891 0.000000
# 6 0.000000 0.000000 0.000000 0.000000 0.000000 0.052803
#
#
# Mechanical properties :
#
#
# Convention : Reuss Voigt Hill
#
# Bulk Modulus (GPa) = 35.30667 52.83906 44.07286
# Shear Modulus (GPa) = 2.16089 16.94315 9.55202
#
# Velocity S-wave (km/s) = 1.28062 3.58592 2.69247
# Velocity P-wave (km/s) = 5.38352 7.56616 6.56616
#
# Compressibility (1/GPa) = 0.02832326
#
# Stress axis : x y z
#
# Youngs Moduli (GPa) = 22.16527 90.91244 33.22075
#
# Poissons Ratio (x) = 0.57794 0.53829
# Poissons Ratio (y) = 0.14091 0.21216
# Poissons Ratio (z) = 0.35915 0.58059
#
# Static dielectric constant tensor:
#      x y z
#    x 2.308530 0.000000 0.000000 
#    y 0.000000 2.912050 0.000000 
#    z 0.000000 0.000000 2.534280 
# 
# 
# High freq. dielectric constant tensor:
#      x y z
#    x 1.446010 0.000000 0.000000 
#    y 0.000000 1.529020 0.000000 
#    z 0.000000 0.000000 1.477600 
# 
# From -- ./inp_files/11442.got.cif
#   From: 2010.03.12/outbox.cif.g09.slc.cpg/sg47_6_cif.got.tgz:11442.got - 2010.04.14 03:12:58.
