data_PCOD8196582
_publ_section_title
;
Structure prediction by ZEFSAII (Michael W. Deem and Ramdas Pophale) SiO2 
 PCOD8196582
Probable space group: P M M M
;
_chemical_formula_sum "Si O2"
_cell_formula_units_Z 44
_cell_length_a 9.267436
_cell_length_b 15.257443
_cell_length_c 17.651046
_cell_angle_alpha 90.000000
_cell_angle_beta 90.000000
_cell_angle_gamma 90.000000
_cell_volume 2495.811597
_symmetry_space_group_name_H-M "P M M M"
_symmetry_group_IT_number 47
_symmetry_cell_setting 'orthorhombic'
loop_
_space_group_symop_operation_xyz
x,y,z
-x,-y,z
x,-y,-z
-x,y,-z
-x,-y,-z
x,y,-z
-x,y,z
x,-y,z
loop_
_atom_site_type_symbol
_atom_site_label
_atom_site_fract_x
_atom_site_fract_y
_atom_site_fract_z
Si Si1 0.163270 0.242320 0.799867
Si Si2 0.665032 0.672696 0.417216
Si Si3 0.668711 0.597921 0.741680
Si Si4 0.163461 0.831926 0.366654
Si Si5 0.668075 0.000000 0.411242
Si Si6 0.828546 0.097604 0.085747
O O1 0.251700 0.332952 0.795999
O O2 0.167641 0.194677 0.720215
O O3 0.233844 0.174565 0.860407
O O4 0.000000 0.266651 0.823046
O O5 0.683527 0.626006 0.500000
O O6 0.500000 0.704367 0.406731
O O7 0.708005 0.609430 0.347657
O O8 0.767512 0.756882 0.418330
O O9 0.500000 0.611095 0.754643
O O10 0.717602 0.500000 0.764626
O O11 0.258894 0.917236 0.373345
O O12 0.000000 0.849224 0.394056
O O13 0.500000 0.000000 0.391642
O O14 0.697604 0.000000 0.500000
O O15 0.000000 0.097378 0.092722
O O16 0.772137 0.000000 0.109354
O O17 0.779822 0.118240 0.000000
#
# Coordination Sequence:
#
# PCOD8196582 Si02
#       6
#     8   8   8   8   4   8
#     4   9  18  31  50  74  99 125 154 193 236 282
#     4   9  17  30  47  65  88 118 154 198 244 287
#     4   9  18  32  49  69  94 125 162 201 241 286
#     4  10  20  31  45  66  91 120 154 194 238 284
#     4  11  23  35  45  59  84 121 164 204 237 271
#     4   8  14  26  48  77 104 128 154 187 229 278
#
# _framework density 17.629534
#
# number of rings (size 3 to 8) (size 9 to 14) (size 15 to 20)
#    0.000    2.818    0.000    1.909    1.273    4.727 
#    0.000    1.818    0.000    1.091    0.000   10.182 
#    0.000    0.000    0.000    0.000    0.000    0.000 
#
# Total GULP energy -545363.287375 kJ/mol
# GULP energy per Si atom -12394.620168 kJ/mol
# Density = 1.758941 g / cm^3
# Si number density = 17.629534 Si / 1000 Ang^3
#
#
#
# Elastic Constant Matrix: (Units=GPa)
#
#
# Indices 1 2 3 4 5 6 
#
# 1 60.0540 48.6528 17.9370 0.0000 0.0000 0.0000
# 2 48.6528 145.5374 52.0533 0.0000 0.0000 0.0000
# 3 17.9370 52.0533 74.2948 0.0000 0.0000 0.0000
# 4 0.0000 0.0000 0.0000 18.8482 0.0000 0.0000
# 5 0.0000 0.0000 0.0000 0.0000 15.1828 0.0000
# 6 0.0000 0.0000 0.0000 0.0000 0.0000 30.0623
#
#
#
# Elastic Compliance Matrix: (Units=1/GPa)
#
#
# Indices 1 2 3 4 5 6 
#
# 1 0.022839 -0.007556 -0.000220 0.000000 0.000000 0.000000
# 2 -0.007556 0.011669 -0.006351 0.000000 0.000000 0.000000
# 3 -0.000220 -0.006351 0.017963 0.000000 0.000000 0.000000
# 4 0.000000 0.000000 0.000000 0.053056 0.000000 0.000000
# 5 0.000000 0.000000 0.000000 0.000000 0.065864 0.000000
# 6 0.000000 0.000000 0.000000 0.000000 0.000000 0.033264
#
#
# Mechanical properties :
#
#
# Convention : Reuss Voigt Hill
#
# Bulk Modulus (GPa) = 41.29510 57.46361 49.37935
# Shear Modulus (GPa) = 20.74850 23.56819 22.15835
#
# Velocity S-wave (km/s) = 3.43434 3.66027 3.54911
# Velocity P-wave (km/s) = 6.26107 7.10840 6.69814
#
# Compressibility (1/GPa) = 0.02421595
#
# Stress axis : x y z
#
# Youngs Moduli (GPa) = 43.78439 85.69883 55.67073
#
# Poissons Ratio (x) = 0.64758 0.01223
# Poissons Ratio (y) = 0.33086 0.35357
# Poissons Ratio (z) = 0.00962 0.54429
#
# Static dielectric constant tensor:
#      x y z
#    x 3.217540 0.000000 0.000000 
#    y 0.000000 3.358060 0.000000 
#    z 0.000000 0.000000 3.242440 
# 
# 
# High freq. dielectric constant tensor:
#      x y z
#    x 1.662910 0.000000 0.000000 
#    y 0.000000 1.677840 0.000000 
#    z 0.000000 0.000000 1.666660 
# 
# From -- ./inp_files/6174.got.cif
#   From: 2010.03.12/outbox.cif.g09.slc.cpg/sg47_4_cif.got.tgz:6174.got - 2010.04.14 03:12:58.
