data_PCOD8196283
_publ_section_title
;
Structure prediction by ZEFSAII (Michael W. Deem and Ramdas Pophale) SiO2 
 PCOD8196283
Probable space group: P M M M
;
_chemical_formula_sum "Si O2"
_cell_formula_units_Z 56
_cell_length_a 22.404182
_cell_length_b 14.978593
_cell_length_c 8.774415
_cell_angle_alpha 90.000000
_cell_angle_beta 90.000000
_cell_angle_gamma 90.000000
_cell_volume 2944.545594
_symmetry_space_group_name_H-M "P M M M"
_symmetry_group_IT_number 47
_symmetry_cell_setting 'orthorhombic'
loop_
_space_group_symop_operation_xyz
x,y,z
-x,-y,z
x,-y,-z
-x,y,-z
-x,-y,-z
x,y,-z
-x,y,z
x,-y,z
loop_
_atom_site_type_symbol
_atom_site_label
_atom_site_fract_x
_atom_site_fract_y
_atom_site_fract_z
Si Si1 0.933443 0.600024 0.318793
Si Si2 0.621202 0.663425 0.321097
Si Si3 0.500000 0.602714 0.180186
Si Si4 0.346770 0.154562 0.178035
Si Si5 0.212616 0.899963 0.176872
Si Si6 0.266934 0.401144 0.824840
Si Si7 0.828748 0.275449 0.319849
Si Si8 0.566657 0.000000 0.819430
O O1 0.931882 0.600959 0.500000
O O2 0.916294 0.500000 0.261650
O O3 0.887107 0.673286 0.253651
O O4 0.000000 0.624815 0.260941
O O5 0.616853 0.646986 0.500000
O O6 0.556921 0.652429 0.246834
O O7 0.646918 0.760447 0.284561
O O8 0.667077 0.593230 0.247000
O O9 0.500000 0.500000 0.232016
O O10 0.500000 0.612871 0.000000
O O11 0.282611 0.111298 0.209533
O O12 0.397860 0.087133 0.234647
O O13 0.354167 0.179618 0.000000
O O14 0.172734 0.826973 0.265116
O O15 0.194147 0.000000 0.229991
O O16 0.198874 0.887048 0.000000
O O17 0.238349 0.500000 0.809561
O O18 0.229149 0.327587 0.737055
O O19 0.271368 0.371006 0.000000
O O20 0.828974 0.276935 0.500000
O O21 0.500000 0.000000 0.748543
O O22 0.563649 0.000000 0.000000
#
# Coordination Sequence:
#
# PCOD8196283 Si02
#       8
#     8   8   4   8   8   8   8   4
#     4   8  15  30  53  82 118 158 195 232 281 343
#     4  12  25  39  57  83 112 140 177 229 285 334
#     4  11  25  45  65  80  99 138 187 227 272 337
#     4  10  19  35  57  79 106 141 181 224 274 336
#     4  10  20  36  57  79 109 152 196 234 280 344
#     4  11  23  38  56  79 111 151 190 227 274 337
#     4  11  21  33  55  88 119 147 187 240 293 339
#     4   9  18  32  55  85 105 131 181 230 271 327
#
# _framework density 19.018214
#
# number of rings (size 3 to 8) (size 9 to 14) (size 15 to 20)
#    0.000    1.714    2.143    3.643    1.000    4.286 
#    0.000    0.357    0.000    2.571    0.000    8.000 
#    0.000    0.000    0.000    0.000    0.000    0.000 
#
# Total GULP energy -694406.014614 kJ/mol
# GULP energy per Si atom -12400.107404 kJ/mol
# Density = 1.897493 g / cm^3
# Si number density = 19.018214 Si / 1000 Ang^3
#
#
#
# Elastic Constant Matrix: (Units=GPa)
#
#
# Indices 1 2 3 4 5 6 
#
# 1 114.8958 55.1397 30.2896 0.0000 0.0000 0.0000
# 2 55.1397 128.6943 40.3489 0.0000 0.0000 0.0000
# 3 30.2896 40.3489 64.4269 0.0000 0.0000 0.0000
# 4 0.0000 0.0000 0.0000 10.7370 0.0000 0.0000
# 5 0.0000 0.0000 0.0000 0.0000 12.6324 0.0000
# 6 0.0000 0.0000 0.0000 0.0000 0.0000 35.4766
#
#
#
# Elastic Compliance Matrix: (Units=1/GPa)
#
#
# Indices 1 2 3 4 5 6 
#
# 1 0.011363 -0.003974 -0.002853 0.000000 0.000000 0.000000
# 2 -0.003974 0.011059 -0.005057 0.000000 0.000000 0.000000
# 3 -0.002853 -0.005057 0.020030 0.000000 0.000000 0.000000
# 4 0.000000 0.000000 0.000000 0.093136 0.000000 0.000000
# 5 0.000000 0.000000 0.000000 0.000000 0.079161 0.000000
# 6 0.000000 0.000000 0.000000 0.000000 0.000000 0.028188
#
#
# Mechanical properties :
#
#
# Convention : Reuss Voigt Hill
#
# Bulk Modulus (GPa) = 53.52645 62.17484 57.85065
# Shear Modulus (GPa) = 18.31948 23.91846 21.11897
#
# Velocity S-wave (km/s) = 3.10701 3.55020 3.33597
# Velocity P-wave (km/s) = 6.40916 7.04049 6.73223
#
# Compressibility (1/GPa) = 0.01868235
#
# Stress axis : x y z
#
# Youngs Moduli (GPa) = 88.00597 90.42723 49.92433
#
# Poissons Ratio (x) = 0.35935 0.14245
# Poissons Ratio (y) = 0.34972 0.25249
# Poissons Ratio (z) = 0.25112 0.45733
#
# Static dielectric constant tensor:
#      x y z
#    x 3.646540 0.000000 0.000000 
#    y 0.000000 3.661900 0.000000 
#    z 0.000000 0.000000 3.252330 
# 
# 
# High freq. dielectric constant tensor:
#      x y z
#    x 1.729280 0.000000 0.000000 
#    y 0.000000 1.748110 0.000000 
#    z 0.000000 0.000000 1.718040 
# 
# From -- ./inp_files/11357.got.cif
#   From: 2010.03.12/outbox.cif.g09.slc.cpg/sg47_6_cif.got.tgz:11357.got - 2010.04.14 03:12:58.
