data_PCOD8196742
_publ_section_title
;
Structure prediction by ZEFSAII (Michael W. Deem and Ramdas Pophale) SiO2 
 PCOD8196742
Probable space group: P M M M
;
_chemical_formula_sum "Si O2"
_cell_formula_units_Z 52
_cell_length_a 9.173989
_cell_length_b 13.593830
_cell_length_c 26.778946
_cell_angle_alpha 90.000000
_cell_angle_beta 90.000000
_cell_angle_gamma 90.000000
_cell_volume 3339.592900
_symmetry_space_group_name_H-M "P M M M"
_symmetry_group_IT_number 47
_symmetry_cell_setting 'orthorhombic'
loop_
_space_group_symop_operation_xyz
x,y,z
-x,-y,z
x,-y,-z
-x,y,-z
-x,-y,-z
x,y,-z
-x,y,z
x,-y,z
loop_
_atom_site_type_symbol
_atom_site_label
_atom_site_fract_x
_atom_site_fract_y
_atom_site_fract_z
Si Si1 0.173312 0.198424 0.103599
Si Si2 0.173043 0.889368 0.000000
Si Si3 0.331729 0.886806 0.803416
Si Si4 0.171403 0.607285 0.153773
Si Si5 0.171725 0.612048 0.349561
Si Si6 0.172279 0.277155 0.749050
Si Si7 0.335496 0.616845 0.554568
O O1 0.229238 0.167738 0.048913
O O2 0.250653 0.129717 0.144076
O O3 0.219592 0.312372 0.112430
O O4 0.000000 0.184231 0.109825
O O5 0.000000 0.892399 0.000000
O O6 0.236251 0.000000 0.000000
O O7 0.500000 0.855680 0.809123
O O8 0.256789 0.824286 0.759227
O O9 0.316362 0.000000 0.788032
O O10 0.244003 0.500000 0.143312
O O11 0.217603 0.644622 0.208492
O O12 0.000000 0.594837 0.151932
O O13 0.225692 0.500000 0.340775
O O14 0.224531 0.678837 0.303594
O O15 0.236883 0.658185 0.400485
O O16 0.000000 0.614600 0.354549
O O17 0.000000 0.256289 0.750247
O O18 0.280425 0.654883 0.500000
O O19 0.500000 0.653032 0.563513
O O20 0.327800 0.500000 0.554717
#
# Coordination Sequence:
#
# PCOD8196742 Si02
#       7
#     8   4   8   8   8   8   8
#     4   9  17  29  46  65  83 108 139 166 199 246
#     4   9  16  26  42  64  86 105 133 175 212 243
#     4  10  20  32  45  62  84 107 132 167 209 247
#     4   8  13  23  40  60  82 107 134 165 199 235
#     4   9  16  25  39  61  87 112 140 176 213 244
#     4   9  17  28  43  62  83 109 139 168 202 248
#     4   8  14  24  36  51  76 113 152 182 208 242
#
# _framework density 15.57076
#
# number of rings (size 3 to 8) (size 9 to 14) (size 15 to 20)
#    0.000    3.154    0.000    2.769    0.000    4.615 
#    0.000    2.308    0.000   14.769    0.000    0.000 
#    0.000    5.538    0.000    6.769    0.000    5.231 
#
# Total GULP energy -644471.937320 kJ/mol
# GULP energy per Si atom -12393.691102 kJ/mol
# Density = 1.553532 g / cm^3
# Si number density = 15.570760 Si / 1000 Ang^3
#
#
#
# Elastic Constant Matrix: (Units=GPa)
#
#
# Indices 1 2 3 4 5 6 
#
# 1 38.3211 27.9056 36.6438 0.0000 0.0000 0.0000
# 2 27.9056 97.4026 61.0572 0.0000 0.0000 0.0000
# 3 36.6438 61.0572 150.7049 0.0000 0.0000 0.0000
# 4 0.0000 0.0000 0.0000 21.6101 0.0000 0.0000
# 5 0.0000 0.0000 0.0000 0.0000 13.4698 0.0000
# 6 0.0000 0.0000 0.0000 0.0000 0.0000 14.5793
#
#
#
# Elastic Compliance Matrix: (Units=1/GPa)
#
#
# Indices 1 2 3 4 5 6 
#
# 1 0.036949 -0.006641 -0.006294 0.000000 0.000000 0.000000
# 2 -0.006641 0.014955 -0.004444 0.000000 0.000000 0.000000
# 3 -0.006294 -0.004444 0.009966 0.000000 0.000000 0.000000
# 4 0.000000 0.000000 0.000000 0.046275 0.000000 0.000000
# 5 0.000000 0.000000 0.000000 0.000000 0.074240 0.000000
# 6 0.000000 0.000000 0.000000 0.000000 0.000000 0.068590
#
#
# Mechanical properties :
#
#
# Convention : Reuss Voigt Hill
#
# Bulk Modulus (GPa) = 36.88212 59.73796 48.31004
# Shear Modulus (GPa) = 16.96232 20.65332 18.80782
#
# Velocity S-wave (km/s) = 3.30414 3.64595 3.47925
# Velocity P-wave (km/s) = 6.18827 7.49485 6.87268
#
# Compressibility (1/GPa) = 0.02711341
#
# Stress axis : x y z
#
# Youngs Moduli (GPa) = 27.06414 66.86674 100.33707
#
# Poissons Ratio (x) = 0.44403 0.63150
# Poissons Ratio (y) = 0.17972 0.44593
# Poissons Ratio (z) = 0.17034 0.29718
#
# Static dielectric constant tensor:
#      x y z
#    x 2.783640 0.000000 0.000000 
#    y 0.000000 2.977280 0.000000 
#    z 0.000000 0.000000 3.211810 
# 
# 
# High freq. dielectric constant tensor:
#      x y z
#    x 1.574460 0.000000 0.000000 
#    y 0.000000 1.573470 0.000000 
#    z 0.000000 0.000000 1.595570 
# 
# From -- ./inp_files/33376.got.cif
#   From: 2010.03.12/outbox.cif.g09.slc.cpg/sg47_17_cif.got.tgz:33376.got - 2010.04.14 03:12:58.
