data_PCOD8196699
_publ_section_title
;
Structure prediction by ZEFSAII (Michael W. Deem and Ramdas Pophale) SiO2 
 PCOD8196699
Probable space group: P M M M
;
_chemical_formula_sum "Si O2"
_cell_formula_units_Z 48
_cell_length_a 20.710236
_cell_length_b 19.907388
_cell_length_c 8.920818
_cell_angle_alpha 90.000000
_cell_angle_beta 90.000000
_cell_angle_gamma 90.000000
_cell_volume 3677.934647
_symmetry_space_group_name_H-M "P M M M"
_symmetry_group_IT_number 47
_symmetry_cell_setting 'orthorhombic'
loop_
_space_group_symop_operation_xyz
x,y,z
-x,-y,z
x,-y,-z
-x,y,-z
-x,-y,-z
x,y,-z
-x,y,z
x,-y,z
loop_
_atom_site_type_symbol
_atom_site_label
_atom_site_fract_x
_atom_site_fract_y
_atom_site_fract_z
Si Si1 0.124801 0.345602 0.677462
Si Si2 0.000000 0.575204 0.321809
Si Si3 0.500000 0.580202 0.169226
Si Si4 0.927640 0.070978 0.177766
Si Si5 0.372665 0.579738 0.668372
Si Si6 0.923577 0.783598 0.825212
Si Si7 0.758308 0.577422 0.823248
O O1 0.131361 0.350157 0.500000
O O2 0.116464 0.268756 0.726612
O O3 0.187893 0.376247 0.750859
O O4 0.063291 0.387095 0.738221
O O5 0.000000 0.500000 0.256121
O O6 0.000000 0.574337 0.500000
O O7 0.500000 0.500000 0.170506
O O8 0.563301 0.608784 0.252541
O O9 0.500000 0.607497 0.000000
O O10 0.896866 0.142371 0.227908
O O11 0.000000 0.068749 0.241891
O O12 0.892749 0.000000 0.229126
O O13 0.930698 0.073140 0.000000
O O14 0.368355 0.608598 0.500000
O O15 0.376777 0.500000 0.665348
O O16 0.310268 0.602892 0.761259
O O17 0.000000 0.777641 0.792926
O O18 0.909451 0.770521 0.000000
O O19 0.771019 0.500000 0.777584
O O20 0.758478 0.586684 0.000000
#
# Coordination Sequence:
#
# PCOD8196699 Si02
#       7
#     8   4   4   8   8   8   8
#     4  11  20  30  42  54  70  93 120 152 189 233
#     4   9  18  30  41  51  62  81 114 154 193 231
#     4   9  15  23  37  57  79  99 117 141 174 211
#     4   7  10  18  34  55  74  91 111 135 167 209
#     4   9  16  26  40  57  75  95 118 144 177 220
#     4   9  16  26  40  56  74  92 113 146 183 219
#     4  10  20  32  43  55  71  91 118 155 196 232
#
# _framework density 13.050803999999999
#
# number of rings (size 3 to 8) (size 9 to 14) (size 15 to 20)
#    0.000    2.833    0.833    3.750    0.000    4.667 
#    0.000    0.000    0.000    2.500    0.000    2.333 
#    0.000    0.000    0.000    0.000    0.000    0.000 
#
# Total GULP energy -594745.421086 kJ/mol
# GULP energy per Si atom -12390.529606 kJ/mol
# Density = 1.302110 g / cm^3
# Si number density = 13.050804 Si / 1000 Ang^3
#
#
#
# Elastic Constant Matrix: (Units=GPa)
#
#
# Indices 1 2 3 4 5 6 
#
# 1 89.2490 40.0575 34.5781 0.0000 0.0000 0.0000
# 2 40.0575 87.8409 27.1261 0.0000 0.0000 0.0000
# 3 34.5781 27.1261 59.1150 0.0000 0.0000 0.0000
# 4 0.0000 0.0000 0.0000 10.7225 0.0000 0.0000
# 5 0.0000 0.0000 0.0000 0.0000 20.6370 0.0000
# 6 0.0000 0.0000 0.0000 0.0000 0.0000 2.1495
#
#
#
# Elastic Compliance Matrix: (Units=1/GPa)
#
#
# Indices 1 2 3 4 5 6 
#
# 1 0.016323 -0.005238 -0.007145 0.000000 0.000000 0.000000
# 2 -0.005238 0.014944 -0.003794 0.000000 0.000000 0.000000
# 3 -0.007145 -0.003794 0.022836 0.000000 0.000000 0.000000
# 4 0.000000 0.000000 0.000000 0.093262 0.000000 0.000000
# 5 0.000000 0.000000 0.000000 0.000000 0.048457 0.000000
# 6 0.000000 0.000000 0.000000 0.000000 0.000000 0.465215
#
#
# Mechanical properties :
#
#
# Convention : Reuss Voigt Hill
#
# Bulk Modulus (GPa) = 45.97346 48.85868 47.41607
# Shear Modulus (GPa) = 7.13633 15.66468 11.40051
#
# Velocity S-wave (km/s) = 2.34094 3.46827 2.95879
# Velocity P-wave (km/s) = 6.52761 7.31827 6.93422
#
# Compressibility (1/GPa) = 0.02175168
#
# Stress axis : x y z
#
# Youngs Moduli (GPa) = 61.26149 66.91537 43.79003
#
# Poissons Ratio (x) = 0.35047 0.31287
# Poissons Ratio (y) = 0.32086 0.16613
# Poissons Ratio (z) = 0.43770 0.25387
#
# Static dielectric constant tensor:
#      x y z
#    x 2.506000 0.000000 0.000000 
#    y 0.000000 2.716290 0.000000 
#    z 0.000000 0.000000 2.572880 
# 
# 
# High freq. dielectric constant tensor:
#      x y z
#    x 1.467660 0.000000 0.000000 
#    y 0.000000 1.468870 0.000000 
#    z 0.000000 0.000000 1.494270 
# 
# From -- ./inp_files/9714.got.cif
#   From: 2010.03.12/outbox.cif.g09.slc.cpg/sg47_5_cif.got.tgz:9714.got - 2010.04.14 03:12:58.
