data_PCOD8196286
_publ_section_title
;
Structure prediction by ZEFSAII (Michael W. Deem and Ramdas Pophale) SiO2 
 PCOD8196286
Probable space group: P M M M
;
_chemical_formula_sum "Si O2"
_cell_formula_units_Z 52
_cell_length_a 13.049271
_cell_length_b 27.371513
_cell_length_c 7.933889
_cell_angle_alpha 90.000000
_cell_angle_beta 90.000000
_cell_angle_gamma 90.000000
_cell_volume 2833.812913
_symmetry_space_group_name_H-M "P M M M"
_symmetry_group_IT_number 47
_symmetry_cell_setting 'orthorhombic'
loop_
_space_group_symop_operation_xyz
x,y,z
-x,-y,z
x,-y,-z
-x,y,-z
-x,-y,-z
x,y,-z
-x,y,z
x,-y,z
loop_
_atom_site_type_symbol
_atom_site_label
_atom_site_fract_x
_atom_site_fract_y
_atom_site_fract_z
Si Si1 0.120419 0.556133 0.500000
Si Si2 0.611707 0.500000 0.802682
Si Si3 0.385620 0.319231 0.800381
Si Si4 0.500000 0.944888 0.298344
Si Si5 0.613058 0.788135 0.197355
Si Si6 0.749756 0.409287 0.798993
Si Si7 0.692757 0.885905 0.306898
Si Si8 0.884914 0.055039 0.801089
O O1 0.158702 0.500000 0.500000
O O2 0.154666 0.582944 0.673852
O O3 0.000000 0.559028 0.500000
O O4 0.500000 0.500000 0.714707
O O5 0.670845 0.451549 0.749287
O O6 0.596730 0.500000 0.000000
O O7 0.500000 0.331454 0.731029
O O8 0.351896 0.265183 0.733848
O O9 0.302330 0.358558 0.741631
O O10 0.390187 0.320635 0.000000
O O11 0.500000 0.945854 0.500000
O O12 0.601513 0.918023 0.223207
O O13 0.500000 0.000000 0.227614
O O14 0.500000 0.801477 0.271151
O O15 0.693949 0.830272 0.241797
O O16 0.604390 0.783449 0.000000
O O17 0.780376 0.410613 0.000000
O O18 0.666416 0.884285 0.500000
O O19 0.804542 0.908180 0.279578
O O20 0.000000 0.070083 0.745006
O O21 0.861447 0.000000 0.738309
O O22 0.874994 0.057662 0.000000
#
# Coordination Sequence:
#
# PCOD8196286 Si02
#       8
#     4   4   8   4   8   8   8   8
#     4  11  24  40  56  78 110 144 188 242 280 317
#     4   9  16  27  49  80 113 147 174 208 262 322
#     4   8  15  30  54  81 109 141 174 211 257 314
#     4   9  18  30  43  65 101 141 171 202 253 310
#     4   9  17  31  51  75 105 141 178 211 250 305
#     4  10  19  35  57  81 110 145 184 223 272 330
#     4  11  20  31  49  73 106 140 171 211 257 311
#     4   9  19  36  55  74  97 126 165 215 266 314
#
# _framework density 18.349834999999999
#
# number of rings (size 3 to 8) (size 9 to 14) (size 15 to 20)
#    0.000    2.538    1.538    2.769    0.000    3.385 
#    1.385    3.462    0.000    2.769    0.000    2.154 
#    0.000    0.000    0.000    0.000    0.000    0.000 
#
# Total GULP energy -644384.061802 kJ/mol
# GULP energy per Si atom -12392.001189 kJ/mol
# Density = 1.830807 g / cm^3
# Si number density = 18.349835 Si / 1000 Ang^3
#
#
#
# Elastic Constant Matrix: (Units=GPa)
#
#
# Indices 1 2 3 4 5 6 
#
# 1 75.8839 56.6131 19.5402 0.0000 0.0000 0.0000
# 2 56.6131 148.2498 23.4647 0.0000 0.0000 0.0000
# 3 19.5402 23.4647 43.7265 0.0000 0.0000 0.0000
# 4 0.0000 0.0000 0.0000 10.8777 0.0000 0.0000
# 5 0.0000 0.0000 0.0000 0.0000 21.4181 0.0000
# 6 0.0000 0.0000 0.0000 0.0000 0.0000 42.4852
#
#
#
# Elastic Compliance Matrix: (Units=1/GPa)
#
#
# Indices 1 2 3 4 5 6 
#
# 1 0.019430 -0.006607 -0.005137 0.000000 0.000000 0.000000
# 2 -0.006607 0.009618 -0.002209 0.000000 0.000000 0.000000
# 3 -0.005137 -0.002209 0.026350 0.000000 0.000000 0.000000
# 4 0.000000 0.000000 0.000000 0.091931 0.000000 0.000000
# 5 0.000000 0.000000 0.000000 0.000000 0.046689 0.000000
# 6 0.000000 0.000000 0.000000 0.000000 0.000000 0.023538
#
#
# Mechanical properties :
#
#
# Convention : Reuss Voigt Hill
#
# Bulk Modulus (GPa) = 36.37364 51.89957 44.13661
# Shear Modulus (GPa) = 19.63664 26.17238 22.90451
#
# Velocity S-wave (km/s) = 3.27483 3.78074 3.53684
# Velocity P-wave (km/s) = 5.84506 6.88501 6.38624
#
# Compressibility (1/GPa) = 0.02749244
#
# Stress axis : x y z
#
# Youngs Moduli (GPa) = 51.46743 103.97280 37.94995
#
# Poissons Ratio (x) = 0.68691 0.19496
# Poissons Ratio (y) = 0.34003 0.08383
# Poissons Ratio (z) = 0.26441 0.22966
#
# Static dielectric constant tensor:
#      x y z
#    x 3.270740 0.000000 0.000000 
#    y 0.000000 4.306210 0.000000 
#    z 0.000000 0.000000 3.108520 
# 
# 
# High freq. dielectric constant tensor:
#      x y z
#    x 1.686280 0.000000 0.000000 
#    y 0.000000 1.717020 0.000000 
#    z 0.000000 0.000000 1.693640 
# 
# From -- ./inp_files/4637.got.cif
#   From: 2010.03.12/outbox.cif.g09.slc.cpg/sg47_3_cif.got.tgz:4637.got - 2010.04.14 03:12:58.
