data_PCOD8196720
_publ_section_title
;
Structure prediction by ZEFSAII (Michael W. Deem and Ramdas Pophale) SiO2 
 PCOD8196720
Probable space group: P M M M
;
_chemical_formula_sum "Si O2"
_cell_formula_units_Z 64
_cell_length_a 15.411317
_cell_length_b 9.147812
_cell_length_c 30.000039
_cell_angle_alpha 90.000000
_cell_angle_beta 90.000000
_cell_angle_gamma 90.000000
_cell_volume 4229.400416
_symmetry_space_group_name_H-M "P M M M"
_symmetry_group_IT_number 47
_symmetry_cell_setting 'orthorhombic'
loop_
_space_group_symop_operation_xyz
x,y,z
-x,-y,z
x,-y,-z
-x,y,-z
-x,-y,-z
x,y,-z
-x,y,z
x,-y,z
loop_
_atom_site_type_symbol
_atom_site_label
_atom_site_fract_x
_atom_site_fract_y
_atom_site_fract_z
Si Si1 0.601458 0.828827 0.221460
Si Si2 0.603136 0.336399 0.866762
Si Si3 0.907755 0.334832 0.623707
Si Si4 0.265433 0.669760 0.282483
Si Si5 0.723560 0.663912 0.387870
Si Si6 0.603189 0.835749 0.950854
Si Si7 0.597015 0.827392 0.549376
Si Si8 0.904231 0.170622 0.713589
O O1 0.500000 0.797614 0.229609
O O2 0.633408 0.761981 0.174623
O O3 0.653379 0.751740 0.260921
O O4 0.621727 0.000000 0.220907
O O5 0.500000 0.339123 0.869320
O O6 0.640209 0.500000 0.861091
O O7 0.641856 0.268706 0.912484
O O8 0.898936 0.500000 0.644465
O O9 0.822184 0.309610 0.593402
O O10 0.909518 0.215255 0.662160
O O11 0.000000 0.322935 0.596938
O O12 0.268277 0.500000 0.269512
O O13 0.274807 0.695260 0.335240
O O14 0.174416 0.737657 0.264053
O O15 0.691799 0.500000 0.397906
O O16 0.660074 0.772302 0.412492
O O17 0.500000 0.836409 0.948142
O O18 0.637762 0.000000 0.942855
O O19 0.632639 0.779941 0.000000
O O20 0.625923 0.773302 0.500000
O O21 0.500000 0.770060 0.559435
O O22 0.598440 0.000000 0.550838
O O23 0.000000 0.202232 0.735395
O O24 0.881497 0.000000 0.717143
#
# Coordination Sequence:
#
# PCOD8196720 Si02
#       8
#     8   8   8   8   8   8   8   8
#     4  10  20  32  44  57  77 109 147 182 214 250
#     4   9  16  25  37  52  71  98 133 172 213 255
#     4   8  14  26  43  63  89 116 136 156 189 234
#     4  10  20  32  45  63  88 114 140 171 206 246
#     4   9  18  30  46  69  89 106 131 164 200 236
#     4   8  13  21  33  49  69  93 124 166 213 255
#     4   9  19  35  51  65  82 106 135 166 203 246
#     4   9  16  26  42  64  87 109 136 170 204 240
#
# _framework density 15.132168999999999
#
# number of rings (size 3 to 8) (size 9 to 14) (size 15 to 20)
#    0.000    3.000    0.000    3.000    0.000    6.750 
#    0.000    4.375    0.000    0.375    0.000    2.625 
#    0.000    0.000    0.000    0.000    0.000    0.625 
#
# Total GULP energy -792922.020773 kJ/mol
# GULP energy per Si atom -12389.406575 kJ/mol
# Density = 1.509773 g / cm^3
# Si number density = 15.132169 Si / 1000 Ang^3
#
#
#
# Elastic Constant Matrix: (Units=GPa)
#
#
# Indices 1 2 3 4 5 6 
#
# 1 81.1004 44.4046 40.1836 0.0000 0.0000 0.0000
# 2 44.4046 88.0212 36.0983 0.0000 0.0000 0.0000
# 3 40.1836 36.0983 57.3988 0.0000 0.0000 0.0000
# 4 0.0000 0.0000 0.0000 22.0896 0.0000 0.0000
# 5 0.0000 0.0000 0.0000 0.0000 0.1833 0.0000
# 6 0.0000 0.0000 0.0000 0.0000 0.0000 22.1814
#
#
#
# Elastic Compliance Matrix: (Units=1/GPa)
#
#
# Indices 1 2 3 4 5 6 
#
# 1 0.021113 -0.006184 -0.010891 0.000000 0.000000 0.000000
# 2 -0.006184 0.017121 -0.006438 0.000000 0.000000 0.000000
# 3 -0.010891 -0.006438 0.029096 0.000000 0.000000 0.000000
# 4 0.000000 0.000000 0.000000 0.045270 0.000000 0.000000
# 5 0.000000 0.000000 0.000000 0.000000 5.456283 0.000000
# 6 0.000000 0.000000 0.000000 0.000000 0.000000 0.045083
#
#
# Mechanical properties :
#
#
# Convention : Reuss Voigt Hill
#
# Bulk Modulus (GPa) = 49.25551 51.98815 50.62183
# Shear Modulus (GPa) = 0.88218 15.94646 8.41432
#
# Velocity S-wave (km/s) = 0.76436 3.24977 2.36064
# Velocity P-wave (km/s) = 5.77926 6.96505 6.39968
#
# Compressibility (1/GPa) = 0.02030230
#
# Stress axis : x y z
#
# Youngs Moduli (GPa) = 47.36442 58.40777 34.36951
#
# Poissons Ratio (x) = 0.36121 0.37433
# Poissons Ratio (y) = 0.29292 0.22127
# Poissons Ratio (z) = 0.51586 0.37603
#
# Static dielectric constant tensor:
#      x y z
#    x 2.979430 0.000000 0.000000 
#    y 0.000000 3.019310 0.000000 
#    z 0.000000 0.000000 2.748000 
# 
# 
# High freq. dielectric constant tensor:
#      x y z
#    x 1.556540 0.000000 0.000000 
#    y 0.000000 1.591440 0.000000 
#    z 0.000000 0.000000 1.544980 
# 
# From -- ./inp_files/8262.got.cif
#   From: 2010.03.12/outbox.cif.g09.slc.cpg/sg47_5_cif.got.tgz:8262.got - 2010.04.14 03:12:58.
