data_PCOD8196794
_publ_section_title
;
Structure prediction by ZEFSAII (Michael W. Deem and Ramdas Pophale) SiO2 
 PCOD8196794
Probable space group: P M M M
;
_chemical_formula_sum "Si O2"
_cell_formula_units_Z 48
_cell_length_a 9.206228
_cell_length_b 9.849998
_cell_length_c 30.873846
_cell_angle_alpha 90.000000
_cell_angle_beta 90.000000
_cell_angle_gamma 90.000000
_cell_volume 2799.681337
_symmetry_space_group_name_H-M "P M M M"
_symmetry_group_IT_number 47
_symmetry_cell_setting 'orthorhombic'
loop_
_space_group_symop_operation_xyz
x,y,z
-x,-y,z
x,-y,-z
-x,y,-z
-x,-y,-z
x,y,-z
-x,y,z
x,-y,z
loop_
_atom_site_type_symbol
_atom_site_label
_atom_site_fract_x
_atom_site_fract_y
_atom_site_fract_z
Si Si1 0.337444 0.338626 0.871085
Si Si2 0.668221 0.841310 0.281962
Si Si3 0.829220 0.342802 0.214265
Si Si4 0.836849 0.661468 0.047780
Si Si5 0.672764 0.651681 0.548022
Si Si6 0.327891 0.149613 0.620195
O O1 0.500000 0.280152 0.866592
O O2 0.339726 0.500000 0.873677
O O3 0.243979 0.291178 0.830036
O O4 0.267099 0.277771 0.915023
O O5 0.500000 0.806722 0.272773
O O6 0.769990 0.748677 0.252836
O O7 0.710815 0.803671 0.331245
O O8 0.697820 0.000000 0.272907
O O9 0.790429 0.500000 0.223579
O O10 0.000000 0.321569 0.209608
O O11 0.837412 0.500000 0.050475
O O12 0.000000 0.715611 0.055616
O O13 0.781652 0.707419 0.000000
O O14 0.719724 0.701988 0.500000
O O15 0.500000 0.651398 0.551391
O O16 0.732119 0.500000 0.556123
O O17 0.741156 0.748662 0.584808
O O18 0.500000 0.144117 0.615272
O O19 0.263287 0.000000 0.611303
#
# Coordination Sequence:
#
# PCOD8196794 Si02
#       6
#     8   8   8   8   8   8
#     4   9  16  25  38  57  82 112 146 185 227 269
#     4   9  18  32  48  66  89 116 148 188 231 274
#     4  10  20  32  46  65  89 117 150 187 227 274
#     4   8  13  21  33  50  76 112 149 182 220 267
#     4   8  13  20  30  48  77 111 144 176 210 251
#     4   8  14  24  37  54  77 106 140 177 217 260
#
# _framework density 17.144808999999999
#
# number of rings (size 3 to 8) (size 9 to 14) (size 15 to 20)
#    0.000    3.333    0.000    3.000    0.000    4.667 
#    0.000    5.000    0.000    0.000    0.000    0.000 
#    0.000    1.333    0.000   14.333    0.000   21.667 
#
# Total GULP energy -594883.587945 kJ/mol
# GULP energy per Si atom -12393.408082 kJ/mol
# Density = 1.710579 g / cm^3
# Si number density = 17.144809 Si / 1000 Ang^3
#
#
#
# Elastic Constant Matrix: (Units=GPa)
#
#
# Indices 1 2 3 4 5 6 
#
# 1 72.6228 31.5735 60.6356 0.0000 0.0000 0.0000
# 2 31.5735 52.0201 64.1395 0.0000 0.0000 0.0000
# 3 60.6356 64.1395 165.9581 0.0000 0.0000 0.0000
# 4 0.0000 0.0000 0.0000 3.4294 0.0000 0.0000
# 5 0.0000 0.0000 0.0000 0.0000 7.9999 0.0000
# 6 0.0000 0.0000 0.0000 0.0000 0.0000 13.6481
#
#
#
# Elastic Compliance Matrix: (Units=1/GPa)
#
#
# Indices 1 2 3 4 5 6 
#
# 1 0.020818 -0.006222 -0.005201 0.000000 0.000000 0.000000
# 2 -0.006222 0.038582 -0.012638 0.000000 0.000000 0.000000
# 3 -0.005201 -0.012638 0.012810 0.000000 0.000000 0.000000
# 4 0.000000 0.000000 0.000000 0.291596 0.000000 0.000000
# 5 0.000000 0.000000 0.000000 0.000000 0.125002 0.000000
# 6 0.000000 0.000000 0.000000 0.000000 0.000000 0.073270
#
#
# Mechanical properties :
#
#
# Convention : Reuss Voigt Hill
#
# Bulk Modulus (GPa) = 41.51548 67.03314 54.27431
# Shear Modulus (GPa) = 8.08761 13.96564 11.02662
#
# Velocity S-wave (km/s) = 2.17428 2.85716 2.53878
# Velocity P-wave (km/s) = 5.52906 7.07585 6.34973
#
# Compressibility (1/GPa) = 0.02408740
#
# Stress axis : x y z
#
# Youngs Moduli (GPa) = 48.03596 25.91885 78.06210
#
# Poissons Ratio (x) = 0.16127 0.40603
# Poissons Ratio (y) = 0.29888 0.98654
# Poissons Ratio (z) = 0.24985 0.32756
#
# Static dielectric constant tensor:
#      x y z
#    x 2.947660 0.000000 0.000000 
#    y 0.000000 3.011330 0.000000 
#    z 0.000000 0.000000 3.506220 
# 
# 
# High freq. dielectric constant tensor:
#      x y z
#    x 1.627450 0.000000 0.000000 
#    y 0.000000 1.618890 0.000000 
#    z 0.000000 0.000000 1.678350 
# 
# From -- ./inp_files/13172.got.cif
#   From: 2010.03.12/outbox.cif.g09.slc.cpg/sg47_7_cif.got.tgz:13172.got - 2010.04.14 03:12:58.
