data_PCOD8196043
_publ_section_title
;
Structure prediction by ZEFSAII (Michael W. Deem and Ramdas Pophale) SiO2 
 PCOD8196043
Probable space group: P M M M
;
_chemical_formula_sum "Si O2"
_cell_formula_units_Z 48
_cell_length_a 10.034655
_cell_length_b 27.897933
_cell_length_c 8.990184
_cell_angle_alpha 90.000000
_cell_angle_beta 90.000000
_cell_angle_gamma 90.000000
_cell_volume 2516.767245
_symmetry_space_group_name_H-M "P M M M"
_symmetry_group_IT_number 47
_symmetry_cell_setting 'orthorhombic'
loop_
_space_group_symop_operation_xyz
x,y,z
-x,-y,z
x,-y,-z
-x,y,-z
-x,-y,-z
x,y,-z
-x,y,z
x,-y,z
loop_
_atom_site_type_symbol
_atom_site_label
_atom_site_fract_x
_atom_site_fract_y
_atom_site_fract_z
Si Si1 0.500000 0.055776 0.664325
Si Si2 0.845527 0.291327 0.325224
Si Si3 0.000000 0.945634 0.176269
Si Si4 0.654728 0.796340 0.326339
Si Si5 0.246196 0.386650 0.176532
Si Si6 0.500000 0.445413 0.823129
Si Si7 0.000000 0.552770 0.823235
Si Si8 0.733745 0.105842 0.823584
O O1 0.500000 0.080633 0.500000
O O2 0.627512 0.069836 0.757654
O O3 0.500000 0.000000 0.641913
O O4 0.844161 0.300166 0.500000
O O5 0.755247 0.246022 0.280932
O O6 0.769348 0.334808 0.247552
O O7 0.000000 0.285375 0.270017
O O8 0.125702 0.914994 0.232219
O O9 0.000000 0.000000 0.242700
O O10 0.000000 0.949617 0.000000
O O11 0.665965 0.807882 0.500000
O O12 0.500000 0.784437 0.284713
O O13 0.707985 0.841167 0.235053
O O14 0.375319 0.414766 0.234497
O O15 0.126896 0.419163 0.235454
O O16 0.247009 0.380354 0.000000
O O17 0.500000 0.500000 0.758733
O O18 0.500000 0.449014 0.000000
O O19 0.000000 0.500000 0.752708
O O20 0.000000 0.549435 0.000000
O O21 0.722716 0.106465 0.000000
#
# Coordination Sequence:
#
# PCOD8196043 Si02
#       8
#     4   8   4   8   8   4   4   8
#     4  11  23  39  60  87 120 157 196 239 286 341
#     4  10  22  39  58  81 110 148 189 230 283 341
#     4   9  20  38  58  85 122 158 191 231 282 339
#     4  10  22  40  60  82 112 149 188 232 285 346
#     4  10  19  33  54  81 110 141 181 230 279 327
#     4   9  18  32  52  81 114 145 180 225 276 331
#     4   9  16  28  50  77 104 138 179 221 272 335
#     4  11  22  38  62  90 119 153 194 241 293 344
#
# _framework density 19.072085000000001
#
# number of rings (size 3 to 8) (size 9 to 14) (size 15 to 20)
#    0.000    2.000    1.667    1.750    2.333    4.000 
#    0.000    1.250    0.000    6.000    0.000    0.000 
#    0.000    0.000    0.000    0.000    0.000    0.000 
#
# Total GULP energy -595089.440621 kJ/mol
# GULP energy per Si atom -12397.696680 kJ/mol
# Density = 1.902868 g / cm^3
# Si number density = 19.072085 Si / 1000 Ang^3
#
#
#
# Elastic Constant Matrix: (Units=GPa)
#
#
# Indices 1 2 3 4 5 6 
#
# 1 192.8509 90.5541 40.2194 0.0000 0.0000 0.0000
# 2 90.5541 150.9612 46.9471 0.0000 0.0000 0.0000
# 3 40.2194 46.9471 40.5150 0.0000 0.0000 0.0000
# 4 0.0000 0.0000 0.0000 -211.8728 0.0000 0.0000
# 5 0.0000 0.0000 0.0000 0.0000 24.8633 0.0000
# 6 0.0000 0.0000 0.0000 0.0000 0.0000 83.3896
#
#
#
# Elastic Compliance Matrix: (Units=1/GPa)
#
#
# Indices 1 2 3 4 5 6 
#
# 1 0.007523 -0.003424 -0.003501 0.000000 0.000000 0.000000
# 2 -0.003424 0.011915 -0.010407 0.000000 0.000000 0.000000
# 3 -0.003501 -0.010407 0.040216 0.000000 0.000000 0.000000
# 4 0.000000 0.000000 0.000000 -0.004720 0.000000 0.000000
# 5 0.000000 0.000000 0.000000 0.000000 0.040220 0.000000
# 6 0.000000 0.000000 0.000000 0.000000 0.000000 0.011992
#
#
# Mechanical properties :
#
#
# Convention : Reuss Voigt Hill
#
# Bulk Modulus (GPa) = 40.01464 82.19646 61.10555
# Shear Modulus (GPa) = 33.30222 -6.95022 13.17600
#
# Velocity S-wave (km/s) = 4.18320 -1.91105 2.63126
# Velocity P-wave (km/s) = 6.66022 6.19047 6.42963
#
# Compressibility (1/GPa) = 0.02499085
#
# Stress axis : x y z
#
# Youngs Moduli (GPa) = 132.92138 83.93016 24.86547
#
# Poissons Ratio (x) = 0.28739 0.08704
# Poissons Ratio (y) = 0.45515 0.25877
# Poissons Ratio (z) = 0.46530 0.87346
#
# Static dielectric constant tensor:
#      x y z
#    x 2.671170 0.000000 0.000000 
#    y 0.000000 3.632140 0.000000 
#    z 0.000000 0.000000 3.229130 
# 
# 
# High freq. dielectric constant tensor:
#      x y z
#    x 1.760110 0.000000 0.000000 
#    y 0.000000 1.756060 0.000000 
#    z 0.000000 0.000000 1.711930 
# 
# From -- ./inp_files/2824.got.cif
#   From: 2010.03.12/outbox.cif.g09.slc.cpg/sg47_2_cif.got.tgz:2824.got - 2010.04.14 03:12:58.
