data_PCOD8196038
_publ_section_title
;
Structure prediction by ZEFSAII (Michael W. Deem and Ramdas Pophale) SiO2 
 PCOD8196038
Probable space group: P M M M
;
_chemical_formula_sum "Si O2"
_cell_formula_units_Z 52
_cell_length_a 8.176978
_cell_length_b 31.538649
_cell_length_c 10.883929
_cell_angle_alpha 90.000000
_cell_angle_beta 90.000000
_cell_angle_gamma 90.000000
_cell_volume 2806.865582
_symmetry_space_group_name_H-M "P M M M"
_symmetry_group_IT_number 47
_symmetry_cell_setting 'orthorhombic'
loop_
_space_group_symop_operation_xyz
x,y,z
-x,-y,z
x,-y,-z
-x,y,-z
-x,-y,-z
x,y,-z
-x,y,z
x,-y,z
loop_
_atom_site_type_symbol
_atom_site_label
_atom_site_fract_x
_atom_site_fract_y
_atom_site_fract_z
Si Si1 0.500000 0.951330 0.353834
Si Si2 0.806105 0.453065 0.500000
Si Si3 0.812759 0.756302 0.858627
Si Si4 0.180522 0.095947 0.356616
Si Si5 0.684758 0.333045 0.137655
Si Si6 0.688239 0.186946 0.639088
Si Si7 0.321834 0.500000 0.858890
Si Si8 0.189309 0.416260 0.249797
O O1 0.500000 0.945546 0.500000
O O2 0.666574 0.930161 0.298234
O O3 0.500000 0.000000 0.313334
O O4 0.727566 0.500000 0.500000
O O5 0.745514 0.426979 0.615735
O O6 0.000000 0.457915 0.500000
O O7 0.799290 0.706446 0.826779
O O8 0.716566 0.780250 0.750241
O O9 0.000000 0.770333 0.851701
O O10 0.746743 0.764796 0.000000
O O11 0.178553 0.085872 0.500000
O O12 0.203938 0.145781 0.332756
O O13 0.000000 0.083231 0.301894
O O14 0.500000 0.316883 0.153584
O O15 0.710693 0.374643 0.217180
O O16 0.723320 0.347685 0.000000
O O17 0.730519 0.204658 0.500000
O O18 0.500000 0.173017 0.640705
O O19 0.500000 0.500000 0.791566
O O20 0.219886 0.542229 0.831182
O O21 0.357221 0.500000 0.000000
O O22 0.000000 0.404516 0.242996
#
# Coordination Sequence:
#
# PCOD8196038 Si02
#       8
#     4   4   8   8   8   8   4   8
#     4   9  16  26  40  64 101 143 189 237 285 342
#     4   9  18  36  56  76 102 130 160 200 246 286
#     4  10  21  37  57  82 110 141 181 227 274 328
#     4   9  16  27  44  67  99 141 186 233 286 338
#     4  10  21  38  57  77 105 137 166 204 258 312
#     4  10  19  33  54  79 109 145 186 231 279 335
#     4  11  23  36  51  76 106 129 156 199 246 293
#     4  11  21  36  58  78  99 130 167 203 244 297
#
# _framework density 18.526002999999999
#
# number of rings (size 3 to 8) (size 9 to 14) (size 15 to 20)
#    0.000    2.077    1.538    2.538    0.000    5.538 
#    1.385    3.462    0.000    0.000    0.000    0.000 
#    0.000    1.231    0.000    3.231    0.000    3.077 
#
# Total GULP energy -644379.473960 kJ/mol
# GULP energy per Si atom -12391.912961 kJ/mol
# Density = 1.848384 g / cm^3
# Si number density = 18.526003 Si / 1000 Ang^3
#
#
#
# Elastic Constant Matrix: (Units=GPa)
#
#
# Indices 1 2 3 4 5 6 
#
# 1 91.8711 38.5832 25.8954 0.0000 0.0000 0.0000
# 2 38.5832 94.9468 45.3702 0.0000 0.0000 0.0000
# 3 25.8954 45.3702 86.5425 0.0000 0.0000 0.0000
# 4 0.0000 0.0000 0.0000 17.4972 0.0000 0.0000
# 5 0.0000 0.0000 0.0000 0.0000 20.3352 0.0000
# 6 0.0000 0.0000 0.0000 0.0000 0.0000 33.0111
#
#
#
# Elastic Compliance Matrix: (Units=1/GPa)
#
#
# Indices 1 2 3 4 5 6 
#
# 1 0.013274 -0.004665 -0.001526 0.000000 0.000000 0.000000
# 2 -0.004665 0.015692 -0.006831 0.000000 0.000000 0.000000
# 3 -0.001526 -0.006831 0.015593 0.000000 0.000000 0.000000
# 4 0.000000 0.000000 0.000000 0.057152 0.000000 0.000000
# 5 0.000000 0.000000 0.000000 0.000000 0.049176 0.000000
# 6 0.000000 0.000000 0.000000 0.000000 0.000000 0.030293
#
#
# Mechanical properties :
#
#
# Convention : Reuss Voigt Hill
#
# Bulk Modulus (GPa) = 54.01024 54.78424 54.39724
# Shear Modulus (GPa) = 23.43072 25.06946 24.25009
#
# Velocity S-wave (km/s) = 3.56019 3.68258 3.62190
# Velocity P-wave (km/s) = 6.79095 6.90779 6.84962
#
# Compressibility (1/GPa) = 0.01851501
#
# Stress axis : x y z
#
# Youngs Moduli (GPa) = 75.33452 63.72721 64.13232
#
# Poissons Ratio (x) = 0.29727 0.09789
# Poissons Ratio (y) = 0.35142 0.43807
# Poissons Ratio (z) = 0.11499 0.43530
#
# Static dielectric constant tensor:
#      x y z
#    x 3.585920 0.000000 0.000000 
#    y 0.000000 3.230760 0.000000 
#    z 0.000000 0.000000 3.271220 
# 
# 
# High freq. dielectric constant tensor:
#      x y z
#    x 1.732020 0.000000 0.000000 
#    y 0.000000 1.707980 0.000000 
#    z 0.000000 0.000000 1.684940 
# 
# From -- ./inp_files/15598.got.cif
#   From: 2010.03.12/outbox.cif.g09.slc.cpg/sg47_8_cif.got.tgz:15598.got - 2010.04.14 03:12:58.
