data_PCOD8196159
_publ_section_title
;
Structure prediction by ZEFSAII (Michael W. Deem and Ramdas Pophale) SiO2 
 PCOD8196159
Probable space group: P M M M
;
_chemical_formula_sum "Si O2"
_cell_formula_units_Z 52
_cell_length_a 28.151970
_cell_length_b 9.525861
_cell_length_c 10.560050
_cell_angle_alpha 90.000000
_cell_angle_beta 90.000000
_cell_angle_gamma 90.000000
_cell_volume 2831.907121
_symmetry_space_group_name_H-M "P M M M"
_symmetry_group_IT_number 47
_symmetry_cell_setting 'orthorhombic'
loop_
_space_group_symop_operation_xyz
x,y,z
-x,-y,z
x,-y,-z
-x,y,-z
-x,-y,-z
x,y,-z
-x,y,z
x,-y,z
loop_
_atom_site_type_symbol
_atom_site_label
_atom_site_fract_x
_atom_site_fract_y
_atom_site_fract_z
Si Si1 0.705936 0.659028 0.648803
Si Si2 0.055726 0.840945 0.500000
Si Si3 0.053305 0.500000 0.146216
Si Si4 0.443774 0.339598 0.855791
Si Si5 0.103809 0.755463 0.745068
Si Si6 0.612277 0.832486 0.351496
Si Si7 0.204240 0.836346 0.350336
Si Si8 0.949110 0.000000 0.140913
O O1 0.710063 0.644610 0.500000
O O2 0.703055 0.500000 0.707047
O O3 0.660740 0.753257 0.684481
O O4 0.751498 0.744398 0.699322
O O5 0.075034 0.755143 0.616209
O O6 0.000000 0.843200 0.500000
O O7 0.076735 0.000000 0.500000
O O8 0.089379 0.380351 0.181989
O O9 0.000000 0.500000 0.211172
O O10 0.042640 0.500000 0.000000
O O11 0.500000 0.329643 0.850318
O O12 0.427547 0.500000 0.825192
O O13 0.425312 0.232386 0.747681
O O14 0.426892 0.299503 0.000000
O O15 0.159687 0.772185 0.723405
O O16 0.084745 0.873042 0.835513
O O17 0.598267 0.804172 0.500000
O O18 0.617334 0.000000 0.329431
O O19 0.196037 0.819485 0.500000
O O20 0.212231 0.000000 0.316348
O O21 0.000000 0.000000 0.220138
O O22 0.966597 0.000000 0.000000
#
# Coordination Sequence:
#
# PCOD8196159 Si02
#       8
#     8   4   4   8   8   8   8   4
#     4   9  18  32  54  81 112 148 188 230 275 334
#     4  11  20  33  55  85 117 139 165 213 274 333
#     4  11  26  45  59  75 105 146 189 227 264 315
#     4   9  19  36  57  82 116 160 206 248 294 349
#     4  12  22  37  58  83 111 142 175 220 275 329
#     4  10  20  34  54  85 120 155 197 245 295 341
#     4  10  19  34  54  83 116 143 171 214 278 344
#     4  11  22  37  59  81 101 140 193 227 256 313
#
# _framework density 18.362183999999999
#
# number of rings (size 3 to 8) (size 9 to 14) (size 15 to 20)
#    0.000    1.769    2.308    3.231    1.077    5.231 
#    0.000    3.077    0.000    1.846    0.000    0.000 
#    0.000    0.000    0.000    0.000    0.000    0.000 
#
# Total GULP energy -644205.465153 kJ/mol
# GULP energy per Si atom -12388.566638 kJ/mol
# Density = 1.832039 g / cm^3
# Si number density = 18.362184 Si / 1000 Ang^3
#
#
#
# Elastic Constant Matrix: (Units=GPa)
#
#
# Indices 1 2 3 4 5 6 
#
# 1 102.2659 58.8294 37.9849 0.0000 0.0000 0.0000
# 2 58.8294 153.1623 43.8442 0.0000 0.0000 0.0000
# 3 37.9849 43.8442 75.9176 0.0000 0.0000 0.0000
# 4 0.0000 0.0000 0.0000 26.1214 0.0000 0.0000
# 5 0.0000 0.0000 0.0000 0.0000 26.0108 0.0000
# 6 0.0000 0.0000 0.0000 0.0000 0.0000 30.4244
#
#
#
# Elastic Compliance Matrix: (Units=1/GPa)
#
#
# Indices 1 2 3 4 5 6 
#
# 1 0.013771 -0.003974 -0.004595 0.000000 0.000000 0.000000
# 2 -0.003974 0.008969 -0.003191 0.000000 0.000000 0.000000
# 3 -0.004595 -0.003191 0.017315 0.000000 0.000000 0.000000
# 4 0.000000 0.000000 0.000000 0.038283 0.000000 0.000000
# 5 0.000000 0.000000 0.000000 0.000000 0.038446 0.000000
# 6 0.000000 0.000000 0.000000 0.000000 0.000000 0.032868
#
#
# Mechanical properties :
#
#
# Convention : Reuss Voigt Hill
#
# Bulk Modulus (GPa) = 60.48392 68.07367 64.27880
# Shear Modulus (GPa) = 27.98227 29.22379 28.60303
#
# Velocity S-wave (km/s) = 3.90796 3.99371 3.95107
# Velocity P-wave (km/s) = 7.30574 7.64327 7.47641
#
# Compressibility (1/GPa) = 0.01653332
#
# Stress axis : x y z
#
# Youngs Moduli (GPa) = 72.61407 111.49446 57.75501
#
# Poissons Ratio (x) = 0.44309 0.26540
# Poissons Ratio (y) = 0.28858 0.18432
# Poissons Ratio (z) = 0.33368 0.35582
#
# Static dielectric constant tensor:
#      x y z
#    x 3.398720 0.000000 0.000000 
#    y 0.000000 4.143730 0.000000 
#    z 0.000000 0.000000 3.280050 
# 
# 
# High freq. dielectric constant tensor:
#      x y z
#    x 1.714200 0.000000 0.000000 
#    y 0.000000 1.723090 0.000000 
#    z 0.000000 0.000000 1.688670 
# 
# From -- ./inp_files/19828.got.cif
#   From: 2010.03.12/outbox.cif.g09.slc.cpg/sg47_10_cif.got.tgz:19828.got - 2010.04.14 03:12:58.
