data_PCOD8196854
_publ_section_title
;
Structure prediction by ZEFSAII (Michael W. Deem and Ramdas Pophale) SiO2 
 PCOD8196854
Probable space group: P M M M
;
_chemical_formula_sum "Si O2"
_cell_formula_units_Z 52
_cell_length_a 39.074008
_cell_length_b 7.658615
_cell_length_c 9.759942
_cell_angle_alpha 90.000000
_cell_angle_beta 90.000000
_cell_angle_gamma 90.000000
_cell_volume 2920.689813
_symmetry_space_group_name_H-M "P M M M"
_symmetry_group_IT_number 47
_symmetry_cell_setting 'orthorhombic'
loop_
_space_group_symop_operation_xyz
x,y,z
-x,-y,z
x,-y,-z
-x,y,-z
-x,-y,-z
x,y,-z
-x,y,z
x,-y,z
loop_
_atom_site_type_symbol
_atom_site_label
_atom_site_fract_x
_atom_site_fract_y
_atom_site_fract_z
Si Si1 0.596263 0.207273 0.847979
Si Si2 0.086636 0.694597 0.663162
Si Si3 0.210631 0.500000 0.337191
Si Si4 0.721064 0.500000 0.163174
Si Si5 0.038422 0.000000 0.336566
Si Si6 0.328458 0.806612 0.162679
Si Si7 0.160527 0.194312 0.337687
Si Si8 0.462090 0.792388 0.346795
O O1 0.633822 0.254430 0.786803
O O2 0.566798 0.289275 0.751979
O O3 0.592908 0.000000 0.855396
O O4 0.591615 0.287035 0.000000
O O5 0.087894 0.701112 0.500000
O O6 0.077276 0.500000 0.714299
O O7 0.123722 0.748750 0.722562
O O8 0.057968 0.828050 0.718433
O O9 0.218403 0.500000 0.500000
O O10 0.244611 0.500000 0.249048
O O11 0.189575 0.329092 0.290914
O O12 0.700095 0.329579 0.210883
O O13 0.728286 0.500000 0.000000
O O14 0.037801 0.000000 0.500000
O O15 0.000000 0.000000 0.277048
O O16 0.319229 0.000000 0.220484
O O17 0.330214 0.814438 0.000000
O O18 0.157821 0.196247 0.500000
O O19 0.169920 0.000000 0.284264
O O20 0.455573 0.721809 0.500000
O O21 0.500000 0.734329 0.296758
O O22 0.459634 0.000000 0.346285
#
# Coordination Sequence:
#
# PCOD8196854 Si02
#       8
#     8   8   4   4   4   8   8   8
#     4   8  13  22  37  56  77 103 138 178 212 244
#     4   9  14  21  34  49  69 102 144 186 226 268
#     4  10  20  32  46  68  93 111 141 190 226 255
#     4  10  20  34  52  70  91 122 149 172 222 284
#     4   9  16  22  28  44  72 106 149 197 233 267
#     4   8  15  29  48  68  89 114 147 183 216 261
#     4   9  15  25  42  61  81 110 145 182 224 268
#     4   8  13  20  30  49  81 115 142 172 213 258
#
# _framework density 17.804013000000001
#
# number of rings (size 3 to 8) (size 9 to 14) (size 15 to 20)
#    0.000    3.308    1.538    1.385    0.000    1.231 
#    0.000    3.846    0.000    0.923    0.000    0.538 
#    0.000    4.308    0.000    0.462    0.000    2.308 
#
# Total GULP energy -644385.953917 kJ/mol
# GULP energy per Si atom -12392.037575 kJ/mol
# Density = 1.776349 g / cm^3
# Si number density = 17.804013 Si / 1000 Ang^3
#
#
#
# Elastic Constant Matrix: (Units=GPa)
#
#
# Indices 1 2 3 4 5 6 
#
# 1 182.8015 81.2054 46.4268 0.0000 0.0000 0.0000
# 2 81.2054 127.2719 21.5218 0.0000 0.0000 0.0000
# 3 46.4268 21.5218 33.2690 0.0000 0.0000 0.0000
# 4 0.0000 0.0000 0.0000 4.1778 0.0000 0.0000
# 5 0.0000 0.0000 0.0000 0.0000 3.8724 0.0000
# 6 0.0000 0.0000 0.0000 0.0000 0.0000 -58.2482
#
#
#
# Elastic Compliance Matrix: (Units=1/GPa)
#
#
# Indices 1 2 3 4 5 6 
#
# 1 0.010536 -0.004757 -0.011626 0.000000 0.000000 0.000000
# 2 -0.004757 0.010970 -0.000459 0.000000 0.000000 0.000000
# 3 -0.011626 -0.000459 0.046579 0.000000 0.000000 0.000000
# 4 0.000000 0.000000 0.000000 0.239361 0.000000 0.000000
# 5 0.000000 0.000000 0.000000 0.000000 0.258240 0.000000
# 6 0.000000 0.000000 0.000000 0.000000 0.000000 -0.017168
#
#
# Mechanical properties :
#
#
# Convention : Reuss Voigt Hill
#
# Bulk Modulus (GPa) = 29.06785 71.29450 50.18117
# Shear Modulus (GPa) = 8.42221 2.90626 5.66424
#
# Velocity S-wave (km/s) = 2.17733 1.27903 1.78559
# Velocity P-wave (km/s) = 4.76267 6.50478 5.70067
#
# Compressibility (1/GPa) = 0.03440227
#
# Stress axis : x y z
#
# Youngs Moduli (GPa) = 94.91130 91.16067 21.46891
#
# Poissons Ratio (x) = 0.43361 0.24960
# Poissons Ratio (y) = 0.45145 0.00984
# Poissons Ratio (z) = 1.10345 0.04180
#
# Static dielectric constant tensor:
#      x y z
#    x 3.466790 0.000000 0.000000 
#    y 0.000000 3.517830 0.000000 
#    z 0.000000 0.000000 2.820430 
# 
# 
# High freq. dielectric constant tensor:
#      x y z
#    x 1.693300 0.000000 0.000000 
#    y 0.000000 1.689120 0.000000 
#    z 0.000000 0.000000 1.614940 
# 
# From -- ./inp_files/19908.got.cif
#   From: 2010.03.12/outbox.cif.g09.slc.cpg/sg47_10_cif.got.tgz:19908.got - 2010.04.14 03:12:58.
