data_PCOD8196373
_publ_section_title
;
Structure prediction by ZEFSAII (Michael W. Deem and Ramdas Pophale) SiO2 
 PCOD8196373
Probable space group: P M M M
;
_chemical_formula_sum "Si O2"
_cell_formula_units_Z 56
_cell_length_a 9.412122
_cell_length_b 30.254039
_cell_length_c 15.195303
_cell_angle_alpha 90.000000
_cell_angle_beta 90.000000
_cell_angle_gamma 90.000000
_cell_volume 4326.934039
_symmetry_space_group_name_H-M "P M M M"
_symmetry_group_IT_number 47
_symmetry_cell_setting 'orthorhombic'
loop_
_space_group_symop_operation_xyz
x,y,z
-x,-y,z
x,-y,-z
-x,y,-z
-x,-y,-z
x,y,-z
-x,y,z
x,-y,z
loop_
_atom_site_type_symbol
_atom_site_label
_atom_site_fract_x
_atom_site_fract_y
_atom_site_fract_z
Si Si1 0.662483 0.052430 0.739386
Si Si2 0.842319 0.794496 0.604607
Si Si3 0.840549 0.052519 0.097188
Si Si4 0.340527 0.451013 0.604641
Si Si5 0.165479 0.893508 0.602000
Si Si6 0.839643 0.369671 0.604999
Si Si7 0.660161 0.286457 0.395028
O O1 0.500000 0.067891 0.739829
O O2 0.734317 0.071065 0.828778
O O3 0.740175 0.072159 0.655086
O O4 0.676494 0.000000 0.733350
O O5 0.847372 0.792569 0.500000
O O6 0.796423 0.843734 0.633573
O O7 0.731390 0.758547 0.641650
O O8 0.000000 0.783412 0.640949
O O9 0.000000 0.069303 0.118078
O O10 0.837946 0.000000 0.098108
O O11 0.793021 0.069314 0.000000
O O12 0.339804 0.449222 0.500000
O O13 0.500000 0.440685 0.638400
O O14 0.292736 0.500000 0.636362
O O15 0.232575 0.414409 0.642417
O O16 0.203503 0.899819 0.500000
O O17 0.000000 0.903364 0.618726
O O18 0.840232 0.369892 0.500000
O O19 0.750376 0.327963 0.640373
O O20 0.000000 0.366795 0.641483
O O21 0.659067 0.286396 0.500000
O O22 0.500000 0.289574 0.358245
#
# Coordination Sequence:
#
# PCOD8196373 Si02
#       7
#     8   8   8   8   8   8   8
#     4  10  20  30  40  57  79  99 117 140 170 201
#     4   8  14  25  38  49  60  74  96 127 160 190
#     4   8  14  26  44  62  77  94 116 140 165 195
#     4   8  13  20  27  33  43  60  80 102 130 166
#     4   9  18  31  44  55  68  91 121 148 172 200
#     4   9  15  20  26  36  49  64  82 106 135 167
#     4   9  15  21  30  43  56  69  86 110 143 182
#
# _framework density 12.942189000000001
#
# number of rings (size 3 to 8) (size 9 to 14) (size 15 to 20)
#    0.000    3.286    0.000    3.000    0.000    6.000 
#    0.000    5.714    0.000    0.000    0.000    0.000 
#    0.000    0.000    0.000    0.000    0.000    0.000 
#
# Total GULP energy -694029.554144 kJ/mol
# GULP energy per Si atom -12393.384895 kJ/mol
# Density = 1.291273 g / cm^3
# Si number density = 12.942189 Si / 1000 Ang^3
#
#
#
# Elastic Constant Matrix: (Units=GPa)
#
#
# Indices 1 2 3 4 5 6 
#
# 1 103.9453 44.5163 33.6695 0.0000 0.0000 0.0000
# 2 44.5163 51.3752 21.6401 0.0000 0.0000 0.0000
# 3 33.6695 21.6401 37.3799 0.0000 0.0000 0.0000
# 4 0.0000 0.0000 0.0000 0.1912 0.0000 0.0000
# 5 0.0000 0.0000 0.0000 0.0000 10.1536 0.0000
# 6 0.0000 0.0000 0.0000 0.0000 0.0000 25.2564
#
#
#
# Elastic Compliance Matrix: (Units=1/GPa)
#
#
# Indices 1 2 3 4 5 6 
#
# 1 0.017392 -0.011203 -0.009180 0.000000 0.000000 0.000000
# 2 -0.011203 0.032959 -0.008989 0.000000 0.000000 0.000000
# 3 -0.009180 -0.008989 0.040225 0.000000 0.000000 0.000000
# 4 0.000000 0.000000 0.000000 5.229264 0.000000 0.000000
# 5 0.000000 0.000000 0.000000 0.000000 0.098487 0.000000
# 6 0.000000 0.000000 0.000000 0.000000 0.000000 0.039594
#
#
# Mechanical properties :
#
#
# Convention : Reuss Voigt Hill
#
# Bulk Modulus (GPa) = 31.41598 43.59470 37.50534
# Shear Modulus (GPa) = 0.90460 13.31189 7.10825
#
# Velocity S-wave (km/s) = 0.83694 3.21060 2.34611
# Velocity P-wave (km/s) = 5.02601 6.89212 6.03167
#
# Compressibility (1/GPa) = 0.03183093
#
# Stress axis : x y z
#
# Youngs Moduli (GPa) = 57.49806 30.34101 24.86017
#
# Poissons Ratio (x) = 0.33992 0.22821
# Poissons Ratio (y) = 0.64417 0.22348
# Poissons Ratio (z) = 0.52781 0.27274
#
# Static dielectric constant tensor:
#      x y z
#    x 2.823730 0.000000 0.000000 
#    y 0.000000 2.693520 0.000000 
#    z 0.000000 0.000000 2.152310 
# 
# 
# High freq. dielectric constant tensor:
#      x y z
#    x 1.504870 0.000000 0.000000 
#    y 0.000000 1.486110 0.000000 
#    z 0.000000 0.000000 1.414290 
# 
# From -- ./inp_files/22084.got.cif
#   From: 2010.03.12/outbox.cif.g09.slc.cpg/sg47_12_cif.got.tgz:22084.got - 2010.04.14 03:12:58.
