data_PCOD8196111
_publ_section_title
;
Structure prediction by ZEFSAII (Michael W. Deem and Ramdas Pophale) SiO2 
 PCOD8196111
Probable space group: P M M M
;
_chemical_formula_sum "Si O2"
_cell_formula_units_Z 52
_cell_length_a 12.990555
_cell_length_b 12.240186
_cell_length_c 18.314721
_cell_angle_alpha 90.000000
_cell_angle_beta 90.000000
_cell_angle_gamma 90.000000
_cell_volume 2912.165352
_symmetry_space_group_name_H-M "P M M M"
_symmetry_group_IT_number 47
_symmetry_cell_setting 'orthorhombic'
loop_
_space_group_symop_operation_xyz
x,y,z
-x,-y,z
x,-y,-z
-x,y,-z
-x,-y,-z
x,y,-z
-x,y,z
x,-y,z
loop_
_atom_site_type_symbol
_atom_site_label
_atom_site_fract_x
_atom_site_fract_y
_atom_site_fract_z
Si Si1 0.000000 0.629233 0.918558
Si Si2 0.799483 0.630870 0.170808
Si Si3 0.621965 0.000000 0.082450
Si Si4 0.122524 0.500000 0.419926
Si Si5 0.195400 0.126930 0.416452
Si Si6 0.883550 0.306625 0.678656
Si Si7 0.613975 0.124250 0.678120
Si Si8 0.619273 0.216629 0.834638
O O1 0.104231 0.668215 0.878785
O O2 0.000000 0.500000 0.921261
O O3 0.000000 0.678945 0.000000
O O4 0.789770 0.500000 0.175616
O O5 0.815598 0.686428 0.249291
O O6 0.692599 0.682386 0.140613
O O7 0.660019 0.891067 0.123529
O O8 0.500000 0.000000 0.083069
O O9 0.665616 0.000000 0.000000
O O10 0.172544 0.500000 0.500000
O O11 0.162479 0.393640 0.378081
O O12 0.000000 0.500000 0.425295
O O13 0.184159 0.167467 0.500000
O O14 0.118604 0.189681 0.361818
O O15 0.310374 0.152851 0.388370
O O16 0.167493 0.000000 0.410967
O O17 0.000000 0.335840 0.700892
O O18 0.500000 0.141857 0.646221
O O19 0.631537 0.200324 0.748014
O O20 0.629643 0.000000 0.705034
O O21 0.500000 0.243323 0.854702
#
# Coordination Sequence:
#
# PCOD8196111 Si02
#       8
#     4   8   4   4   8   8   8   8
#     4   9  20  38  60  83 107 140 183 224 267 320
#     4  11  21  35  58  83 111 147 184 230 277 328
#     4   9  18  34  58  87 114 142 179 221 267 321
#     4   9  18  30  48  72  97 127 169 226 279 314
#     4  10  21  34  49  73 105 140 180 226 283 343
#     4  11  20  33  53  75 101 135 182 229 274 327
#     4   9  16  29  50  73  99 133 176 222 265 311
#     4  10  19  33  56  85 115 147 181 222 273 327
#
# _framework density 17.856128999999999
#
# number of rings (size 3 to 8) (size 9 to 14) (size 15 to 20)
#    0.000    2.077    3.846    0.462    0.000    2.462 
#    0.000    2.308    0.000    0.462    0.000    5.385 
#    0.000    4.923    0.000    0.000    0.000    0.000 
#
# Total GULP energy -644620.435719 kJ/mol
# GULP energy per Si atom -12396.546841 kJ/mol
# Density = 1.781549 g / cm^3
# Si number density = 17.856129 Si / 1000 Ang^3
#
#
#
# Elastic Constant Matrix: (Units=GPa)
#
#
# Indices 1 2 3 4 5 6 
#
# 1 86.0435 39.9440 29.2025 0.0000 0.0000 0.0000
# 2 39.9440 74.1890 37.6102 0.0000 0.0000 0.0000
# 3 29.2025 37.6102 102.2228 0.0000 0.0000 0.0000
# 4 0.0000 0.0000 0.0000 17.5219 0.0000 0.0000
# 5 0.0000 0.0000 0.0000 0.0000 16.1193 0.0000
# 6 0.0000 0.0000 0.0000 0.0000 0.0000 29.8944
#
#
#
# Elastic Compliance Matrix: (Units=1/GPa)
#
#
# Indices 1 2 3 4 5 6 
#
# 1 0.015730 -0.007611 -0.001694 0.000000 0.000000 0.000000
# 2 -0.007611 0.020252 -0.005277 0.000000 0.000000 0.000000
# 3 -0.001694 -0.005277 0.012208 0.000000 0.000000 0.000000
# 4 0.000000 0.000000 0.000000 0.057072 0.000000 0.000000
# 5 0.000000 0.000000 0.000000 0.000000 0.062038 0.000000
# 6 0.000000 0.000000 0.000000 0.000000 0.000000 0.033451
#
#
# Mechanical properties :
#
#
# Convention : Reuss Voigt Hill
#
# Bulk Modulus (GPa) = 52.55566 52.88541 52.72054
# Shear Modulus (GPa) = 21.16363 23.08701 22.12532
#
# Velocity S-wave (km/s) = 3.44645 3.59966 3.52389
# Velocity P-wave (km/s) = 6.73306 6.85263 6.79311
#
# Compressibility (1/GPa) = 0.01902745
#
# Stress axis : x y z
#
# Youngs Moduli (GPa) = 63.57342 49.37820 81.91430
#
# Poissons Ratio (x) = 0.37579 0.13872
# Poissons Ratio (y) = 0.48383 0.43226
# Poissons Ratio (z) = 0.10766 0.26057
#
# Static dielectric constant tensor:
#      x y z
#    x 3.192790 0.000000 0.000000 
#    y 0.000000 3.184920 0.000000 
#    z 0.000000 0.000000 3.377760 
# 
# 
# High freq. dielectric constant tensor:
#      x y z
#    x 1.675280 0.000000 0.000000 
#    y 0.000000 1.676280 0.000000 
#    z 0.000000 0.000000 1.691090 
# 
# From -- ./inp_files/28218.got.cif
#   From: 2010.03.12/outbox.cif.g09.slc.cpg/sg47_15_cif.got.tgz:28218.got - 2010.04.14 03:12:58.
