data_PCOD8196795
_publ_section_title
;
Structure prediction by ZEFSAII (Michael W. Deem and Ramdas Pophale) SiO2 
 PCOD8196795
Probable space group: P M M M
;
_chemical_formula_sum "Si O2"
_cell_formula_units_Z 52
_cell_length_a 9.264937
_cell_length_b 18.471180
_cell_length_c 18.313430
_cell_angle_alpha 90.000000
_cell_angle_beta 90.000000
_cell_angle_gamma 90.000000
_cell_volume 3134.056372
_symmetry_space_group_name_H-M "P M M M"
_symmetry_group_IT_number 47
_symmetry_cell_setting 'orthorhombic'
loop_
_space_group_symop_operation_xyz
x,y,z
-x,-y,z
x,-y,-z
-x,y,-z
-x,-y,-z
x,y,-z
-x,y,z
x,-y,z
loop_
_atom_site_type_symbol
_atom_site_label
_atom_site_fract_x
_atom_site_fract_y
_atom_site_fract_z
Si Si1 0.334011 0.917681 0.333208
Si Si2 0.840678 0.706891 0.714364
Si Si3 0.667904 0.210416 0.915980
Si Si4 0.162048 0.858876 0.795561
Si Si5 0.668203 0.358133 0.164150
Si Si6 0.327803 0.500000 0.082421
Si Si7 0.831028 0.202445 0.583350
O O1 0.500000 0.893163 0.323112
O O2 0.253589 0.912533 0.255349
O O3 0.259436 0.868098 0.394357
O O4 0.324344 0.000000 0.361020
O O5 0.842507 0.781379 0.758027
O O6 0.737815 0.650105 0.755341
O O7 0.786621 0.727576 0.632530
O O8 0.000000 0.672283 0.711597
O O9 0.500000 0.193537 0.903968
O O10 0.759458 0.149490 0.873625
O O11 0.705502 0.290592 0.887516
O O12 0.712704 0.206419 0.000000
O O13 0.000000 0.889400 0.806868
O O14 0.500000 0.366035 0.177924
O O15 0.730483 0.429312 0.124585
O O16 0.500000 0.500000 0.079629
O O17 0.266191 0.500000 0.000000
O O18 0.797041 0.222336 0.500000
O O19 0.000000 0.184633 0.596170
#
# Coordination Sequence:
#
# PCOD8196795 Si02
#       7
#     8   8   8   8   8   4   8
#     4  10  20  32  46  65  90 119 147 175 212 260
#     4   8  15  28  44  62  85 112 143 180 219 256
#     4   9  16  26  42  64  88 113 143 182 228 271
#     4   9  17  29  45  63  83 111 148 186 221 259
#     4   9  16  26  42  63  87 118 153 183 213 257
#     4   9  16  26  41  63  92 123 154 186 217 253
#     4   9  18  32  49  69  92 117 145 178 217 260
#
# _framework density 16.591916000000001
#
# number of rings (size 3 to 8) (size 9 to 14) (size 15 to 20)
#    0.000    3.000    0.000    2.308    0.000    7.692 
#    0.000    1.923    0.000    2.308    0.000    3.769 
#    0.000    4.308    0.000    0.000    0.000    0.000 
#
# Total GULP energy -644613.466054 kJ/mol
# GULP energy per Si atom -12396.412809 kJ/mol
# Density = 1.655415 g / cm^3
# Si number density = 16.591916 Si / 1000 Ang^3
#
#
#
# Elastic Constant Matrix: (Units=GPa)
#
#
# Indices 1 2 3 4 5 6 
#
# 1 69.4978 26.3766 51.7601 0.0000 0.0000 0.0000
# 2 26.3766 49.5325 44.6354 0.0000 0.0000 0.0000
# 3 51.7601 44.6354 145.4714 0.0000 0.0000 0.0000
# 4 0.0000 0.0000 0.0000 20.6277 0.0000 0.0000
# 5 0.0000 0.0000 0.0000 0.0000 27.8086 0.0000
# 6 0.0000 0.0000 0.0000 0.0000 0.0000 15.1274
#
#
#
# Elastic Compliance Matrix: (Units=1/GPa)
#
#
# Indices 1 2 3 4 5 6 
#
# 1 0.020830 -0.006100 -0.005540 0.000000 0.000000 0.000000
# 2 -0.006100 0.029691 -0.006940 0.000000 0.000000 0.000000
# 3 -0.005540 -0.006940 0.010975 0.000000 0.000000 0.000000
# 4 0.000000 0.000000 0.000000 0.048478 0.000000 0.000000
# 5 0.000000 0.000000 0.000000 0.000000 0.035960 0.000000
# 6 0.000000 0.000000 0.000000 0.000000 0.000000 0.066105
#
#
# Mechanical properties :
#
#
# Convention : Reuss Voigt Hill
#
# Bulk Modulus (GPa) = 41.09090 56.67175 48.88132
# Shear Modulus (GPa) = 19.43179 22.16137 20.79658
#
# Velocity S-wave (km/s) = 3.42593 3.65865 3.54420
# Velocity P-wave (km/s) = 6.36150 7.21651 6.80245
#
# Compressibility (1/GPa) = 0.02433629
#
# Stress axis : x y z
#
# Youngs Moduli (GPa) = 48.00760 33.68060 91.11932
#
# Poissons Ratio (x) = 0.20546 0.50478
# Poissons Ratio (y) = 0.29285 0.63233
# Poissons Ratio (z) = 0.26595 0.23373
#
# Static dielectric constant tensor:
#      x y z
#    x 3.184650 0.000000 0.000000 
#    y 0.000000 2.894460 0.000000 
#    z 0.000000 0.000000 3.306310 
# 
# 
# High freq. dielectric constant tensor:
#      x y z
#    x 1.635440 0.000000 0.000000 
#    y 0.000000 1.601030 0.000000 
#    z 0.000000 0.000000 1.637080 
# 
# From -- ./inp_files/9537.got.cif
#   From: 2010.03.12/outbox.cif.g09.slc.cpg/sg47_5_cif.got.tgz:9537.got - 2010.04.14 03:12:58.
