data_PCOD8196466
_publ_section_title
;
Structure prediction by ZEFSAII (Michael W. Deem and Ramdas Pophale) SiO2 
 PCOD8196466
Probable space group: P M M M
;
_chemical_formula_sum "Si O2"
_cell_formula_units_Z 64
_cell_length_a 9.147969
_cell_length_b 19.690038
_cell_length_c 19.394217
_cell_angle_alpha 90.000000
_cell_angle_beta 90.000000
_cell_angle_gamma 90.000000
_cell_volume 3493.361174
_symmetry_space_group_name_H-M "P M M M"
_symmetry_group_IT_number 47
_symmetry_cell_setting 'orthorhombic'
loop_
_space_group_symop_operation_xyz
x,y,z
-x,-y,z
x,-y,-z
-x,y,-z
-x,-y,-z
x,y,-z
-x,y,z
x,-y,z
loop_
_atom_site_type_symbol
_atom_site_label
_atom_site_fract_x
_atom_site_fract_y
_atom_site_fract_z
Si Si1 0.158201 0.425661 0.854289
Si Si2 0.329482 0.921906 0.659045
Si Si3 0.673023 0.714286 0.682113
Si Si4 0.171860 0.183450 0.923089
Si Si5 0.661331 0.319010 0.923336
Si Si6 0.669184 0.829317 0.213334
Si Si7 0.162777 0.424914 0.692719
Si Si8 0.831583 0.187090 0.419414
O O1 0.186624 0.500000 0.886067
O O2 0.293764 0.379104 0.873459
O O3 0.151268 0.430950 0.773437
O O4 0.000000 0.398301 0.881507
O O5 0.500000 0.912909 0.641778
O O6 0.291234 0.887280 0.731881
O O7 0.236535 0.886189 0.599095
O O8 0.282832 0.000000 0.662955
O O9 0.500000 0.715121 0.672214
O O10 0.712757 0.754899 0.753880
O O11 0.727653 0.636788 0.676531
O O12 0.744402 0.753691 0.618743
O O13 0.218627 0.261152 0.917848
O O14 0.247448 0.148592 0.857047
O O15 0.000000 0.176536 0.914258
O O16 0.218436 0.155129 0.000000
O O17 0.500000 0.292040 0.901238
O O18 0.656387 0.348743 0.000000
O O19 0.500000 0.829854 0.194504
O O20 0.215905 0.500000 0.664647
O O21 0.000000 0.409099 0.662664
O O22 0.814850 0.199841 0.500000
O O23 0.000000 0.188534 0.396050
#
# Coordination Sequence:
#
# PCOD8196466 Si02
#       8
#     8   8   8   8   8   8   8   8
#     4   9  18  31  45  61  82 112 151 193 240 297
#     4   9  19  36  57  82 112 144 176 209 247 294
#     4  10  20  33  52  78 105 135 173 216 261 309
#     4  10  20  32  47  68  93 123 162 208 257 306
#     4  10  20  31  42  58  82 113 150 194 246 302
#     4   9  18  32  51  76 103 132 169 212 257 305
#     4   9  18  32  49  70  97 128 163 207 259 311
#     4  10  21  36  55  81 112 145 179 211 245 291
#
# _framework density 18.320464999999999
#
# number of rings (size 3 to 8) (size 9 to 14) (size 15 to 20)
#    0.000    2.500    0.000    3.750    0.000    8.750 
#    0.000    3.750    0.000    0.750    0.000    5.250 
#    0.000    0.000    0.000    0.000    0.000    0.000 
#
# Total GULP energy -792988.960748 kJ/mol
# GULP energy per Si atom -12390.452512 kJ/mol
# Density = 1.827877 g / cm^3
# Si number density = 18.320465 Si / 1000 Ang^3
#
#
#
# Elastic Constant Matrix: (Units=GPa)
#
#
# Indices 1 2 3 4 5 6 
#
# 1 82.1613 36.3167 40.9512 0.0000 0.0000 0.0000
# 2 36.3167 95.3961 21.4136 0.0000 0.0000 0.0000
# 3 40.9512 21.4136 72.3549 0.0000 0.0000 0.0000
# 4 0.0000 0.0000 0.0000 14.4155 0.0000 0.0000
# 5 0.0000 0.0000 0.0000 0.0000 28.6237 0.0000
# 6 0.0000 0.0000 0.0000 0.0000 0.0000 23.7163
#
#
#
# Elastic Compliance Matrix: (Units=1/GPa)
#
#
# Indices 1 2 3 4 5 6 
#
# 1 0.019080 -0.005184 -0.009265 0.000000 0.000000 0.000000
# 2 -0.005184 0.012637 -0.000806 0.000000 0.000000 0.000000
# 3 -0.009265 -0.000806 0.019303 0.000000 0.000000 0.000000
# 4 0.000000 0.000000 0.000000 0.069370 0.000000 0.000000
# 5 0.000000 0.000000 0.000000 0.000000 0.034936 0.000000
# 6 0.000000 0.000000 0.000000 0.000000 0.000000 0.042165
#
#
# Mechanical properties :
#
#
# Convention : Reuss Voigt Hill
#
# Bulk Modulus (GPa) = 48.75481 49.69725 49.22603
# Shear Modulus (GPa) = 21.29126 23.43316 22.36221
#
# Velocity S-wave (km/s) = 3.41274 3.58029 3.49752
# Velocity P-wave (km/s) = 6.49608 6.65408 6.57556
#
# Compressibility (1/GPa) = 0.02051080
#
# Stress axis : x y z
#
# Youngs Moduli (GPa) = 52.40959 79.13231 51.80551
#
# Poissons Ratio (x) = 0.41023 0.47997
# Poissons Ratio (y) = 0.27170 0.04175
# Poissons Ratio (z) = 0.48557 0.06377
#
# Static dielectric constant tensor:
#      x y z
#    x 3.545130 0.000000 0.000000 
#    y 0.000000 3.370890 0.000000 
#    z 0.000000 0.000000 3.323800 
# 
# 
# High freq. dielectric constant tensor:
#      x y z
#    x 1.714760 0.000000 0.000000 
#    y 0.000000 1.692980 0.000000 
#    z 0.000000 0.000000 1.696270 
# 
# From -- ./inp_files/27062.got.cif
#   From: 2010.03.12/outbox.cif.g09.slc.cpg/sg47_14_cif.got.tgz:27062.got - 2010.04.14 03:12:58.
