data_PCOD8196337
_publ_section_title
;
Structure prediction by ZEFSAII (Michael W. Deem and Ramdas Pophale) SiO2 
 PCOD8196337
Probable space group: P M M M
;
_chemical_formula_sum "Si O2"
_cell_formula_units_Z 64
_cell_length_a 9.067535
_cell_length_b 23.763943
_cell_length_c 15.147569
_cell_angle_alpha 90.000000
_cell_angle_beta 90.000000
_cell_angle_gamma 90.000000
_cell_volume 3264.003998
_symmetry_space_group_name_H-M "P M M M"
_symmetry_group_IT_number 47
_symmetry_cell_setting 'orthorhombic'
loop_
_space_group_symop_operation_xyz
x,y,z
-x,-y,z
x,-y,-z
-x,y,-z
-x,-y,-z
x,y,-z
-x,y,z
x,-y,z
loop_
_atom_site_type_symbol
_atom_site_label
_atom_site_fract_x
_atom_site_fract_y
_atom_site_fract_z
Si Si1 0.332150 0.741416 0.146024
Si Si2 0.672692 0.434545 0.250001
Si Si3 0.168479 0.632502 0.900600
Si Si4 0.831521 0.367497 0.400600
Si Si5 0.667850 0.258583 0.353975
Si Si6 0.670998 0.133999 0.398744
Si Si7 0.329003 0.134000 0.101256
Si Si8 0.173072 0.065110 0.250000
O O1 0.500000 0.733277 0.113201
O O2 0.229614 0.695766 0.099812
O O3 0.320744 0.733492 0.250000
O O4 0.273321 0.802538 0.117620
O O5 0.500000 0.422156 0.250000
O O6 0.710520 0.500000 0.250002
O O7 0.738638 0.407835 0.162032
O O8 0.738638 0.407833 0.337968
O O9 0.000000 0.633298 0.867915
O O10 0.180419 0.608808 0.000000
O O11 0.819582 0.391191 0.500000
O O12 0.770386 0.304233 0.400189
O O13 0.000000 0.366701 0.367915
O O14 0.500000 0.266722 0.386799
O O15 0.726679 0.197461 0.382378
O O16 0.697048 0.116687 0.500000
O O17 0.500000 0.129731 0.371790
O O18 0.762051 0.091880 0.338461
O O19 0.500000 0.129732 0.128211
O O20 0.237948 0.091881 0.161539
O O21 0.302955 0.116687 0.000000
O O22 0.000000 0.075144 0.250000
O O23 0.215842 0.000000 0.249998
#
# Coordination Sequence:
#
# PCOD8196337 Si02
#       8
#     8   8   8   8   8   8   8   8
#     4  10  19  35  62  92 122 156 193 238 293 351
#     4  11  25  44  65  88 115 154 204 253 298 345
#     4  11  24  40  61  91 125 160 196 238 293 354
#     4  11  24  40  61  91 125 160 196 238 293 354
#     4  10  19  35  62  92 122 156 193 238 293 351
#     4  10  21  39  64  91 118 152 196 246 297 348
#     4  10  21  39  64  91 118 152 196 246 297 348
#     4  11  25  42  59  82 117 160 200 243 296 353
#
# _framework density 19.607818999999999
#
# number of rings (size 3 to 8) (size 9 to 14) (size 15 to 20)
#    0.000    1.500    2.500    2.250    0.000    7.500 
#    0.000    5.000    0.000    0.000    0.000    0.000 
#    0.000    0.000    0.000    0.000    0.000    0.000 
#
# Total GULP energy -793934.576474 kJ/mol
# GULP energy per Si atom -12405.227757 kJ/mol
# Density = 1.956319 g / cm^3
# Si number density = 19.607819 Si / 1000 Ang^3
#
#
#
# Elastic Constant Matrix: (Units=GPa)
#
#
# Indices 1 2 3 4 5 6 
#
# 1 98.8409 86.2818 50.8715 0.0000 0.0000 0.0000
# 2 86.2818 147.0767 62.9376 0.0000 0.0000 0.0000
# 3 50.8715 62.9376 113.0922 0.0000 0.0000 0.0000
# 4 0.0000 0.0000 0.0000 4.7296 0.0000 0.0000
# 5 0.0000 0.0000 0.0000 0.0000 38.2223 0.0000
# 6 0.0000 0.0000 0.0000 0.0000 0.0000 -52.1086
#
#
#
# Elastic Compliance Matrix: (Units=1/GPa)
#
#
# Indices 1 2 3 4 5 6 
#
# 1 0.021755 -0.011255 -0.003522 0.000000 0.000000 0.000000
# 2 -0.011255 0.014748 -0.003144 0.000000 0.000000 0.000000
# 3 -0.003522 -0.003144 0.012177 0.000000 0.000000 0.000000
# 4 0.000000 0.000000 0.000000 0.211434 0.000000 0.000000
# 5 0.000000 0.000000 0.000000 0.000000 0.026163 0.000000
# 6 0.000000 0.000000 0.000000 0.000000 0.000000 -0.019191
#
#
# Mechanical properties :
#
#
# Convention : Reuss Voigt Hill
#
# Bulk Modulus (GPa) = 77.90838 84.35460 81.13149
# Shear Modulus (GPa) = 16.27562 8.76325 12.51944
#
# Velocity S-wave (km/s) = 2.88420 2.11636 2.52958
# Velocity P-wave (km/s) = 7.13520 7.00616 7.07097
#
# Compressibility (1/GPa) = 0.01283559
#
# Stress axis : x y z
#
# Youngs Moduli (GPa) = 45.96560 67.80737 82.12460
#
# Poissons Ratio (x) = 0.76320 0.28926
# Poissons Ratio (y) = 0.51736 0.25823
# Poissons Ratio (z) = 0.16190 0.21321
#
# Static dielectric constant tensor:
#      x y z
#    x 3.598000 0.000000 0.000000 
#    y 0.000000 3.561350 0.000000 
#    z 0.000000 0.000000 3.626100 
# 
# 
# High freq. dielectric constant tensor:
#      x y z
#    x 1.762520 0.000000 0.000000 
#    y 0.000000 1.761920 0.000000 
#    z 0.000000 0.000000 1.780180 
# 
# From -- ./inp_files/7816.got.cif
#   From: 2010.03.12/outbox.cif.g09.slc.cpg/sg47_4_cif.got.tgz:7816.got - 2010.04.14 03:12:58.
