data_PCOD8196384
_publ_section_title
;
Structure prediction by ZEFSAII (Michael W. Deem and Ramdas Pophale) SiO2 
 PCOD8196384
Probable space group: P M M M
;
_chemical_formula_sum "Si O2"
_cell_formula_units_Z 64
_cell_length_a 9.289785
_cell_length_b 15.134979
_cell_length_c 29.559536
_cell_angle_alpha 90.000000
_cell_angle_beta 90.000000
_cell_angle_gamma 90.000000
_cell_volume 4156.091480
_symmetry_space_group_name_H-M "P M M M"
_symmetry_group_IT_number 47
_symmetry_cell_setting 'orthorhombic'
loop_
_space_group_symop_operation_xyz
x,y,z
-x,-y,z
x,-y,-z
-x,y,-z
-x,-y,-z
x,y,-z
-x,y,z
x,-y,z
loop_
_atom_site_type_symbol
_atom_site_label
_atom_site_fract_x
_atom_site_fract_y
_atom_site_fract_z
Si Si1 0.667919 0.397909 0.613003
Si Si2 0.834292 0.736623 0.446668
Si Si3 0.338567 0.902942 0.553745
Si Si4 0.338144 0.097732 0.053742
Si Si5 0.838389 0.394934 0.797713
Si Si6 0.668069 0.603700 0.886005
Si Si7 0.339864 0.394824 0.286145
Si Si8 0.835301 0.265075 0.946289
O O1 0.500000 0.381673 0.603993
O O2 0.707623 0.500000 0.606929
O O3 0.759369 0.346039 0.576417
O O4 0.709281 0.365373 0.663664
O O5 0.809693 0.727426 0.500000
O O6 0.767207 0.827750 0.427460
O O7 0.000000 0.736976 0.433379
O O8 0.335568 0.902816 0.500000
O O9 0.500000 0.882609 0.570942
O O10 0.288939 0.000000 0.571255
O O11 0.500000 0.118312 0.070957
O O12 0.229917 0.172518 0.072308
O O13 0.289593 0.000000 0.070845
O O14 0.336243 0.098654 0.000000
O O15 0.841235 0.500000 0.795808
O O16 0.741486 0.363392 0.839635
O O17 0.769600 0.356868 0.751379
O O18 0.000000 0.357179 0.802795
O O19 0.500000 0.627329 0.884080
O O20 0.692630 0.500000 0.893800
O O21 0.743528 0.653516 0.927346
O O22 0.500000 0.358466 0.275629
O O23 0.344519 0.500000 0.284360
O O24 0.000000 0.271817 0.929868
O O25 0.824214 0.270267 0.000000
#
# Coordination Sequence:
#
# PCOD8196384 Si02
#       8
#     8   8   8   8   8   8   8   8
#     4   9  18  31  45  60  80 111 149 183 211 243
#     4  10  20  30  40  58  85 115 144 176 214 253
#     4   8  14  26  44  62  78 100 133 172 212 253
#     4   8  14  26  44  63  82 106 137 173 212 253
#     4   9  16  26  42  63  84 105 131 167 213 259
#     4  10  20  32  45  60  81 113 150 183 212 246
#     4   8  14  26  43  61  80 102 132 171 213 253
#     4  10  20  31  43  61  86 115 145 179 217 254
#
# _framework density 15.399082999999999
#
# number of rings (size 3 to 8) (size 9 to 14) (size 15 to 20)
#    0.000    3.000    0.000    3.000    0.000    5.500 
#    0.000    6.250    0.000    0.000    0.000    0.000 
#    0.000    1.000    0.000    8.750    0.000    5.625 
#
# Total GULP energy -793303.789285 kJ/mol
# GULP energy per Si atom -12395.371708 kJ/mol
# Density = 1.536403 g / cm^3
# Si number density = 15.399083 Si / 1000 Ang^3
#
#
#
# Elastic Constant Matrix: (Units=GPa)
#
#
# Indices 1 2 3 4 5 6 
#
# 1 118.5069 58.8467 41.6718 0.0000 0.0000 0.0000
# 2 58.8467 73.6670 32.9063 0.0000 0.0000 0.0000
# 3 41.6718 32.9063 41.0919 0.0000 0.0000 0.0000
# 4 0.0000 0.0000 0.0000 1.0407 0.0000 0.0000
# 5 0.0000 0.0000 0.0000 0.0000 24.2158 0.0000
# 6 0.0000 0.0000 0.0000 0.0000 0.0000 21.0828
#
#
#
# Elastic Compliance Matrix: (Units=1/GPa)
#
#
# Indices 1 2 3 4 5 6 
#
# 1 0.015992 -0.008611 -0.009323 0.000000 0.000000 0.000000
# 2 -0.008611 0.025771 -0.011905 0.000000 0.000000 0.000000
# 3 -0.009323 -0.011905 0.043323 0.000000 0.000000 0.000000
# 4 0.000000 0.000000 0.000000 0.960934 0.000000 0.000000
# 5 0.000000 0.000000 0.000000 0.000000 0.041295 0.000000
# 6 0.000000 0.000000 0.000000 0.000000 0.000000 0.047432
#
#
# Mechanical properties :
#
#
# Convention : Reuss Voigt Hill
#
# Bulk Modulus (GPa) = 39.35476 55.56838 47.46157
# Shear Modulus (GPa) = 4.15664 15.92392 10.04028
#
# Velocity S-wave (km/s) = 1.64473 3.21920 2.55621
# Velocity P-wave (km/s) = 5.40545 7.06976 6.29287
#
# Compressibility (1/GPa) = 0.02540989
#
# Stress axis : x y z
#
# Youngs Moduli (GPa) = 62.53012 38.80350 23.08224
#
# Poissons Ratio (x) = 0.33412 0.21519
# Poissons Ratio (y) = 0.53843 0.27480
# Poissons Ratio (z) = 0.58294 0.46196
#
# Static dielectric constant tensor:
#      x y z
#    x 3.146980 0.000000 0.000000 
#    y 0.000000 2.906160 0.000000 
#    z 0.000000 0.000000 2.773310 
# 
# 
# High freq. dielectric constant tensor:
#      x y z
#    x 1.601190 0.000000 0.000000 
#    y 0.000000 1.563850 0.000000 
#    z 0.000000 0.000000 1.558860 
# 
# From -- ./inp_files/8226.got.cif
#   From: 2010.03.12/outbox.cif.g09.slc.cpg/sg47_5_cif.got.tgz:8226.got - 2010.04.14 03:12:58.
