data_PCOD8196435
_publ_section_title
;
Structure prediction by ZEFSAII (Michael W. Deem and Ramdas Pophale) SiO2 
 PCOD8196435
Probable space group: P M M M
;
_chemical_formula_sum "Si O2"
_cell_formula_units_Z 48
_cell_length_a 9.130198
_cell_length_b 22.157657
_cell_length_c 18.070650
_cell_angle_alpha 90.000000
_cell_angle_beta 90.000000
_cell_angle_gamma 90.000000
_cell_volume 3655.761084
_symmetry_space_group_name_H-M "P M M M"
_symmetry_group_IT_number 47
_symmetry_cell_setting 'orthorhombic'
loop_
_space_group_symop_operation_xyz
x,y,z
-x,-y,z
x,-y,-z
-x,y,-z
-x,-y,-z
x,y,-z
-x,y,z
x,-y,z
loop_
_atom_site_type_symbol
_atom_site_label
_atom_site_fract_x
_atom_site_fract_y
_atom_site_fract_z
Si Si1 0.173203 0.245272 0.581969
Si Si2 0.663821 0.000000 0.588343
Si Si3 0.836567 0.114723 0.588313
Si Si4 0.826248 0.628418 0.639063
Si Si5 0.332664 0.571447 0.500000
Si Si6 0.164096 0.571625 0.918499
Si Si7 0.668215 0.571452 0.776080
O O1 0.238372 0.258665 0.500000
O O2 0.229843 0.180271 0.612894
O O3 0.216119 0.300537 0.635305
O O4 0.000000 0.239305 0.574714
O O5 0.739664 0.060242 0.620341
O O6 0.500000 0.000000 0.618431
O O7 0.670529 0.000000 0.500000
O O8 0.839133 0.113237 0.500000
O O9 0.000000 0.105477 0.619723
O O10 0.750298 0.593474 0.572533
O O11 0.768188 0.603671 0.715998
O O12 0.000000 0.618476 0.633224
O O13 0.330636 0.500000 0.500000
O O14 0.500000 0.595272 0.500000
O O15 0.163452 0.500000 0.919113
O O16 0.277059 0.594607 0.856322
O O17 0.000000 0.595055 0.900421
O O18 0.213340 0.595198 0.000000
O O19 0.500000 0.590580 0.765849
O O20 0.687847 0.500000 0.767477
#
# Coordination Sequence:
#
# PCOD8196435 Si02
#       7
#     8   4   8   8   4   8   8
#     4   8  14  26  41  55  67  83 115 157 189 218
#     4   9  15  21  29  47  73  89 103 133 170 207
#     4   8  13  22  37  50  63  85 111 137 172 216
#     4  11  20  31  46  58  70  91 124 161 194 226
#     4  11  23  35  43  53  71  92 117 154 199 241
#     4   8  14  26  44  63  79  94 115 143 175 216
#     4  10  20  31  41  56  79 101 120 147 186 230
#
# _framework density 13.129961
#
# number of rings (size 3 to 8) (size 9 to 14) (size 15 to 20)
#    0.000    2.833    0.833    3.500    0.000    5.000 
#    0.000    3.333    0.000    0.000    0.000    0.000 
#    0.000    0.000    0.000    0.000    0.000    0.000 
#
# Total GULP energy -594826.094022 kJ/mol
# GULP energy per Si atom -12392.210292 kJ/mol
# Density = 1.310008 g / cm^3
# Si number density = 13.129961 Si / 1000 Ang^3
#
#
#
# Elastic Constant Matrix: (Units=GPa)
#
#
# Indices 1 2 3 4 5 6 
#
# 1 78.3038 40.6106 33.8630 0.0000 0.0000 0.0000
# 2 40.6106 75.8856 29.7398 0.0000 0.0000 0.0000
# 3 33.8630 29.7398 67.1791 0.0000 0.0000 0.0000
# 4 0.0000 0.0000 0.0000 -2.0869 0.0000 0.0000
# 5 0.0000 0.0000 0.0000 0.0000 16.4801 0.0000
# 6 0.0000 0.0000 0.0000 0.0000 0.0000 7.4882
#
#
#
# Elastic Compliance Matrix: (Units=1/GPa)
#
#
# Indices 1 2 3 4 5 6 
#
# 1 0.019697 -0.008046 -0.006367 0.000000 0.000000 0.000000
# 2 -0.008046 0.019230 -0.004458 0.000000 0.000000 0.000000
# 3 -0.006367 -0.004458 0.020068 0.000000 0.000000 0.000000
# 4 0.000000 0.000000 0.000000 -0.479169 0.000000 0.000000
# 5 0.000000 0.000000 0.000000 0.000000 0.060679 0.000000
# 6 0.000000 0.000000 0.000000 0.000000 0.000000 0.133544
#
#
# Mechanical properties :
#
#
# Convention : Reuss Voigt Hill
#
# Bulk Modulus (GPa) = 47.04712 47.75503 47.40108
# Shear Modulus (GPa) = -27.60530 12.18660 -7.70935
#
# Velocity S-wave (km/s) = -4.59024 3.04986 -2.42576
# Velocity P-wave (km/s) = 2.79570 6.98944 5.32298
#
# Compressibility (1/GPa) = 0.02125529
#
# Stress axis : x y z
#
# Youngs Moduli (GPa) = 50.76948 52.00114 49.82998
#
# Poissons Ratio (x) = 0.41839 0.31726
# Poissons Ratio (y) = 0.40848 0.22212
# Poissons Ratio (z) = 0.32324 0.23180
#
# Static dielectric constant tensor:
#      x y z
#    x 2.708130 0.000000 0.000000 
#    y 0.000000 2.765690 0.000000 
#    z 0.000000 0.000000 2.606420 
# 
# 
# High freq. dielectric constant tensor:
#      x y z
#    x 1.501070 0.000000 0.000000 
#    y 0.000000 1.483090 0.000000 
#    z 0.000000 0.000000 1.456720 
# 
# From -- ./inp_files/26917.got.cif
#   From: 2010.03.12/outbox.cif.g09.slc.cpg/sg47_14_cif.got.tgz:26917.got - 2010.04.14 03:12:58.
