data_PCOD8196121
_publ_section_title
;
Structure prediction by ZEFSAII (Michael W. Deem and Ramdas Pophale) SiO2 
 PCOD8196121
Probable space group: P M M M
;
_chemical_formula_sum "Si O2"
_cell_formula_units_Z 56
_cell_length_a 15.833691
_cell_length_b 9.813807
_cell_length_c 18.785514
_cell_angle_alpha 90.000000
_cell_angle_beta 90.000000
_cell_angle_gamma 90.000000
_cell_volume 2919.058244
_symmetry_space_group_name_H-M "P M M M"
_symmetry_group_IT_number 47
_symmetry_cell_setting 'orthorhombic'
loop_
_space_group_symop_operation_xyz
x,y,z
-x,-y,z
x,-y,-z
-x,y,-z
-x,-y,-z
x,y,-z
-x,y,z
x,-y,z
loop_
_atom_site_type_symbol
_atom_site_label
_atom_site_fract_x
_atom_site_fract_y
_atom_site_fract_z
Si Si1 0.099049 0.000000 0.419502
Si Si2 0.853101 0.749070 0.676971
Si Si3 0.596311 0.342889 0.166973
Si Si4 0.759473 0.339687 0.078969
Si Si5 0.907483 0.657879 0.179653
Si Si6 0.322898 0.162787 0.282353
Si Si7 0.100610 0.500000 0.415676
Si Si8 0.592812 0.839065 0.576346
O O1 0.128439 0.874251 0.373555
O O2 0.138611 0.000000 0.500000
O O3 0.000000 0.000000 0.428243
O O4 0.916917 0.728163 0.742634
O O5 0.768791 0.771589 0.723920
O O6 0.854046 0.626279 0.621541
O O7 0.500000 0.322345 0.138596
O O8 0.609146 0.500000 0.191779
O O9 0.665272 0.304953 0.106918
O O10 0.611178 0.238161 0.231194
O O11 0.772626 0.500000 0.074290
O O12 0.834088 0.278207 0.129081
O O13 0.767775 0.275363 0.000000
O O14 0.885784 0.500000 0.193563
O O15 0.000000 0.675087 0.142897
O O16 0.345254 0.206978 0.362309
O O17 0.325220 0.000000 0.268376
O O18 0.119169 0.500000 0.500000
O O19 0.000000 0.500000 0.401763
O O20 0.629170 0.789446 0.500000
O O21 0.500000 0.775490 0.588763
O O22 0.584241 0.000000 0.577096
#
# Coordination Sequence:
#
# PCOD8196121 Si02
#       8
#     4   8   8   8   8   8   4   8
#     4  11  24  40  56  80 118 156 195 250 302 344
#     4  12  22  37  57  84 112 152 203 245 294 352
#     4  10  21  37  60  88 118 153 192 236 291 349
#     4   9  18  33  55  85 122 155 187 234 291 349
#     4  10  19  33  57  85 115 152 195 240 291 353
#     4  11  22  36  56  83 114 150 192 243 292 350
#     4  11  24  40  58  80 110 156 207 248 298 362
#     4   8  15  29  49  72  99 134 176 222 273 329
#
# _framework density 19.184269
#
# number of rings (size 3 to 8) (size 9 to 14) (size 15 to 20)
#    0.000    1.857    2.857    2.571    1.000    3.714 
#    0.000    2.857    0.000    0.429    0.000    3.000 
#    0.000    2.857    0.000    0.000    0.000    0.000 
#
# Total GULP energy -693812.162218 kJ/mol
# GULP energy per Si atom -12389.502897 kJ/mol
# Density = 1.914060 g / cm^3
# Si number density = 19.184269 Si / 1000 Ang^3
#
#
#
# Elastic Constant Matrix: (Units=GPa)
#
#
# Indices 1 2 3 4 5 6 
#
# 1 115.5053 27.9642 54.4078 0.0000 0.0000 0.0000
# 2 27.9642 79.1519 41.4818 0.0000 0.0000 0.0000
# 3 54.4078 41.4818 137.0485 0.0000 0.0000 0.0000
# 4 0.0000 0.0000 0.0000 21.5547 0.0000 0.0000
# 5 0.0000 0.0000 0.0000 0.0000 22.3415 0.0000
# 6 0.0000 0.0000 0.0000 0.0000 0.0000 20.2004
#
#
#
# Elastic Compliance Matrix: (Units=1/GPa)
#
#
# Indices 1 2 3 4 5 6 
#
# 1 0.010879 -0.001878 -0.003750 0.000000 0.000000 0.000000
# 2 -0.001878 0.015340 -0.003898 0.000000 0.000000 0.000000
# 3 -0.003750 -0.003898 0.009965 0.000000 0.000000 0.000000
# 4 0.000000 0.000000 0.000000 0.046394 0.000000 0.000000
# 5 0.000000 0.000000 0.000000 0.000000 0.044760 0.000000
# 6 0.000000 0.000000 0.000000 0.000000 0.000000 0.049504
#
#
# Mechanical properties :
#
#
# Convention : Reuss Voigt Hill
#
# Bulk Modulus (GPa) = 58.36936 64.37924 61.37430
# Shear Modulus (GPa) = 24.80106 26.67612 25.73859
#
# Velocity S-wave (km/s) = 3.59943 3.73301 3.66683
# Velocity P-wave (km/s) = 6.91131 7.22577 7.07029
#
# Compressibility (1/GPa) = 0.01713228
#
# Stress axis : x y z
#
# Youngs Moduli (GPa) = 91.92107 65.18890 100.34792
#
# Poissons Ratio (x) = 0.12242 0.37635
# Poissons Ratio (y) = 0.17262 0.39111
# Poissons Ratio (z) = 0.34475 0.25408
#
# Static dielectric constant tensor:
#      x y z
#    x 3.742120 0.000000 0.000000 
#    y 0.000000 3.042110 0.000000 
#    z 0.000000 0.000000 3.773760 
# 
# 
# High freq. dielectric constant tensor:
#      x y z
#    x 1.756900 0.000000 0.000000 
#    y 0.000000 1.707580 0.000000 
#    z 0.000000 0.000000 1.748180 
# 
# From -- ./inp_files/31016.got.cif
#   From: 2010.03.12/outbox.cif.g09.slc.cpg/sg47_16_cif.got.tgz:31016.got - 2010.04.14 03:12:58.
