data_PCOD8196187
_publ_section_title
;
Structure prediction by ZEFSAII (Michael W. Deem and Ramdas Pophale) SiO2 
 PCOD8196187
Probable space group: P M M M
;
_chemical_formula_sum "Si O2"
_cell_formula_units_Z 40
_cell_length_a 17.657882
_cell_length_b 7.746715
_cell_length_c 14.188769
_cell_angle_alpha 90.000000
_cell_angle_beta 90.000000
_cell_angle_gamma 90.000000
_cell_volume 1940.889932
_symmetry_space_group_name_H-M "P M M M"
_symmetry_group_IT_number 47
_symmetry_cell_setting 'orthorhombic'
loop_
_space_group_symop_operation_xyz
x,y,z
-x,-y,z
x,-y,-z
-x,y,-z
-x,-y,-z
x,y,-z
-x,y,z
x,-y,z
loop_
_atom_site_type_symbol
_atom_site_label
_atom_site_fract_x
_atom_site_fract_y
_atom_site_fract_z
Si Si1 0.912395 0.195100 0.239316
Si Si2 0.202324 0.705743 0.606859
Si Si3 0.089894 0.500000 0.105629
Si Si4 0.349442 0.302198 0.708943
Si Si5 0.585440 0.705686 0.102861
Si Si6 0.500000 0.802509 0.610642
O O1 0.869559 0.221695 0.337548
O O2 0.881473 0.328740 0.160445
O O3 0.000000 0.233245 0.260595
O O4 0.900662 0.000000 0.201646
O O5 0.198596 0.775082 0.500000
O O6 0.201987 0.500000 0.607830
O O7 0.278543 0.784183 0.655214
O O8 0.000000 0.500000 0.098755
O O9 0.124773 0.500000 0.000000
O O10 0.328229 0.500000 0.722937
O O11 0.362287 0.218062 0.813045
O O12 0.425469 0.289617 0.648704
O O13 0.500000 0.774816 0.117361
O O14 0.584111 0.500000 0.108627
O O15 0.616086 0.765774 0.000000
O O16 0.500000 0.780852 0.500000
O O17 0.500000 0.000000 0.642984
#
# Coordination Sequence:
#
# PCOD8196187 Si02
#       6
#     8   8   4   8   8   4
#     4  10  21  38  62  91 121 157 202 247 296 358
#     4  10  21  36  55  81 117 156 196 247 305 361
#     4   9  18  36  63  93 125 158 194 241 296 352
#     4  10  19  34  56  79 106 143 189 237 284 342
#     4   8  13  24  47  78 105 131 170 220 274 329
#     4  11  23  35  48  71 104 142 185 233 288 347
#
# _framework density 20.609103000000001
#
# number of rings (size 3 to 8) (size 9 to 14) (size 15 to 20)
#    0.000    2.400    2.000    1.500    0.000    3.600 
#    0.000    5.000    0.000    1.200    0.000    0.000 
#    0.000    0.000    0.000    0.000    0.000    0.000 
#
# Total GULP energy -495819.649093 kJ/mol
# GULP energy per Si atom -12395.491227 kJ/mol
# Density = 2.056220 g / cm^3
# Si number density = 20.609103 Si / 1000 Ang^3
#
#
#
# Elastic Constant Matrix: (Units=GPa)
#
#
# Indices 1 2 3 4 5 6 
#
# 1 90.7805 23.1134 67.5203 0.0000 0.0000 0.0000
# 2 23.1134 64.5770 49.8909 0.0000 0.0000 0.0000
# 3 67.5203 49.8909 190.5371 0.0000 0.0000 0.0000
# 4 0.0000 0.0000 0.0000 9.2294 0.0000 0.0000
# 5 0.0000 0.0000 0.0000 0.0000 34.8650 0.0000
# 6 0.0000 0.0000 0.0000 0.0000 0.0000 8.8050
#
#
#
# Elastic Compliance Matrix: (Units=1/GPa)
#
#
# Indices 1 2 3 4 5 6 
#
# 1 0.015087 -0.001591 -0.004930 0.000000 0.000000 0.000000
# 2 -0.001591 0.019580 -0.004563 0.000000 0.000000 0.000000
# 3 -0.004930 -0.004563 0.008190 0.000000 0.000000 0.000000
# 4 0.000000 0.000000 0.000000 0.108349 0.000000 0.000000
# 5 0.000000 0.000000 0.000000 0.000000 0.028682 0.000000
# 6 0.000000 0.000000 0.000000 0.000000 0.000000 0.113571
#
#
# Mechanical properties :
#
#
# Convention : Reuss Voigt Hill
#
# Bulk Modulus (GPa) = 48.33413 69.66041 58.99727
# Shear Modulus (GPa) = 15.50266 24.27123 19.88695
#
# Velocity S-wave (km/s) = 2.74565 3.43548 3.10975
# Velocity P-wave (km/s) = 5.79268 7.04350 6.44849
#
# Compressibility (1/GPa) = 0.02068932
#
# Stress axis : x y z
#
# Youngs Moduli (GPa) = 66.28025 51.07182 122.09884
#
# Poissons Ratio (x) = 0.08128 0.60192
# Poissons Ratio (y) = 0.10548 0.55714
# Poissons Ratio (z) = 0.32675 0.23304
#
# Static dielectric constant tensor:
#      x y z
#    x 3.616200 0.000000 0.000000 
#    y 0.000000 3.531590 0.000000 
#    z 0.000000 0.000000 4.179560 
# 
# 
# High freq. dielectric constant tensor:
#      x y z
#    x 1.785050 0.000000 0.000000 
#    y 0.000000 1.784660 0.000000 
#    z 0.000000 0.000000 1.817370 
# 
# From -- ./inp_files/23358.got.cif
#   From: 2010.03.12/outbox.cif.g09.slc.cpg/sg47_12_cif.got.tgz:23358.got - 2010.04.14 03:12:58.
