data_PCOD8196469
_publ_section_title
;
Structure prediction by ZEFSAII (Michael W. Deem and Ramdas Pophale) SiO2 
 PCOD8196469
Probable space group: P M M M
;
_chemical_formula_sum "Si O2"
_cell_formula_units_Z 40
_cell_length_a 18.105175
_cell_length_b 8.963044
_cell_length_c 17.023424
_cell_angle_alpha 90.000000
_cell_angle_beta 90.000000
_cell_angle_gamma 90.000000
_cell_volume 2762.518350
_symmetry_space_group_name_H-M "P M M M"
_symmetry_group_IT_number 47
_symmetry_cell_setting 'orthorhombic'
loop_
_space_group_symop_operation_xyz
x,y,z
-x,-y,z
x,-y,-z
-x,y,-z
-x,-y,-z
x,y,-z
-x,y,z
x,-y,z
loop_
_atom_site_type_symbol
_atom_site_label
_atom_site_fract_x
_atom_site_fract_y
_atom_site_fract_z
Si Si1 0.081046 0.832698 0.593175
Si Si2 0.415506 0.678110 0.169591
Si Si3 0.357540 0.176812 0.681302
Si Si4 0.412646 0.662805 0.000000
Si Si5 0.225862 0.672122 0.592424
Si Si6 0.500000 0.177336 0.587890
O O1 0.079544 0.833111 0.500000
O O2 0.144451 0.720109 0.622475
O O3 0.000000 0.780745 0.624352
O O4 0.098295 0.000000 0.623671
O O5 0.500000 0.725368 0.187952
O O6 0.407677 0.500000 0.171927
O O7 0.361099 0.753176 0.232033
O O8 0.391068 0.741567 0.082836
O O9 0.283989 0.228110 0.638365
O O10 0.427402 0.236870 0.631851
O O11 0.357781 0.000000 0.688253
O O12 0.375084 0.500000 0.000000
O O13 0.500000 0.641778 0.000000
O O14 0.235277 0.703023 0.500000
O O15 0.238094 0.500000 0.613121
O O16 0.500000 0.243663 0.500000
O O17 0.500000 0.000000 0.585421
#
# Coordination Sequence:
#
# PCOD8196469 Si02
#       6
#     8   8   8   4   8   4
#     4   8  14  26  44  63  81 103 132 165 204 251
#     4   9  16  28  45  62  81 103 132 168 207 251
#     4  11  20  30  43  58  80 108 141 177 215 252
#     4   7  12  24  43  63  79 101 128 157 200 255
#     4  10  20  31  42  59  82 108 141 178 214 248
#     4   9  18  30  41  52  69 100 142 181 213 245
#
# _framework density 14.479540999999999
#
# number of rings (size 3 to 8) (size 9 to 14) (size 15 to 20)
#    0.000    2.800    1.000    3.600    0.000    2.400 
#    0.000    2.500    0.000    4.200    0.000    0.000 
#    0.000    0.000    0.000    0.900    0.000   17.400 
#
# Total GULP energy -495684.772714 kJ/mol
# GULP energy per Si atom -12392.119318 kJ/mol
# Density = 1.444659 g / cm^3
# Si number density = 14.479541 Si / 1000 Ang^3
#
#
#
# Elastic Constant Matrix: (Units=GPa)
#
#
# Indices 1 2 3 4 5 6 
#
# 1 82.6837 24.1443 35.3994 0.0000 0.0000 0.0000
# 2 24.1443 42.6917 27.5171 0.0000 0.0000 0.0000
# 3 35.3994 27.5171 85.6944 0.0000 0.0000 0.0000
# 4 0.0000 0.0000 0.0000 12.8189 0.0000 0.0000
# 5 0.0000 0.0000 0.0000 0.0000 4.0034 0.0000
# 6 0.0000 0.0000 0.0000 0.0000 0.0000 20.7156
#
#
#
# Elastic Compliance Matrix: (Units=1/GPa)
#
#
# Indices 1 2 3 4 5 6 
#
# 1 0.015813 -0.005968 -0.004616 0.000000 0.000000 0.000000
# 2 -0.005968 0.031789 -0.007743 0.000000 0.000000 0.000000
# 3 -0.004616 -0.007743 0.016062 0.000000 0.000000 0.000000
# 4 0.000000 0.000000 0.000000 0.078010 0.000000 0.000000
# 5 0.000000 0.000000 0.000000 0.000000 0.249786 0.000000
# 6 0.000000 0.000000 0.000000 0.000000 0.000000 0.048273
#
#
# Mechanical properties :
#
#
# Convention : Reuss Voigt Hill
#
# Bulk Modulus (GPa) = 37.02033 42.79903 39.90968
# Shear Modulus (GPa) = 10.30098 15.77485 13.03791
#
# Velocity S-wave (km/s) = 2.67013 3.30427 3.00398
# Velocity P-wave (km/s) = 5.92697 6.64681 6.29718
#
# Compressibility (1/GPa) = 0.02701219
#
# Stress axis : x y z
#
# Youngs Moduli (GPa) = 63.23842 31.45702 62.25754
#
# Poissons Ratio (x) = 0.18773 0.28737
# Poissons Ratio (y) = 0.37740 0.48203
# Poissons Ratio (z) = 0.29190 0.24356
#
# Static dielectric constant tensor:
#      x y z
#    x 2.856190 0.000000 0.000000 
#    y 0.000000 2.687230 0.000000 
#    z 0.000000 0.000000 2.838020 
# 
# 
# High freq. dielectric constant tensor:
#      x y z
#    x 1.532720 0.000000 0.000000 
#    y 0.000000 1.544140 0.000000 
#    z 0.000000 0.000000 1.529070 
# 
# From -- ./inp_files/9365.got.cif
#   From: 2010.03.12/outbox.cif.g09.slc.cpg/sg47_5_cif.got.tgz:9365.got - 2010.04.14 03:12:58.
