data_PCOD8196762
_publ_section_title
;
Structure prediction by ZEFSAII (Michael W. Deem and Ramdas Pophale) SiO2 
 PCOD8196762
Probable space group: P M M M
;
_chemical_formula_sum "Si O2"
_cell_formula_units_Z 56
_cell_length_a 9.002602
_cell_length_b 19.860616
_cell_length_c 16.912157
_cell_angle_alpha 90.000000
_cell_angle_beta 90.000000
_cell_angle_gamma 90.000000
_cell_volume 3023.846678
_symmetry_space_group_name_H-M "P M M M"
_symmetry_group_IT_number 47
_symmetry_cell_setting 'orthorhombic'
loop_
_space_group_symop_operation_xyz
x,y,z
-x,-y,z
x,-y,-z
-x,y,-z
-x,-y,-z
x,y,-z
-x,y,z
x,-y,z
loop_
_atom_site_type_symbol
_atom_site_label
_atom_site_fract_x
_atom_site_fract_y
_atom_site_fract_z
Si Si1 0.324902 0.829898 0.590344
Si Si2 0.674062 0.206512 0.000000
Si Si3 0.664726 0.574821 0.121141
Si Si4 0.171172 0.277467 0.306798
Si Si5 0.827542 0.923772 0.291242
Si Si6 0.167648 0.426915 0.277838
Si Si7 0.829368 0.343418 0.000000
Si Si8 0.828347 0.186388 0.163332
O O1 0.272146 0.832666 0.500000
O O2 0.500000 0.830765 0.598142
O O3 0.266897 0.760750 0.628262
O O4 0.261428 0.895268 0.634160
O O5 0.712851 0.284106 0.000000
O O6 0.739110 0.177059 0.081815
O O7 0.500000 0.193314 0.000000
O O8 0.500000 0.607399 0.110995
O O9 0.660532 0.500000 0.085702
O O10 0.706841 0.572616 0.212109
O O11 0.795184 0.614516 0.077953
O O12 0.196033 0.357266 0.324965
O O13 0.216699 0.252239 0.217352
O O14 0.000000 0.256647 0.318848
O O15 0.792881 0.880433 0.213311
O O16 0.000000 0.919531 0.312850
O O17 0.776309 0.000000 0.274733
O O18 0.183223 0.500000 0.324344
O O19 0.000000 0.423008 0.242778
O O20 0.000000 0.319322 0.000000
O O21 0.000000 0.192288 0.139550
#
# Coordination Sequence:
#
# PCOD8196762 Si02
#       8
#     8   4   8   8   8   8   4   8
#     4  10  21  35  53  81 114 145 175 208 252 307
#     4  12  24  35  50  73 100 132 175 222 263 306
#     4  10  20  32  45  64  91 121 157 204 258 317
#     4   9  18  33  54  77 102 137 179 221 264 312
#     4   9  19  37  61  86 110 139 174 209 249 302
#     4   9  17  30  49  73  99 128 167 214 263 315
#     4  12  23  33  46  62  85 122 165 209 263 316
#     4   9  18  34  54  76 104 137 175 217 259 305
#
# _framework density 18.519456999999999
#
# number of rings (size 3 to 8) (size 9 to 14) (size 15 to 20)
#    0.000    2.286    0.000    4.071    0.000    7.429 
#    0.000    1.786    0.000    2.571    0.000    3.000 
#    0.000    0.000    0.000    0.000    0.000    0.000 
#
# Total GULP energy -693867.073583 kJ/mol
# GULP energy per Si atom -12390.483457 kJ/mol
# Density = 1.847731 g / cm^3
# Si number density = 18.519457 Si / 1000 Ang^3
#
#
#
# Elastic Constant Matrix: (Units=GPa)
#
#
# Indices 1 2 3 4 5 6 
#
# 1 76.8065 33.4133 52.7216 0.0000 0.0000 0.0000
# 2 33.4133 142.6572 48.8482 0.0000 0.0000 0.0000
# 3 52.7216 48.8482 109.4709 0.0000 0.0000 0.0000
# 4 0.0000 0.0000 0.0000 15.1884 0.0000 0.0000
# 5 0.0000 0.0000 0.0000 0.0000 28.5951 0.0000
# 6 0.0000 0.0000 0.0000 0.0000 0.0000 17.7390
#
#
#
# Elastic Compliance Matrix: (Units=1/GPa)
#
#
# Indices 1 2 3 4 5 6 
#
# 1 0.019760 -0.001617 -0.008795 0.000000 0.000000 0.000000
# 2 -0.001617 0.008406 -0.002972 0.000000 0.000000 0.000000
# 3 -0.008795 -0.002972 0.014697 0.000000 0.000000 0.000000
# 4 0.000000 0.000000 0.000000 0.065840 0.000000 0.000000
# 5 0.000000 0.000000 0.000000 0.000000 0.034971 0.000000
# 6 0.000000 0.000000 0.000000 0.000000 0.000000 0.056373
#
#
# Mechanical properties :
#
#
# Convention : Reuss Voigt Hill
#
# Bulk Modulus (GPa) = 62.13153 66.54453 64.33803
# Shear Modulus (GPa) = 21.53494 25.23460 23.38477
#
# Velocity S-wave (km/s) = 3.41373 3.69534 3.55732
# Velocity P-wave (km/s) = 7.01143 7.36326 7.18950
#
# Compressibility (1/GPa) = 0.01609489
#
# Stress axis : x y z
#
# Youngs Moduli (GPa) = 50.60659 118.95859 68.04086
#
# Poissons Ratio (x) = 0.19231 0.59844
# Poissons Ratio (y) = 0.08181 0.20225
# Poissons Ratio (z) = 0.44510 0.35360
#
# Static dielectric constant tensor:
#      x y z
#    x 3.331430 0.000000 0.000000 
#    y 0.000000 3.650440 0.000000 
#    z 0.000000 0.000000 3.207460 
# 
# 
# High freq. dielectric constant tensor:
#      x y z
#    x 1.719500 0.000000 0.000000 
#    y 0.000000 1.721920 0.000000 
#    z 0.000000 0.000000 1.688240 
# 
# From -- ./inp_files/21655.got.cif
#   From: 2010.03.12/outbox.cif.g09.slc.cpg/sg47_11_cif.got.tgz:21655.got - 2010.04.14 03:12:58.
