data_PCOD8196128
_publ_section_title
;
Structure prediction by ZEFSAII (Michael W. Deem and Ramdas Pophale) SiO2 
 PCOD8196128
Probable space group: P M M M
;
_chemical_formula_sum "Si O2"
_cell_formula_units_Z 48
_cell_length_a 9.347751
_cell_length_b 14.940006
_cell_length_c 18.964259
_cell_angle_alpha 90.000000
_cell_angle_beta 90.000000
_cell_angle_gamma 90.000000
_cell_volume 2648.462239
_symmetry_space_group_name_H-M "P M M M"
_symmetry_group_IT_number 47
_symmetry_cell_setting 'orthorhombic'
loop_
_space_group_symop_operation_xyz
x,y,z
-x,-y,z
x,-y,-z
-x,y,-z
-x,-y,-z
x,y,-z
-x,y,z
x,-y,z
loop_
_atom_site_type_symbol
_atom_site_label
_atom_site_fract_x
_atom_site_fract_y
_atom_site_fract_z
Si Si1 0.832647 0.742430 0.080251
Si Si2 0.335040 0.358337 0.330790
Si Si3 0.335324 0.603261 0.827617
Si Si4 0.669726 0.000000 0.421766
Si Si5 0.335107 0.845700 0.679856
Si Si6 0.166659 0.898468 0.817118
Si Si7 0.833248 0.500000 0.417163
O O1 0.754591 0.660950 0.118044
O O2 0.794786 0.837540 0.115730
O O3 0.000000 0.722434 0.084956
O O4 0.779369 0.747838 0.000000
O O5 0.500000 0.388419 0.339129
O O6 0.281438 0.379175 0.251790
O O7 0.314690 0.254282 0.348642
O O8 0.238347 0.411547 0.385509
O O9 0.500000 0.632648 0.833758
O O10 0.313495 0.500000 0.847602
O O11 0.723409 0.912159 0.380340
O O12 0.500000 0.000000 0.427749
O O13 0.737923 0.000000 0.500000
O O14 0.500000 0.866174 0.697317
O O15 0.248973 0.859285 0.750897
O O16 0.000000 0.893903 0.798991
O O17 0.214578 0.000000 0.833918
O O18 0.806200 0.500000 0.500000
O O19 0.000000 0.500000 0.398184
#
# Coordination Sequence:
#
# PCOD8196128 Si02
#       7
#     8   8   8   4   8   8   4
#     4  10  22  38  55  80 113 147 185 229 277 329
#     4  10  20  36  59  86 111 144 191 236 278 332
#     4  10  20  36  58  83 110 140 181 229 280 335
#     4   9  18  32  51  81 116 143 174 220 273 325
#     4  10  19  33  58  85 109 143 185 230 275 326
#     4  10  20  34  55  82 111 146 186 228 275 329
#     4  11  25  41  57  83 118 153 188 231 283 334
#
# _framework density 18.123725
#
# number of rings (size 3 to 8) (size 9 to 14) (size 15 to 20)
#    0.000    2.000    3.333    0.250    0.000    4.000 
#    0.000    5.000    0.000    1.000    0.000    2.333 
#    0.000    0.000    0.000    0.000    0.000    0.000 
#
# Total GULP energy -595336.708876 kJ/mol
# GULP energy per Si atom -12402.848102 kJ/mol
# Density = 1.808247 g / cm^3
# Si number density = 18.123725 Si / 1000 Ang^3
#
#
#
# Elastic Constant Matrix: (Units=GPa)
#
#
# Indices 1 2 3 4 5 6 
#
# 1 52.8869 44.1657 57.0911 0.0000 0.0000 0.0000
# 2 44.1657 125.6552 64.0072 0.0000 0.0000 0.0000
# 3 57.0911 64.0072 144.4103 0.0000 0.0000 0.0000
# 4 0.0000 0.0000 0.0000 29.4350 0.0000 0.0000
# 5 0.0000 0.0000 0.0000 0.0000 26.3182 0.0000
# 6 0.0000 0.0000 0.0000 0.0000 0.0000 26.9367
#
#
#
# Elastic Compliance Matrix: (Units=1/GPa)
#
#
# Indices 1 2 3 4 5 6 
#
# 1 0.037510 -0.007272 -0.011606 0.000000 0.000000 0.000000
# 2 -0.007272 0.011689 -0.002306 0.000000 0.000000 0.000000
# 3 -0.011606 -0.002306 0.012535 0.000000 0.000000 0.000000
# 4 0.000000 0.000000 0.000000 0.033973 0.000000 0.000000
# 5 0.000000 0.000000 0.000000 0.000000 0.037997 0.000000
# 6 0.000000 0.000000 0.000000 0.000000 0.000000 0.037124
#
#
# Mechanical properties :
#
#
# Convention : Reuss Voigt Hill
#
# Bulk Modulus (GPa) = 51.63744 72.60894 62.12319
# Shear Modulus (GPa) = 22.76345 27.05053 24.90699
#
# Velocity S-wave (km/s) = 3.54786 3.86754 3.71114
# Velocity P-wave (km/s) = 6.73324 7.75201 7.26052
#
# Compressibility (1/GPa) = 0.01936579
#
# Stress axis : x y z
#
# Youngs Moduli (GPa) = 26.65985 85.55093 79.77670
#
# Poissons Ratio (x) = 0.62214 0.92587
# Poissons Ratio (y) = 0.19387 0.18396
# Poissons Ratio (z) = 0.30941 0.19727
#
# Static dielectric constant tensor:
#      x y z
#    x 3.227930 0.000000 0.000000 
#    y 0.000000 3.563290 0.000000 
#    z 0.000000 0.000000 3.388050 
# 
# 
# High freq. dielectric constant tensor:
#      x y z
#    x 1.686280 0.000000 0.000000 
#    y 0.000000 1.719690 0.000000 
#    z 0.000000 0.000000 1.699080 
# 
# From -- ./inp_files/6480.got.cif
#   From: 2010.03.12/outbox.cif.g09.slc.cpg/sg47_4_cif.got.tgz:6480.got - 2010.04.14 03:12:58.
