data_PCOD8196330
_publ_section_title
;
Structure prediction by ZEFSAII (Michael W. Deem and Ramdas Pophale) SiO2 
 PCOD8196330
Probable space group: P M M M
;
_chemical_formula_sum "Si O2"
_cell_formula_units_Z 48
_cell_length_a 9.125300
_cell_length_b 15.039577
_cell_length_c 18.905492
_cell_angle_alpha 90.000000
_cell_angle_beta 90.000000
_cell_angle_gamma 90.000000
_cell_volume 2594.602048
_symmetry_space_group_name_H-M "P M M M"
_symmetry_group_IT_number 47
_symmetry_cell_setting 'orthorhombic'
loop_
_space_group_symop_operation_xyz
x,y,z
-x,-y,z
x,-y,-z
-x,y,-z
-x,-y,-z
x,y,-z
-x,y,z
x,-y,z
loop_
_atom_site_type_symbol
_atom_site_label
_atom_site_fract_x
_atom_site_fract_y
_atom_site_fract_z
Si Si1 0.829035 0.748556 0.082038
Si Si2 0.327951 0.354780 0.329155
Si Si3 0.331797 0.601667 0.830057
Si Si4 0.675009 0.000000 0.420560
Si Si5 0.326463 0.846216 0.679979
Si Si6 0.671718 0.897679 0.834563
Si Si7 0.830504 0.500000 0.417011
O O1 0.768987 0.662233 0.121620
O O2 0.753014 0.838685 0.107642
O O3 0.000000 0.756453 0.097502
O O4 0.794016 0.736151 0.000000
O O5 0.500000 0.367016 0.342554
O O6 0.284890 0.387728 0.251248
O O7 0.277083 0.253117 0.339215
O O8 0.242270 0.411544 0.386447
O O9 0.500000 0.632185 0.839270
O O10 0.309738 0.500000 0.853665
O O11 0.734817 0.912874 0.379776
O O12 0.500000 0.000000 0.422213
O O13 0.738810 0.000000 0.500000
O O14 0.500000 0.854065 0.683079
O O15 0.265608 0.873708 0.756912
O O16 0.500000 0.876490 0.838624
O O17 0.704843 0.000000 0.851861
O O18 0.804300 0.500000 0.500000
O O19 0.000000 0.500000 0.396499
#
# Coordination Sequence:
#
# PCOD8196330 Si02
#       7
#     8   8   8   4   8   8   4
#     4  11  25  41  56  81 119 155 187 232 287 343
#     4  10  19  35  60  86 112 144 188 239 284 333
#     4  10  20  37  62  89 113 142 186 239 290 341
#     4   9  16  26  44  78 120 149 172 214 275 331
#     4   9  16  29  52  82 113 144 180 226 276 328
#     4  10  19  35  61  86 111 148 193 241 287 334
#     4  11  25  41  55  79 118 157 192 235 285 338
#
# _framework density 18.499946000000001
#
# number of rings (size 3 to 8) (size 9 to 14) (size 15 to 20)
#    0.000    2.000    3.333    0.750    0.000    4.667 
#    0.000    5.000    0.000    0.000    0.000    0.000 
#    0.000    2.667    0.000    0.000    0.000    0.000 
#
# Total GULP energy -595311.955636 kJ/mol
# GULP energy per Si atom -12402.332409 kJ/mol
# Density = 1.845784 g / cm^3
# Si number density = 18.499946 Si / 1000 Ang^3
#
#
#
# Elastic Constant Matrix: (Units=GPa)
#
#
# Indices 1 2 3 4 5 6 
#
# 1 61.8808 53.0299 56.7244 0.0000 0.0000 0.0000
# 2 53.0299 150.6295 64.6564 0.0000 0.0000 0.0000
# 3 56.7244 64.6564 100.2379 0.0000 0.0000 0.0000
# 4 0.0000 0.0000 0.0000 17.2470 0.0000 0.0000
# 5 0.0000 0.0000 0.0000 0.0000 20.9702 0.0000
# 6 0.0000 0.0000 0.0000 0.0000 0.0000 4.9786
#
#
#
# Elastic Compliance Matrix: (Units=1/GPa)
#
#
# Indices 1 2 3 4 5 6 
#
# 1 0.036631 -0.005529 -0.017163 0.000000 0.000000 0.000000
# 2 -0.005529 0.010015 -0.003331 0.000000 0.000000 0.000000
# 3 -0.017163 -0.003331 0.021838 0.000000 0.000000 0.000000
# 4 0.000000 0.000000 0.000000 0.057981 0.000000 0.000000
# 5 0.000000 0.000000 0.000000 0.000000 0.047687 0.000000
# 6 0.000000 0.000000 0.000000 0.000000 0.000000 0.200860
#
#
# Mechanical properties :
#
#
# Convention : Reuss Voigt Hill
#
# Bulk Modulus (GPa) = 60.83754 73.50774 67.17264
# Shear Modulus (GPa) = 11.55968 17.86166 14.71067
#
# Velocity S-wave (km/s) = 2.50241 3.11062 2.82294
# Velocity P-wave (km/s) = 6.42698 7.26096 6.85666
#
# Compressibility (1/GPa) = 0.01643722
#
# Stress axis : x y z
#
# Youngs Moduli (GPa) = 27.29898 99.84763 45.79256
#
# Poissons Ratio (x) = 0.55207 0.78595
# Poissons Ratio (y) = 0.15094 0.15255
# Poissons Ratio (z) = 0.46854 0.33261
#
# Static dielectric constant tensor:
#      x y z
#    x 3.089280 0.000000 0.000000 
#    y 0.000000 3.608670 0.000000 
#    z 0.000000 0.000000 3.433420 
# 
# 
# High freq. dielectric constant tensor:
#      x y z
#    x 1.682710 0.000000 0.000000 
#    y 0.000000 1.737400 0.000000 
#    z 0.000000 0.000000 1.718150 
# 
# From -- ./inp_files/6470.got.cif
#   From: 2010.03.12/outbox.cif.g09.slc.cpg/sg47_4_cif.got.tgz:6470.got - 2010.04.14 03:12:58.
