data_PCOD8196806
_publ_section_title
;
Structure prediction by ZEFSAII (Michael W. Deem and Ramdas Pophale) SiO2 
 PCOD8196806
Probable space group: P M M M
;
_chemical_formula_sum "Si O2"
_cell_formula_units_Z 36
_cell_length_a 8.938060
_cell_length_b 13.966931
_cell_length_c 18.083640
_cell_angle_alpha 90.000000
_cell_angle_beta 90.000000
_cell_angle_gamma 90.000000
_cell_volume 2257.512200
_symmetry_space_group_name_H-M "P M M M"
_symmetry_group_IT_number 47
_symmetry_cell_setting 'orthorhombic'
loop_
_space_group_symop_operation_xyz
x,y,z
-x,-y,z
x,-y,-z
-x,y,-z
-x,-y,-z
x,y,-z
-x,y,z
x,-y,z
loop_
_atom_site_type_symbol
_atom_site_label
_atom_site_fract_x
_atom_site_fract_y
_atom_site_fract_z
Si Si1 0.323838 0.789449 0.138122
Si Si2 0.172661 0.608523 0.914162
Si Si3 0.332199 0.113599 0.418842
Si Si4 0.829307 0.113224 0.000000
Si Si5 0.171922 0.113007 0.273740
O O1 0.500000 0.796530 0.129571
O O2 0.273464 0.678770 0.134825
O O3 0.249011 0.849309 0.073123
O O4 0.275415 0.832986 0.215808
O O5 0.224233 0.500000 0.898279
O O6 0.000000 0.621809 0.892360
O O7 0.196535 0.634224 0.000000
O O8 0.279519 0.151169 0.500000
O O9 0.500000 0.150970 0.401983
O O10 0.219548 0.149631 0.355334
O O11 0.332858 0.000000 0.419875
O O12 0.000000 0.149713 0.000000
O O13 0.820372 0.000000 0.000000
O O14 0.000000 0.140360 0.260239
O O15 0.198119 0.000000 0.264957
#
# Coordination Sequence:
#
# PCOD8196806 Si02
#       5
#     8   8   8   4   8
#     4  12  23  33  48  70  94 121 154 195 238 279
#     4   9  18  34  55  73  90 116 149 188 236 286
#     4   8  14  26  44  65  90 120 153 191 235 278
#     4  11  23  37  50  63  86 123 163 198 230 271
#     4  10  20  32  46  65  92 128 165 198 231 271
#
# _framework density 15.946758000000001
#
# number of rings (size 3 to 8) (size 9 to 14) (size 15 to 20)
#    0.000    2.111    1.111    5.000    0.000    5.778 
#    0.000    3.333    0.000    0.000    0.000    0.000 
#    0.000    0.889    0.000    9.333    0.000    4.444 
#
# Total GULP energy -446369.488055 kJ/mol
# GULP energy per Si atom -12399.152446 kJ/mol
# Density = 1.591046 g / cm^3
# Si number density = 15.946758 Si / 1000 Ang^3
#
#
#
# Elastic Constant Matrix: (Units=GPa)
#
#
# Indices 1 2 3 4 5 6 
#
# 1 113.3238 42.3778 51.1694 0.0000 0.0000 0.0000
# 2 42.3778 56.9883 35.8211 0.0000 0.0000 0.0000
# 3 51.1694 35.8211 104.7661 0.0000 0.0000 0.0000
# 4 0.0000 0.0000 0.0000 2.3678 0.0000 0.0000
# 5 0.0000 0.0000 0.0000 0.0000 97.6132 0.0000
# 6 0.0000 0.0000 0.0000 0.0000 0.0000 17.1015
#
#
#
# Elastic Compliance Matrix: (Units=1/GPa)
#
#
# Indices 1 2 3 4 5 6 
#
# 1 0.013424 -0.007466 -0.004004 0.000000 0.000000 0.000000
# 2 -0.007466 0.026503 -0.005415 0.000000 0.000000 0.000000
# 3 -0.004004 -0.005415 0.013352 0.000000 0.000000 0.000000
# 4 0.000000 0.000000 0.000000 0.422333 0.000000 0.000000
# 5 0.000000 0.000000 0.000000 0.000000 0.010245 0.000000
# 6 0.000000 0.000000 0.000000 0.000000 0.000000 0.058474
#
#
# Mechanical properties :
#
#
# Convention : Reuss Voigt Hill
#
# Bulk Modulus (GPa) = 51.25747 59.31275 55.28511
# Shear Modulus (GPa) = 8.55279 33.13050 20.84164
#
# Velocity S-wave (km/s) = 2.31840 4.56298 3.61910
# Velocity P-wave (km/s) = 6.27529 8.06449 7.22549
#
# Compressibility (1/GPa) = 0.01950935
#
# Stress axis : x y z
#
# Youngs Moduli (GPa) = 74.49378 37.73145 74.89388
#
# Poissons Ratio (x) = 0.28169 0.29986
# Poissons Ratio (y) = 0.55615 0.40558
# Poissons Ratio (z) = 0.29826 0.20433
#
# Static dielectric constant tensor:
#      x y z
#    x 3.102520 0.000000 0.000000 
#    y 0.000000 2.851550 0.000000 
#    z 0.000000 0.000000 3.247520 
# 
# 
# High freq. dielectric constant tensor:
#      x y z
#    x 1.620410 0.000000 0.000000 
#    y 0.000000 1.578570 0.000000 
#    z 0.000000 0.000000 1.608020 
# 
# From -- ./inp_files/5555.got.cif
#   From: 2010.03.12/outbox.cif.g09.slc.cpg/sg47_3_cif.got.tgz:5555.got - 2010.04.14 03:12:58.
