data_PCOD8196408
_publ_section_title
;
Structure prediction by ZEFSAII (Michael W. Deem and Ramdas Pophale) SiO2 
 PCOD8196408
Probable space group: P M M M
;
_chemical_formula_sum "Si O2"
_cell_formula_units_Z 48
_cell_length_a 9.468662
_cell_length_b 20.171028
_cell_length_c 20.116659
_cell_angle_alpha 90.000000
_cell_angle_beta 90.000000
_cell_angle_gamma 90.000000
_cell_volume 3842.133938
_symmetry_space_group_name_H-M "P M M M"
_symmetry_group_IT_number 47
_symmetry_cell_setting 'orthorhombic'
loop_
_space_group_symop_operation_xyz
x,y,z
-x,-y,z
x,-y,-z
-x,y,-z
-x,-y,-z
x,y,-z
-x,y,z
x,-y,z
loop_
_atom_site_type_symbol
_atom_site_label
_atom_site_fract_x
_atom_site_fract_y
_atom_site_fract_z
Si Si1 0.662884 0.179315 0.921361
Si Si2 0.159627 0.694584 0.920817
Si Si3 0.658484 0.426365 0.920941
Si Si4 0.163852 0.077602 0.839661
Si Si5 0.657982 0.921211 0.427139
Si Si6 0.843993 0.921242 0.308956
O O1 0.500000 0.185404 0.898934
O O2 0.748175 0.243450 0.895577
O O3 0.733892 0.114626 0.890233
O O4 0.674410 0.172228 0.000000
O O5 0.231892 0.627615 0.892324
O O6 0.000000 0.699793 0.892875
O O7 0.157582 0.693050 0.000000
O O8 0.500000 0.410132 0.895537
O O9 0.704358 0.500000 0.896981
O O10 0.659010 0.423515 0.000000
O O11 0.209481 0.098058 0.764678
O O12 0.000000 0.096309 0.852379
O O13 0.186762 0.000000 0.851399
O O14 0.719154 0.900883 0.500000
O O15 0.500000 0.893540 0.419939
O O16 0.747737 0.889658 0.366961
O O17 0.657325 0.000000 0.421101
O O18 0.000000 0.892319 0.320051
O O19 0.847632 0.000000 0.314733
#
# Coordination Sequence:
#
# PCOD8196408 Si02
#       6
#     8   8   8   8   8   8
#     4  10  20  31  41  52  65  81 104 136 173 213
#     4   9  16  25  37  51  66  84 105 129 158 193
#     4   8  13  21  33  49  69  90 107 123 147 181
#     4   9  18  31  43  53  65  81 103 134 173 214
#     4   8  13  20  30  46  67  87 104 121 143 175
#     4   8  14  24  36  49  64  81 101 125 154 190
#
# _framework density 12.493057
#
# number of rings (size 3 to 8) (size 9 to 14) (size 15 to 20)
#    0.000    3.333    0.000    3.000    0.000    5.000 
#    0.000    6.667    0.000    0.000    0.000    0.000 
#    0.000    0.000    0.000    0.000    0.000    0.000 
#
# Total GULP energy -594806.458145 kJ/mol
# GULP energy per Si atom -12391.801211 kJ/mol
# Density = 1.246462 g / cm^3
# Si number density = 12.493057 Si / 1000 Ang^3
#
#
#
# Elastic Constant Matrix: (Units=GPa)
#
#
# Indices 1 2 3 4 5 6 
#
# 1 94.4467 46.0433 31.4539 0.0000 0.0000 0.0000
# 2 46.0433 55.5996 21.7264 0.0000 0.0000 0.0000
# 3 31.4539 21.7264 31.6036 0.0000 0.0000 0.0000
# 4 0.0000 0.0000 0.0000 0.2062 0.0000 0.0000
# 5 0.0000 0.0000 0.0000 0.0000 18.8813 0.0000
# 6 0.0000 0.0000 0.0000 0.0000 0.0000 20.0279
#
#
#
# Elastic Compliance Matrix: (Units=1/GPa)
#
#
# Indices 1 2 3 4 5 6 
#
# 1 0.020628 -0.012388 -0.012014 0.000000 0.000000 0.000000
# 2 -0.012388 0.032032 -0.009691 0.000000 0.000000 0.000000
# 3 -0.012014 -0.009691 0.050262 0.000000 0.000000 0.000000
# 4 0.000000 0.000000 0.000000 4.849608 0.000000 0.000000
# 5 0.000000 0.000000 0.000000 0.000000 0.052962 0.000000
# 6 0.000000 0.000000 0.000000 0.000000 0.000000 0.049930
#
#
# Mechanical properties :
#
#
# Convention : Reuss Voigt Hill
#
# Bulk Modulus (GPa) = 28.78981 42.23301 35.51141
# Shear Modulus (GPa) = 0.97367 13.31819 7.14593
#
# Velocity S-wave (km/s) = 0.88378 3.26858 2.39423
# Velocity P-wave (km/s) = 4.91285 6.93710 6.01080
#
# Compressibility (1/GPa) = 0.03473451
#
# Stress axis : x y z
#
# Youngs Moduli (GPa) = 48.47689 31.21917 19.89588
#
# Poissons Ratio (x) = 0.38675 0.23903
# Poissons Ratio (y) = 0.60054 0.19282
# Poissons Ratio (z) = 0.58241 0.30255
#
# Static dielectric constant tensor:
#      x y z
#    x 2.792050 0.000000 0.000000 
#    y 0.000000 2.373020 0.000000 
#    z 0.000000 0.000000 2.395750 
# 
# 
# High freq. dielectric constant tensor:
#      x y z
#    x 1.486100 0.000000 0.000000 
#    y 0.000000 1.437450 0.000000 
#    z 0.000000 0.000000 1.434440 
# 
# From -- ./inp_files/9680.got.cif
#   From: 2010.03.12/outbox.cif.g09.slc.cpg/sg47_5_cif.got.tgz:9680.got - 2010.04.14 03:12:58.
