data_PCOD8196723
_publ_section_title
;
Structure prediction by ZEFSAII (Michael W. Deem and Ramdas Pophale) SiO2 
 PCOD8196723
Probable space group: P M M M
;
_chemical_formula_sum "Si O2"
_cell_formula_units_Z 52
_cell_length_a 9.255103
_cell_length_b 13.956385
_cell_length_c 26.321492
_cell_angle_alpha 90.000000
_cell_angle_beta 90.000000
_cell_angle_gamma 90.000000
_cell_volume 3399.888706
_symmetry_space_group_name_H-M "P M M M"
_symmetry_group_IT_number 47
_symmetry_cell_setting 'orthorhombic'
loop_
_space_group_symop_operation_xyz
x,y,z
-x,-y,z
x,-y,-z
-x,y,-z
-x,-y,-z
x,y,-z
-x,y,z
x,-y,z
loop_
_atom_site_type_symbol
_atom_site_label
_atom_site_fract_x
_atom_site_fract_y
_atom_site_fract_z
Si Si1 0.835418 0.607343 0.596591
Si Si2 0.336378 0.886802 0.557311
Si Si3 0.166164 0.204041 0.352425
Si Si4 0.828310 0.892708 0.946210
Si Si5 0.668626 0.888075 0.739732
Si Si6 0.338594 0.386115 0.500000
Si Si7 0.837546 0.114371 0.837643
O O1 0.786460 0.500000 0.613323
O O2 0.818359 0.680294 0.643714
O O3 0.739975 0.649801 0.550732
O O4 0.000000 0.605208 0.577233
O O5 0.307810 0.847891 0.500000
O O6 0.500000 0.860756 0.574257
O O7 0.221415 0.841932 0.595446
O O8 0.315696 0.000000 0.558228
O O9 0.259622 0.170237 0.305321
O O10 0.000000 0.173468 0.344325
O O11 0.778835 0.844337 0.892535
O O12 0.000000 0.897159 0.943572
O O13 0.765476 0.000000 0.948484
O O14 0.780784 0.840793 0.000000
O O15 0.500000 0.866691 0.739884
O O16 0.733044 0.850099 0.792942
O O17 0.702214 0.000000 0.731662
O O18 0.336087 0.500000 0.500000
O O19 0.500000 0.344153 0.500000
O O20 0.000000 0.151142 0.826050
O O21 0.837275 0.000000 0.841266
#
# Coordination Sequence:
#
# PCOD8196723 Si02
#       7
#     8   8   8   8   8   4   8
#     4   9  19  35  50  64  86 110 127 151 194 245
#     4   9  19  35  50  63  83 110 133 156 196 244
#     4  11  22  32  47  67  82 101 134 169 200 237
#     4   7   9  14  27  49  74  98 127 165 206 240
#     4  10  20  32  44  58  80 110 140 171 210 249
#     4   9  17  29  47  69  86 101 124 151 179 220
#     4   8  13  22  37  55  75 101 135 174 207 235
#
# _framework density 15.294618
#
# number of rings (size 3 to 8) (size 9 to 14) (size 15 to 20)
#    0.000    3.000    0.000    3.462    1.077    5.538 
#    0.000    0.769    0.000    0.462    0.000    3.231 
#    0.000    0.000    0.000    0.000    0.000    0.769 
#
# Total GULP energy -644236.094541 kJ/mol
# GULP energy per Si atom -12389.155664 kJ/mol
# Density = 1.525981 g / cm^3
# Si number density = 15.294618 Si / 1000 Ang^3
#
#
#
# Elastic Constant Matrix: (Units=GPa)
#
#
# Indices 1 2 3 4 5 6 
#
# 1 78.1059 25.7626 58.6607 0.0000 0.0000 0.0000
# 2 25.7626 30.2831 37.0554 0.0000 0.0000 0.0000
# 3 58.6607 37.0554 140.3392 0.0000 0.0000 0.0000
# 4 0.0000 0.0000 0.0000 5.1427 0.0000 0.0000
# 5 0.0000 0.0000 0.0000 0.0000 9.0279 0.0000
# 6 0.0000 0.0000 0.0000 0.0000 0.0000 12.2437
#
#
#
# Elastic Compliance Matrix: (Units=1/GPa)
#
#
# Indices 1 2 3 4 5 6 
#
# 1 0.020645 -0.010347 -0.005898 0.000000 0.000000 0.000000
# 2 -0.010347 0.053969 -0.009925 0.000000 0.000000 0.000000
# 3 -0.005898 -0.009925 0.012211 0.000000 0.000000 0.000000
# 4 0.000000 0.000000 0.000000 0.194449 0.000000 0.000000
# 5 0.000000 0.000000 0.000000 0.000000 0.110767 0.000000
# 6 0.000000 0.000000 0.000000 0.000000 0.000000 0.081675
#
#
# Mechanical properties :
#
#
# Convention : Reuss Voigt Hill
#
# Bulk Modulus (GPa) = 28.99712 54.63172 41.81442
# Shear Modulus (GPa) = 9.30146 13.76619 11.53383
#
# Velocity S-wave (km/s) = 2.46875 3.00337 2.74909
# Velocity P-wave (km/s) = 5.20831 6.91550 6.12171
#
# Compressibility (1/GPa) = 0.03448619
#
# Stress axis : x y z
#
# Youngs Moduli (GPa) = 48.43720 18.52927 81.89128
#
# Poissons Ratio (x) = 0.19172 0.48296
# Poissons Ratio (y) = 0.50118 0.81277
# Poissons Ratio (z) = 0.28566 0.18390
#
# Static dielectric constant tensor:
#      x y z
#    x 2.919950 0.000000 0.000000 
#    y 0.000000 2.651780 0.000000 
#    z 0.000000 0.000000 3.277150 
# 
# 
# High freq. dielectric constant tensor:
#      x y z
#    x 1.580270 0.000000 0.000000 
#    y 0.000000 1.535680 0.000000 
#    z 0.000000 0.000000 1.587330 
# 
# From -- ./inp_files/8065.got.cif
#   From: 2010.03.12/outbox.cif.g09.slc.cpg/sg47_5_cif.got.tgz:8065.got - 2010.04.14 03:12:58.
