data_PCOD8196911
_publ_section_title
;
Structure prediction by ZEFSAII (Michael W. Deem and Ramdas Pophale) SiO2 
 PCOD8196911
Probable space group: P M M M
;
_chemical_formula_sum "Si O2"
_cell_formula_units_Z 48
_cell_length_a 18.034549
_cell_length_b 8.855551
_cell_length_c 17.989970
_cell_angle_alpha 90.000000
_cell_angle_beta 90.000000
_cell_angle_gamma 90.000000
_cell_volume 2873.103782
_symmetry_space_group_name_H-M "P M M M"
_symmetry_group_IT_number 47
_symmetry_cell_setting 'orthorhombic'
loop_
_space_group_symop_operation_xyz
x,y,z
-x,-y,z
x,-y,-z
-x,y,-z
-x,-y,-z
x,y,-z
-x,y,z
x,-y,z
loop_
_atom_site_type_symbol
_atom_site_label
_atom_site_fract_x
_atom_site_fract_y
_atom_site_fract_z
Si Si1 0.084390 0.319017 0.808058
Si Si2 0.413245 0.824535 0.297456
Si Si3 0.690319 0.680973 0.584586
Si Si4 0.201026 0.175399 0.086964
Si Si5 0.810171 0.335364 0.689028
Si Si6 0.313410 0.667039 0.814196
O O1 0.091361 0.500000 0.809962
O O2 0.128756 0.253225 0.877638
O O3 0.119466 0.255493 0.729466
O O4 0.000000 0.263791 0.812970
O O5 0.500000 0.793893 0.300625
O O6 0.378660 0.746858 0.370310
O O7 0.383106 0.755998 0.220189
O O8 0.393095 0.000000 0.299333
O O9 0.684541 0.735971 0.500000
O O10 0.688521 0.500000 0.591694
O O11 0.769053 0.744557 0.618962
O O12 0.278443 0.244109 0.116233
O O13 0.199477 0.000000 0.107383
O O14 0.196680 0.205559 0.000000
O O15 0.836765 0.500000 0.662048
O O16 0.748272 0.349474 0.751808
O O17 0.339077 0.500000 0.840125
#
# Coordination Sequence:
#
# PCOD8196911 Si02
#       6
#     8   8   8   8   8   8
#     4   9  17  29  46  67  91 123 163 203 239 276
#     4  10  20  32  47  69  97 126 154 188 233 283
#     4   9  17  29  46  67  91 123 163 203 239 276
#     4  10  20  32  47  69  97 126 154 188 233 283
#     4   7  12  25  43  62  84 112 150 194 234 271
#     4   9  17  31  51  70  89 118 157 196 229 269
#
# _framework density 16.706669999999999
#
# number of rings (size 3 to 8) (size 9 to 14) (size 15 to 20)
#    0.000    3.000    0.000    3.500    0.000    4.000 
#    0.000    3.333    0.000    1.000    0.000    7.000 
#    0.000    0.000    0.000   12.167    0.000   15.000 
#
# Total GULP energy -594683.576669 kJ/mol
# GULP energy per Si atom -12389.241181 kJ/mol
# Density = 1.666865 g / cm^3
# Si number density = 16.706670 Si / 1000 Ang^3
#
#
#
# Elastic Constant Matrix: (Units=GPa)
#
#
# Indices 1 2 3 4 5 6 
#
# 1 86.4910 43.6424 81.5479 0.0000 0.0000 0.0000
# 2 43.6424 65.4782 42.0172 0.0000 0.0000 0.0000
# 3 81.5479 42.0172 78.7480 0.0000 0.0000 0.0000
# 4 0.0000 0.0000 0.0000 20.7757 0.0000 0.0000
# 5 0.0000 0.0000 0.0000 0.0000 21.3289 0.0000
# 6 0.0000 0.0000 0.0000 0.0000 0.0000 20.8749
#
#
#
# Elastic Compliance Matrix: (Units=1/GPa)
#
#
# Indices 1 2 3 4 5 6 
#
# 1 0.489404 -0.001492 -0.506009 0.000000 0.000000 0.000000
# 2 -0.001492 0.023228 -0.010849 0.000000 0.000000 0.000000
# 3 -0.506009 -0.010849 0.542487 0.000000 0.000000 0.000000
# 4 0.000000 0.000000 0.000000 0.048133 0.000000 0.000000
# 5 0.000000 0.000000 0.000000 0.000000 0.046885 0.000000
# 6 0.000000 0.000000 0.000000 0.000000 0.000000 0.047904
#
#
# Mechanical properties :
#
#
# Convention : Reuss Voigt Hill
#
# Bulk Modulus (GPa) = 54.28738 62.79245 58.53991
# Shear Modulus (GPa) = 2.23127 16.82990 9.53058
#
# Velocity S-wave (km/s) = 1.15692 3.17736 2.39103
# Velocity P-wave (km/s) = 5.86085 7.15036 6.53748
#
# Compressibility (1/GPa) = 0.01842049
#
# Stress axis : x y z
#
# Youngs Moduli (GPa) = 2.04330 43.05089 1.84336
#
# Poissons Ratio (x) = 0.06423 0.93276
# Poissons Ratio (y) = 0.00305 0.02000
# Poissons Ratio (z) = 1.03393 0.46705
#
# Static dielectric constant tensor:
#      x y z
#    x 3.238970 0.000000 0.000000 
#    y 0.000000 3.101510 0.000000 
#    z 0.000000 0.000000 3.230070 
# 
# 
# High freq. dielectric constant tensor:
#      x y z
#    x 1.631620 0.000000 0.000000 
#    y 0.000000 1.633660 0.000000 
#    z 0.000000 0.000000 1.630880 
# 
# From -- ./inp_files/9437.got.cif
#   From: 2010.03.12/outbox.cif.g09.slc.cpg/sg47_5_cif.got.tgz:9437.got - 2010.04.14 03:12:58.
