data_PCOD8196482
_publ_section_title
;
Structure prediction by ZEFSAII (Michael W. Deem and Ramdas Pophale) SiO2 
 PCOD8196482
Probable space group: P M M M
;
_chemical_formula_sum "Si O2"
_cell_formula_units_Z 52
_cell_length_a 9.158752
_cell_length_b 30.104242
_cell_length_c 10.338773
_cell_angle_alpha 90.000000
_cell_angle_beta 90.000000
_cell_angle_gamma 90.000000
_cell_volume 2850.578439
_symmetry_space_group_name_H-M "P M M M"
_symmetry_group_IT_number 47
_symmetry_cell_setting 'orthorhombic'
loop_
_space_group_symop_operation_xyz
x,y,z
-x,-y,z
x,-y,-z
-x,y,-z
-x,-y,-z
x,y,-z
-x,y,z
x,-y,z
loop_
_atom_site_type_symbol
_atom_site_label
_atom_site_fract_x
_atom_site_fract_y
_atom_site_fract_z
Si Si1 0.663784 0.786026 0.654604
Si Si2 0.841103 0.868151 0.644810
Si Si3 0.329115 0.047965 0.000000
Si Si4 0.669986 0.051859 0.279103
Si Si5 0.327646 0.388331 0.350360
Si Si6 0.832712 0.552338 0.853398
Si Si7 0.163979 0.299330 0.346869
O O1 0.658003 0.785924 0.500000
O O2 0.500000 0.783943 0.710703
O O3 0.738778 0.830927 0.711189
O O4 0.753811 0.743943 0.708389
O O5 0.867268 0.851463 0.500000
O O6 0.765572 0.916542 0.631692
O O7 0.000000 0.871337 0.714378
O O8 0.289488 0.071326 0.135193
O O9 0.500000 0.038948 0.000000
O O10 0.250795 0.000000 0.000000
O O11 0.500000 0.057811 0.312467
O O12 0.713030 0.000000 0.295743
O O13 0.287509 0.399910 0.500000
O O14 0.500000 0.382924 0.334866
O O15 0.271388 0.426314 0.254334
O O16 0.252600 0.342790 0.304684
O O17 0.813007 0.500000 0.840466
O O18 0.000000 0.565983 0.825155
O O19 0.789792 0.567174 0.000000
O O20 0.157491 0.296137 0.500000
O O21 0.000000 0.301307 0.289329
#
# Coordination Sequence:
#
# PCOD8196482 Si02
#       7
#     8   8   4   8   8   8   8
#     4   9  16  27  44  65  90 120 155 194 233 276
#     4  10  20  31  42  61  92 126 156 185 222 272
#     4   7  12  26  47  67  83 101 133 179 225 265
#     4   9  17  30  48  67  86 111 146 187 229 274
#     4  10  20  32  48  75 108 137 169 211 257 304
#     4   9  19  36  55  74  99 135 179 221 260 306
#     4   9  16  27  45  69  97 127 158 195 241 289
#
# _framework density 18.241911000000002
#
# number of rings (size 3 to 8) (size 9 to 14) (size 15 to 20)
#    0.000    2.846    0.000    3.231    0.000    7.077 
#    0.000    4.231    0.000    1.385    2.000    0.000 
#    0.000    0.000    0.000    0.000    0.000    0.000 
#
# Total GULP energy -644271.376928 kJ/mol
# GULP energy per Si atom -12389.834172 kJ/mol
# Density = 1.820039 g / cm^3
# Si number density = 18.241911 Si / 1000 Ang^3
#
#
#
# Elastic Constant Matrix: (Units=GPa)
#
#
# Indices 1 2 3 4 5 6 
#
# 1 136.5384 66.8639 30.8686 0.0000 0.0000 0.0000
# 2 66.8639 105.3153 28.8640 0.0000 0.0000 0.0000
# 3 30.8686 28.8640 44.9059 0.0000 0.0000 0.0000
# 4 0.0000 0.0000 0.0000 5.0945 0.0000 0.0000
# 5 0.0000 0.0000 0.0000 0.0000 15.8287 0.0000
# 6 0.0000 0.0000 0.0000 0.0000 0.0000 34.8119
#
#
#
# Elastic Compliance Matrix: (Units=1/GPa)
#
#
# Indices 1 2 3 4 5 6 
#
# 1 0.011132 -0.006033 -0.003774 0.000000 0.000000 0.000000
# 2 -0.006033 0.014795 -0.005363 0.000000 0.000000 0.000000
# 3 -0.003774 -0.005363 0.028310 0.000000 0.000000 0.000000
# 4 0.000000 0.000000 0.000000 0.196290 0.000000 0.000000
# 5 0.000000 0.000000 0.000000 0.000000 0.063176 0.000000
# 6 0.000000 0.000000 0.000000 0.000000 0.000000 0.028726
#
#
# Mechanical properties :
#
#
# Convention : Reuss Voigt Hill
#
# Bulk Modulus (GPa) = 41.84585 59.99475 50.92030
# Shear Modulus (GPa) = 13.13249 21.82456 17.47853
#
# Velocity S-wave (km/s) = 2.68602 3.46265 3.09876
# Velocity P-wave (km/s) = 5.71041 6.99617 6.38573
#
# Compressibility (1/GPa) = 0.02389723
#
# Stress axis : x y z
#
# Youngs Moduli (GPa) = 89.83427 67.58854 35.32292
#
# Poissons Ratio (x) = 0.40776 0.13331
# Poissons Ratio (y) = 0.54197 0.18943
# Poissons Ratio (z) = 0.33905 0.36247
#
# Static dielectric constant tensor:
#      x y z
#    x 3.472170 0.000000 0.000000 
#    y 0.000000 3.297050 0.000000 
#    z 0.000000 0.000000 3.140710 
# 
# 
# High freq. dielectric constant tensor:
#      x y z
#    x 1.711240 0.000000 0.000000 
#    y 0.000000 1.705060 0.000000 
#    z 0.000000 0.000000 1.657330 
# 
# From -- ./inp_files/13283.got.cif
#   From: 2010.03.12/outbox.cif.g09.slc.cpg/sg47_7_cif.got.tgz:13283.got - 2010.04.14 03:12:58.
