data_PCOD8196887
_publ_section_title
;
Structure prediction by ZEFSAII (Michael W. Deem and Ramdas Pophale) SiO2 
 PCOD8196887
Probable space group: P M M M
;
_chemical_formula_sum "Si O2"
_cell_formula_units_Z 60
_cell_length_a 22.976544
_cell_length_b 9.335285
_cell_length_c 17.354320
_cell_angle_alpha 90.000000
_cell_angle_beta 90.000000
_cell_angle_gamma 90.000000
_cell_volume 3722.372985
_symmetry_space_group_name_H-M "P M M M"
_symmetry_group_IT_number 47
_symmetry_cell_setting 'orthorhombic'
loop_
_space_group_symop_operation_xyz
x,y,z
-x,-y,z
x,-y,-z
-x,y,-z
-x,-y,-z
x,y,-z
-x,y,z
x,-y,z
loop_
_atom_site_type_symbol
_atom_site_label
_atom_site_fract_x
_atom_site_fract_y
_atom_site_fract_z
Si Si1 0.236165 0.333874 0.587332
Si Si2 0.431191 0.159126 0.500000
Si Si3 0.149767 0.161713 0.678747
Si Si4 0.133435 0.168454 0.911303
Si Si5 0.565679 0.665726 0.352606
Si Si6 0.760577 0.842544 0.818179
Si Si7 0.931345 0.334797 0.217680
Si Si8 0.679982 0.663928 0.724745
O O1 0.256371 0.300406 0.500000
O O2 0.219512 0.500000 0.597289
O O3 0.178610 0.240663 0.605618
O O4 0.288655 0.291059 0.644765
O O5 0.500000 0.149830 0.500000
O O6 0.411161 0.243209 0.424418
O O7 0.403553 0.000000 0.500000
O O8 0.196862 0.157920 0.745834
O O9 0.094593 0.252334 0.708354
O O10 0.130700 0.000000 0.656167
O O11 0.200416 0.211255 0.890386
O O12 0.088355 0.260870 0.861896
O O13 0.124142 0.000000 0.892517
O O14 0.121744 0.203708 0.000000
O O15 0.500000 0.708156 0.326787
O O16 0.568232 0.500000 0.377660
O O17 0.610836 0.695840 0.283103
O O18 0.704797 0.745179 0.799573
O O19 0.735688 0.000000 0.834933
O O20 0.910317 0.500000 0.218083
O O21 0.000000 0.323782 0.223639
O O22 0.692159 0.500000 0.742424
#
# Coordination Sequence:
#
# PCOD8196887 Si02
#       8
#     8   4   8   8   8   8   8   8
#     4   9  17  28  43  63  86 111 140 180 228 272
#     4   9  17  27  37  51  73 103 139 177 216 255
#     4   9  17  30  47  64  84 112 146 182 219 261
#     4   9  18  32  49  69  94 122 147 172 205 248
#     4   9  17  28  41  56  78 111 147 181 217 258
#     4   8  15  28  44  62  85 111 141 174 211 252
#     4  10  20  32  47  68  93 120 149 178 208 246
#     4   9  17  27  42  61  83 111 145 181 215 258
#
# _framework density 16.118751
#
# number of rings (size 3 to 8) (size 9 to 14) (size 15 to 20)
#    0.000    3.000    0.000    1.800    0.933    6.400 
#    0.000    1.333    0.000    0.400    0.000    2.800 
#    0.000    0.533    0.000    6.667    0.000    0.000 
#
# Total GULP energy -743666.707993 kJ/mol
# GULP energy per Si atom -12394.445133 kJ/mol
# Density = 1.608206 g / cm^3
# Si number density = 16.118751 Si / 1000 Ang^3
#
#
#
# Elastic Constant Matrix: (Units=GPa)
#
#
# Indices 1 2 3 4 5 6 
#
# 1 78.2104 40.7981 20.1520 0.0000 0.0000 0.0000
# 2 40.7981 74.2293 16.1494 0.0000 0.0000 0.0000
# 3 20.1520 16.1494 25.3648 0.0000 0.0000 0.0000
# 4 0.0000 0.0000 0.0000 21.7075 0.0000 0.0000
# 5 0.0000 0.0000 0.0000 0.0000 18.3999 0.0000
# 6 0.0000 0.0000 0.0000 0.0000 0.0000 19.4042
#
#
#
# Elastic Compliance Matrix: (Units=1/GPa)
#
#
# Indices 1 2 3 4 5 6 
#
# 1 0.020013 -0.008753 -0.010327 0.000000 0.000000 0.000000
# 2 -0.008753 0.019466 -0.005440 0.000000 0.000000 0.000000
# 3 -0.010327 -0.005440 0.051093 0.000000 0.000000 0.000000
# 4 0.000000 0.000000 0.000000 0.046067 0.000000 0.000000
# 5 0.000000 0.000000 0.000000 0.000000 0.054348 0.000000
# 6 0.000000 0.000000 0.000000 0.000000 0.000000 0.051535
#
#
# Mechanical properties :
#
#
# Convention : Reuss Voigt Hill
#
# Bulk Modulus (GPa) = 24.07758 36.88927 30.48342
# Shear Modulus (GPa) = 16.37168 18.61599 17.49383
#
# Velocity S-wave (km/s) = 3.19045 3.40211 3.29798
# Velocity P-wave (km/s) = 5.34247 6.19420 5.78403
#
# Compressibility (1/GPa) = 0.04153241
#
# Stress axis : x y z
#
# Youngs Moduli (GPa) = 49.96820 51.37180 19.57212
#
# Poissons Ratio (x) = 0.44964 0.20212
# Poissons Ratio (y) = 0.43735 0.10647
# Poissons Ratio (z) = 0.51603 0.27946
#
# Static dielectric constant tensor:
#      x y z
#    x 3.000270 0.000000 0.000000 
#    y 0.000000 3.275570 0.000000 
#    z 0.000000 0.000000 2.903340 
# 
# 
# High freq. dielectric constant tensor:
#      x y z
#    x 1.604070 0.000000 0.000000 
#    y 0.000000 1.626890 0.000000 
#    z 0.000000 0.000000 1.581530 
# 
# From -- ./inp_files/28929.got.cif
#   From: 2010.03.12/outbox.cif.g09.slc.cpg/sg47_15_cif.got.tgz:28929.got - 2010.04.14 03:12:58.
