data_PCOD8196778
_publ_section_title
;
Structure prediction by ZEFSAII (Michael W. Deem and Ramdas Pophale) SiO2 
 PCOD8196778
Probable space group: P M M M
;
_chemical_formula_sum "Si O2"
_cell_formula_units_Z 64
_cell_length_a 18.281174
_cell_length_b 26.500408
_cell_length_c 9.346234
_cell_angle_alpha 90.000000
_cell_angle_beta 90.000000
_cell_angle_gamma 90.000000
_cell_volume 4527.863156
_symmetry_space_group_name_H-M "P M M M"
_symmetry_group_IT_number 47
_symmetry_cell_setting 'orthorhombic'
loop_
_space_group_symop_operation_xyz
x,y,z
-x,-y,z
x,-y,-z
-x,y,-z
-x,-y,-z
x,y,-z
-x,y,z
x,-y,z
loop_
_atom_site_type_symbol
_atom_site_label
_atom_site_fract_x
_atom_site_fract_y
_atom_site_fract_z
Si Si1 0.797656 0.399861 0.338836
Si Si2 0.086889 0.944648 0.661194
Si Si3 0.915510 0.650105 0.166195
Si Si4 0.915915 0.150492 0.168513
Si Si5 0.168879 0.751551 0.833434
Si Si6 0.712556 0.704666 0.342236
Si Si7 0.329215 0.557598 0.835230
Si Si8 0.416139 0.361167 0.332691
O O1 0.809708 0.420803 0.500000
O O2 0.875429 0.392696 0.260036
O O3 0.758036 0.346554 0.343489
O O4 0.748080 0.437962 0.247016
O O5 0.113716 0.934260 0.500000
O O6 0.117506 0.900324 0.762095
O O7 0.000000 0.944682 0.668074
O O8 0.115391 0.000000 0.712303
O O9 0.884947 0.705496 0.202970
O O10 0.000000 0.649307 0.208489
O O11 0.903009 0.637509 0.000000
O O12 0.869203 0.197840 0.225292
O O13 0.000000 0.159257 0.214460
O O14 0.909323 0.144627 0.000000
O O15 0.248540 0.744777 0.761282
O O16 0.183949 0.755814 0.000000
O O17 0.710179 0.728950 0.500000
O O18 0.630817 0.688912 0.291011
O O19 0.355786 0.500000 0.827174
O O20 0.391671 0.591057 0.760837
O O21 0.318995 0.574962 0.000000
O O22 0.402943 0.374324 0.500000
O O23 0.500000 0.348732 0.299393
#
# Coordination Sequence:
#
# PCOD8196778 Si02
#       8
#     8   8   8   8   8   8   8   8
#     4   9  17  29  44  60  78 101 129 158 187 224
#     4   8  14  24  35  46  63  90 125 164 204 242
#     4   9  16  26  41  59  79 103 128 156 194 236
#     4   9  16  24  34  50  72  97 128 166 202 233
#     4   9  16  25  37  54  77 103 129 157 191 230
#     4   8  15  27  41  57  76  99 127 154 180 216
#     4  10  20  32  46  64  84 104 126 153 185 221
#     4   9  18  32  48  65  85 107 129 153 181 215
#
# _framework density 14.134703
#
# number of rings (size 3 to 8) (size 9 to 14) (size 15 to 20)
#    0.000    3.125    0.000    2.250    0.000    7.000 
#    0.000    2.500    0.000    2.625    0.000    2.625 
#    0.000    0.000    0.000    0.000    0.000    0.625 
#
# Total GULP energy -793274.709199 kJ/mol
# GULP energy per Si atom -12394.917331 kJ/mol
# Density = 1.410253 g / cm^3
# Si number density = 14.134703 Si / 1000 Ang^3
#
#
#
# Elastic Constant Matrix: (Units=GPa)
#
#
# Indices 1 2 3 4 5 6 
#
# 1 93.4682 39.4714 41.7268 0.0000 0.0000 0.0000
# 2 39.4714 62.0614 34.3525 0.0000 0.0000 0.0000
# 3 41.7268 34.3525 63.6235 0.0000 0.0000 0.0000
# 4 0.0000 0.0000 0.0000 20.8658 0.0000 0.0000
# 5 0.0000 0.0000 0.0000 0.0000 20.3370 0.0000
# 6 0.0000 0.0000 0.0000 0.0000 0.0000 11.2318
#
#
#
# Elastic Compliance Matrix: (Units=1/GPa)
#
#
# Indices 1 2 3 4 5 6 
#
# 1 0.016805 -0.006543 -0.007489 0.000000 0.000000 0.000000
# 2 -0.006543 0.025529 -0.009493 0.000000 0.000000 0.000000
# 3 -0.007489 -0.009493 0.025754 0.000000 0.000000 0.000000
# 4 0.000000 0.000000 0.000000 0.047925 0.000000 0.000000
# 5 0.000000 0.000000 0.000000 0.000000 0.049171 0.000000
# 6 0.000000 0.000000 0.000000 0.000000 0.000000 0.089033
#
#
# Mechanical properties :
#
#
# Convention : Reuss Voigt Hill
#
# Bulk Modulus (GPa) = 47.52975 50.02826 48.77901
# Shear Modulus (GPa) = 16.21901 17.39375 16.80638
#
# Velocity S-wave (km/s) = 3.39109 3.51175 3.45195
# Velocity P-wave (km/s) = 7.00228 7.20514 7.10443
#
# Compressibility (1/GPa) = 0.02103946
#
# Stress axis : x y z
#
# Youngs Moduli (GPa) = 59.50600 39.17120 38.82848
#
# Poissons Ratio (x) = 0.25630 0.29077
# Poissons Ratio (y) = 0.38934 0.36859
# Poissons Ratio (z) = 0.44562 0.37185
#
# Static dielectric constant tensor:
#      x y z
#    x 2.734330 0.000000 0.000000 
#    y 0.000000 2.755630 0.000000 
#    z 0.000000 0.000000 2.902450 
# 
# 
# High freq. dielectric constant tensor:
#      x y z
#    x 1.511180 0.000000 0.000000 
#    y 0.000000 1.511820 0.000000 
#    z 0.000000 0.000000 1.546360 
# 
# From -- ./inp_files/10253.got.cif
#   From: 2010.03.12/outbox.cif.g09.slc.cpg/sg47_6_cif.got.tgz:10253.got - 2010.04.14 03:12:58.
