data_PCOD8196120
_publ_section_title
;
Structure prediction by ZEFSAII (Michael W. Deem and Ramdas Pophale) SiO2 
 PCOD8196120
Probable space group: P M M M
;
_chemical_formula_sum "Si O2"
_cell_formula_units_Z 56
_cell_length_a 20.201632
_cell_length_b 9.092309
_cell_length_c 15.301923
_cell_angle_alpha 90.000000
_cell_angle_beta 90.000000
_cell_angle_gamma 90.000000
_cell_volume 2810.649266
_symmetry_space_group_name_H-M "P M M M"
_symmetry_group_IT_number 47
_symmetry_cell_setting 'orthorhombic'
loop_
_space_group_symop_operation_xyz
x,y,z
-x,-y,z
x,-y,-z
-x,y,-z
-x,-y,-z
x,y,-z
-x,y,z
x,-y,z
loop_
_atom_site_type_symbol
_atom_site_label
_atom_site_fract_x
_atom_site_fract_y
_atom_site_fract_z
Si Si1 0.389148 0.331159 0.902688
Si Si2 0.928137 0.828727 0.267467
Si Si3 0.575023 0.831265 0.268627
Si Si4 0.245520 0.665171 0.844063
Si Si5 0.896769 0.331666 0.095607
Si Si6 0.212106 0.172995 0.675083
Si Si7 0.672201 0.670253 0.598307
O O1 0.408525 0.500000 0.883412
O O2 0.422880 0.230316 0.829846
O O3 0.310137 0.310214 0.901931
O O4 0.413754 0.285774 0.000000
O O5 0.930835 0.760877 0.171227
O O6 0.865363 0.771846 0.324775
O O7 0.000000 0.795830 0.312797
O O8 0.917386 0.000000 0.253367
O O9 0.500000 0.817117 0.303025
O O10 0.621982 0.742683 0.333760
O O11 0.598434 0.000000 0.267892
O O12 0.244873 0.500000 0.803242
O O13 0.182301 0.688834 0.905045
O O14 0.245562 0.785074 0.767049
O O15 0.916491 0.500000 0.112066
O O16 0.922338 0.280360 0.000000
O O17 0.254505 0.256923 0.601656
O O18 0.217159 0.000000 0.658148
O O19 0.645044 0.691680 0.500000
O O20 0.678381 0.500000 0.623027
#
# Coordination Sequence:
#
# PCOD8196120 Si02
#       7
#     8   8   8   8   8   8   8
#     4  10  20  34  56  85 117 158 205 246 286 336
#     4   9  19  34  50  72 106 148 189 229 279 338
#     4  11  25  43  62  87 122 160 195 237 289 341
#     4   9  16  29  50  75 107 146 188 236 289 338
#     4   9  17  28  43  67 101 140 186 239 288 335
#     4  10  19  33  57  85 113 146 187 234 284 338
#     4  11  24  42  66  94 120 148 185 232 290 355
#
# _framework density 19.924222
#
# number of rings (size 3 to 8) (size 9 to 14) (size 15 to 20)
#    0.000    2.143    1.429    1.714    0.000    6.286 
#    0.000    4.286    0.000    3.000    0.000    3.000 
#    0.000    0.000    0.000    0.000    0.000    0.000 
#
# Total GULP energy -694106.132601 kJ/mol
# GULP energy per Si atom -12394.752368 kJ/mol
# Density = 1.987887 g / cm^3
# Si number density = 19.924222 Si / 1000 Ang^3
#
#
#
# Elastic Constant Matrix: (Units=GPa)
#
#
# Indices 1 2 3 4 5 6 
#
# 1 107.5771 46.0628 35.9618 0.0000 0.0000 0.0000
# 2 46.0628 91.9671 43.4407 0.0000 0.0000 0.0000
# 3 35.9618 43.4407 89.8272 0.0000 0.0000 0.0000
# 4 0.0000 0.0000 0.0000 -0.0142 0.0000 0.0000
# 5 0.0000 0.0000 0.0000 0.0000 8.4032 0.0000
# 6 0.0000 0.0000 0.0000 0.0000 0.0000 20.6002
#
#
#
# Elastic Compliance Matrix: (Units=1/GPa)
#
#
# Indices 1 2 3 4 5 6 
#
# 1 0.012256 -0.004952 -0.002512 0.000000 0.000000 0.000000
# 2 -0.004952 0.016094 -0.005800 0.000000 0.000000 0.000000
# 3 -0.002512 -0.005800 0.014943 0.000000 0.000000 0.000000
# 4 0.000000 0.000000 0.000000-70.625323 0.000000 0.000000
# 5 0.000000 0.000000 0.000000 0.000000 0.119003 0.000000
# 6 0.000000 0.000000 0.000000 0.000000 0.000000 0.048543
#
#
# Mechanical properties :
#
#
# Convention : Reuss Voigt Hill
#
# Bulk Modulus (GPa) = 59.65101 60.03357 59.84229
# Shear Modulus (GPa) = -0.07104 16.72490 8.32693
#
# Velocity S-wave (km/s) = -0.18903 2.90043 2.04655
# Velocity P-wave (km/s) = 5.47323 6.43529 5.97366
#
# Compressibility (1/GPa) = 0.01676418
#
# Stress axis : x y z
#
# Youngs Moduli (GPa) = 81.59498 62.13670 66.92043
#
# Poissons Ratio (x) = 0.30770 0.16808
# Poissons Ratio (y) = 0.40406 0.38816
# Poissons Ratio (z) = 0.20494 0.36042
#
# Static dielectric constant tensor:
#      x y z
#    x 3.904870 0.000000 0.000000 
#    y 0.000000 3.600600 0.000000 
#    z 0.000000 0.000000 3.402700 
# 
# 
# High freq. dielectric constant tensor:
#      x y z
#    x 1.789350 0.000000 0.000000 
#    y 0.000000 1.771180 0.000000 
#    z 0.000000 0.000000 1.749290 
# 
# From -- ./inp_files/21563.got.cif
#   From: 2010.03.12/outbox.cif.g09.slc.cpg/sg47_11_cif.got.tgz:21563.got - 2010.04.14 03:12:58.
