data_PCOD8196348
_publ_section_title
;
Structure prediction by ZEFSAII (Michael W. Deem and Ramdas Pophale) SiO2 
 PCOD8196348
Probable space group: P M M M
;
_chemical_formula_sum "Si O2"
_cell_formula_units_Z 40
_cell_length_a 20.121356
_cell_length_b 11.790251
_cell_length_c 8.622465
_cell_angle_alpha 90.000000
_cell_angle_beta 90.000000
_cell_angle_gamma 90.000000
_cell_volume 2045.557707
_symmetry_space_group_name_H-M "P M M M"
_symmetry_group_IT_number 47
_symmetry_cell_setting 'orthorhombic'
loop_
_space_group_symop_operation_xyz
x,y,z
-x,-y,z
x,-y,-z
-x,y,-z
-x,-y,-z
x,y,-z
-x,y,z
x,-y,z
loop_
_atom_site_type_symbol
_atom_site_label
_atom_site_fract_x
_atom_site_fract_y
_atom_site_fract_z
Si Si1 0.423858 0.761765 0.317590
Si Si2 0.923987 0.630819 0.822032
Si Si3 0.693641 0.368567 0.180555
Si Si4 0.628596 0.000000 0.317928
Si Si5 0.188533 0.226056 0.320555
Si Si6 0.227272 0.000000 0.820085
O O1 0.408876 0.754119 0.500000
O O2 0.500000 0.733892 0.279983
O O3 0.380099 0.669097 0.228566
O O4 0.406478 0.887093 0.251740
O O5 0.914724 0.500000 0.776469
O O6 0.878346 0.704634 0.710713
O O7 0.000000 0.668330 0.797188
O O8 0.902394 0.649508 0.000000
O O9 0.702794 0.500000 0.220934
O O10 0.746911 0.298171 0.277189
O O11 0.705334 0.344868 0.000000
O O12 0.705592 0.000000 0.277645
O O13 0.619148 0.000000 0.500000
O O14 0.192769 0.194363 0.500000
O O15 0.184753 0.110743 0.222100
O O16 0.245254 0.000000 0.000000
#
# Coordination Sequence:
#
# PCOD8196348 Si02
#       6
#     8   8   8   4   8   4
#     4  10  21  37  59  86 117 152 191 241 301 361
#     4   9  19  38  64  93 126 163 200 239 286 342
#     4  11  24  40  58  82 115 156 200 246 296 351
#     4  10  19  36  60  87 116 148 188 239 295 354
#     4  12  24  39  61  90 122 155 195 246 297 346
#     4  12  24  39  62  88 117 154 196 242 294 352
#
# _framework density 19.554570999999999
#
# number of rings (size 3 to 8) (size 9 to 14) (size 15 to 20)
#    0.000    1.400    2.000    4.800    0.000    6.800 
#    0.000    3.500    0.000    4.800    0.000    0.000 
#    0.000    0.000    0.000    0.000    0.000    0.000 
#
# Total GULP energy -496215.293551 kJ/mol
# GULP energy per Si atom -12405.382339 kJ/mol
# Density = 1.951006 g / cm^3
# Si number density = 19.554571 Si / 1000 Ang^3
#
#
#
# Elastic Constant Matrix: (Units=GPa)
#
#
# Indices 1 2 3 4 5 6 
#
# 1 94.3733 37.0924 11.9202 0.0000 0.0000 0.0000
# 2 37.0924 97.3111 27.2489 0.0000 0.0000 0.0000
# 3 11.9202 27.2489 37.0770 0.0000 0.0000 0.0000
# 4 0.0000 0.0000 0.0000 30.0626 0.0000 0.0000
# 5 0.0000 0.0000 0.0000 0.0000 29.2568 0.0000
# 6 0.0000 0.0000 0.0000 0.0000 0.0000 35.9279
#
#
#
# Elastic Compliance Matrix: (Units=1/GPa)
#
#
# Indices 1 2 3 4 5 6 
#
# 1 0.012476 -0.004574 -0.000650 0.000000 0.000000 0.000000
# 2 -0.004574 0.014616 -0.009271 0.000000 0.000000 0.000000
# 3 -0.000650 -0.009271 0.033993 0.000000 0.000000 0.000000
# 4 0.000000 0.000000 0.000000 0.033264 0.000000 0.000000
# 5 0.000000 0.000000 0.000000 0.000000 0.034180 0.000000
# 6 0.000000 0.000000 0.000000 0.000000 0.000000 0.027834
#
#
# Mechanical properties :
#
#
# Convention : Reuss Voigt Hill
#
# Bulk Modulus (GPa) = 31.15639 42.36495 36.76067
# Shear Modulus (GPa) = 25.50371 29.21612 27.35991
#
# Velocity S-wave (km/s) = 3.61533 3.86953 3.74459
# Velocity P-wave (km/s) = 5.77885 6.45572 6.12664
#
# Compressibility (1/GPa) = 0.03209615
#
# Stress axis : x y z
#
# Youngs Moduli (GPa) = 80.15474 68.41959 29.41754
#
# Poissons Ratio (x) = 0.31292 0.01911
# Poissons Ratio (y) = 0.36659 0.27273
# Poissons Ratio (z) = 0.05208 0.63432
#
# Static dielectric constant tensor:
#      x y z
#    x 3.527350 0.000000 0.000000 
#    y 0.000000 3.753110 0.000000 
#    z 0.000000 0.000000 3.456170 
# 
# 
# High freq. dielectric constant tensor:
#      x y z
#    x 1.762800 0.000000 0.000000 
#    y 0.000000 1.767820 0.000000 
#    z 0.000000 0.000000 1.756960 
# 
# From -- ./inp_files/10718.got.cif
#   From: 2010.03.12/outbox.cif.g09.slc.cpg/sg47_6_cif.got.tgz:10718.got - 2010.04.14 03:12:58.
