data_PCOD8196172
_publ_section_title
;
Structure prediction by ZEFSAII (Michael W. Deem and Ramdas Pophale) SiO2 
 PCOD8196172
Probable space group: P M M M
;
_chemical_formula_sum "Si O2"
_cell_formula_units_Z 36
_cell_length_a 16.804596
_cell_length_b 12.625112
_cell_length_c 9.054401
_cell_angle_alpha 90.000000
_cell_angle_beta 90.000000
_cell_angle_gamma 90.000000
_cell_volume 1920.980871
_symmetry_space_group_name_H-M "P M M M"
_symmetry_group_IT_number 47
_symmetry_cell_setting 'orthorhombic'
loop_
_space_group_symop_operation_xyz
x,y,z
-x,-y,z
x,-y,-z
-x,y,-z
-x,-y,-z
x,y,-z
-x,y,z
x,-y,z
loop_
_atom_site_type_symbol
_atom_site_label
_atom_site_fract_x
_atom_site_fract_y
_atom_site_fract_z
Si Si1 0.594099 0.000000 0.831368
Si Si2 0.687034 0.819865 0.671185
Si Si3 0.256085 0.618468 0.173407
Si Si4 0.134344 0.118667 0.667395
Si Si5 0.085431 0.316758 0.173898
O O1 0.622890 0.893055 0.751668
O O2 0.500000 0.000000 0.824311
O O3 0.624950 0.000000 0.000000
O O4 0.663653 0.809787 0.500000
O O5 0.688314 0.701787 0.741309
O O6 0.771536 0.875236 0.694442
O O7 0.287903 0.500000 0.204875
O O8 0.164216 0.623671 0.233734
O O9 0.258836 0.645311 0.000000
O O10 0.114383 0.152074 0.500000
O O11 0.087186 0.194797 0.776459
O O12 0.105553 0.000000 0.700083
O O13 0.000000 0.365925 0.228320
O O14 0.087395 0.321347 0.000000
#
# Coordination Sequence:
#
# PCOD8196172 Si02
#       5
#     4   8   8   8   8
#     4  11  23  37  57  87 118 143 166 197 247 308
#     4  10  19  34  55  79 108 139 175 215 256 305
#     4   9  18  33  53  76 102 138 183 225 268 315
#     4   9  17  30  46  65  92 129 172 212 257 311
#     4   9  18  30  43  65  96 130 173 223 270 312
#
# _framework density 18.740427
#
# number of rings (size 3 to 8) (size 9 to 14) (size 15 to 20)
#    0.000    2.556    1.111    1.000    0.000    4.000 
#    0.000    4.444    0.000    0.667    0.000   10.889 
#    0.000    0.000    0.000    0.000    0.000    0.000 
#
# Total GULP energy -446189.895558 kJ/mol
# GULP energy per Si atom -12394.163765 kJ/mol
# Density = 1.869777 g / cm^3
# Si number density = 18.740427 Si / 1000 Ang^3
#
#
#
# Elastic Constant Matrix: (Units=GPa)
#
#
# Indices 1 2 3 4 5 6 
#
# 1 57.1322 33.2866 33.2747 0.0000 0.0000 0.0000
# 2 33.2866 117.4053 44.0642 0.0000 0.0000 0.0000
# 3 33.2747 44.0642 65.2397 0.0000 0.0000 0.0000
# 4 0.0000 0.0000 0.0000 22.2744 0.0000 0.0000
# 5 0.0000 0.0000 0.0000 0.0000 18.5389 0.0000
# 6 0.0000 0.0000 0.0000 0.0000 0.0000 7.4338
#
#
#
# Elastic Compliance Matrix: (Units=1/GPa)
#
#
# Indices 1 2 3 4 5 6 
#
# 1 0.025755 -0.003177 -0.010990 0.000000 0.000000 0.000000
# 2 -0.003177 0.011802 -0.006351 0.000000 0.000000 0.000000
# 3 -0.010990 -0.006351 0.025223 0.000000 0.000000 0.000000
# 4 0.000000 0.000000 0.000000 0.044895 0.000000 0.000000
# 5 0.000000 0.000000 0.000000 0.000000 0.053941 0.000000
# 6 0.000000 0.000000 0.000000 0.000000 0.000000 0.134520
#
#
# Mechanical properties :
#
#
# Convention : Reuss Voigt Hill
#
# Bulk Modulus (GPa) = 45.99026 51.22537 48.60781
# Shear Modulus (GPa) = 14.51719 18.25954 16.38836
#
# Velocity S-wave (km/s) = 2.78626 3.12483 2.96039
# Velocity P-wave (km/s) = 5.91143 6.35711 6.13832
#
# Compressibility (1/GPa) = 0.02174374
#
# Stress axis : x y z
#
# Youngs Moduli (GPa) = 38.82700 84.73259 39.64663
#
# Poissons Ratio (x) = 0.26922 0.43572
# Poissons Ratio (y) = 0.12337 0.25178
# Poissons Ratio (z) = 0.42671 0.53811
#
# Static dielectric constant tensor:
#      x y z
#    x 3.334440 0.000000 0.000000 
#    y 0.000000 3.434350 0.000000 
#    z 0.000000 0.000000 3.431400 
# 
# 
# High freq. dielectric constant tensor:
#      x y z
#    x 1.700480 0.000000 0.000000 
#    y 0.000000 1.725560 0.000000 
#    z 0.000000 0.000000 1.721320 
# 
# From -- ./inp_files/8665.got.cif
#   From: 2010.03.12/outbox.cif.g09.slc.cpg/sg47_5_cif.got.tgz:8665.got - 2010.04.14 03:12:58.
