data_PCOD8196845
_publ_section_title
;
Structure prediction by ZEFSAII (Michael W. Deem and Ramdas Pophale) SiO2 
 PCOD8196845
Probable space group: P M M M
;
_chemical_formula_sum "Si O2"
_cell_formula_units_Z 44
_cell_length_a 10.344470
_cell_length_b 9.190405
_cell_length_c 24.843468
_cell_angle_alpha 90.000000
_cell_angle_beta 90.000000
_cell_angle_gamma 90.000000
_cell_volume 2361.865244
_symmetry_space_group_name_H-M "P M M M"
_symmetry_group_IT_number 47
_symmetry_cell_setting 'orthorhombic'
loop_
_space_group_symop_operation_xyz
x,y,z
-x,-y,z
x,-y,-z
-x,y,-z
-x,-y,-z
x,y,-z
-x,y,z
x,-y,z
loop_
_atom_site_type_symbol
_atom_site_label
_atom_site_fract_x
_atom_site_fract_y
_atom_site_fract_z
Si Si1 0.000000 0.170277 0.558100
Si Si2 0.721001 0.830707 0.562926
Si Si3 0.644887 0.341457 0.659433
Si Si4 0.653030 0.162057 0.757653
Si Si5 0.853489 0.833297 0.936580
Si Si6 0.649369 0.328306 0.865191
O O1 0.135099 0.209617 0.586460
O O2 0.000000 0.248494 0.500000
O O3 0.000000 0.000000 0.547115
O O4 0.704617 0.788905 0.500000
O O5 0.631913 0.734233 0.600853
O O6 0.687395 0.000000 0.570603
O O7 0.500000 0.367162 0.679737
O O8 0.713994 0.500000 0.655377
O O9 0.713090 0.239770 0.704392
O O10 0.500000 0.149411 0.752715
O O11 0.692659 0.255099 0.809458
O O12 0.713207 0.000000 0.761912
O O13 0.745920 0.729700 0.910644
O O14 0.000000 0.790581 0.918575
O O15 0.825214 0.000000 0.920069
O O16 0.840610 0.813584 0.000000
O O17 0.500000 0.289006 0.879711
O O18 0.666370 0.500000 0.859322
#
# Coordination Sequence:
#
# PCOD8196845 Si02
#       6
#     4   8   8   8   8   8
#     4   7  12  26  47  67  85 109 145 189 234 277
#     4   9  17  30  49  70  91 119 157 199 242 292
#     4  10  20  32  46  67  98 131 159 194 244 298
#     4   9  17  31  52  74  95 125 167 209 249 296
#     4   9  19  36  56  78 107 145 186 223 260 306
#     4  10  20  33  52  80 111 140 173 217 267 316
#
# _framework density 18.629344
#
# number of rings (size 3 to 8) (size 9 to 14) (size 15 to 20)
#    0.000    2.818    0.000    3.273    0.000    6.182 
#    0.000    5.000    2.000    1.636    0.000    0.000 
#    0.000    0.000    0.000    0.000    0.000    0.000 
#
# Total GULP energy -545102.009682 kJ/mol
# GULP energy per Si atom -12388.682038 kJ/mol
# Density = 1.858694 g / cm^3
# Si number density = 18.629344 Si / 1000 Ang^3
#
#
#
# Elastic Constant Matrix: (Units=GPa)
#
#
# Indices 1 2 3 4 5 6 
#
# 1 56.9497 37.9262 33.0078 0.0000 0.0000 0.0000
# 2 37.9262 129.4019 63.8906 0.0000 0.0000 0.0000
# 3 33.0078 63.8906 96.0966 0.0000 0.0000 0.0000
# 4 0.0000 0.0000 0.0000 25.3996 0.0000 0.0000
# 5 0.0000 0.0000 0.0000 0.0000 10.4274 0.0000
# 6 0.0000 0.0000 0.0000 0.0000 0.0000 19.4708
#
#
#
# Elastic Compliance Matrix: (Units=1/GPa)
#
#
# Indices 1 2 3 4 5 6 
#
# 1 0.023433 -0.004308 -0.005185 0.000000 0.000000 0.000000
# 2 -0.004308 0.012296 -0.006696 0.000000 0.000000 0.000000
# 3 -0.005185 -0.006696 0.016639 0.000000 0.000000 0.000000
# 4 0.000000 0.000000 0.000000 0.039371 0.000000 0.000000
# 5 0.000000 0.000000 0.000000 0.000000 0.095902 0.000000
# 6 0.000000 0.000000 0.000000 0.000000 0.000000 0.051359
#
#
# Mechanical properties :
#
#
# Convention : Reuss Voigt Hill
#
# Bulk Modulus (GPa) = 50.02100 61.34414 55.68257
# Shear Modulus (GPa) = 17.98298 20.90112 19.44205
#
# Velocity S-wave (km/s) = 3.11030 3.35318 3.23402
# Velocity P-wave (km/s) = 6.30933 6.92763 6.62569
#
# Compressibility (1/GPa) = 0.01999160
#
# Stress axis : x y z
#
# Youngs Moduli (GPa) = 42.67396 81.32476 60.10098
#
# Poissons Ratio (x) = 0.35036 0.31161
# Poissons Ratio (y) = 0.18385 0.40241
# Poissons Ratio (z) = 0.22125 0.54451
#
# Static dielectric constant tensor:
#      x y z
#    x 3.384040 0.000000 0.000000 
#    y 0.000000 3.507820 0.000000 
#    z 0.000000 0.000000 3.274470 
# 
# 
# High freq. dielectric constant tensor:
#      x y z
#    x 1.692280 0.000000 0.000000 
#    y 0.000000 1.722840 0.000000 
#    z 0.000000 0.000000 1.715570 
# 
# From -- ./inp_files/15292.got.cif
#   From: 2010.03.12/outbox.cif.g09.slc.cpg/sg47_8_cif.got.tgz:15292.got - 2010.04.14 03:12:58.
