data_PCOD8196531
_publ_section_title
;
Structure prediction by ZEFSAII (Michael W. Deem and Ramdas Pophale) SiO2 
 PCOD8196531
Probable space group: P M M M
;
_chemical_formula_sum "Si O2"
_cell_formula_units_Z 56
_cell_length_a 18.987371
_cell_length_b 18.685264
_cell_length_c 9.101273
_cell_angle_alpha 90.000000
_cell_angle_beta 90.000000
_cell_angle_gamma 90.000000
_cell_volume 3228.986402
_symmetry_space_group_name_H-M "P M M M"
_symmetry_group_IT_number 47
_symmetry_cell_setting 'orthorhombic'
loop_
_space_group_symop_operation_xyz
x,y,z
-x,-y,z
x,-y,-z
-x,y,-z
-x,-y,-z
x,y,-z
-x,y,z
x,-y,z
loop_
_atom_site_type_symbol
_atom_site_label
_atom_site_fract_x
_atom_site_fract_y
_atom_site_fract_z
Si Si1 0.580404 0.711087 0.169076
Si Si2 0.303898 0.793334 0.333051
Si Si3 0.205648 0.919080 0.670043
Si Si4 0.922592 0.297112 0.326690
Si Si5 0.920834 0.853565 0.170079
Si Si6 0.218981 0.349487 0.665614
Si Si7 0.355747 0.419186 0.674801
O O1 0.500000 0.735501 0.187937
O O2 0.628538 0.774063 0.234942
O O3 0.589920 0.635275 0.251640
O O4 0.600761 0.699731 0.000000
O O5 0.330416 0.802359 0.500000
O O6 0.267632 0.866155 0.274260
O O7 0.245728 0.731645 0.321933
O O8 0.189359 0.902643 0.500000
O O9 0.133639 0.908987 0.759544
O O10 0.232215 0.000000 0.693853
O O11 0.912076 0.283282 0.500000
O O12 0.913680 0.222461 0.246820
O O13 0.860592 0.350546 0.267220
O O14 0.000000 0.330462 0.294072
O O15 0.000000 0.883986 0.191235
O O16 0.902440 0.843540 0.000000
O O17 0.212451 0.376060 0.500000
O O18 0.276808 0.402265 0.738819
O O19 0.358018 0.406048 0.500000
O O20 0.376898 0.500000 0.716016
#
# Coordination Sequence:
#
# PCOD8196531 Si02
#       7
#     8   8   8   8   8   8   8
#     4  10  21  35  52  76 103 129 156 191 236 283
#     4   9  17  32  52  73  96 123 159 200 240 285
#     4  10  20  34  52  72  95 126 164 205 248 292
#     4   9  15  25  44  66  89 121 163 208 249 286
#     4  10  20  31  43  64  97 132 165 204 248 292
#     4   8  13  25  45  67  90 119 158 201 240 276
#     4   9  18  32  50  72 100 134 166 196 234 282
#
# _framework density 17.342903
#
# number of rings (size 3 to 8) (size 9 to 14) (size 15 to 20)
#    0.000    2.714    1.429    1.714    0.000    3.714 
#    0.000    2.857    0.000    0.857    0.000    6.000 
#    0.000    0.000    0.000    7.286    0.000    8.571 
#
# Total GULP energy -693980.503129 kJ/mol
# GULP energy per Si atom -12392.508984 kJ/mol
# Density = 1.730343 g / cm^3
# Si number density = 17.342903 Si / 1000 Ang^3
#
#
#
# Elastic Constant Matrix: (Units=GPa)
#
#
# Indices 1 2 3 4 5 6 
#
# 1 107.6934 36.2588 40.6979 0.0000 0.0000 0.0000
# 2 36.2588 66.8800 29.6253 0.0000 0.0000 0.0000
# 3 40.6979 29.6253 60.2782 0.0000 0.0000 0.0000
# 4 0.0000 0.0000 0.0000 8.9867 0.0000 0.0000
# 5 0.0000 0.0000 0.0000 0.0000 22.9883 0.0000
# 6 0.0000 0.0000 0.0000 0.0000 0.0000 19.8952
#
#
#
# Elastic Compliance Matrix: (Units=1/GPa)
#
#
# Indices 1 2 3 4 5 6 
#
# 1 0.013304 -0.004134 -0.006951 0.000000 0.000000 0.000000
# 2 -0.004134 0.020398 -0.007234 0.000000 0.000000 0.000000
# 3 -0.006951 -0.007234 0.024838 0.000000 0.000000 0.000000
# 4 0.000000 0.000000 0.000000 0.111276 0.000000 0.000000
# 5 0.000000 0.000000 0.000000 0.000000 0.043500 0.000000
# 6 0.000000 0.000000 0.000000 0.000000 0.000000 0.050263
#
#
# Mechanical properties :
#
#
# Convention : Reuss Voigt Hill
#
# Bulk Modulus (GPa) = 45.65667 49.77953 47.71810
# Shear Modulus (GPa) = 16.25923 18.92534 17.59229
#
# Velocity S-wave (km/s) = 3.06521 3.30698 3.18839
# Velocity P-wave (km/s) = 6.23782 6.58384 6.41316
#
# Compressibility (1/GPa) = 0.02190261
#
# Stress axis : x y z
#
# Youngs Moduli (GPa) = 75.16413 49.02523 40.26078
#
# Poissons Ratio (x) = 0.20266 0.27985
# Poissons Ratio (y) = 0.31072 0.29124
# Poissons Ratio (z) = 0.52246 0.35464
#
# Static dielectric constant tensor:
#      x y z
#    x 3.433740 0.000000 0.000000 
#    y 0.000000 3.038340 0.000000 
#    z 0.000000 0.000000 3.122800 
# 
# 
# High freq. dielectric constant tensor:
#      x y z
#    x 1.674210 0.000000 0.000000 
#    y 0.000000 1.639790 0.000000 
#    z 0.000000 0.000000 1.651490 
# 
# From -- ./inp_files/11524.got.cif
#   From: 2010.03.12/outbox.cif.g09.slc.cpg/sg47_6_cif.got.tgz:11524.got - 2010.04.14 03:12:58.
