data_PCOD8196698
_publ_section_title
;
Structure prediction by ZEFSAII (Michael W. Deem and Ramdas Pophale) SiO2 
 PCOD8196698
Probable space group: P M M M
;
_chemical_formula_sum "Si O2"
_cell_formula_units_Z 60
_cell_length_a 9.137546
_cell_length_b 19.431092
_cell_length_c 28.488198
_cell_angle_alpha 90.000000
_cell_angle_beta 90.000000
_cell_angle_gamma 90.000000
_cell_volume 5058.150689
_symmetry_space_group_name_H-M "P M M M"
_symmetry_group_IT_number 47
_symmetry_cell_setting 'orthorhombic'
loop_
_space_group_symop_operation_xyz
x,y,z
-x,-y,z
x,-y,-z
-x,y,-z
-x,-y,-z
x,y,-z
-x,y,z
x,-y,z
loop_
_atom_site_type_symbol
_atom_site_label
_atom_site_fract_x
_atom_site_fract_y
_atom_site_fract_z
Si Si1 0.664460 0.081816 0.948283
Si Si2 0.672850 0.853945 0.587813
Si Si3 0.829626 0.081011 0.675387
Si Si4 0.834199 0.574913 0.555779
Si Si5 0.166688 0.081415 0.500000
Si Si6 0.835441 0.917817 0.859098
Si Si7 0.669673 0.705970 0.446884
Si Si8 0.664787 0.081681 0.231331
O O1 0.500000 0.108853 0.939355
O O2 0.769549 0.111580 0.907821
O O3 0.664697 0.000000 0.946077
O O4 0.719302 0.105950 0.000000
O O5 0.500000 0.869239 0.586115
O O6 0.740351 0.878916 0.636177
O O7 0.748991 0.893845 0.545734
O O8 0.705979 0.772794 0.583884
O O9 0.763084 0.105295 0.724871
O O10 0.000000 0.101119 0.673610
O O11 0.808058 0.000000 0.667450
O O12 0.822792 0.577211 0.500000
O O13 0.774387 0.500000 0.573173
O O14 0.744252 0.639025 0.576801
O O15 0.000000 0.583540 0.572637
O O16 0.000000 0.109730 0.500000
O O17 0.165280 0.000000 0.500000
O O18 0.739207 0.889219 0.815942
O O19 0.000000 0.889804 0.853885
O O20 0.834292 0.000000 0.859059
O O21 0.726692 0.719538 0.500000
O O22 0.500000 0.689851 0.447804
O O23 0.500000 0.111384 0.235818
O O24 0.659144 0.000000 0.229035
#
# Coordination Sequence:
#
# PCOD8196698 Si02
#       8
#     8   8   8   8   4   8   8   8
#     4   8  13  20  28  38  54  76  99 120 142 173
#     4  11  21  33  45  57  72  89 109 132 159 194
#     4  10  20  32  43  55  69  82 102 134 168 201
#     4   8  14  24  38  57  77  94 112 130 147 171
#     4  11  23  35  45  57  70  85 108 135 163 196
#     4   9  15  21  30  44  60  76  94 119 150 182
#     4   9  17  29  41  55  74  92 111 131 151 179
#     4   9  16  26  39  51  61  76  98 123 155 193
#
# _framework density 11.862043
#
# number of rings (size 3 to 8) (size 9 to 14) (size 15 to 20)
#    0.000    2.733    0.667    3.000    0.000    7.733 
#    0.000    2.667    0.000    0.000    0.000    0.000 
#    0.000    0.000    0.000    0.000    0.000    0.000 
#
# Total GULP energy -743690.589936 kJ/mol
# GULP energy per Si atom -12394.843166 kJ/mol
# Density = 1.183504 g / cm^3
# Si number density = 11.862043 Si / 1000 Ang^3
#
#
#
# Elastic Constant Matrix: (Units=GPa)
#
#
# Indices 1 2 3 4 5 6 
#
# 1 86.1341 31.8983 45.6376 0.0000 0.0000 0.0000
# 2 31.8983 43.7683 24.1406 0.0000 0.0000 0.0000
# 3 45.6376 24.1406 85.1336 0.0000 0.0000 0.0000
# 4 0.0000 0.0000 0.0000 -6.9808 0.0000 0.0000
# 5 0.0000 0.0000 0.0000 0.0000 20.4442 0.0000
# 6 0.0000 0.0000 0.0000 0.0000 0.0000 14.5596
#
#
#
# Elastic Compliance Matrix: (Units=1/GPa)
#
#
# Indices 1 2 3 4 5 6 
#
# 1 0.019254 -0.009886 -0.007519 0.000000 0.000000 0.000000
# 2 -0.009886 0.032159 -0.003820 0.000000 0.000000 0.000000
# 3 -0.007519 -0.003820 0.016860 0.000000 0.000000 0.000000
# 4 0.000000 0.000000 0.000000 -0.143249 0.000000 0.000000
# 5 0.000000 0.000000 0.000000 0.000000 0.048914 0.000000
# 6 0.000000 0.000000 0.000000 0.000000 0.000000 0.068683
#
#
# Mechanical properties :
#
#
# Convention : Reuss Voigt Hill
#
# Bulk Modulus (GPa) = 38.72139 46.48766 42.60453
# Shear Modulus (GPa) = 53.37490 13.16190 33.26840
#
# Velocity S-wave (km/s) = 6.71521 3.33465 5.30160
# Velocity P-wave (km/s) = 9.63532 7.35540 8.57150
#
# Compressibility (1/GPa) = 0.02582552
#
# Stress axis : x y z
#
# Youngs Moduli (GPa) = 51.93606 31.09548 59.31274
#
# Poissons Ratio (x) = 0.30740 0.44594
# Poissons Ratio (y) = 0.51343 0.22655
# Poissons Ratio (z) = 0.39048 0.11877
#
# Static dielectric constant tensor:
#      x y z
#    x 2.667590 0.000000 0.000000 
#    y 0.000000 2.264130 0.000000 
#    z 0.000000 0.000000 2.461860 
# 
# 
# High freq. dielectric constant tensor:
#      x y z
#    x 1.466000 0.000000 0.000000 
#    y 0.000000 1.393560 0.000000 
#    z 0.000000 0.000000 1.433900 
# 
# From -- ./inp_files/33488.got.cif
#   From: 2010.03.12/outbox.cif.g09.slc.cpg/sg47_17_cif.got.tgz:33488.got - 2010.04.14 03:12:58.
