data_PCOD8196158
_publ_section_title
;
Structure prediction by ZEFSAII (Michael W. Deem and Ramdas Pophale) SiO2 
 PCOD8196158
Probable space group: P M M M
;
_chemical_formula_sum "Si O2"
_cell_formula_units_Z 48
_cell_length_a 14.630573
_cell_length_b 18.375119
_cell_length_c 8.824671
_cell_angle_alpha 90.000000
_cell_angle_beta 90.000000
_cell_angle_gamma 90.000000
_cell_volume 2372.411490
_symmetry_space_group_name_H-M "P M M M"
_symmetry_group_IT_number 47
_symmetry_cell_setting 'orthorhombic'
loop_
_space_group_symop_operation_xyz
x,y,z
-x,-y,z
x,-y,-z
-x,y,-z
-x,-y,-z
x,y,-z
-x,y,z
x,-y,z
loop_
_atom_site_type_symbol
_atom_site_label
_atom_site_fract_x
_atom_site_fract_y
_atom_site_fract_z
Si Si1 0.607979 0.500000 0.331189
Si Si2 0.897449 0.580766 0.320272
Si Si3 0.212458 0.858792 0.180052
Si Si4 0.604660 0.648261 0.820858
Si Si5 0.400874 0.918592 0.820319
Si Si6 0.227051 0.288178 0.679744
Si Si7 0.897073 0.000000 0.180037
O O1 0.500000 0.500000 0.343614
O O2 0.652108 0.500000 0.500000
O O3 0.640361 0.429026 0.241623
O O4 0.899615 0.585593 0.500000
O O5 0.862726 0.500000 0.270334
O O6 0.830942 0.643362 0.256400
O O7 0.000000 0.593719 0.257231
O O8 0.317029 0.869906 0.236942
O O9 0.178016 0.785307 0.261063
O O10 0.153141 0.927202 0.238535
O O11 0.204388 0.849898 0.000000
O O12 0.500000 0.664025 0.771444
O O13 0.670607 0.708930 0.749199
O O14 0.613585 0.648872 0.000000
O O15 0.500000 0.885726 0.770678
O O16 0.390684 0.000000 0.754119
O O17 0.395368 0.923258 0.000000
O O18 0.232545 0.287799 0.500000
O O19 0.000000 0.000000 0.243521
O O20 0.895279 0.000000 0.000000
#
# Coordination Sequence:
#
# PCOD8196158 Si02
#       7
#     4   8   8   8   8   8   4
#     4   9  17  31  53  79 108 145 190 239 285 328
#     4   8  16  34  58  80 103 136 183 235 282 335
#     4  10  19  34  54  78 110 144 182 227 274 333
#     4  10  21  37  55  78 112 155 199 237 276 329
#     4   8  13  24  47  76  99 125 170 222 262 303
#     4  11  23  35  54  85 116 147 185 234 290 343
#     4   9  18  34  58  84 108 143 189 232 276 333
#
# _framework density 20.232579000000001
#
# number of rings (size 3 to 8) (size 9 to 14) (size 15 to 20)
#    0.000    2.667    0.833    2.250    1.167    3.333 
#    0.000    2.083    0.000    2.000    0.000    5.833 
#    0.000    0.000    0.000    0.000    0.000    0.000 
#
# Total GULP energy -594963.811653 kJ/mol
# GULP energy per Si atom -12395.079409 kJ/mol
# Density = 2.018653 g / cm^3
# Si number density = 20.232579 Si / 1000 Ang^3
#
#
#
# Elastic Constant Matrix: (Units=GPa)
#
#
# Indices 1 2 3 4 5 6 
#
# 1 116.6305 73.9327 25.9346 0.0000 0.0000 0.0000
# 2 73.9327 156.5892 32.5198 0.0000 0.0000 0.0000
# 3 25.9346 32.5198 47.3765 0.0000 0.0000 0.0000
# 4 0.0000 0.0000 0.0000 25.8413 0.0000 0.0000
# 5 0.0000 0.0000 0.0000 0.0000 12.5856 0.0000
# 6 0.0000 0.0000 0.0000 0.0000 0.0000 21.9113
#
#
#
# Elastic Compliance Matrix: (Units=1/GPa)
#
#
# Indices 1 2 3 4 5 6 
#
# 1 0.012663 -0.005294 -0.003298 0.000000 0.000000 0.000000
# 2 -0.005294 0.009661 -0.003733 0.000000 0.000000 0.000000
# 3 -0.003298 -0.003733 0.025476 0.000000 0.000000 0.000000
# 4 0.000000 0.000000 0.000000 0.038698 0.000000 0.000000
# 5 0.000000 0.000000 0.000000 0.000000 0.079456 0.000000
# 6 0.000000 0.000000 0.000000 0.000000 0.000000 0.045639
#
#
# Mechanical properties :
#
#
# Convention : Reuss Voigt Hill
#
# Bulk Modulus (GPa) = 43.19891 65.04116 54.12003
# Shear Modulus (GPa) = 20.49516 24.61491 22.55504
#
# Velocity S-wave (km/s) = 3.18618 3.49176 3.34247
# Velocity P-wave (km/s) = 5.91043 6.96226 6.45780
#
# Compressibility (1/GPa) = 0.02314873
#
# Stress axis : x y z
#
# Youngs Moduli (GPa) = 78.96780 103.50901 39.25307
#
# Poissons Ratio (x) = 0.54797 0.12947
# Poissons Ratio (y) = 0.41805 0.14655
# Poissons Ratio (z) = 0.26046 0.38644
#
# Static dielectric constant tensor:
#      x y z
#    x 3.945190 0.000000 0.000000 
#    y 0.000000 3.805190 0.000000 
#    z 0.000000 0.000000 3.138290 
# 
# 
# High freq. dielectric constant tensor:
#      x y z
#    x 1.791530 0.000000 0.000000 
#    y 0.000000 1.794040 0.000000 
#    z 0.000000 0.000000 1.738170 
# 
# From -- ./inp_files/6556.got.cif
#   From: 2010.03.12/outbox.cif.g09.slc.cpg/sg47_4_cif.got.tgz:6556.got - 2010.04.14 03:12:58.
