data_PCOD8196865
_publ_section_title
;
Structure prediction by ZEFSAII (Michael W. Deem and Ramdas Pophale) SiO2 
 PCOD8196865
Probable space group: P M M M
;
_chemical_formula_sum "Si O2"
_cell_formula_units_Z 52
_cell_length_a 8.952703
_cell_length_b 13.339803
_cell_length_c 23.962918
_cell_angle_alpha 90.000000
_cell_angle_beta 90.000000
_cell_angle_gamma 90.000000
_cell_volume 2861.826461
_symmetry_space_group_name_H-M "P M M M"
_symmetry_group_IT_number 47
_symmetry_cell_setting 'orthorhombic'
loop_
_space_group_symop_operation_xyz
x,y,z
-x,-y,z
x,-y,-z
-x,y,-z
-x,-y,-z
x,y,-z
-x,y,z
x,-y,z
loop_
_atom_site_type_symbol
_atom_site_label
_atom_site_fract_x
_atom_site_fract_y
_atom_site_fract_z
Si Si1 0.324825 0.195329 0.371042
Si Si2 0.322291 0.000000 0.563347
Si Si3 0.171182 0.230359 0.841217
Si Si4 0.327954 0.114352 0.064291
Si Si5 0.830266 0.885497 0.268626
Si Si6 0.176054 0.387198 0.652937
Si Si7 0.669072 0.385550 0.769807
O O1 0.500000 0.205706 0.379513
O O2 0.261153 0.101736 0.407371
O O3 0.283597 0.177009 0.306551
O O4 0.250638 0.302872 0.387567
O O5 0.500000 0.000000 0.566915
O O6 0.264643 0.000000 0.500000
O O7 0.227618 0.189284 0.900028
O O8 0.191333 0.143285 0.795496
O O9 0.267898 0.325468 0.822558
O O10 0.000000 0.263616 0.847476
O O11 0.500000 0.126932 0.081715
O O12 0.276589 0.000000 0.074519
O O13 0.304804 0.143575 0.000000
O O14 0.000000 0.864560 0.288436
O O15 0.785871 0.000000 0.275274
O O16 0.223740 0.500000 0.633914
O O17 0.227506 0.367352 0.716128
O O18 0.000000 0.374330 0.650200
O O19 0.500000 0.351983 0.755208
O O20 0.673017 0.500000 0.788636
#
# Coordination Sequence:
#
# PCOD8196865 Si02
#       7
#     8   4   8   8   8   8   8
#     4  11  20  32  54  80 106 141 182 222 267 317
#     4   9  20  38  57  81 113 147 184 227 272 317
#     4  11  21  32  50  76 105 140 174 209 264 321
#     4   9  19  36  55  74  99 135 177 220 263 307
#     4  10  20  32  46  70 108 145 171 207 260 317
#     4  10  20  34  52  76 109 146 179 217 271 326
#     4  10  20  33  50  74 104 137 175 216 257 310
#
# _framework density 18.170216
#
# number of rings (size 3 to 8) (size 9 to 14) (size 15 to 20)
#    0.000    1.923    2.308    2.769    0.000    3.692 
#    0.000    0.769    0.000    4.615    0.000    6.462 
#    0.000    0.000    0.000    0.000    0.000    0.000 
#
# Total GULP energy -644765.766119 kJ/mol
# GULP energy per Si atom -12399.341656 kJ/mol
# Density = 1.812886 g / cm^3
# Si number density = 18.170216 Si / 1000 Ang^3
#
#
#
# Elastic Constant Matrix: (Units=GPa)
#
#
# Indices 1 2 3 4 5 6 
#
# 1 73.8188 49.3633 25.4995 0.0000 0.0000 0.0000
# 2 49.3633 139.4842 41.8988 0.0000 0.0000 0.0000
# 3 25.4995 41.8988 61.4628 0.0000 0.0000 0.0000
# 4 0.0000 0.0000 0.0000 19.3884 0.0000 0.0000
# 5 0.0000 0.0000 0.0000 0.0000 11.3478 0.0000
# 6 0.0000 0.0000 0.0000 0.0000 0.0000 31.1495
#
#
#
# Elastic Compliance Matrix: (Units=1/GPa)
#
#
# Indices 1 2 3 4 5 6 
#
# 1 0.018512 -0.005337 -0.004042 0.000000 0.000000 0.000000
# 2 -0.005337 0.010554 -0.004980 0.000000 0.000000 0.000000
# 3 -0.004042 -0.004980 0.021342 0.000000 0.000000 0.000000
# 4 0.000000 0.000000 0.000000 0.051577 0.000000 0.000000
# 5 0.000000 0.000000 0.000000 0.000000 0.088123 0.000000
# 6 0.000000 0.000000 0.000000 0.000000 0.000000 0.032103
#
#
# Mechanical properties :
#
#
# Convention : Reuss Voigt Hill
#
# Bulk Modulus (GPa) = 46.10603 56.47657 51.29130
# Shear Modulus (GPa) = 19.36784 22.91075 21.13930
#
# Velocity S-wave (km/s) = 3.26837 3.55476 3.41457
# Velocity P-wave (km/s) = 6.29862 6.92805 6.62082
#
# Compressibility (1/GPa) = 0.02168914
#
# Stress axis : x y z
#
# Youngs Moduli (GPa) = 54.01922 94.74944 46.85599
#
# Poissons Ratio (x) = 0.50570 0.18938
# Poissons Ratio (y) = 0.28831 0.23336
# Poissons Ratio (z) = 0.21834 0.47189
#
# Static dielectric constant tensor:
#      x y z
#    x 3.341750 0.000000 0.000000 
#    y 0.000000 3.663410 0.000000 
#    z 0.000000 0.000000 3.039640 
# 
# 
# High freq. dielectric constant tensor:
#      x y z
#    x 1.704760 0.000000 0.000000 
#    y 0.000000 1.717350 0.000000 
#    z 0.000000 0.000000 1.665090 
# 
# From -- ./inp_files/31985.got.cif
#   From: 2010.03.12/outbox.cif.g09.slc.cpg/sg47_16_cif.got.tgz:31985.got - 2010.04.14 03:12:58.
