data_PCOD8196368
_publ_section_title
;
Structure prediction by ZEFSAII (Michael W. Deem and Ramdas Pophale) SiO2 
 PCOD8196368
Probable space group: P M M M
;
_chemical_formula_sum "Si O2"
_cell_formula_units_Z 40
_cell_length_a 9.430585
_cell_length_b 23.036434
_cell_length_c 12.262283
_cell_angle_alpha 90.000000
_cell_angle_beta 90.000000
_cell_angle_gamma 90.000000
_cell_volume 2663.944795
_symmetry_space_group_name_H-M "P M M M"
_symmetry_group_IT_number 47
_symmetry_cell_setting 'orthorhombic'
loop_
_space_group_symop_operation_xyz
x,y,z
-x,-y,z
x,-y,-z
-x,y,-z
-x,-y,-z
x,y,-z
-x,y,z
x,-y,z
loop_
_atom_site_type_symbol
_atom_site_label
_atom_site_fract_x
_atom_site_fract_y
_atom_site_fract_z
Si Si1 0.167966 0.432688 0.263760
Si Si2 0.661747 0.657759 0.129567
Si Si3 0.659347 0.000000 0.869645
Si Si4 0.845112 0.431399 0.500000
Si Si5 0.840911 0.234803 0.129596
Si Si6 0.840821 0.893610 0.870351
O O1 0.199277 0.500000 0.240740
O O2 0.252809 0.397015 0.174218
O O3 0.228258 0.414104 0.384833
O O4 0.000000 0.420287 0.255244
O O5 0.500000 0.656045 0.170373
O O6 0.732741 0.717005 0.175105
O O7 0.670534 0.654927 0.000000
O O8 0.736367 0.942561 0.822703
O O9 0.500000 0.000000 0.824775
O O10 0.662415 0.000000 0.000000
O O11 0.864714 0.500000 0.500000
O O12 0.000000 0.402275 0.500000
O O13 0.792782 0.170600 0.169770
O O14 0.000000 0.248459 0.172004
O O15 0.840707 0.235937 0.000000
O O16 0.000000 0.906776 0.829196
O O17 0.837780 0.895679 0.000000
#
# Coordination Sequence:
#
# PCOD8196368 Si02
#       6
#     8   8   4   4   8   8
#     4   9  17  30  48  65  79  98 126 160 196 235
#     4  10  20  30  39  55  81 109 133 160 195 233
#     4   9  15  19  25  41  63  85 111 146 187 228
#     4   7  12  26  47  67  81  93 117 156 197 232
#     4   8  14  25  39  51  64  89 127 164 193 225
#     4   8  13  21  32  44  59  82 114 153 192 224
#
# _framework density 15.015326
#
# number of rings (size 3 to 8) (size 9 to 14) (size 15 to 20)
#    0.000    3.400    0.000    3.300    0.000    4.000 
#    0.000    6.500    0.000    1.800    0.000    0.000 
#    0.000    0.000    0.000    0.000    0.000    1.000 
#
# Total GULP energy -495531.070717 kJ/mol
# GULP energy per Si atom -12388.276768 kJ/mol
# Density = 1.498115 g / cm^3
# Si number density = 15.015326 Si / 1000 Ang^3
#
#
#
# Elastic Constant Matrix: (Units=GPa)
#
#
# Indices 1 2 3 4 5 6 
#
# 1 98.6248 73.1710 18.8776 0.0000 0.0000 0.0000
# 2 73.1710 116.3132 21.3086 0.0000 0.0000 0.0000
# 3 18.8776 21.3086 17.4676 0.0000 0.0000 0.0000
# 4 0.0000 0.0000 0.0000 0.5991 0.0000 0.0000
# 5 0.0000 0.0000 0.0000 0.0000 7.6848 0.0000
# 6 0.0000 0.0000 0.0000 0.0000 0.0000 13.6349
#
#
#
# Elastic Compliance Matrix: (Units=1/GPa)
#
#
# Indices 1 2 3 4 5 6 
#
# 1 0.019847 -0.011018 -0.008008 0.000000 0.000000 0.000000
# 2 -0.011018 0.017189 -0.009061 0.000000 0.000000 0.000000
# 3 -0.008008 -0.009061 0.076956 0.000000 0.000000 0.000000
# 4 0.000000 0.000000 0.000000 1.669296 0.000000 0.000000
# 5 0.000000 0.000000 0.000000 0.000000 0.130127 0.000000
# 6 0.000000 0.000000 0.000000 0.000000 0.000000 0.073341
#
#
# Mechanical properties :
#
#
# Convention : Reuss Voigt Hill
#
# Bulk Modulus (GPa) = 17.29558 51.01331 34.15444
# Shear Modulus (GPa) = 2.42459 12.32032 7.37245
#
# Velocity S-wave (km/s) = 1.27210 2.86757 2.21825
# Velocity P-wave (km/s) = 3.70153 6.70909 5.41817
#
# Compressibility (1/GPa) = 0.05781824
#
# Stress axis : x y z
#
# Youngs Moduli (GPa) = 50.38588 58.17704 12.99438
#
# Poissons Ratio (x) = 0.64101 0.10406
# Poissons Ratio (y) = 0.55517 0.11774
# Poissons Ratio (z) = 0.40348 0.52713
#
# Static dielectric constant tensor:
#      x y z
#    x 2.950940 0.000000 0.000000 
#    y 0.000000 3.097050 0.000000 
#    z 0.000000 0.000000 2.490740 
# 
# 
# High freq. dielectric constant tensor:
#      x y z
#    x 1.569390 0.000000 0.000000 
#    y 0.000000 1.579440 0.000000 
#    z 0.000000 0.000000 1.505900 
# 
# From -- ./inp_files/21250.got.cif
#   From: 2010.03.12/outbox.cif.g09.slc.cpg/sg47_11_cif.got.tgz:21250.got - 2010.04.14 03:12:58.
