data_PCOD8196964
_publ_section_title
;
Structure prediction by ZEFSAII (Michael W. Deem and Ramdas Pophale) SiO2 
 PCOD8196964
Probable space group: P M M M
;
_chemical_formula_sum "Si O2"
_cell_formula_units_Z 44
_cell_length_a 8.046160
_cell_length_b 9.556883
_cell_length_c 30.108195
_cell_angle_alpha 90.000000
_cell_angle_beta 90.000000
_cell_angle_gamma 90.000000
_cell_volume 2315.206077
_symmetry_space_group_name_H-M "P M M M"
_symmetry_group_IT_number 47
_symmetry_cell_setting 'orthorhombic'
loop_
_space_group_symop_operation_xyz
x,y,z
-x,-y,z
x,-y,-z
-x,y,-z
-x,-y,-z
x,y,-z
-x,y,z
x,-y,z
loop_
_atom_site_type_symbol
_atom_site_label
_atom_site_fract_x
_atom_site_fract_y
_atom_site_fract_z
Si Si1 0.304556 0.157847 0.449587
Si Si2 0.198850 0.843327 0.293020
Si Si3 0.000000 0.833069 0.949660
Si Si4 0.682748 0.166491 0.104364
Si Si5 0.815311 0.833613 0.196265
Si Si6 0.192892 0.654743 0.628486
O O1 0.252863 0.193255 0.500000
O O2 0.500000 0.172450 0.443446
O O3 0.214474 0.267264 0.418047
O O4 0.247619 0.000000 0.437672
O O5 0.257620 0.787026 0.244376
O O6 0.274351 0.742834 0.331092
O O7 0.000000 0.846235 0.293841
O O8 0.267184 0.000000 0.301906
O O9 0.167327 0.773978 0.926032
O O10 0.000000 0.000000 0.947707
O O11 0.000000 0.778209 0.000000
O O12 0.500000 0.217362 0.087494
O O13 0.703333 0.219398 0.155259
O O14 0.690972 0.000000 0.102969
O O15 0.000000 0.771896 0.189142
O O16 0.825596 0.000000 0.196484
O O17 0.274850 0.500000 0.626274
O O18 0.000000 0.639283 0.638387
#
# Coordination Sequence:
#
# PCOD8196964 Si02
#       6
#     8   8   4   8   8   8
#     4   9  19  36  55  72  90 117 157 202 244 285
#     4   8  14  25  43  64  85 115 153 189 228 274
#     4   9  16  24  32  44  68 104 143 181 224 277
#     4   9  15  22  33  49  70  97 134 183 231 273
#     4   8  12  21  37  53  70  96 134 180 227 270
#     4  10  20  32  47  71 102 130 156 188 230 285
#
# _framework density 19.004788999999999
#
# number of rings (size 3 to 8) (size 9 to 14) (size 15 to 20)
#    0.000    3.182    0.909    2.182    0.000    2.545 
#    0.000    5.455    0.000    3.273    0.000    0.000 
#    0.000    0.000    0.000    0.000    0.000    1.818 
#
# Total GULP energy -545189.496450 kJ/mol
# GULP energy per Si atom -12390.670374 kJ/mol
# Density = 1.896153 g / cm^3
# Si number density = 19.004789 Si / 1000 Ang^3
#
#
#
# Elastic Constant Matrix: (Units=GPa)
#
#
# Indices 1 2 3 4 5 6 
#
# 1 74.4792 18.5009 46.4558 0.0000 0.0000 0.0000
# 2 18.5009 67.6727 52.7200 0.0000 0.0000 0.0000
# 3 46.4558 52.7200 156.6999 0.0000 0.0000 0.0000
# 4 0.0000 0.0000 0.0000 2.5200 0.0000 0.0000
# 5 0.0000 0.0000 0.0000 0.0000 10.5710 0.0000
# 6 0.0000 0.0000 0.0000 0.0000 0.0000 7.9062
#
#
#
# Elastic Compliance Matrix: (Units=1/GPa)
#
#
# Indices 1 2 3 4 5 6 
#
# 1 0.016518 -0.000950 -0.004577 0.000000 0.000000 0.000000
# 2 -0.000950 0.020080 -0.006474 0.000000 0.000000 0.000000
# 3 -0.004577 -0.006474 0.009917 0.000000 0.000000 0.000000
# 4 0.000000 0.000000 0.000000 0.396826 0.000000 0.000000
# 5 0.000000 0.000000 0.000000 0.000000 0.094599 0.000000
# 6 0.000000 0.000000 0.000000 0.000000 0.000000 0.126484
#
#
# Mechanical properties :
#
#
# Convention : Reuss Voigt Hill
#
# Bulk Modulus (GPa) = 44.42060 59.35614 51.88837
# Shear Modulus (GPa) = 7.18464 16.27777 11.73120
#
# Velocity S-wave (km/s) = 1.94644 2.92979 2.48720
# Velocity P-wave (km/s) = 5.33626 6.53796 5.96743
#
# Compressibility (1/GPa) = 0.02251208
#
# Stress axis : x y z
#
# Youngs Moduli (GPa) = 60.54164 49.79984 100.83871
#
# Poissons Ratio (x) = 0.04730 0.46157
# Poissons Ratio (y) = 0.05750 0.65286
# Poissons Ratio (z) = 0.27712 0.32242
#
# Static dielectric constant tensor:
#      x y z
#    x 3.327100 0.000000 0.000000 
#    y 0.000000 3.118770 0.000000 
#    z 0.000000 0.000000 3.803560 
# 
# 
# High freq. dielectric constant tensor:
#      x y z
#    x 1.718510 0.000000 0.000000 
#    y 0.000000 1.669190 0.000000 
#    z 0.000000 0.000000 1.750580 
# 
# From -- ./inp_files/33880.got.cif
#   From: 2010.03.12/outbox.cif.g09.slc.cpg/sg47_17_cif.got.tgz:33880.got - 2010.04.14 03:12:58.
