data_PCOD8196736
_publ_section_title
;
Structure prediction by ZEFSAII (Michael W. Deem and Ramdas Pophale) SiO2 
 PCOD8196736
Probable space group: P M M M
;
_chemical_formula_sum "Si O2"
_cell_formula_units_Z 40
_cell_length_a 8.931498
_cell_length_b 16.886836
_cell_length_c 18.037884
_cell_angle_alpha 90.000000
_cell_angle_beta 90.000000
_cell_angle_gamma 90.000000
_cell_volume 2720.559200
_symmetry_space_group_name_H-M "P M M M"
_symmetry_group_IT_number 47
_symmetry_cell_setting 'orthorhombic'
loop_
_space_group_symop_operation_xyz
x,y,z
-x,-y,z
x,-y,-z
-x,y,-z
-x,-y,-z
x,y,-z
-x,y,z
x,-y,z
loop_
_atom_site_type_symbol
_atom_site_label
_atom_site_fract_x
_atom_site_fract_y
_atom_site_fract_z
Si Si1 0.323711 0.324903 0.637209
Si Si2 0.830138 0.406441 0.500000
Si Si3 0.176994 0.000000 0.580988
Si Si4 0.827220 0.828714 0.411703
Si Si5 0.172915 0.593119 0.772841
Si Si6 0.667858 0.593913 0.081308
O O1 0.500000 0.331967 0.629748
O O2 0.249812 0.376034 0.572934
O O3 0.275868 0.233562 0.630824
O O4 0.273073 0.358973 0.715538
O O5 0.825531 0.500000 0.500000
O O6 0.000000 0.374431 0.500000
O O7 0.221539 0.083600 0.619513
O O8 0.252422 0.000000 0.500000
O O9 0.000000 0.000000 0.570543
O O10 0.801375 0.823022 0.500000
O O11 0.000000 0.811116 0.392776
O O12 0.204573 0.500000 0.762840
O O13 0.219059 0.623101 0.854938
O O14 0.000000 0.613110 0.759469
O O15 0.500000 0.624783 0.098538
O O16 0.667063 0.500000 0.079672
O O17 0.720271 0.625389 0.000000
#
# Coordination Sequence:
#
# PCOD8196736 Si02
#       6
#     8   4   4   8   8   8
#     4  12  23  32  44  62  85 111 142 179 220 259
#     4  11  23  37  49  58  73 104 147 189 224 255
#     4   7  12  24  45  69  83 101 133 166 205 254
#     4   9  16  29  48  65  84 108 137 172 210 255
#     4  10  20  32  45  61  82 111 148 185 218 252
#     4   8  14  26  44  64  85 108 134 168 213 261
#
# _framework density 14.702861
#
# number of rings (size 3 to 8) (size 9 to 14) (size 15 to 20)
#    0.000    2.400    1.000    5.100    0.000    4.800 
#    0.000    2.500    0.000    1.800    0.000    0.000 
#    0.000    0.000    0.000    0.900    0.000   17.400 
#
# Total GULP energy -495722.071570 kJ/mol
# GULP energy per Si atom -12393.051789 kJ/mol
# Density = 1.466940 g / cm^3
# Si number density = 14.702861 Si / 1000 Ang^3
#
#
#
# Elastic Constant Matrix: (Units=GPa)
#
#
# Indices 1 2 3 4 5 6 
#
# 1 96.8205 43.2863 43.0633 0.0000 0.0000 0.0000
# 2 43.2863 76.1868 35.5948 0.0000 0.0000 0.0000
# 3 43.0633 35.5948 85.5461 0.0000 0.0000 0.0000
# 4 0.0000 0.0000 0.0000 -131.5141 0.0000 0.0000
# 5 0.0000 0.0000 0.0000 0.0000 24.6206 0.0000
# 6 0.0000 0.0000 0.0000 0.0000 0.0000 9.5268
#
#
#
# Elastic Compliance Matrix: (Units=1/GPa)
#
#
# Indices 1 2 3 4 5 6 
#
# 1 0.015466 -0.006393 -0.005126 0.000000 0.000000 0.000000
# 2 -0.006393 0.018935 -0.004661 0.000000 0.000000 0.000000
# 3 -0.005126 -0.004661 0.016209 0.000000 0.000000 0.000000
# 4 0.000000 0.000000 0.000000 -0.007604 0.000000 0.000000
# 5 0.000000 0.000000 0.000000 0.000000 0.040616 0.000000
# 6 0.000000 0.000000 0.000000 0.000000 0.000000 0.104967
#
#
# Mechanical properties :
#
#
# Convention : Reuss Voigt Hill
#
# Bulk Modulus (GPa) = 54.78705 55.82691 55.30698
# Shear Modulus (GPa) = 22.02334 -10.36608 5.82863
#
# Velocity S-wave (km/s) = 3.87446 -2.65814 1.99321
# Velocity P-wave (km/s) = 7.57358 5.35085 6.55708
#
# Compressibility (1/GPa) = 0.01825249
#
# Stress axis : x y z
#
# Youngs Moduli (GPa) = 64.65742 52.81191 61.69363
#
# Poissons Ratio (x) = 0.33760 0.31622
# Poissons Ratio (y) = 0.41332 0.28754
# Poissons Ratio (z) = 0.33141 0.24614
#
# Static dielectric constant tensor:
#      x y z
#    x 2.862150 0.000000 0.000000 
#    y 0.000000 2.916100 0.000000 
#    z 0.000000 0.000000 3.223140 
# 
# 
# High freq. dielectric constant tensor:
#      x y z
#    x 1.563030 0.000000 0.000000 
#    y 0.000000 1.538320 0.000000 
#    z 0.000000 0.000000 1.540640 
# 
# From -- ./inp_files/26636.got.cif
#   From: 2010.03.12/outbox.cif.g09.slc.cpg/sg47_14_cif.got.tgz:26636.got - 2010.04.14 03:12:58.
