data_PCOD8196448
_publ_section_title
;
Structure prediction by ZEFSAII (Michael W. Deem and Ramdas Pophale) SiO2 
 PCOD8196448
Probable space group: P M M M
;
_chemical_formula_sum "Si O2"
_cell_formula_units_Z 52
_cell_length_a 22.842217
_cell_length_b 9.305730
_cell_length_c 20.002304
_cell_angle_alpha 90.000000
_cell_angle_beta 90.000000
_cell_angle_gamma 90.000000
_cell_volume 4251.759826
_symmetry_space_group_name_H-M "P M M M"
_symmetry_group_IT_number 47
_symmetry_cell_setting 'orthorhombic'
loop_
_space_group_symop_operation_xyz
x,y,z
-x,-y,z
x,-y,-z
-x,y,-z
-x,-y,-z
x,y,-z
-x,y,z
x,-y,z
loop_
_atom_site_type_symbol
_atom_site_label
_atom_site_fract_x
_atom_site_fract_y
_atom_site_fract_z
Si Si1 0.848487 0.164696 0.920705
Si Si2 0.069016 0.666445 0.827901
Si Si3 0.391185 0.661457 0.079460
Si Si4 0.930375 0.661385 0.573987
Si Si5 0.930294 0.838264 0.698226
Si Si6 0.500000 0.838906 0.920083
Si Si7 0.262039 0.661318 0.920575
O O1 0.901606 0.256085 0.890827
O O2 0.787030 0.229239 0.893630
O O3 0.852755 0.000000 0.897151
O O4 0.853181 0.177898 0.000000
O O5 0.087377 0.500000 0.825155
O O6 0.091424 0.743081 0.760404
O O7 0.000000 0.684056 0.836913
O O8 0.403324 0.500000 0.104551
O O9 0.441771 0.763083 0.109102
O O10 0.326605 0.712081 0.104053
O O11 0.393364 0.666026 0.000000
O O12 0.909841 0.712161 0.500000
O O13 0.907543 0.500000 0.588269
O O14 0.904815 0.768570 0.630035
O O15 0.000000 0.661387 0.577380
O O16 0.000000 0.839815 0.696066
O O17 0.905671 0.000000 0.704988
O O18 0.500000 0.000000 0.892855
O O19 0.500000 0.833743 0.000000
O O20 0.248777 0.500000 0.894234
O O21 0.261244 0.660021 0.000000
#
# Coordination Sequence:
#
# PCOD8196448 Si02
#       7
#     8   8   8   8   8   4   8
#     4  10  20  31  42  55  68  80  96 125 166 207
#     4  10  20  32  44  54  64  81 104 129 159 199
#     4   8  13  21  32  44  59  80 102 121 142 171
#     4   8  13  21  33  49  69  91 111 127 142 166
#     4   9  16  25  37  52  69  86 103 125 153 185
#     4   9  15  19  25  41  63  83 101 121 143 169
#     4   8  14  25  39  51  62  78 100 124 150 184
#
# _framework density 12.230230000000001
#
# number of rings (size 3 to 8) (size 9 to 14) (size 15 to 20)
#    0.000    3.154    0.000    3.000    0.000    5.846 
#    0.000    6.154    0.000    0.000    0.000    0.000 
#    0.000    0.000    0.000    0.000    0.000    0.000 
#
# Total GULP energy -644453.658651 kJ/mol
# GULP energy per Si atom -12393.339589 kJ/mol
# Density = 1.220239 g / cm^3
# Si number density = 12.230230 Si / 1000 Ang^3
#
#
#
# Elastic Constant Matrix: (Units=GPa)
#
#
# Indices 1 2 3 4 5 6 
#
# 1 48.1883 41.7277 20.6669 0.0000 0.0000 0.0000
# 2 41.7277 105.5519 32.9521 0.0000 0.0000 0.0000
# 3 20.6669 32.9521 34.4280 0.0000 0.0000 0.0000
# 4 0.0000 0.0000 0.0000 17.0789 0.0000 0.0000
# 5 0.0000 0.0000 0.0000 0.0000 0.3982 0.0000
# 6 0.0000 0.0000 0.0000 0.0000 0.0000 16.1114
#
#
#
# Elastic Compliance Matrix: (Units=1/GPa)
#
#
# Indices 1 2 3 4 5 6 
#
# 1 0.034160 -0.010129 -0.010811 0.000000 0.000000 0.000000
# 2 -0.010129 0.016515 -0.009726 0.000000 0.000000 0.000000
# 3 -0.010811 -0.009726 0.044845 0.000000 0.000000 0.000000
# 4 0.000000 0.000000 0.000000 0.058552 0.000000 0.000000
# 5 0.000000 0.000000 0.000000 0.000000 2.511408 0.000000
# 6 0.000000 0.000000 0.000000 0.000000 0.000000 0.062068
#
#
# Mechanical properties :
#
#
# Convention : Reuss Voigt Hill
#
# Bulk Modulus (GPa) = 29.25098 42.09572 35.67335
# Shear Modulus (GPa) = 1.78554 12.90579 7.34567
#
# Velocity S-wave (km/s) = 1.20959 3.25197 2.45340
# Velocity P-wave (km/s) = 5.09114 6.97098 6.10386
#
# Compressibility (1/GPa) = 0.03418689
#
# Stress axis : x y z
#
# Youngs Moduli (GPa) = 29.27425 60.55150 22.29903
#
# Poissons Ratio (x) = 0.61335 0.24107
# Poissons Ratio (y) = 0.29653 0.21689
# Poissons Ratio (z) = 0.31648 0.58894
#
# Static dielectric constant tensor:
#      x y z
#    x 2.459320 0.000000 0.000000 
#    y 0.000000 2.737630 0.000000 
#    z 0.000000 0.000000 2.281620 
# 
# 
# High freq. dielectric constant tensor:
#      x y z
#    x 1.431560 0.000000 0.000000 
#    y 0.000000 1.478860 0.000000 
#    z 0.000000 0.000000 1.416700 
# 
# From -- ./inp_files/28866.got.cif
#   From: 2010.03.12/outbox.cif.g09.slc.cpg/sg47_15_cif.got.tgz:28866.got - 2010.04.14 03:12:58.
