data_PCOD8196743
_publ_section_title
;
Structure prediction by ZEFSAII (Michael W. Deem and Ramdas Pophale) SiO2 
 PCOD8196743
Probable space group: P M M M
;
_chemical_formula_sum "Si O2"
_cell_formula_units_Z 52
_cell_length_a 13.237703
_cell_length_b 9.374487
_cell_length_c 24.769075
_cell_angle_alpha 90.000000
_cell_angle_beta 90.000000
_cell_angle_gamma 90.000000
_cell_volume 3073.759842
_symmetry_space_group_name_H-M "P M M M"
_symmetry_group_IT_number 47
_symmetry_cell_setting 'orthorhombic'
loop_
_space_group_symop_operation_xyz
x,y,z
-x,-y,z
x,-y,-z
-x,y,-z
-x,-y,-z
x,y,-z
-x,y,z
x,-y,z
loop_
_atom_site_type_symbol
_atom_site_label
_atom_site_fract_x
_atom_site_fract_y
_atom_site_fract_z
Si Si1 0.383570 0.663175 0.705385
Si Si2 0.114881 0.664498 0.104447
Si Si3 0.619920 0.161141 0.398026
Si Si4 0.119700 0.838956 0.000000
Si Si5 0.379441 0.337831 0.500000
Si Si6 0.294194 0.662600 0.818138
Si Si7 0.620518 0.341742 0.000000
Si Si8 0.383890 0.844118 0.903573
O O1 0.500000 0.696303 0.722319
O O2 0.375821 0.500000 0.685415
O O3 0.345972 0.765399 0.657615
O O4 0.305537 0.691491 0.754434
O O5 0.122016 0.500000 0.086866
O O6 0.182401 0.694825 0.158075
O O7 0.000000 0.705602 0.119894
O O8 0.155983 0.757901 0.054291
O O9 0.500000 0.157807 0.401442
O O10 0.662602 0.254133 0.447703
O O11 0.663285 0.000000 0.400701
O O12 0.000000 0.839497 0.000000
O O13 0.163191 0.000000 0.000000
O O14 0.337876 0.500000 0.500000
O O15 0.500000 0.339910 0.500000
O O16 0.326275 0.500000 0.830858
O O17 0.373008 0.768821 0.846056
O O18 0.665164 0.258022 0.948667
O O19 0.666779 0.500000 0.000000
O O20 0.500000 0.349907 0.000000
O O21 0.500000 0.864791 0.917511
O O22 0.331240 0.000000 0.903916
#
# Coordination Sequence:
#
# PCOD8196743 Si02
#       8
#     8   8   8   4   4   8   4   8
#     4   9  17  29  43  59  82 113 148 182 212 245
#     4   9  18  33  51  69  88 109 135 171 216 264
#     4   9  16  25  38  57  82 112 146 183 219 251
#     4   9  17  30  49  70  88 106 130 164 211 267
#     4   9  15  23  37  57  81 111 148 185 218 251
#     4  10  20  32  47  65  84 111 145 176 209 254
#     4   9  17  30  47  62  78 104 136 168 203 245
#     4  10  20  32  45  62  84 107 133 169 210 249
#
# _framework density 16.917392
#
# number of rings (size 3 to 8) (size 9 to 14) (size 15 to 20)
#    0.000    2.692    0.000    2.077    0.000    8.000 
#    0.000    2.308    0.000    0.000    0.000    0.000 
#    0.000    0.000    0.000    0.692    0.000   16.385 
#
# Total GULP energy -644577.740204 kJ/mol
# GULP energy per Si atom -12395.725773 kJ/mol
# Density = 1.687889 g / cm^3
# Si number density = 16.917392 Si / 1000 Ang^3
#
#
#
# Elastic Constant Matrix: (Units=GPa)
#
#
# Indices 1 2 3 4 5 6 
#
# 1 42.1464 23.8386 29.0068 0.0000 0.0000 0.0000
# 2 23.8386 144.6547 82.6195 0.0000 0.0000 0.0000
# 3 29.0068 82.6195 135.8041 0.0000 0.0000 0.0000
# 4 0.0000 0.0000 0.0000 11.5952 0.0000 0.0000
# 5 0.0000 0.0000 0.0000 0.0000 16.9866 0.0000
# 6 0.0000 0.0000 0.0000 0.0000 0.0000 11.0200
#
#
#
# Elastic Compliance Matrix: (Units=1/GPa)
#
#
# Indices 1 2 3 4 5 6 
#
# 1 0.028134 -0.001845 -0.004886 0.000000 0.000000 0.000000
# 2 -0.001845 0.010715 -0.006125 0.000000 0.000000 0.000000
# 3 -0.004886 -0.006125 0.012133 0.000000 0.000000 0.000000
# 4 0.000000 0.000000 0.000000 0.086243 0.000000 0.000000
# 5 0.000000 0.000000 0.000000 0.000000 0.058870 0.000000
# 6 0.000000 0.000000 0.000000 0.000000 0.000000 0.090744
#
#
# Mechanical properties :
#
#
# Convention : Reuss Voigt Hill
#
# Bulk Modulus (GPa) = 39.57397 65.94832 52.76114
# Shear Modulus (GPa) = 15.57754 20.39638 17.98696
#
# Velocity S-wave (km/s) = 3.03776 3.47601 3.26425
# Velocity P-wave (km/s) = 5.97890 7.42815 6.74257
#
# Compressibility (1/GPa) = 0.02526914
#
# Stress axis : x y z
#
# Youngs Moduli (GPa) = 35.54457 93.32488 82.41749
#
# Poissons Ratio (x) = 0.17223 0.40273
# Poissons Ratio (y) = 0.06560 0.50478
# Poissons Ratio (z) = 0.17369 0.57159
#
# Static dielectric constant tensor:
#      x y z
#    x 2.788670 0.000000 0.000000 
#    y 0.000000 3.473940 0.000000 
#    z 0.000000 0.000000 3.120080 
# 
# 
# High freq. dielectric constant tensor:
#      x y z
#    x 1.603180 0.000000 0.000000 
#    y 0.000000 1.668190 0.000000 
#    z 0.000000 0.000000 1.638760 
# 
# From -- ./inp_files/12598.got.cif
#   From: 2010.03.12/outbox.cif.g09.slc.cpg/sg47_7_cif.got.tgz:12598.got - 2010.04.14 03:12:58.
