data_PCOD8196303
_publ_section_title
;
Structure prediction by ZEFSAII (Michael W. Deem and Ramdas Pophale) SiO2 
 PCOD8196303
Probable space group: P M M M
;
_chemical_formula_sum "Si O2"
_cell_formula_units_Z 48
_cell_length_a 20.670313
_cell_length_b 8.855551
_cell_length_c 14.009917
_cell_angle_alpha 90.000000
_cell_angle_beta 90.000000
_cell_angle_gamma 90.000000
_cell_volume 2564.473431
_symmetry_space_group_name_H-M "P M M M"
_symmetry_group_IT_number 47
_symmetry_cell_setting 'orthorhombic'
loop_
_space_group_symop_operation_xyz
x,y,z
-x,-y,z
x,-y,-z
-x,y,-z
-x,-y,-z
x,y,-z
-x,y,z
x,-y,z
loop_
_atom_site_type_symbol
_atom_site_label
_atom_site_fract_x
_atom_site_fract_y
_atom_site_fract_z
Si Si1 0.175817 0.676121 0.391003
Si Si2 0.500000 0.678098 0.108396
Si Si3 0.878963 0.821157 0.215579
Si Si4 0.378222 0.175764 0.205461
Si Si5 0.689146 0.826712 0.393042
Si Si6 0.000000 0.321515 0.889355
Si Si7 0.247687 0.179220 0.106172
O O1 0.157932 0.715290 0.500000
O O2 0.169446 0.500000 0.369710
O O3 0.124875 0.765864 0.325103
O O4 0.249215 0.724929 0.368903
O O5 0.500000 0.500000 0.105028
O O6 0.562254 0.731205 0.166012
O O7 0.500000 0.743413 0.000000
O O8 0.813575 0.762345 0.165258
O O9 0.937690 0.745561 0.161301
O O10 0.887497 0.000000 0.211809
O O11 0.368897 0.206846 0.318854
O O12 0.313793 0.235809 0.153682
O O13 0.390953 0.000000 0.184523
O O14 0.662989 0.795119 0.500000
O O15 0.712172 0.000000 0.380899
O O16 0.000000 0.500000 0.877672
O O17 0.000000 0.272671 0.000000
O O18 0.246794 0.000000 0.104096
O O19 0.243536 0.247021 0.000000
#
# Coordination Sequence:
#
# PCOD8196303 Si02
#       7
#     8   4   8   8   8   4   8
#     4  10  20  34  55  85 120 155 188 229 287 348
#     4  11  25  41  54  75 110 150 189 233 286 339
#     4  11  21  37  60  86 115 151 195 242 287 334
#     4  10  19  35  58  83 109 145 188 230 280 335
#     4   9  17  32  56  86 116 144 182 233 283 334
#     4  11  25  43  60  83 120 161 195 232 286 349
#     4   9  17  30  52  83 112 136 177 235 283 326
#
# _framework density 18.717290999999999
#
# number of rings (size 3 to 8) (size 9 to 14) (size 15 to 20)
#    0.000    2.000    1.667    2.500    0.000    4.333 
#    0.000    0.833    0.000    8.000    0.000    0.000 
#    0.000    0.000    0.000    0.000    0.000    0.000 
#
# Total GULP energy -595236.998017 kJ/mol
# GULP energy per Si atom -12400.770792 kJ/mol
# Density = 1.867469 g / cm^3
# Si number density = 18.717291 Si / 1000 Ang^3
#
#
#
# Elastic Constant Matrix: (Units=GPa)
#
#
# Indices 1 2 3 4 5 6 
#
# 1 138.0780 45.2059 76.7283 0.0000 0.0000 0.0000
# 2 45.2059 61.0334 49.2892 0.0000 0.0000 0.0000
# 3 76.7283 49.2892 157.0719 0.0000 0.0000 0.0000
# 4 0.0000 0.0000 0.0000 25.8612 0.0000 0.0000
# 5 0.0000 0.0000 0.0000 0.0000 31.9154 0.0000
# 6 0.0000 0.0000 0.0000 0.0000 0.0000 22.0898
#
#
#
# Elastic Compliance Matrix: (Units=1/GPa)
#
#
# Indices 1 2 3 4 5 6 
#
# 1 0.011013 -0.005107 -0.003777 0.000000 0.000000 0.000000
# 2 -0.005107 0.024314 -0.005135 0.000000 0.000000 0.000000
# 3 -0.003777 -0.005135 0.009823 0.000000 0.000000 0.000000
# 4 0.000000 0.000000 0.000000 0.038668 0.000000 0.000000
# 5 0.000000 0.000000 0.000000 0.000000 0.031333 0.000000
# 6 0.000000 0.000000 0.000000 0.000000 0.000000 0.045270
#
#
# Mechanical properties :
#
#
# Convention : Reuss Voigt Hill
#
# Bulk Modulus (GPa) = 58.43906 77.62558 68.03232
# Shear Modulus (GPa) = 25.75152 28.30394 27.02773
#
# Velocity S-wave (km/s) = 3.71322 3.89290 3.80412
# Velocity P-wave (km/s) = 7.04796 7.85932 7.46467
#
# Compressibility (1/GPa) = 0.01711184
#
# Stress axis : x y z
#
# Youngs Moduli (GPa) = 90.79985 41.12875 101.80042
#
# Poissons Ratio (x) = 0.21003 0.38454
# Poissons Ratio (y) = 0.46369 0.52276
# Poissons Ratio (z) = 0.34299 0.21120
#
# Static dielectric constant tensor:
#      x y z
#    x 3.551270 0.000000 0.000000 
#    y 0.000000 3.287890 0.000000 
#    z 0.000000 0.000000 3.853500 
# 
# 
# High freq. dielectric constant tensor:
#      x y z
#    x 1.709640 0.000000 0.000000 
#    y 0.000000 1.712350 0.000000 
#    z 0.000000 0.000000 1.747860 
# 
# From -- ./inp_files/24441.got.cif
#   From: 2010.03.12/outbox.cif.g09.slc.cpg/sg47_13_cif.got.tgz:24441.got - 2010.04.14 03:12:58.
