data_PCOD8196447
_publ_section_title
;
Structure prediction by ZEFSAII (Michael W. Deem and Ramdas Pophale) SiO2 
 PCOD8196447
Probable space group: P M M M
;
_chemical_formula_sum "Si O2"
_cell_formula_units_Z 60
_cell_length_a 28.044101
_cell_length_b 9.261024
_cell_length_c 20.060549
_cell_angle_alpha 90.000000
_cell_angle_beta 90.000000
_cell_angle_gamma 90.000000
_cell_volume 5210.067459
_symmetry_space_group_name_H-M "P M M M"
_symmetry_group_IT_number 47
_symmetry_cell_setting 'orthorhombic'
loop_
_space_group_symop_operation_xyz
x,y,z
-x,-y,z
x,-y,-z
-x,y,-z
-x,-y,-z
x,y,-z
-x,y,z
x,-y,z
loop_
_atom_site_type_symbol
_atom_site_label
_atom_site_fract_x
_atom_site_fract_y
_atom_site_fract_z
Si Si1 0.500000 0.336768 0.579436
Si Si2 0.319430 0.337635 0.579265
Si Si3 0.056780 0.162321 0.801834
Si Si4 0.056709 0.337799 0.073676
Si Si5 0.785837 0.338065 0.579182
Si Si6 0.408736 0.162596 0.579560
Si Si7 0.943870 0.332643 0.672053
Si Si8 0.123775 0.165454 0.579019
O O1 0.500000 0.500000 0.607085
O O2 0.500000 0.337532 0.500000
O O3 0.453326 0.254662 0.606615
O O4 0.321136 0.334684 0.500000
O O5 0.329959 0.500000 0.604333
O O6 0.266763 0.287874 0.603949
O O7 0.359854 0.231512 0.608172
O O8 0.077639 0.231678 0.869898
O O9 0.074522 0.257097 0.739614
O O10 0.000000 0.161429 0.804123
O O11 0.076799 0.000000 0.795028
O O12 0.075401 0.500000 0.087221
O O13 0.000000 0.337850 0.077202
O O14 0.073298 0.285464 0.000000
O O15 0.786297 0.338561 0.500000
O O16 0.796814 0.500000 0.605293
O O17 0.825961 0.228682 0.606070
O O18 0.408527 0.163426 0.500000
O O19 0.412976 0.000000 0.606878
O O20 0.929521 0.500000 0.674921
O O21 0.919421 0.256567 0.609315
O O22 0.000000 0.312367 0.662773
O O23 0.119844 0.180436 0.500000
O O24 0.120079 0.000000 0.602070
#
# Coordination Sequence:
#
# PCOD8196447 Si02
#       8
#     4   8   8   8   8   8   8   8
#     4   9  15  21  27  33  45  67  91 111 129 151
#     4   8  13  21  32  44  56  70  87 105 127 157
#     4   9  16  25  37  52  69  86 103 124 147 169
#     4   8  13  21  33  49  69  91 111 127 141 159
#     4   8  14  25  39  51  62  75  90 109 134 168
#     4   9  15  20  26  37  52  68  86 108 131 154
#     4  10  20  32  44  54  64  81 103 123 144 176
#     4  10  20  31  42  55  68  79  92 116 151 186
#
# _framework density 11.516165000000001
#
# number of rings (size 3 to 8) (size 9 to 14) (size 15 to 20)
#    0.000    3.133    0.000    3.000    0.000    6.667 
#    0.000    5.333    0.000    0.000    0.000    0.000 
#    0.000    0.000    0.000    0.000    0.000    0.000 
#
# Total GULP energy -743632.235096 kJ/mol
# GULP energy per Si atom -12393.870585 kJ/mol
# Density = 1.148995 g / cm^3
# Si number density = 11.516165 Si / 1000 Ang^3
#
#
#
# Elastic Constant Matrix: (Units=GPa)
#
#
# Indices 1 2 3 4 5 6 
#
# 1 53.4172 43.8705 19.0488 0.0000 0.0000 0.0000
# 2 43.8705 103.9690 27.6280 0.0000 0.0000 0.0000
# 3 19.0488 27.6280 27.7871 0.0000 0.0000 0.0000
# 4 0.0000 0.0000 0.0000 13.8947 0.0000 0.0000
# 5 0.0000 0.0000 0.0000 0.0000 0.2802 0.0000
# 6 0.0000 0.0000 0.0000 0.0000 0.0000 17.5081
#
#
#
# Elastic Compliance Matrix: (Units=1/GPa)
#
#
# Indices 1 2 3 4 5 6 
#
# 1 0.031023 -0.010110 -0.011215 0.000000 0.000000 0.000000
# 2 -0.010110 0.016367 -0.009342 0.000000 0.000000 0.000000
# 3 -0.011215 -0.009342 0.052965 0.000000 0.000000 0.000000
# 4 0.000000 0.000000 0.000000 0.071970 0.000000 0.000000
# 5 0.000000 0.000000 0.000000 0.000000 3.568727 0.000000
# 6 0.000000 0.000000 0.000000 0.000000 0.000000 0.057116
#
#
# Mechanical properties :
#
#
# Convention : Reuss Voigt Hill
#
# Bulk Modulus (GPa) = 25.62790 40.69644 33.16217
# Shear Modulus (GPa) = 1.29115 12.64500 6.96808
#
# Velocity S-wave (km/s) = 1.06000 3.31724 2.46248
# Velocity P-wave (km/s) = 4.87855 7.07724 6.07814
#
# Compressibility (1/GPa) = 0.03901998
#
# Stress axis : x y z
#
# Youngs Moduli (GPa) = 32.23384 61.09882 18.88049
#
# Poissons Ratio (x) = 0.61773 0.21174
# Poissons Ratio (y) = 0.32590 0.17639
# Poissons Ratio (z) = 0.36150 0.57080
#
# Static dielectric constant tensor:
#      x y z
#    x 2.405910 0.000000 0.000000 
#    y 0.000000 2.642130 0.000000 
#    z 0.000000 0.000000 2.108700 
# 
# 
# High freq. dielectric constant tensor:
#      x y z
#    x 1.412300 0.000000 0.000000 
#    y 0.000000 1.452390 0.000000 
#    z 0.000000 0.000000 1.376980 
# 
# From -- ./inp_files/31597.got.cif
#   From: 2010.03.12/outbox.cif.g09.slc.cpg/sg47_16_cif.got.tgz:31597.got - 2010.04.14 03:12:58.
