data_PCOD8196910
_publ_section_title
;
Structure prediction by ZEFSAII (Michael W. Deem and Ramdas Pophale) SiO2 
 PCOD8196910
Probable space group: P M M M
;
_chemical_formula_sum "Si O2"
_cell_formula_units_Z 56
_cell_length_a 18.799797
_cell_length_b 18.183490
_cell_length_c 9.230648
_cell_angle_alpha 90.000000
_cell_angle_beta 90.000000
_cell_angle_gamma 90.000000
_cell_volume 3155.459365
_symmetry_space_group_name_H-M "P M M M"
_symmetry_group_IT_number 47
_symmetry_cell_setting 'orthorhombic'
loop_
_space_group_symop_operation_xyz
x,y,z
-x,-y,z
x,-y,-z
-x,y,-z
-x,-y,-z
x,y,-z
-x,y,z
x,-y,z
loop_
_atom_site_type_symbol
_atom_site_label
_atom_site_fract_x
_atom_site_fract_y
_atom_site_fract_z
Si Si1 0.292176 0.846838 0.830307
Si Si2 0.287131 0.586565 0.666923
Si Si3 0.204234 0.296503 0.169847
Si Si4 0.421883 0.412768 0.161349
Si Si5 0.169324 0.081945 0.335255
Si Si6 0.581597 0.084483 0.669037
Si Si7 0.081258 0.221026 0.668285
O O1 0.263676 0.765074 0.794188
O O2 0.236498 0.905457 0.767887
O O3 0.368934 0.859634 0.758392
O O4 0.299263 0.859818 0.000000
O O5 0.281364 0.608621 0.500000
O O6 0.277107 0.500000 0.691426
O O7 0.226206 0.626954 0.757159
O O8 0.363758 0.614703 0.724223
O O9 0.128087 0.275611 0.235687
O O10 0.194957 0.308265 0.000000
O O11 0.500000 0.382587 0.206334
O O12 0.424092 0.500000 0.159536
O O13 0.401780 0.384043 0.000000
O O14 0.196102 0.092604 0.500000
O O15 0.105007 0.137272 0.300520
O O16 0.139777 0.000000 0.309096
O O17 0.595858 0.096801 0.500000
O O18 0.500000 0.102959 0.707706
O O19 0.598647 0.000000 0.711083
O O20 0.091261 0.241278 0.500000
O O21 0.000000 0.229497 0.717386
#
# Coordination Sequence:
#
# PCOD8196910 Si02
#       7
#     8   8   8   8   8   8   8
#     4  10  20  32  47  69  96 127 166 208 246 287
#     4  10  20  33  52  78 103 127 161 207 253 295
#     4  10  21  36  53  73  99 132 166 199 240 295
#     4   8  14  26  45  69  98 131 162 191 229 280
#     4   9  17  29  47  72 101 133 166 198 236 285
#     4   9  18  32  49  69  94 127 168 212 257 301
#     4   9  18  33  53  76 102 132 164 200 242 285
#
# _framework density 17.747019000000002
#
# number of rings (size 3 to 8) (size 9 to 14) (size 15 to 20)
#    0.000    2.714    0.000    2.571    0.000    6.000 
#    0.000    4.286    0.000    1.286    0.000    7.000 
#    0.000    0.000    0.000    0.000    0.000    0.000 
#
# Total GULP energy -694357.966407 kJ/mol
# GULP energy per Si atom -12399.249400 kJ/mol
# Density = 1.770663 g / cm^3
# Si number density = 17.747019 Si / 1000 Ang^3
#
#
#
# Elastic Constant Matrix: (Units=GPa)
#
#
# Indices 1 2 3 4 5 6 
#
# 1 134.6994 50.6390 72.8126 0.0000 0.0000 0.0000
# 2 50.6390 58.6430 46.1820 0.0000 0.0000 0.0000
# 3 72.8126 46.1820 99.9572 0.0000 0.0000 0.0000
# 4 0.0000 0.0000 0.0000 24.7992 0.0000 0.0000
# 5 0.0000 0.0000 0.0000 0.0000 26.1087 0.0000
# 6 0.0000 0.0000 0.0000 0.0000 0.0000 20.3537
#
#
#
# Elastic Compliance Matrix: (Units=1/GPa)
#
#
# Indices 1 2 3 4 5 6 
#
# 1 0.013529 -0.006164 -0.007007 0.000000 0.000000 0.000000
# 2 -0.006164 0.029614 -0.009192 0.000000 0.000000 0.000000
# 3 -0.007007 -0.009192 0.019355 0.000000 0.000000 0.000000
# 4 0.000000 0.000000 0.000000 0.040324 0.000000 0.000000
# 5 0.000000 0.000000 0.000000 0.000000 0.038301 0.000000
# 6 0.000000 0.000000 0.000000 0.000000 0.000000 0.049131
#
#
# Mechanical properties :
#
#
# Convention : Reuss Voigt Hill
#
# Bulk Modulus (GPa) = 56.26875 70.28518 63.27696
# Shear Modulus (GPa) = 20.75506 22.49674 21.62590
#
# Velocity S-wave (km/s) = 3.42350 3.56425 3.49458
# Velocity P-wave (km/s) = 6.88491 7.52518 7.21216
#
# Compressibility (1/GPa) = 0.01777186
#
# Stress axis : x y z
#
# Youngs Moduli (GPa) = 73.91471 33.76776 51.66563
#
# Poissons Ratio (x) = 0.20816 0.36202
# Poissons Ratio (y) = 0.45564 0.47490
# Poissons Ratio (z) = 0.51792 0.31039
#
# Static dielectric constant tensor:
#      x y z
#    x 3.279440 0.000000 0.000000 
#    y 0.000000 3.085410 0.000000 
#    z 0.000000 0.000000 3.314620 
# 
# 
# High freq. dielectric constant tensor:
#      x y z
#    x 1.679880 0.000000 0.000000 
#    y 0.000000 1.663860 0.000000 
#    z 0.000000 0.000000 1.688950 
# 
# From -- ./inp_files/9848.got.cif
#   From: 2010.03.12/outbox.cif.g09.slc.cpg/sg47_5_cif.got.tgz:9848.got - 2010.04.14 03:12:58.
