data_PCOD8196566
_publ_section_title
;
Structure prediction by ZEFSAII (Michael W. Deem and Ramdas Pophale) SiO2 
 PCOD8196566
Probable space group: P M M M
;
_chemical_formula_sum "Si O2"
_cell_formula_units_Z 52
_cell_length_a 12.482607
_cell_length_b 9.086030
_cell_length_c 27.570419
_cell_angle_alpha 90.000000
_cell_angle_beta 90.000000
_cell_angle_gamma 90.000000
_cell_volume 3126.963632
_symmetry_space_group_name_H-M "P M M M"
_symmetry_group_IT_number 47
_symmetry_cell_setting 'orthorhombic'
loop_
_space_group_symop_operation_xyz
x,y,z
-x,-y,z
x,-y,-z
-x,y,-z
-x,-y,-z
x,y,-z
-x,y,z
x,-y,z
loop_
_atom_site_type_symbol
_atom_site_label
_atom_site_fract_x
_atom_site_fract_y
_atom_site_fract_z
Si Si1 0.127153 0.334785 0.946708
Si Si2 0.710894 0.670788 0.328268
Si Si3 0.126213 0.170099 0.147339
Si Si4 0.500000 0.166540 0.213352
Si Si5 0.500000 0.166078 0.328695
Si Si6 0.126803 0.838689 0.500000
Si Si7 0.712395 0.328855 0.214475
Si Si8 0.124262 0.826202 0.604881
O O1 0.168185 0.500000 0.935453
O O2 0.169018 0.225212 0.905086
O O3 0.000000 0.333372 0.947310
O O4 0.169290 0.283922 0.000000
O O5 0.700380 0.500000 0.340643
O O6 0.604735 0.750700 0.348274
O O7 0.726165 0.698195 0.271417
O O8 0.813188 0.738488 0.354325
O O9 0.183463 0.260779 0.189484
O O10 0.000000 0.198026 0.152995
O O11 0.155956 0.000000 0.152531
O O12 0.500000 0.168753 0.271023
O O13 0.605581 0.249887 0.194230
O O14 0.500000 0.000000 0.193315
O O15 0.500000 0.000000 0.348831
O O16 0.159483 0.762814 0.551230
O O17 0.000000 0.857274 0.500000
O O18 0.179513 0.000000 0.500000
O O19 0.703370 0.500000 0.201852
O O20 0.000000 0.794643 0.614409
O O21 0.148302 0.000000 0.608316
#
# Coordination Sequence:
#
# PCOD8196566 Si02
#       8
#     8   8   8   4   4   4   8   8
#     4   8  14  26  44  64  87 118 155 191 228 275
#     4  10  20  32  47  69  96 123 152 189 232 276
#     4  10  20  31  44  66  96 127 158 194 235 274
#     4   9  17  31  51  71  89 111 149 199 237 267
#     4   9  17  31  51  70  88 116 154 191 228 271
#     4   7  12  26  47  68  89 116 153 193 227 263
#     4  10  20  33  48  66  92 126 159 189 226 276
#     4   9  17  30  49  71  94 122 156 191 227 271
#
# _framework density 16.629550999999999
#
# number of rings (size 3 to 8) (size 9 to 14) (size 15 to 20)
#    0.000    2.846    0.000    3.231    0.000    5.846 
#    0.000    5.000    0.000    1.846    0.000    3.769 
#    0.000    4.308    0.000    0.000    0.000    0.000 
#
# Total GULP energy -644509.276934 kJ/mol
# GULP energy per Si atom -12394.409172 kJ/mol
# Density = 1.659170 g / cm^3
# Si number density = 16.629551 Si / 1000 Ang^3
#
#
#
# Elastic Constant Matrix: (Units=GPa)
#
#
# Indices 1 2 3 4 5 6 
#
# 1 72.5332 56.2716 46.7091 0.0000 0.0000 0.0000
# 2 56.2716 117.0533 57.6076 0.0000 0.0000 0.0000
# 3 46.7091 57.6076 69.6453 0.0000 0.0000 0.0000
# 4 0.0000 0.0000 0.0000 23.0360 0.0000 0.0000
# 5 0.0000 0.0000 0.0000 0.0000 2.2577 0.0000
# 6 0.0000 0.0000 0.0000 0.0000 0.0000 26.9699
#
#
#
# Elastic Compliance Matrix: (Units=1/GPa)
#
#
# Indices 1 2 3 4 5 6 
#
# 1 0.027229 -0.006919 -0.012539 0.000000 0.000000 0.000000
# 2 -0.006919 0.016167 -0.008732 0.000000 0.000000 0.000000
# 3 -0.012539 -0.008732 0.029991 0.000000 0.000000 0.000000
# 4 0.000000 0.000000 0.000000 0.043410 0.000000 0.000000
# 5 0.000000 0.000000 0.000000 0.000000 0.442928 0.000000
# 6 0.000000 0.000000 0.000000 0.000000 0.000000 0.037078
#
#
# Mechanical properties :
#
#
# Convention : Reuss Voigt Hill
#
# Bulk Modulus (GPa) = 58.79950 64.48982 61.64466
# Shear Modulus (GPa) = 7.58896 17.02895 12.30896
#
# Velocity S-wave (km/s) = 2.13856 3.20350 2.72359
# Velocity P-wave (km/s) = 6.44462 7.24898 6.85860
#
# Compressibility (1/GPa) = 0.01700695
#
# Stress axis : x y z
#
# Youngs Moduli (GPa) = 36.72538 61.85496 33.34389
#
# Poissons Ratio (x) = 0.42798 0.41808
# Poissons Ratio (y) = 0.25411 0.29116
# Poissons Ratio (z) = 0.46048 0.54012
#
# Static dielectric constant tensor:
#      x y z
#    x 2.933160 0.000000 0.000000 
#    y 0.000000 3.179100 0.000000 
#    z 0.000000 0.000000 3.222010 
# 
# 
# High freq. dielectric constant tensor:
#      x y z
#    x 1.614600 0.000000 0.000000 
#    y 0.000000 1.642750 0.000000 
#    z 0.000000 0.000000 1.629010 
# 
# From -- ./inp_files/33668.got.cif
#   From: 2010.03.12/outbox.cif.g09.slc.cpg/sg47_17_cif.got.tgz:33668.got - 2010.04.14 03:12:58.
