data_PCOD8196358
_publ_section_title
;
Structure prediction by ZEFSAII (Michael W. Deem and Ramdas Pophale) SiO2 
 PCOD8196358
Probable space group: P M M M
;
_chemical_formula_sum "Si O2"
_cell_formula_units_Z 48
_cell_length_a 7.740087
_cell_length_b 18.184162
_cell_length_c 18.335068
_cell_angle_alpha 90.000000
_cell_angle_beta 90.000000
_cell_angle_gamma 90.000000
_cell_volume 2580.605741
_symmetry_space_group_name_H-M "P M M M"
_symmetry_group_IT_number 47
_symmetry_cell_setting 'orthorhombic'
loop_
_space_group_symop_operation_xyz
x,y,z
-x,-y,z
x,-y,-z
-x,y,-z
-x,-y,-z
x,y,-z
-x,y,z
x,-y,z
loop_
_atom_site_type_symbol
_atom_site_label
_atom_site_fract_x
_atom_site_fract_y
_atom_site_fract_z
Si Si1 0.699284 0.580921 0.199997
Si Si2 0.303487 0.730049 0.420739
Si Si3 0.699385 0.180186 0.715926
Si Si4 0.805134 0.581229 0.359687
Si Si5 0.000000 0.821690 0.080831
Si Si6 0.000000 0.086735 0.224130
Si Si7 0.304978 0.269422 0.138768
O O1 0.500000 0.588158 0.223305
O O2 0.738529 0.500000 0.166114
O O3 0.808228 0.593492 0.272875
O O4 0.743358 0.643759 0.140555
O O5 0.212999 0.743317 0.500000
O O6 0.500000 0.753858 0.427205
O O7 0.224174 0.781714 0.357476
O O8 0.300541 0.644018 0.400636
O O9 0.500000 0.152449 0.707974
O O10 0.711100 0.241064 0.778630
O O11 0.826050 0.112850 0.734908
O O12 0.727555 0.500000 0.377689
O O13 0.000000 0.586536 0.388179
O O14 0.000000 0.885828 0.140539
O O15 0.171032 0.771786 0.086990
O O16 0.000000 0.857081 0.000000
O O17 0.000000 0.000000 0.223424
O O18 0.500000 0.256744 0.108945
#
# Coordination Sequence:
#
# PCOD8196358 Si02
#       7
#     8   8   8   8   4   4   8
#     4   9  16  27  46  71  98 133 180 231 272 302
#     4  10  20  33  50  71  99 141 186 227 273 315
#     4   9  18  34  55  81 110 137 177 223 258 305
#     4  10  20  29  41  66 102 142 183 232 282 320
#     4  10  22  37  57  85 113 138 162 197 249 310
#     4  10  22  39  63  89 109 135 165 196 250 317
#     4   9  17  31  53  77 104 141 182 220 256 299
#
# _framework density 18.600283000000001
#
# number of rings (size 3 to 8) (size 9 to 14) (size 15 to 20)
#    0.000    2.500    1.667    0.500    2.333    2.500 
#    0.000    1.667    0.000    2.000    0.000    9.333 
#    0.000    0.000    0.000    0.000    0.000    0.000 
#
# Total GULP energy -594877.907588 kJ/mol
# GULP energy per Si atom -12393.289741 kJ/mol
# Density = 1.855795 g / cm^3
# Si number density = 18.600283 Si / 1000 Ang^3
#
#
#
# Elastic Constant Matrix: (Units=GPa)
#
#
# Indices 1 2 3 4 5 6 
#
# 1 75.7506 42.7573 27.9704 0.0000 0.0000 0.0000
# 2 42.7573 127.6683 48.0028 0.0000 0.0000 0.0000
# 3 27.9704 48.0028 92.1310 0.0000 0.0000 0.0000
# 4 0.0000 0.0000 0.0000 14.2190 0.0000 0.0000
# 5 0.0000 0.0000 0.0000 0.0000 13.4864 0.0000
# 6 0.0000 0.0000 0.0000 0.0000 0.0000 21.3983
#
#
#
# Elastic Compliance Matrix: (Units=1/GPa)
#
#
# Indices 1 2 3 4 5 6 
#
# 1 0.016801 -0.004613 -0.002697 0.000000 0.000000 0.000000
# 2 -0.004613 0.011007 -0.004335 0.000000 0.000000 0.000000
# 3 -0.002697 -0.004335 0.013932 0.000000 0.000000 0.000000
# 4 0.000000 0.000000 0.000000 0.070328 0.000000 0.000000
# 5 0.000000 0.000000 0.000000 0.000000 0.074149 0.000000
# 6 0.000000 0.000000 0.000000 0.000000 0.000000 0.046733
#
#
# Mechanical properties :
#
#
# Convention : Reuss Voigt Hill
#
# Bulk Modulus (GPa) = 54.19960 59.22344 56.71152
# Shear Modulus (GPa) = 19.05568 21.60871 20.33220
#
# Velocity S-wave (km/s) = 3.20423 3.41213 3.30981
# Velocity P-wave (km/s) = 6.54918 6.88714 6.72029
#
# Compressibility (1/GPa) = 0.01845032
#
# Stress axis : x y z
#
# Youngs Moduli (GPa) = 59.52121 90.84746 71.77925
#
# Poissons Ratio (x) = 0.41904 0.19361
# Poissons Ratio (y) = 0.27454 0.31115
# Poissons Ratio (z) = 0.16055 0.39381
#
# Static dielectric constant tensor:
#      x y z
#    x 3.510970 0.000000 0.000000 
#    y 0.000000 3.200010 0.000000 
#    z 0.000000 0.000000 3.267060 
# 
# 
# High freq. dielectric constant tensor:
#      x y z
#    x 1.724590 0.000000 0.000000 
#    y 0.000000 1.695410 0.000000 
#    z 0.000000 0.000000 1.691920 
# 
# From -- ./inp_files/26493.got.cif
#   From: 2010.03.12/outbox.cif.g09.slc.cpg/sg47_14_cif.got.tgz:26493.got - 2010.04.14 03:12:58.
