data_PCOD8196903
_publ_section_title
;
Structure prediction by ZEFSAII (Michael W. Deem and Ramdas Pophale) SiO2 
 PCOD8196903
Probable space group: P M M M
;
_chemical_formula_sum "Si O2"
_cell_formula_units_Z 44
_cell_length_a 28.256423
_cell_length_b 9.390720
_cell_length_c 9.319606
_cell_angle_alpha 90.000000
_cell_angle_beta 90.000000
_cell_angle_gamma 90.000000
_cell_volume 2472.940272
_symmetry_space_group_name_H-M "P M M M"
_symmetry_group_IT_number 47
_symmetry_cell_setting 'orthorhombic'
loop_
_space_group_symop_operation_xyz
x,y,z
-x,-y,z
x,-y,-z
-x,y,-z
-x,-y,-z
x,y,-z
-x,y,z
x,-y,z
loop_
_atom_site_type_symbol
_atom_site_label
_atom_site_fract_x
_atom_site_fract_y
_atom_site_fract_z
Si Si1 0.191800 0.839974 0.829311
Si Si2 0.554884 0.661808 0.334090
Si Si3 0.000000 0.340171 0.828455
Si Si4 0.721002 0.339459 0.828976
Si Si5 0.087108 0.159676 0.829414
Si Si6 0.630621 0.163912 0.830661
O O1 0.231302 0.733239 0.766763
O O2 0.139424 0.789798 0.778652
O O3 0.202014 0.000000 0.773460
O O4 0.194140 0.840021 0.000000
O O5 0.567233 0.685940 0.500000
O O6 0.500000 0.692282 0.305070
O O7 0.567491 0.500000 0.289116
O O8 0.583816 0.772644 0.239766
O O9 0.046884 0.263291 0.766616
O O10 0.000000 0.500000 0.769327
O O11 0.000000 0.336953 0.000000
O O12 0.717766 0.500000 0.768892
O O13 0.676103 0.250258 0.773443
O O14 0.722203 0.339644 0.000000
O O15 0.077173 0.000000 0.773508
O O16 0.085005 0.160890 0.000000
O O17 0.636614 0.000000 0.785206
O O18 0.625283 0.179818 0.000000
#
# Coordination Sequence:
#
# PCOD8196903 Si02
#       6
#     8   8   4   8   8   8
#     4   8  13  21  32  45  62  86 117 154 198 248
#     4   9  19  36  55  73  94 121 152 185 222 265
#     4   9  15  19  23  33  49  69  99 145 194 235
#     4   9  16  25  38  56  78 104 133 167 209 255
#     4   8  13  20  28  36  49  74 107 143 188 242
#     4  10  20  32  47  69  96 123 151 185 223 263
#
# _framework density 17.792584000000002
#
# number of rings (size 3 to 8) (size 9 to 14) (size 15 to 20)
#    0.000    3.182    0.000    3.000    0.000    6.182 
#    0.000    6.364    0.000    0.000    0.000    0.000 
#    0.000    0.000    0.000    0.000    0.000    0.000 
#
# Total GULP energy -545391.658270 kJ/mol
# GULP energy per Si atom -12395.264961 kJ/mol
# Density = 1.775209 g / cm^3
# Si number density = 17.792584 Si / 1000 Ang^3
#
#
#
# Elastic Constant Matrix: (Units=GPa)
#
#
# Indices 1 2 3 4 5 6 
#
# 1 147.3326 100.7369 21.6180 0.0000 0.0000 0.0000
# 2 100.7369 157.4082 22.3520 0.0000 0.0000 0.0000
# 3 21.6180 22.3520 9.4970 0.0000 0.0000 0.0000
# 4 0.0000 0.0000 0.0000 12.6056 0.0000 0.0000
# 5 0.0000 0.0000 0.0000 0.0000 -0.6268 0.0000
# 6 0.0000 0.0000 0.0000 0.0000 0.0000 38.1686
#
#
#
# Elastic Compliance Matrix: (Units=1/GPa)
#
#
# Indices 1 2 3 4 5 6 
#
# 1 0.013440 -0.006394 -0.015545 0.000000 0.000000 0.000000
# 2 -0.006394 0.012584 -0.015062 0.000000 0.000000 0.000000
# 3 -0.015545 -0.015062 0.176130 0.000000 0.000000 0.000000
# 4 0.000000 0.000000 0.000000 0.079330 0.000000 0.000000
# 5 0.000000 0.000000 0.000000 0.000000 -1.595508 0.000000
# 6 0.000000 0.000000 0.000000 0.000000 0.000000 0.026200
#
#
# Mechanical properties :
#
#
# Convention : Reuss Voigt Hill
#
# Bulk Modulus (GPa) = 7.80323 67.07240 37.43781
# Shear Modulus (GPa) = -4.26947 21.33156 8.53105
#
# Velocity S-wave (km/s) = -1.55074 3.46627 2.19206
# Velocity P-wave (km/s) = 1.09032 7.33476 5.24345
#
# Compressibility (1/GPa) = 0.12815206
#
# Stress axis : x y z
#
# Youngs Moduli (GPa) = 74.40518 79.46830 5.67762
#
# Poissons Ratio (x) = 0.50811 0.08826
# Poissons Ratio (y) = 0.47573 0.08552
# Poissons Ratio (z) = 1.15661 1.19698
#
# Static dielectric constant tensor:
#      x y z
#    x 3.584320 0.000000 0.000000 
#    y 0.000000 3.478890 0.000000 
#    z 0.000000 0.000000 2.523220 
# 
# 
# High freq. dielectric constant tensor:
#      x y z
#    x 1.706430 0.000000 0.000000 
#    y 0.000000 1.694710 0.000000 
#    z 0.000000 0.000000 1.603460 
# 
# From -- ./inp_files/2016.got.cif
#   From: 2010.03.12/outbox.cif.g09.slc.cpg/sg47_2_cif.got.tgz:2016.got - 2010.04.14 03:12:58.
