data_PCOD8196657
_publ_section_title
;
Structure prediction by ZEFSAII (Michael W. Deem and Ramdas Pophale) SiO2 
 PCOD8196657
Probable space group: P M M M
;
_chemical_formula_sum "Si O2"
_cell_formula_units_Z 40
_cell_length_a 9.507619
_cell_length_b 25.140463
_cell_length_c 9.649990
_cell_angle_alpha 90.000000
_cell_angle_beta 90.000000
_cell_angle_gamma 90.000000
_cell_volume 2306.597966
_symmetry_space_group_name_H-M "P M M M"
_symmetry_group_IT_number 47
_symmetry_cell_setting 'orthorhombic'
loop_
_space_group_symop_operation_xyz
x,y,z
-x,-y,z
x,-y,-z
-x,y,-z
-x,-y,-z
x,y,-z
-x,y,z
x,-y,z
loop_
_atom_site_type_symbol
_atom_site_label
_atom_site_fract_x
_atom_site_fract_y
_atom_site_fract_z
Si Si1 0.842486 0.558770 0.335524
Si Si2 0.840384 0.138810 0.840440
Si Si3 0.335095 0.940279 0.342012
Si Si4 0.162077 0.261700 0.840329
Si Si5 0.336490 0.657366 0.663482
O O1 0.840682 0.558085 0.500000
O O2 0.798649 0.500000 0.280428
O O3 0.733273 0.602683 0.280683
O O4 0.000000 0.572896 0.283136
O O5 0.739481 0.102494 0.752063
O O6 0.803533 0.200155 0.813802
O O7 0.000000 0.127287 0.795922
O O8 0.817398 0.124333 0.000000
O O9 0.289806 0.930390 0.500000
O O10 0.500000 0.932439 0.324102
O O11 0.291720 0.000000 0.296931
O O12 0.264726 0.293797 0.740772
O O13 0.000000 0.274127 0.803009
O O14 0.191451 0.276695 0.000000
O O15 0.312273 0.664780 0.500000
O O16 0.500000 0.655519 0.701557
#
# Coordination Sequence:
#
# PCOD8196657 Si02
#       5
#     8   8   8   8   8
#     4   8  14  26  45  68  94 126 163 200 238 282
#     4   9  19  35  53  74  98 124 160 205 247 287
#     4   9  19  35  52  72 101 134 164 195 235 285
#     4   9  19  36  54  70  93 128 166 202 243 290
#     4  10  20  31  46  73 104 130 159 197 242 291
#
# _framework density 17.341557000000002
#
# number of rings (size 3 to 8) (size 9 to 14) (size 15 to 20)
#    0.000    3.000    0.000    3.000    0.000    5.200 
#    0.000   11.000    0.000    0.600    0.000    4.200 
#    0.000    0.000    0.000    0.000    0.000    0.000 
#
# Total GULP energy -495891.563390 kJ/mol
# GULP energy per Si atom -12397.289085 kJ/mol
# Density = 1.730209 g / cm^3
# Si number density = 17.341557 Si / 1000 Ang^3
#
#
#
# Elastic Constant Matrix: (Units=GPa)
#
#
# Indices 1 2 3 4 5 6 
#
# 1 93.4730 66.6778 42.2767 0.0000 0.0000 0.0000
# 2 66.6778 107.9294 48.9422 0.0000 0.0000 0.0000
# 3 42.2767 48.9422 46.7318 0.0000 0.0000 0.0000
# 4 0.0000 0.0000 0.0000 -106.9719 0.0000 0.0000
# 5 0.0000 0.0000 0.0000 0.0000 30.7676 0.0000
# 6 0.0000 0.0000 0.0000 0.0000 0.0000 -99.3646
#
#
#
# Elastic Compliance Matrix: (Units=1/GPa)
#
#
# Indices 1 2 3 4 5 6 
#
# 1 0.021565 -0.008524 -0.010582 0.000000 0.000000 0.000000
# 2 -0.008524 0.021015 -0.014297 0.000000 0.000000 0.000000
# 3 -0.010582 -0.014297 0.045945 0.000000 0.000000 0.000000
# 4 0.000000 0.000000 0.000000 -0.009348 0.000000 0.000000
# 5 0.000000 0.000000 0.000000 0.000000 0.032502 0.000000
# 6 0.000000 0.000000 0.000000 0.000000 0.000000 -0.010064
#
#
# Mechanical properties :
#
#
# Convention : Reuss Voigt Hill
#
# Bulk Modulus (GPa) = 46.04350 62.65864 54.35107
# Shear Modulus (GPa) = 28.46414 -29.09794 -0.31690
#
# Velocity S-wave (km/s) = 4.05579 -4.10070 -0.42794
# Velocity P-wave (km/s) = 6.96715 3.71342 5.58260
#
# Compressibility (1/GPa) = 0.02171859
#
# Stress axis : x y z
#
# Youngs Moduli (GPa) = 46.37194 47.58558 21.76514
#
# Poissons Ratio (x) = 0.40563 0.23031
# Poissons Ratio (y) = 0.39528 0.31118
# Poissons Ratio (z) = 0.49069 0.68034
#
# Static dielectric constant tensor:
#      x y z
#    x 3.211960 0.000000 0.000000 
#    y 0.000000 3.376250 0.000000 
#    z 0.000000 0.000000 2.968120 
# 
# 
# High freq. dielectric constant tensor:
#      x y z
#    x 1.669660 0.000000 0.000000 
#    y 0.000000 1.680100 0.000000 
#    z 0.000000 0.000000 1.644810 
# 
# From -- ./inp_files/1361.got.cif
#   From: 2010.03.12/outbox.cif.g09.slc.cpg/sg47_1_cif.got.tgz:1361.got - 2010.04.14 03:12:58.
