data_PCOD8196309
_publ_section_title
;
Structure prediction by ZEFSAII (Michael W. Deem and Ramdas Pophale) SiO2 
 PCOD8196309
Probable space group: P M M M
;
_chemical_formula_sum "Si O2"
_cell_formula_units_Z 40
_cell_length_a 16.439112
_cell_length_b 14.581045
_cell_length_c 8.708029
_cell_angle_alpha 90.000000
_cell_angle_beta 90.000000
_cell_angle_gamma 90.000000
_cell_volume 2087.309604
_symmetry_space_group_name_H-M "P M M M"
_symmetry_group_IT_number 47
_symmetry_cell_setting 'orthorhombic'
loop_
_space_group_symop_operation_xyz
x,y,z
-x,-y,z
x,-y,-z
-x,y,-z
-x,-y,-z
x,y,-z
-x,y,z
x,-y,z
loop_
_atom_site_type_symbol
_atom_site_label
_atom_site_fract_x
_atom_site_fract_y
_atom_site_fract_z
Si Si1 0.000000 0.632059 0.680250
Si Si2 0.837112 0.400569 0.172244
Si Si3 0.723368 0.265107 0.322729
Si Si4 0.406528 0.396963 0.819859
Si Si5 0.000000 0.825745 0.820233
Si Si6 0.178278 0.103051 0.820477
O O1 0.926434 0.583914 0.766155
O O2 0.000000 0.609936 0.500000
O O3 0.000000 0.739899 0.708388
O O4 0.793467 0.500000 0.166702
O O5 0.796105 0.335322 0.295396
O O6 0.835700 0.356832 0.000000
O O7 0.705433 0.250926 0.500000
O O8 0.643829 0.311948 0.249043
O O9 0.753614 0.168010 0.256245
O O10 0.500000 0.377108 0.779875
O O11 0.383304 0.500000 0.757846
O O12 0.390625 0.395818 0.000000
O O13 0.083189 0.879405 0.778527
O O14 0.000000 0.797921 0.000000
O O15 0.198464 0.000000 0.766471
O O16 0.190088 0.115209 0.000000
#
# Coordination Sequence:
#
# PCOD8196309 Si02
#       6
#     4   8   8   8   4   8
#     4  12  23  34  51  77 109 144 183 233 291 341
#     4  11  23  38  55  74 103 149 197 235 275 329
#     4  12  24  36  55  85 120 151 182 230 288 339
#     4   9  19  38  64  91 118 151 191 231 273 331
#     4  10  19  35  59  81 107 145 191 241 291 342
#     4  10  21  38  61  85 110 147 196 245 290 340
#
# _framework density 19.163425
#
# number of rings (size 3 to 8) (size 9 to 14) (size 15 to 20)
#    0.000    1.400    2.000    5.100    0.000    7.600 
#    0.000    1.000    0.000    2.400    0.000    4.200 
#    0.000    0.000    0.000    0.000    0.000    0.000 
#
# Total GULP energy -495649.756629 kJ/mol
# GULP energy per Si atom -12391.243916 kJ/mol
# Density = 1.911981 g / cm^3
# Si number density = 19.163425 Si / 1000 Ang^3
#
#
#
# Elastic Constant Matrix: (Units=GPa)
#
#
# Indices 1 2 3 4 5 6 
#
# 1 117.9337 62.5609 39.2997 0.0000 0.0000 0.0000
# 2 62.5609 153.2026 44.3680 0.0000 0.0000 0.0000
# 3 39.2997 44.3680 64.6369 0.0000 0.0000 0.0000
# 4 0.0000 0.0000 0.0000 -44.1699 0.0000 0.0000
# 5 0.0000 0.0000 0.0000 0.0000 18.9232 0.0000
# 6 0.0000 0.0000 0.0000 0.0000 0.0000 -6.5601
#
#
#
# Elastic Compliance Matrix: (Units=1/GPa)
#
#
# Indices 1 2 3 4 5 6 
#
# 1 0.011944 -0.003463 -0.004885 0.000000 0.000000 0.000000
# 2 -0.003463 0.009151 -0.004176 0.000000 0.000000 0.000000
# 3 -0.004885 -0.004176 0.021308 0.000000 0.000000 0.000000
# 4 0.000000 0.000000 0.000000 -0.022640 0.000000 0.000000
# 5 0.000000 0.000000 0.000000 0.000000 0.052845 0.000000
# 6 0.000000 0.000000 0.000000 0.000000 0.000000 -0.152438
#
#
# Mechanical properties :
#
#
# Convention : Reuss Voigt Hill
#
# Bulk Modulus (GPa) = 57.62061 69.80338 63.71200
# Shear Modulus (GPa) = -102.04657 6.27494 -47.88582
#
# Velocity S-wave (km/s) = -7.30522 1.81150 -5.00424
# Velocity P-wave (km/s) = 6.40482 6.39373 0.26645
#
# Compressibility (1/GPa) = 0.01735490
#
# Stress axis : x y z
#
# Youngs Moduli (GPa) = 83.72295 109.28202 46.93127
#
# Poissons Ratio (x) = 0.37840 0.22927
# Poissons Ratio (y) = 0.28990 0.19598
# Poissons Ratio (z) = 0.40901 0.45635
#
# Static dielectric constant tensor:
#      x y z
#    x 3.577870 0.000000 0.000000 
#    y 0.000000 3.338420 0.000000 
#    z 0.000000 0.000000 3.339380 
# 
# 
# High freq. dielectric constant tensor:
#      x y z
#    x 1.737100 0.000000 0.000000 
#    y 0.000000 1.745490 0.000000 
#    z 0.000000 0.000000 1.735270 
# 
# From -- ./inp_files/5715.got.cif
#   From: 2010.03.12/outbox.cif.g09.slc.cpg/sg47_3_cif.got.tgz:5715.got - 2010.04.14 03:12:58.
