data_PCOD8196439
_publ_section_title
;
Structure prediction by ZEFSAII (Michael W. Deem and Ramdas Pophale) SiO2 
 PCOD8196439
Probable space group: P M M M
;
_chemical_formula_sum "Si O2"
_cell_formula_units_Z 56
_cell_length_a 33.589984
_cell_length_b 9.063741
_cell_length_c 12.507506
_cell_angle_alpha 90.000000
_cell_angle_beta 90.000000
_cell_angle_gamma 90.000000
_cell_volume 3807.921648
_symmetry_space_group_name_H-M "P M M M"
_symmetry_group_IT_number 47
_symmetry_cell_setting 'orthorhombic'
loop_
_space_group_symop_operation_xyz
x,y,z
-x,-y,z
x,-y,-z
-x,y,-z
-x,-y,-z
x,y,-z
-x,y,z
x,-y,z
loop_
_atom_site_type_symbol
_atom_site_label
_atom_site_fract_x
_atom_site_fract_y
_atom_site_fract_z
Si Si1 0.000000 0.333256 0.627460
Si Si2 0.233958 0.833217 0.372489
Si Si3 0.547071 0.338804 0.000000
Si Si4 0.390667 0.829171 0.374318
Si Si5 0.155943 0.666736 0.627452
Si Si6 0.545928 0.324831 0.231214
Si Si7 0.688294 0.333369 0.372717
Si Si8 0.077976 0.833254 0.627463
O O1 0.038988 0.250002 0.671386
O O2 0.000000 0.500000 0.671344
O O3 0.000000 0.333138 0.500000
O O4 0.234122 0.832882 0.500000
O O5 0.194941 0.749975 0.328736
O O6 0.272892 0.750166 0.327699
O O7 0.233848 0.000000 0.328742
O O8 0.558867 0.261693 0.887206
O O9 0.567099 0.500000 0.000000
O O10 0.500000 0.359325 0.000000
O O11 0.395683 0.804916 0.500000
O O12 0.428896 0.757973 0.319954
O O13 0.350925 0.749941 0.331133
O O14 0.387534 0.000000 0.344324
O O15 0.155903 0.666809 0.500000
O O16 0.155952 0.500000 0.671369
O O17 0.116963 0.750012 0.671420
O O18 0.500000 0.287753 0.254492
O O19 0.553213 0.500000 0.237102
O O20 0.689337 0.332652 0.500000
O O21 0.688084 0.500000 0.328412
O O22 0.077982 0.833130 0.500000
O O23 0.077971 0.000000 0.671342
#
# Coordination Sequence:
#
# PCOD8196439 Si02
#       8
#     4   8   4   8   8   8   8   8
#     4   9  15  21  27  33  41  55  75  99 131 175
#     4   9  15  22  32  45  60  77  97 123 157 194
#     4   7  12  26  47  67  83  99 123 157 193 223
#     4  10  20  31  41  56  81 109 132 155 185 220
#     4   9  15  21  28  38  51  66  86 113 144 179
#     4   9  17  30  48  66  82 102 129 159 189 222
#     4   9  16  26  39  52  66  87 116 145 170 201
#     4   9  15  21  27  34  44  58  77 103 137 177
#
# _framework density 14.706185
#
# number of rings (size 3 to 8) (size 9 to 14) (size 15 to 20)
#    0.000    3.000    0.000    3.214    0.000    9.143 
#    0.000    1.786    0.000    1.286    0.000    0.000 
#    0.000    0.000    0.000    0.000    0.000    0.000 
#
# Total GULP energy -694080.461693 kJ/mol
# GULP energy per Si atom -12394.293959 kJ/mol
# Density = 1.467271 g / cm^3
# Si number density = 14.706185 Si / 1000 Ang^3
#
#
#
# Elastic Constant Matrix: (Units=GPa)
#
#
# Indices 1 2 3 4 5 6 
#
# 1 135.8921 80.0010 24.0685 0.0000 0.0000 0.0000
# 2 80.0010 136.1920 19.1039 0.0000 0.0000 0.0000
# 3 24.0685 19.1039 14.7718 0.0000 0.0000 0.0000
# 4 0.0000 0.0000 0.0000 5.4862 0.0000 0.0000
# 5 0.0000 0.0000 0.0000 0.0000 0.1840 0.0000
# 6 0.0000 0.0000 0.0000 0.0000 0.0000 31.3899
#
#
#
# Elastic Compliance Matrix: (Units=1/GPa)
#
#
# Indices 1 2 3 4 5 6 
#
# 1 0.013289 -0.005826 -0.014118 0.000000 0.000000 0.000000
# 2 -0.005826 0.011524 -0.005411 0.000000 0.000000 0.000000
# 3 -0.014118 -0.005411 0.097698 0.000000 0.000000 0.000000
# 4 0.000000 0.000000 0.000000 0.182276 0.000000 0.000000
# 5 0.000000 0.000000 0.000000 0.000000 5.433664 0.000000
# 6 0.000000 0.000000 0.000000 0.000000 0.000000 0.031857
#
#
# Mechanical properties :
#
#
# Convention : Reuss Voigt Hill
#
# Bulk Modulus (GPa) = 13.92740 59.24476 36.58608
# Shear Modulus (GPa) = 0.85544 18.32418 9.58981
#
# Velocity S-wave (km/s) = 0.76351 3.53373 2.55638
# Velocity P-wave (km/s) = 3.20441 7.55134 5.80047
#
# Compressibility (1/GPa) = 0.07180090
#
# Stress axis : x y z
#
# Youngs Moduli (GPa) = 75.25009 86.77755 10.23559
#
# Poissons Ratio (x) = 0.50554 0.14451
# Poissons Ratio (y) = 0.43839 0.05539
# Poissons Ratio (z) = 1.06240 0.46956
#
# Static dielectric constant tensor:
#      x y z
#    x 2.993560 0.000000 0.000000 
#    y 0.000000 2.997570 0.000000 
#    z 0.000000 0.000000 2.260800 
# 
# 
# High freq. dielectric constant tensor:
#      x y z
#    x 1.573710 0.000000 0.000000 
#    y 0.000000 1.575600 0.000000 
#    z 0.000000 0.000000 1.468190 
# 
# From -- ./inp_files/25814.got.cif
#   From: 2010.03.12/outbox.cif.g09.slc.cpg/sg47_13_cif.got.tgz:25814.got - 2010.04.14 03:12:58.
