data_PCOD8196129
_publ_section_title
;
Structure prediction by ZEFSAII (Michael W. Deem and Ramdas Pophale) SiO2 
 PCOD8196129
Probable space group: P M M M
;
_chemical_formula_sum "Si O2"
_cell_formula_units_Z 56
_cell_length_a 15.760757
_cell_length_b 9.701980
_cell_length_c 18.648848
_cell_angle_alpha 90.000000
_cell_angle_beta 90.000000
_cell_angle_gamma 90.000000
_cell_volume 2851.605590
_symmetry_space_group_name_H-M "P M M M"
_symmetry_group_IT_number 47
_symmetry_cell_setting 'orthorhombic'
loop_
_space_group_symop_operation_xyz
x,y,z
-x,-y,z
x,-y,-z
-x,y,-z
-x,-y,-z
x,y,-z
-x,y,z
x,-y,z
loop_
_atom_site_type_symbol
_atom_site_label
_atom_site_fract_x
_atom_site_fract_y
_atom_site_fract_z
Si Si1 0.098124 0.000000 0.421082
Si Si2 0.848791 0.751901 0.676202
Si Si3 0.595795 0.341175 0.174267
Si Si4 0.754337 0.336998 0.079858
Si Si5 0.906361 0.660023 0.177612
Si Si6 0.336028 0.164957 0.299236
Si Si7 0.899123 0.500000 0.414832
Si Si8 0.600056 0.652102 0.580512
O O1 0.122686 0.127737 0.374246
O O2 0.143061 0.000000 0.500000
O O3 0.000000 0.000000 0.436037
O O4 0.909214 0.732094 0.744705
O O5 0.759045 0.783514 0.713194
O O6 0.850596 0.625512 0.621770
O O7 0.500000 0.325882 0.143419
O O8 0.612224 0.500000 0.198093
O O9 0.664091 0.295474 0.114536
O O10 0.604021 0.239277 0.241488
O O11 0.762917 0.500000 0.075048
O O12 0.834043 0.277162 0.125323
O O13 0.757698 0.272752 0.000000
O O14 0.886073 0.500000 0.191197
O O15 0.000000 0.680502 0.142752
O O16 0.361701 0.219257 0.377166
O O17 0.345521 0.000000 0.294592
O O18 0.883492 0.500000 0.500000
O O19 0.000000 0.500000 0.397974
O O20 0.634489 0.666262 0.500000
O O21 0.500000 0.664591 0.582433
O O22 0.626692 0.500000 0.610888
#
# Coordination Sequence:
#
# PCOD8196129 Si02
#       8
#     4   8   8   8   8   8   4   8
#     4  11  24  42  60  80 116 160 199 248 306 360
#     4  12  23  39  58  86 116 154 204 249 300 358
#     4  10  21  38  63  91 119 155 199 246 301 360
#     4   9  18  33  56  89 129 162 191 237 297 358
#     4  10  19  33  58  89 121 157 199 244 294 356
#     4  12  25  39  56  84 119 155 198 251 301 361
#     4  11  24  40  60  86 114 152 205 258 308 362
#     4   9  20  39  61  84 111 148 194 243 299 360
#
# _framework density 19.638059999999999
#
# number of rings (size 3 to 8) (size 9 to 14) (size 15 to 20)
#    0.000    1.571    2.857    3.000    2.000    5.429 
#    0.000    3.571    0.000    0.429    0.000    1.000 
#    0.000    2.857    0.000    0.000    0.000    0.000 
#
# Total GULP energy -694132.353779 kJ/mol
# GULP energy per Si atom -12395.220603 kJ/mol
# Density = 1.959336 g / cm^3
# Si number density = 19.638060 Si / 1000 Ang^3
#
#
#
# Elastic Constant Matrix: (Units=GPa)
#
#
# Indices 1 2 3 4 5 6 
#
# 1 116.8137 32.7623 55.9184 0.0000 0.0000 0.0000
# 2 32.7623 106.8799 44.7340 0.0000 0.0000 0.0000
# 3 55.9184 44.7340 127.9061 0.0000 0.0000 0.0000
# 4 0.0000 0.0000 0.0000 17.8231 0.0000 0.0000
# 5 0.0000 0.0000 0.0000 0.0000 27.3616 0.0000
# 6 0.0000 0.0000 0.0000 0.0000 0.0000 16.7558
#
#
#
# Elastic Compliance Matrix: (Units=1/GPa)
#
#
# Indices 1 2 3 4 5 6 
#
# 1 0.011055 -0.001600 -0.004273 0.000000 0.000000 0.000000
# 2 -0.001600 0.011192 -0.003215 0.000000 0.000000 0.000000
# 3 -0.004273 -0.003215 0.010811 0.000000 0.000000 0.000000
# 4 0.000000 0.000000 0.000000 0.056107 0.000000 0.000000
# 5 0.000000 0.000000 0.000000 0.000000 0.036548 0.000000
# 6 0.000000 0.000000 0.000000 0.000000 0.000000 0.059681
#
#
# Mechanical properties :
#
#
# Convention : Reuss Voigt Hill
#
# Bulk Modulus (GPa) = 67.19791 68.71433 67.95612
# Shear Modulus (GPa) = 23.97722 26.93376 25.45549
#
# Velocity S-wave (km/s) = 3.49801 3.70741 3.60423
# Velocity P-wave (km/s) = 7.11388 7.30704 7.21111
#
# Compressibility (1/GPa) = 0.01488141
#
# Stress axis : x y z
#
# Youngs Moduli (GPa) = 90.45576 89.34669 92.49920
#
# Poissons Ratio (x) = 0.14297 0.39529
# Poissons Ratio (y) = 0.14474 0.29737
# Poissons Ratio (z) = 0.38656 0.28724
#
# Static dielectric constant tensor:
#      x y z
#    x 3.313750 0.000000 0.000000 
#    y 0.000000 3.308470 0.000000 
#    z 0.000000 0.000000 3.723490 
# 
# 
# High freq. dielectric constant tensor:
#      x y z
#    x 1.776010 0.000000 0.000000 
#    y 0.000000 1.736990 0.000000 
#    z 0.000000 0.000000 1.761870 
# 
# From -- ./inp_files/31015.got.cif
#   From: 2010.03.12/outbox.cif.g09.slc.cpg/sg47_16_cif.got.tgz:31015.got - 2010.04.14 03:12:58.
