data_PCOD8196988
_publ_section_title
;
Structure prediction by ZEFSAII (Michael W. Deem and Ramdas Pophale) SiO2 
 PCOD8196988
Probable space group: P M M M
;
_chemical_formula_sum "Si O2"
_cell_formula_units_Z 52
_cell_length_a 11.644265
_cell_length_b 9.187806
_cell_length_c 27.526827
_cell_angle_alpha 90.000000
_cell_angle_beta 90.000000
_cell_angle_gamma 90.000000
_cell_volume 2944.964409
_symmetry_space_group_name_H-M "P M M M"
_symmetry_group_IT_number 47
_symmetry_cell_setting 'orthorhombic'
loop_
_space_group_symop_operation_xyz
x,y,z
-x,-y,z
x,-y,-z
-x,y,-z
-x,-y,-z
x,y,-z
-x,y,z
x,-y,z
loop_
_atom_site_type_symbol
_atom_site_label
_atom_site_fract_x
_atom_site_fract_y
_atom_site_fract_z
Si Si1 0.132342 0.667826 0.281198
Si Si2 0.135032 0.832085 0.905580
Si Si3 0.500000 0.337562 0.208258
Si Si4 0.136686 0.335434 0.000000
Si Si5 0.368388 0.668761 0.555708
Si Si6 0.500000 0.171226 0.695046
Si Si7 0.272760 0.172793 0.357870
Si Si8 0.750743 0.666199 0.819003
O O1 0.154253 0.500000 0.294385
O O2 0.165418 0.763900 0.327979
O O3 0.208399 0.714027 0.234709
O O4 0.000000 0.697637 0.268383
O O5 0.193000 0.772898 0.857317
O O6 0.000000 0.808914 0.900174
O O7 0.167166 0.000000 0.912429
O O8 0.183484 0.745867 0.952222
O O9 0.500000 0.500000 0.231366
O O10 0.500000 0.219255 0.249819
O O11 0.613458 0.316622 0.175706
O O12 0.183627 0.500000 0.000000
O O13 0.000000 0.331625 0.000000
O O14 0.334169 0.696044 0.500000
O O15 0.500000 0.719190 0.564515
O O16 0.354949 0.500000 0.569256
O O17 0.279711 0.763237 0.587742
O O18 0.612736 0.230934 0.668612
O O19 0.500000 0.000000 0.693518
O O20 0.261717 0.000000 0.360307
O O21 0.789857 0.500000 0.829216
#
# Coordination Sequence:
#
# PCOD8196988 Si02
#       8
#     8   8   4   4   8   4   8   8
#     4  10  21  36  54  76 102 136 178 218 255 302
#     4  10  20  33  51  77 108 140 173 211 257 307
#     4  10  20  34  54  76 100 134 176 217 254 298
#     4   9  17  31  53  78 103 134 173 217 261 303
#     4   9  18  32  51  76 104 134 169 209 254 304
#     4  10  20  32  47  73 105 136 170 206 251 306
#     4  11  21  33  51  76 107 139 169 208 258 310
#     4  10  20  34  53  77 104 135 172 213 257 304
#
# _framework density 17.657259
#
# number of rings (size 3 to 8) (size 9 to 14) (size 15 to 20)
#    0.000    2.077    2.308    2.077    0.000    4.923 
#    0.000    0.769    0.000    0.923    0.000    6.462 
#    0.000    0.000    0.000    0.000    0.000    0.000 
#
# Total GULP energy -644901.584679 kJ/mol
# GULP energy per Si atom -12401.953552 kJ/mol
# Density = 1.761707 g / cm^3
# Si number density = 17.657259 Si / 1000 Ang^3
#
#
#
# Elastic Constant Matrix: (Units=GPa)
#
#
# Indices 1 2 3 4 5 6 
#
# 1 61.1547 42.3861 33.8506 0.0000 0.0000 0.0000
# 2 42.3861 85.2079 62.5323 0.0000 0.0000 0.0000
# 3 33.8506 62.5323 111.7187 0.0000 0.0000 0.0000
# 4 0.0000 0.0000 0.0000 33.4444 0.0000 0.0000
# 5 0.0000 0.0000 0.0000 0.0000 22.8096 0.0000
# 6 0.0000 0.0000 0.0000 0.0000 0.0000 23.3332
#
#
#
# Elastic Compliance Matrix: (Units=1/GPa)
#
#
# Indices 1 2 3 4 5 6 
#
# 1 0.025028 -0.011684 -0.001043 0.000000 0.000000 0.000000
# 2 -0.011684 0.025372 -0.010661 0.000000 0.000000 0.000000
# 3 -0.001043 -0.010661 0.015235 0.000000 0.000000 0.000000
# 4 0.000000 0.000000 0.000000 0.029900 0.000000 0.000000
# 5 0.000000 0.000000 0.000000 0.000000 0.043841 0.000000
# 6 0.000000 0.000000 0.000000 0.000000 0.000000 0.042857
#
#
# Mechanical properties :
#
#
# Convention : Reuss Voigt Hill
#
# Bulk Modulus (GPa) = 53.03091 59.51326 56.27209
# Shear Modulus (GPa) = 21.24969 23.87159 22.56064
#
# Velocity S-wave (km/s) = 3.47285 3.68087 3.57837
# Velocity P-wave (km/s) = 6.79556 7.20020 7.00080
#
# Compressibility (1/GPa) = 0.01885693
#
# Stress axis : x y z
#
# Youngs Moduli (GPa) = 39.95560 39.41284 65.63949
#
# Poissons Ratio (x) = 0.46051 0.06849
# Poissons Ratio (y) = 0.46685 0.69981
# Poissons Ratio (z) = 0.04169 0.42020
#
# Static dielectric constant tensor:
#      x y z
#    x 3.139810 0.000000 0.000000 
#    y 0.000000 3.232130 0.000000 
#    z 0.000000 0.000000 3.220200 
# 
# 
# High freq. dielectric constant tensor:
#      x y z
#    x 1.656740 0.000000 0.000000 
#    y 0.000000 1.685760 0.000000 
#    z 0.000000 0.000000 1.680260 
# 
# From -- ./inp_files/19911.got.cif
#   From: 2010.03.12/outbox.cif.g09.slc.cpg/sg47_10_cif.got.tgz:19911.got - 2010.04.14 03:12:58.
