data_PCOD8196655
_publ_section_title
;
Structure prediction by ZEFSAII (Michael W. Deem and Ramdas Pophale) SiO2 
 PCOD8196655
Probable space group: P M M M
;
_chemical_formula_sum "Si O2"
_cell_formula_units_Z 48
_cell_length_a 9.595575
_cell_length_b 30.711185
_cell_length_c 9.522729
_cell_angle_alpha 90.000000
_cell_angle_beta 90.000000
_cell_angle_gamma 90.000000
_cell_volume 2806.267093
_symmetry_space_group_name_H-M "P M M M"
_symmetry_group_IT_number 47
_symmetry_cell_setting 'orthorhombic'
loop_
_space_group_symop_operation_xyz
x,y,z
-x,-y,z
x,-y,-z
-x,y,-z
-x,-y,-z
x,y,-z
-x,y,z
x,-y,z
loop_
_atom_site_type_symbol
_atom_site_label
_atom_site_fract_x
_atom_site_fract_y
_atom_site_fract_z
Si Si1 0.665474 0.792714 0.157787
Si Si2 0.840366 0.550887 0.160184
Si Si3 0.843443 0.951963 0.666888
Si Si4 0.334450 0.303361 0.842518
Si Si5 0.662026 0.872749 0.663939
Si Si6 0.664536 0.383890 0.662782
O O1 0.500000 0.792771 0.165218
O O2 0.720054 0.744671 0.203530
O O3 0.724239 0.829821 0.260925
O O4 0.715922 0.803031 0.000000
O O5 0.818558 0.500000 0.186350
O O6 0.739366 0.575330 0.266691
O O7 0.000000 0.564016 0.190454
O O8 0.800874 0.562896 0.000000
O O9 0.837943 0.951727 0.500000
O O10 0.740243 0.915085 0.726100
O O11 0.000000 0.941782 0.718721
O O12 0.797074 0.000000 0.721105
O O13 0.500000 0.303061 0.841529
O O14 0.278658 0.339570 0.734706
O O15 0.281175 0.314283 0.000000
O O16 0.690447 0.866517 0.500000
O O17 0.500000 0.879466 0.697147
O O18 0.704684 0.381906 0.500000
O O19 0.500000 0.389512 0.684998
#
# Coordination Sequence:
#
# PCOD8196655 Si02
#       6
#     8   8   8   8   8   8
#     4   8  14  25  41  61  86 116 146 175 212 259
#     4   9  19  36  55  72  91 121 162 200 232 272
#     4   8  14  25  40  57  79 109 141 169 203 253
#     4   8  14  26  44  64  87 118 154 186 216 257
#     4   9  16  24  38  63  87 104 131 176 220 250
#     4  10  20  31  46  73 104 128 152 188 234 278
#
# _framework density 17.104572000000001
#
# number of rings (size 3 to 8) (size 9 to 14) (size 15 to 20)
#    0.000    3.333    0.000    2.500    0.000    3.000 
#    0.000    7.500    0.000    2.000    0.000    8.167 
#    0.000    0.000    0.000    0.000    0.000    0.000 
#
# Total GULP energy -594898.273433 kJ/mol
# GULP energy per Si atom -12393.714030 kJ/mol
# Density = 1.706564 g / cm^3
# Si number density = 17.104572 Si / 1000 Ang^3
#
#
#
# Elastic Constant Matrix: (Units=GPa)
#
#
# Indices 1 2 3 4 5 6 
#
# 1 38.8071 48.2052 36.3733 0.0000 0.0000 0.0000
# 2 48.2052 141.0960 74.5657 0.0000 0.0000 0.0000
# 3 36.3733 74.5657 88.5812 0.0000 0.0000 0.0000
# 4 0.0000 0.0000 0.0000 27.5403 0.0000 0.0000
# 5 0.0000 0.0000 0.0000 0.0000 15.3779 0.0000
# 6 0.0000 0.0000 0.0000 0.0000 0.0000 4.8310
#
#
#
# Elastic Compliance Matrix: (Units=1/GPa)
#
#
# Indices 1 2 3 4 5 6 
#
# 1 0.050194 -0.011270 -0.011124 0.000000 0.000000 0.000000
# 2 -0.011270 0.015297 -0.008249 0.000000 0.000000 0.000000
# 3 -0.011124 -0.008249 0.022801 0.000000 0.000000 0.000000
# 4 0.000000 0.000000 0.000000 0.036310 0.000000 0.000000
# 5 0.000000 0.000000 0.000000 0.000000 0.065029 0.000000
# 6 0.000000 0.000000 0.000000 0.000000 0.000000 0.206995
#
#
# Mechanical properties :
#
#
# Convention : Reuss Voigt Hill
#
# Bulk Modulus (GPa) = 37.02889 65.19699 51.11294
# Shear Modulus (GPa) = 10.70861 16.83917 13.77389
#
# Velocity S-wave (km/s) = 2.50485 3.14105 2.84082
# Velocity P-wave (km/s) = 5.48281 7.16620 6.38027
#
# Compressibility (1/GPa) = 0.02700594
#
# Stress axis : x y z
#
# Youngs Moduli (GPa) = 19.92259 65.37123 43.85816
#
# Poissons Ratio (x) = 0.73674 0.48788
# Poissons Ratio (y) = 0.22453 0.36179
# Poissons Ratio (z) = 0.22162 0.53926
#
# Static dielectric constant tensor:
#      x y z
#    x 2.868790 0.000000 0.000000 
#    y 0.000000 3.621170 0.000000 
#    z 0.000000 0.000000 3.086080 
# 
# 
# High freq. dielectric constant tensor:
#      x y z
#    x 1.618540 0.000000 0.000000 
#    y 0.000000 1.675440 0.000000 
#    z 0.000000 0.000000 1.639830 
# 
# From -- ./inp_files/2508.got.cif
#   From: 2010.03.12/outbox.cif.g09.slc.cpg/sg47_2_cif.got.tgz:2508.got - 2010.04.14 03:12:58.
