data_PCOD8196055
_publ_section_title
;
Structure prediction by ZEFSAII (Michael W. Deem and Ramdas Pophale) SiO2 
 PCOD8196055
Probable space group: P M M M
;
_chemical_formula_sum "Si O2"
_cell_formula_units_Z 64
_cell_length_a 20.563854
_cell_length_b 18.582581
_cell_length_c 8.710511
_cell_angle_alpha 90.000000
_cell_angle_beta 90.000000
_cell_angle_gamma 90.000000
_cell_volume 3328.543062
_symmetry_space_group_name_H-M "P M M M"
_symmetry_group_IT_number 47
_symmetry_cell_setting 'orthorhombic'
loop_
_space_group_symop_operation_xyz
x,y,z
-x,-y,z
x,-y,-z
-x,y,-z
-x,-y,-z
x,y,-z
-x,y,z
x,-y,z
loop_
_atom_site_type_symbol
_atom_site_label
_atom_site_fract_x
_atom_site_fract_y
_atom_site_fract_z
Si Si1 0.296534 0.340035 0.319734
Si Si2 0.706518 0.183897 0.182388
Si Si3 0.823181 0.415758 0.823323
Si Si4 0.074591 0.312923 0.678774
Si Si5 0.925044 0.162590 0.179008
Si Si6 0.812165 0.916720 0.322562
Si Si7 0.428918 0.657017 0.171923
Si Si8 0.431670 0.172138 0.828554
O O1 0.286553 0.341571 0.500000
O O2 0.280156 0.260174 0.260768
O O3 0.246833 0.394861 0.242414
O O4 0.369535 0.367501 0.280095
O O5 0.762974 0.128768 0.219956
O O6 0.637617 0.149304 0.245924
O O7 0.701863 0.196261 0.000000
O O8 0.833090 0.500000 0.802464
O O9 0.881006 0.378715 0.729672
O O10 0.827382 0.392107 0.000000
O O11 0.084656 0.296936 0.500000
O O12 0.096760 0.242232 0.771117
O O13 0.000000 0.332768 0.716492
O O14 0.885093 0.103307 0.273192
O O15 0.000000 0.149436 0.220277
O O16 0.910872 0.153240 0.000000
O O17 0.801300 0.898147 0.500000
O O18 0.800021 0.000000 0.288408
O O19 0.500000 0.629631 0.232698
O O20 0.429700 0.742382 0.166463
O O21 0.417089 0.627005 0.000000
O O22 0.500000 0.147701 0.743836
O O23 0.435040 0.140634 0.000000
#
# Coordination Sequence:
#
# PCOD8196055 Si02
#       8
#     8   8   8   8   8   8   8   8
#     4  11  21  33  53  80 111 143 177 221 272 325
#     4  10  19  33  55  79 105 139 180 223 265 315
#     4  11  24  40  57  77 105 143 185 226 266 312
#     4  10  21  38  61  87 114 142 172 211 262 319
#     4  10  21  38  61  86 110 137 173 217 260 308
#     4  11  24  39  54  75 107 144 179 219 268 320
#     4   8  14  27  48  74 105 139 176 219 265 315
#     4   7  11  22  43  72 101 128 163 210 260 304
#
# _framework density 19.227632
#
# number of rings (size 3 to 8) (size 9 to 14) (size 15 to 20)
#    0.000    2.250    0.000    5.250    0.000    4.250 
#    0.000    2.500    0.000    1.875    0.000    5.250 
#    0.000    0.000    0.000    0.000    0.000    0.000 
#
# Total GULP energy -793236.146350 kJ/mol
# GULP energy per Si atom -12394.314787 kJ/mol
# Density = 1.918387 g / cm^3
# Si number density = 19.227632 Si / 1000 Ang^3
#
#
#
# Elastic Constant Matrix: (Units=GPa)
#
#
# Indices 1 2 3 4 5 6 
#
# 1 92.0375 9.0759 12.0894 0.0000 0.0000 0.0000
# 2 9.0759 22.5389 11.4352 0.0000 0.0000 0.0000
# 3 12.0894 11.4352 29.8945 0.0000 0.0000 0.0000
# 4 0.0000 0.0000 0.0000 24.3183 0.0000 0.0000
# 5 0.0000 0.0000 0.0000 0.0000 28.3043 0.0000
# 6 0.0000 0.0000 0.0000 0.0000 0.0000 4.0151
#
#
#
# Elastic Compliance Matrix: (Units=1/GPa)
#
#
# Indices 1 2 3 4 5 6 
#
# 1 0.011620 -0.002848 -0.003610 0.000000 0.000000 0.000000
# 2 -0.002848 0.055750 -0.020174 0.000000 0.000000 0.000000
# 3 -0.003610 -0.020174 0.042628 0.000000 0.000000 0.000000
# 4 0.000000 0.000000 0.000000 0.041121 0.000000 0.000000
# 5 0.000000 0.000000 0.000000 0.000000 0.035330 0.000000
# 6 0.000000 0.000000 0.000000 0.000000 0.000000 0.249057
#
#
# Mechanical properties :
#
#
# Convention : Reuss Voigt Hill
#
# Bulk Modulus (GPa) = 17.62587 23.29689 20.46138
# Shear Modulus (GPa) = 9.84871 18.78558 14.31714
#
# Velocity S-wave (km/s) = 2.26568 3.12911 2.73172
# Velocity P-wave (km/s) = 4.00390 5.01973 4.54032
#
# Compressibility (1/GPa) = 0.05673479
#
# Stress axis : x y z
#
# Youngs Moduli (GPa) = 86.05759 17.93736 23.45896
#
# Poissons Ratio (x) = 0.05108 0.08469
# Poissons Ratio (y) = 0.24506 0.47325
# Poissons Ratio (z) = 0.31066 0.36186
#
# Static dielectric constant tensor:
#      x y z
#    x 4.164320 0.000000 0.000000 
#    y 0.000000 3.114190 0.000000 
#    z 0.000000 0.000000 3.448340 
# 
# 
# High freq. dielectric constant tensor:
#      x y z
#    x 1.775730 0.000000 0.000000 
#    y 0.000000 1.706260 0.000000 
#    z 0.000000 0.000000 1.739920 
# 
# From -- ./inp_files/11664.got.cif
#   From: 2010.03.12/outbox.cif.g09.slc.cpg/sg47_6_cif.got.tgz:11664.got - 2010.04.14 03:12:58.
