data_PCOD8196163
_publ_section_title
;
Structure prediction by ZEFSAII (Michael W. Deem and Ramdas Pophale) SiO2 
 PCOD8196163
Probable space group: P M M M
;
_chemical_formula_sum "Si O2"
_cell_formula_units_Z 52
_cell_length_a 9.196153
_cell_length_b 10.637214
_cell_length_c 30.561536
_cell_angle_alpha 90.000000
_cell_angle_beta 90.000000
_cell_angle_gamma 90.000000
_cell_volume 2989.573687
_symmetry_space_group_name_H-M "P M M M"
_symmetry_group_IT_number 47
_symmetry_cell_setting 'orthorhombic'
loop_
_space_group_symop_operation_xyz
x,y,z
-x,-y,z
x,-y,-z
-x,y,-z
-x,-y,-z
x,y,-z
-x,y,z
x,-y,z
loop_
_atom_site_type_symbol
_atom_site_label
_atom_site_fract_x
_atom_site_fract_y
_atom_site_fract_z
Si Si1 0.340596 0.147178 0.081081
Si Si2 0.337907 0.646935 0.325211
Si Si3 0.838559 0.849613 0.000000
Si Si4 0.670473 0.000000 0.451648
Si Si5 0.842823 0.357681 0.500000
Si Si6 0.172183 0.353878 0.761699
Si Si7 0.328242 0.737946 0.581742
Si Si8 0.327289 0.855250 0.820355
O O1 0.500000 0.209383 0.076375
O O2 0.278740 0.170757 0.129651
O O3 0.355422 0.000000 0.072887
O O4 0.237525 0.205025 0.043705
O O5 0.500000 0.703007 0.315859
O O6 0.351117 0.500000 0.330688
O O7 0.228792 0.682477 0.286398
O O8 0.272033 0.699130 0.370418
O O9 0.000000 0.794926 0.000000
O O10 0.839203 0.000000 0.000000
O O11 0.718486 0.881852 0.423419
O O12 0.500000 0.000000 0.459281
O O13 0.744553 0.000000 0.500000
O O14 0.884859 0.500000 0.500000
O O15 0.749737 0.335499 0.543300
O O16 0.000000 0.284517 0.500000
O O17 0.214299 0.500000 0.773357
O O18 0.244800 0.252231 0.793534
O O19 0.000000 0.336814 0.763190
O O20 0.500000 0.713422 0.577412
O O21 0.500000 0.838648 0.814800
O O22 0.284634 0.000000 0.807055
#
# Coordination Sequence:
#
# PCOD8196163 Si02
#       8
#     8   8   4   4   4   8   8   8
#     4   8  14  25  41  62  92 129 166 207 255 302
#     4   9  18  33  53  75  97 124 162 207 248 286
#     4   9  15  21  33  59  94 131 170 207 246 298
#     4   9  16  30  52  76 100 126 156 192 230 271
#     4  11  23  34  47  72 102 127 154 195 244 287
#     4  10  21  36  54  76 104 138 171 206 255 315
#     4  10  19  34  55  75  97 127 163 198 234 281
#     4   9  18  33  53  77 103 133 173 219 263 305
#
# _framework density 17.393784
#
# number of rings (size 3 to 8) (size 9 to 14) (size 15 to 20)
#    0.000    2.692    0.769    2.308    0.000    4.615 
#    1.385    3.846    0.000    0.000    0.000    0.538 
#    0.000    4.308    0.000    0.000    0.000    0.000 
#
# Total GULP energy -644326.638357 kJ/mol
# GULP energy per Si atom -12390.896891 kJ/mol
# Density = 1.735420 g / cm^3
# Si number density = 17.393784 Si / 1000 Ang^3
#
#
#
# Elastic Constant Matrix: (Units=GPa)
#
#
# Indices 1 2 3 4 5 6 
#
# 1 81.9526 41.1942 67.9476 0.0000 0.0000 0.0000
# 2 41.1942 64.3185 60.5380 0.0000 0.0000 0.0000
# 3 67.9476 60.5380 155.5879 0.0000 0.0000 0.0000
# 4 0.0000 0.0000 0.0000 16.4910 0.0000 0.0000
# 5 0.0000 0.0000 0.0000 0.0000 9.7953 0.0000
# 6 0.0000 0.0000 0.0000 0.0000 0.0000 21.8802
#
#
#
# Elastic Compliance Matrix: (Units=1/GPa)
#
#
# Indices 1 2 3 4 5 6 
#
# 1 0.021305 -0.007712 -0.006303 0.000000 0.000000 0.000000
# 2 -0.007712 0.027324 -0.007263 0.000000 0.000000 0.000000
# 3 -0.006303 -0.007263 0.012006 0.000000 0.000000 0.000000
# 4 0.000000 0.000000 0.000000 0.060639 0.000000 0.000000
# 5 0.000000 0.000000 0.000000 0.000000 0.102089 0.000000
# 6 0.000000 0.000000 0.000000 0.000000 0.000000 0.045703
#
#
# Mechanical properties :
#
#
# Convention : Reuss Voigt Hill
#
# Bulk Modulus (GPa) = 55.32012 71.24652 63.28332
# Shear Modulus (GPa) = 15.74058 18.44527 17.09293
#
# Velocity S-wave (km/s) = 3.01151 3.25999 3.13821
# Velocity P-wave (km/s) = 6.63067 7.43101 7.04222
#
# Compressibility (1/GPa) = 0.01807661
#
# Stress axis : x y z
#
# Youngs Moduli (GPa) = 46.93719 36.59851 83.29087
#
# Poissons Ratio (x) = 0.28226 0.52502
# Poissons Ratio (y) = 0.36200 0.60496
# Poissons Ratio (z) = 0.29587 0.26582
#
# Static dielectric constant tensor:
#      x y z
#    x 3.282330 0.000000 0.000000 
#    y 0.000000 3.025300 0.000000 
#    z 0.000000 0.000000 3.323240 
# 
# 
# High freq. dielectric constant tensor:
#      x y z
#    x 1.664360 0.000000 0.000000 
#    y 0.000000 1.640120 0.000000 
#    z 0.000000 0.000000 1.679070 
# 
# From -- ./inp_files/33340.got.cif
#   From: 2010.03.12/outbox.cif.g09.slc.cpg/sg47_17_cif.got.tgz:33340.got - 2010.04.14 03:12:58.
