data_PCOD8196097
_publ_section_title
;
Structure prediction by ZEFSAII (Michael W. Deem and Ramdas Pophale) SiO2 
 PCOD8196097
Probable space group: P M M M
;
_chemical_formula_sum "Si O2"
_cell_formula_units_Z 56
_cell_length_a 21.372670
_cell_length_b 15.179394
_cell_length_c 8.480935
_cell_angle_alpha 90.000000
_cell_angle_beta 90.000000
_cell_angle_gamma 90.000000
_cell_volume 2751.420373
_symmetry_space_group_name_H-M "P M M M"
_symmetry_group_IT_number 47
_symmetry_cell_setting 'orthorhombic'
loop_
_space_group_symop_operation_xyz
x,y,z
-x,-y,z
x,-y,-z
-x,y,-z
-x,-y,-z
x,y,-z
-x,y,z
x,-y,z
loop_
_atom_site_type_symbol
_atom_site_label
_atom_site_fract_x
_atom_site_fract_y
_atom_site_fract_z
Si Si1 0.672836 0.232258 0.320041
Si Si2 0.429296 0.099296 0.312270
Si Si3 0.000000 0.397148 0.675478
Si Si4 0.256151 0.402088 0.684471
Si Si5 0.242581 0.096732 0.177415
Si Si6 0.000000 0.099434 0.813979
Si Si7 0.126648 0.156035 0.681422
Si Si8 0.868309 0.338991 0.184989
O O1 0.655593 0.249221 0.500000
O O2 0.614275 0.178478 0.239798
O O3 0.694600 0.327405 0.247886
O O4 0.729937 0.164335 0.304009
O O5 0.423568 0.100357 0.500000
O O6 0.500000 0.119721 0.258269
O O7 0.410285 0.000000 0.253286
O O8 0.062933 0.372962 0.769139
O O9 0.000000 0.500000 0.654072
O O10 0.000000 0.352963 0.500000
O O11 0.244174 0.383205 0.500000
O O12 0.285499 0.500000 0.709566
O O13 0.189096 0.404088 0.773653
O O14 0.169091 0.089087 0.217488
O O15 0.272724 0.000000 0.196100
O O16 0.252901 0.132043 0.000000
O O17 0.942748 0.152660 0.745730
O O18 0.000000 0.000000 0.750138
O O19 0.000000 0.103173 0.000000
O O20 0.129837 0.129583 0.500000
O O21 0.150373 0.254396 0.712391
O O22 0.868639 0.318120 0.000000
#
# Coordination Sequence:
#
# PCOD8196097 Si02
#       8
#     8   8   4   8   8   4   8   8
#     4  10  19  33  56  82 110 150 195 235 279 337
#     4   8  14  26  48  82 120 153 191 240 285 327
#     4  11  24  41  60  81 107 139 178 230 293 356
#     4  10  21  37  56  80 112 149 191 241 295 346
#     4  11  23  37  54  80 114 147 180 228 285 333
#     4  11  24  41  58  77 105 141 182 230 283 334
#     4  12  24  39  58  79 105 140 184 229 276 337
#     4  12  24  39  59  82 109 140 182 236 293 351
#
# _framework density 20.353123
#
# number of rings (size 3 to 8) (size 9 to 14) (size 15 to 20)
#    0.000    1.429    1.429    5.571    0.000    6.571 
#    0.000    0.000    0.000    0.857    0.000    5.000 
#    0.000    0.000    0.000    2.571    0.000    3.000 
#
# Total GULP energy -693940.224871 kJ/mol
# GULP energy per Si atom -12391.789730 kJ/mol
# Density = 2.030680 g / cm^3
# Si number density = 20.353123 Si / 1000 Ang^3
#
#
#
# Elastic Constant Matrix: (Units=GPa)
#
#
# Indices 1 2 3 4 5 6 
#
# 1 121.5857 57.8059 13.7333 0.0000 0.0000 0.0000
# 2 57.8059 129.4038 19.8289 0.0000 0.0000 0.0000
# 3 13.7333 19.8289 51.5183 0.0000 0.0000 0.0000
# 4 0.0000 0.0000 0.0000 18.2683 0.0000 0.0000
# 5 0.0000 0.0000 0.0000 0.0000 6.5586 0.0000
# 6 0.0000 0.0000 0.0000 0.0000 0.0000 31.3214
#
#
#
# Elastic Compliance Matrix: (Units=1/GPa)
#
#
# Indices 1 2 3 4 5 6 
#
# 1 0.010496 -0.004527 -0.001056 0.000000 0.000000 0.000000
# 2 -0.004527 0.010165 -0.002705 0.000000 0.000000 0.000000
# 3 -0.001056 -0.002705 0.020733 0.000000 0.000000 0.000000
# 4 0.000000 0.000000 0.000000 0.054740 0.000000 0.000000
# 5 0.000000 0.000000 0.000000 0.000000 0.152472 0.000000
# 6 0.000000 0.000000 0.000000 0.000000 0.000000 0.031927
#
#
# Mechanical properties :
#
#
# Convention : Reuss Voigt Hill
#
# Bulk Modulus (GPa) = 40.29348 53.91599 47.10474
# Shear Modulus (GPa) = 16.37298 25.30564 20.83931
#
# Velocity S-wave (km/s) = 2.83935 3.52991 3.20330
# Velocity P-wave (km/s) = 5.53077 6.56974 6.07252
#
# Compressibility (1/GPa) = 0.02481791
#
# Stress axis : x y z
#
# Youngs Moduli (GPa) = 95.27303 98.38107 48.23167
#
# Poissons Ratio (x) = 0.44537 0.05091
# Poissons Ratio (y) = 0.43130 0.13049
# Poissons Ratio (z) = 0.10057 0.26617
#
# Static dielectric constant tensor:
#      x y z
#    x 3.814270 0.000000 0.000000 
#    y 0.000000 3.954440 0.000000 
#    z 0.000000 0.000000 3.426520 
# 
# 
# High freq. dielectric constant tensor:
#      x y z
#    x 1.781410 0.000000 0.000000 
#    y 0.000000 1.799130 0.000000 
#    z 0.000000 0.000000 1.773760 
# 
# From -- ./inp_files/11384.got.cif
#   From: 2010.03.12/outbox.cif.g09.slc.cpg/sg47_6_cif.got.tgz:11384.got - 2010.04.14 03:12:58.
