data_PCOD8196716
_publ_section_title
;
Structure prediction by ZEFSAII (Michael W. Deem and Ramdas Pophale) SiO2 
 PCOD8196716
Probable space group: P M M M
;
_chemical_formula_sum "Si O2"
_cell_formula_units_Z 44
_cell_length_a 17.548616
_cell_length_b 9.096528
_cell_length_c 20.274225
_cell_angle_alpha 90.000000
_cell_angle_beta 90.000000
_cell_angle_gamma 90.000000
_cell_volume 3236.404478
_symmetry_space_group_name_H-M "P M M M"
_symmetry_group_IT_number 47
_symmetry_cell_setting 'orthorhombic'
loop_
_space_group_symop_operation_xyz
x,y,z
-x,-y,z
x,-y,-z
-x,y,-z
-x,-y,-z
x,y,-z
-x,y,z
x,-y,z
loop_
_atom_site_type_symbol
_atom_site_label
_atom_site_fract_x
_atom_site_fract_y
_atom_site_fract_z
Si Si1 0.089810 0.330194 0.172026
Si Si2 0.351378 0.333798 0.078481
Si Si3 0.909383 0.334745 0.572619
Si Si4 0.799928 0.829341 0.922492
Si Si5 0.500000 0.833521 0.078694
Si Si6 0.090728 0.835297 0.302020
O O1 0.113610 0.500000 0.169972
O O2 0.127784 0.244233 0.111875
O O3 0.119064 0.262958 0.241019
O O4 0.000000 0.309313 0.163952
O O5 0.350327 0.500000 0.106025
O O6 0.276769 0.248392 0.103538
O O7 0.425634 0.250210 0.106103
O O8 0.353608 0.334591 0.000000
O O9 0.883341 0.278027 0.500000
O O10 0.879180 0.500000 0.584189
O O11 0.875617 0.230834 0.629850
O O12 0.000000 0.334926 0.576402
O O13 0.795275 0.000000 0.903901
O O14 0.810590 0.805696 0.000000
O O15 0.500000 0.000000 0.105632
O O16 0.500000 0.833829 0.000000
O O17 0.000000 0.835542 0.304642
O O18 0.122545 0.000000 0.293533
#
# Coordination Sequence:
#
# PCOD8196716 Si02
#       6
#     8   8   8   8   4   8
#     4  10  20  32  44  55  68  90 121 156 193 232
#     4   9  16  26  40  57  76  96 117 141 172 213
#     4   8  13  21  33  49  69  91 112 135 167 208
#     4  10  20  32  44  57  73  92 116 151 194 233
#     4   9  15  23  37  57  79  99 117 137 166 207
#     4   9  16  25  37  52  69  88 112 144 180 217
#
# _framework density 13.595333999999999
#
# number of rings (size 3 to 8) (size 9 to 14) (size 15 to 20)
#    0.000    2.818    0.000    3.000    0.000    8.364 
#    0.000    3.636    0.000    0.000    0.000    0.000 
#    0.000    0.000    0.000    0.000    0.000    0.000 
#
# Total GULP energy -545481.713142 kJ/mol
# GULP energy per Si atom -12397.311662 kJ/mol
# Density = 1.356439 g / cm^3
# Si number density = 13.595334 Si / 1000 Ang^3
#
#
#
# Elastic Constant Matrix: (Units=GPa)
#
#
# Indices 1 2 3 4 5 6 
#
# 1 41.2569 38.8663 27.6114 0.0000 0.0000 0.0000
# 2 38.8663 128.0899 47.4094 0.0000 0.0000 0.0000
# 3 27.6114 47.4094 54.9429 0.0000 0.0000 0.0000
# 4 0.0000 0.0000 0.0000 21.9239 0.0000 0.0000
# 5 0.0000 0.0000 0.0000 0.0000 0.5884 0.0000
# 6 0.0000 0.0000 0.0000 0.0000 0.0000 21.3636
#
#
#
# Elastic Compliance Matrix: (Units=1/GPa)
#
#
# Indices 1 2 3 4 5 6 
#
# 1 0.040345 -0.006961 -0.014269 0.000000 0.000000 0.000000
# 2 -0.006961 0.012671 -0.007436 0.000000 0.000000 0.000000
# 3 -0.014269 -0.007436 0.031788 0.000000 0.000000 0.000000
# 4 0.000000 0.000000 0.000000 0.045612 0.000000 0.000000
# 5 0.000000 0.000000 0.000000 0.000000 1.699516 0.000000
# 6 0.000000 0.000000 0.000000 0.000000 0.000000 0.046809
#
#
# Mechanical properties :
#
#
# Convention : Reuss Voigt Hill
#
# Bulk Modulus (GPa) = 36.39904 50.22932 43.31418
# Shear Modulus (GPa) = 2.57303 16.13534 9.35419
#
# Velocity S-wave (km/s) = 1.37721 3.44878 2.62591
# Velocity P-wave (km/s) = 5.41851 7.27220 6.41269
#
# Compressibility (1/GPa) = 0.02747325
#
# Stress axis : x y z
#
# Youngs Moduli (GPa) = 24.78602 78.91880 31.45849
#
# Poissons Ratio (x) = 0.54932 0.44889
# Poissons Ratio (y) = 0.17252 0.23392
# Poissons Ratio (z) = 0.35368 0.58683
#
# Static dielectric constant tensor:
#      x y z
#    x 2.419830 0.000000 0.000000 
#    y 0.000000 2.952130 0.000000 
#    z 0.000000 0.000000 2.600560 
# 
# 
# High freq. dielectric constant tensor:
#      x y z
#    x 1.470640 0.000000 0.000000 
#    y 0.000000 1.539380 0.000000 
#    z 0.000000 0.000000 1.488120 
# 
# From -- ./inp_files/9436.got.cif
#   From: 2010.03.12/outbox.cif.g09.slc.cpg/sg47_5_cif.got.tgz:9436.got - 2010.04.14 03:12:58.
