data_PCOD8196957
_publ_section_title
;
Structure prediction by ZEFSAII (Michael W. Deem and Ramdas Pophale) SiO2 
 PCOD8196957
Probable space group: P M M M
;
_chemical_formula_sum "Si O2"
_cell_formula_units_Z 52
_cell_length_a 14.090734
_cell_length_b 12.926263
_cell_length_c 16.747899
_cell_angle_alpha 90.000000
_cell_angle_beta 90.000000
_cell_angle_gamma 90.000000
_cell_volume 3050.471260
_symmetry_space_group_name_H-M "P M M M"
_symmetry_group_IT_number 47
_symmetry_cell_setting 'orthorhombic'
loop_
_space_group_symop_operation_xyz
x,y,z
-x,-y,z
x,-y,-z
-x,y,-z
-x,-y,-z
x,y,-z
-x,y,z
x,-y,z
loop_
_atom_site_type_symbol
_atom_site_label
_atom_site_fract_x
_atom_site_fract_y
_atom_site_fract_z
Si Si1 0.892819 0.878338 0.590932
Si Si2 0.392326 0.877143 0.000000
Si Si3 0.713966 0.117746 0.842057
Si Si4 0.107269 0.617475 0.793800
Si Si5 0.106579 0.799392 0.091227
Si Si6 0.390378 0.382438 0.592602
Si Si7 0.751432 0.747528 0.696096
O O1 0.876382 0.841782 0.500000
O O2 0.816058 0.826259 0.647235
O O3 0.000000 0.848593 0.617747
O O4 0.877957 0.000000 0.598050
O O5 0.342854 0.836657 0.918657
O O6 0.500000 0.837190 0.000000
O O7 0.385084 0.000000 0.000000
O O8 0.826134 0.120815 0.862127
O O9 0.695644 0.190723 0.765920
O O10 0.683813 0.000000 0.822465
O O11 0.132478 0.500000 0.816028
O O12 0.117726 0.684001 0.874260
O O13 0.180669 0.656982 0.727800
O O14 0.000000 0.626497 0.759651
O O15 0.000000 0.841466 0.101641
O O16 0.137774 0.794441 0.000000
O O17 0.366211 0.367571 0.500000
O O18 0.500000 0.357374 0.609288
O O19 0.367290 0.500000 0.618641
O O20 0.328551 0.301930 0.641581
#
# Coordination Sequence:
#
# PCOD8196957 Si02
#       7
#     8   4   8   8   8   8   8
#     4   9  18  32  49  71 102 139 173 201 235 288
#     4   9  18  34  51  63  84 121 159 195 239 290
#     4  10  20  32  47  70  99 127 161 202 244 288
#     4   9  18  30  43  65  98 130 159 196 243 291
#     4   9  17  29  46  67  92 124 164 203 240 283
#     4   9  19  36  56  77 100 126 159 203 256 310
#     4  11  19  30  51  76  99 126 166 207 249 289
#
# _framework density 17.046545999999999
#
# number of rings (size 3 to 8) (size 9 to 14) (size 15 to 20)
#    0.000    2.538    0.769    2.769    0.000    1.846 
#    0.000    2.308    0.000    1.385    0.000   11.846 
#    0.000    4.923    0.000    0.000    0.000    0.000 
#
# Total GULP energy -644698.829240 kJ/mol
# GULP energy per Si atom -12398.054408 kJ/mol
# Density = 1.700775 g / cm^3
# Si number density = 17.046546 Si / 1000 Ang^3
#
#
#
# Elastic Constant Matrix: (Units=GPa)
#
#
# Indices 1 2 3 4 5 6 
#
# 1 78.8912 33.8413 48.0005 0.0000 0.0000 0.0000
# 2 33.8413 61.6903 34.9181 0.0000 0.0000 0.0000
# 3 48.0005 34.9181 91.7942 0.0000 0.0000 0.0000
# 4 0.0000 0.0000 0.0000 22.1983 0.0000 0.0000
# 5 0.0000 0.0000 0.0000 0.0000 25.6401 0.0000
# 6 0.0000 0.0000 0.0000 0.0000 0.0000 24.9786
#
#
#
# Elastic Compliance Matrix: (Units=1/GPa)
#
#
# Indices 1 2 3 4 5 6 
#
# 1 0.020502 -0.006600 -0.008210 0.000000 0.000000 0.000000
# 2 -0.006600 0.022782 -0.005215 0.000000 0.000000 0.000000
# 3 -0.008210 -0.005215 0.017171 0.000000 0.000000 0.000000
# 4 0.000000 0.000000 0.000000 0.045048 0.000000 0.000000
# 5 0.000000 0.000000 0.000000 0.000000 0.039001 0.000000
# 6 0.000000 0.000000 0.000000 0.000000 0.000000 0.040034
#
#
# Mechanical properties :
#
#
# Convention : Reuss Voigt Hill
#
# Bulk Modulus (GPa) = 49.00738 51.76616 50.38677
# Shear Modulus (GPa) = 21.60836 22.27113 21.93974
#
# Velocity S-wave (km/s) = 3.56421 3.61846 3.59144
# Velocity P-wave (km/s) = 6.76385 6.92034 6.84255
#
# Compressibility (1/GPa) = 0.02040509
#
# Stress axis : x y z
#
# Youngs Moduli (GPa) = 48.77527 43.89380 58.23715
#
# Poissons Ratio (x) = 0.28968 0.47815
# Poissons Ratio (y) = 0.32189 0.30372
# Poissons Ratio (z) = 0.40047 0.22892
#
# Static dielectric constant tensor:
#      x y z
#    x 3.154230 0.000000 0.000000 
#    y 0.000000 3.023960 0.000000 
#    z 0.000000 0.000000 3.271640 
# 
# 
# High freq. dielectric constant tensor:
#      x y z
#    x 1.652700 0.000000 0.000000 
#    y 0.000000 1.644060 0.000000 
#    z 0.000000 0.000000 1.660630 
# 
# From -- ./inp_files/28156.got.cif
#   From: 2010.03.12/outbox.cif.g09.slc.cpg/sg47_15_cif.got.tgz:28156.got - 2010.04.14 03:12:58.
