data_PCOD8196692
_publ_section_title
;
Structure prediction by ZEFSAII (Michael W. Deem and Ramdas Pophale) SiO2 
 PCOD8196692
Probable space group: P M M M
;
_chemical_formula_sum "Si O2"
_cell_formula_units_Z 52
_cell_length_a 24.779883
_cell_length_b 9.166731
_cell_length_c 16.237986
_cell_angle_alpha 90.000000
_cell_angle_beta 90.000000
_cell_angle_gamma 90.000000
_cell_volume 3688.466991
_symmetry_space_group_name_H-M "P M M M"
_symmetry_group_IT_number 47
_symmetry_cell_setting 'orthorhombic'
loop_
_space_group_symop_operation_xyz
x,y,z
-x,-y,z
x,-y,-z
-x,y,-z
-x,-y,-z
x,y,-z
-x,y,z
x,-y,z
loop_
_atom_site_type_symbol
_atom_site_label
_atom_site_fract_x
_atom_site_fract_y
_atom_site_fract_z
Si Si1 0.861776 0.169233 0.186253
Si Si2 0.058512 0.341664 0.904278
Si Si3 0.937691 0.828433 0.662642
Si Si4 0.440436 0.663769 0.097929
Si Si5 0.936202 0.663087 0.500000
Si Si6 0.339534 0.837852 0.097149
Si Si7 0.231318 0.327350 0.095410
O O1 0.903589 0.205136 0.114001
O O2 0.893856 0.218790 0.268488
O O3 0.808614 0.261170 0.164273
O O4 0.846486 0.000000 0.187201
O O5 0.082068 0.500000 0.873796
O O6 0.000000 0.316059 0.862747
O O7 0.050868 0.349594 0.000000
O O8 0.916793 0.748062 0.580979
O O9 0.000000 0.784740 0.685427
O O10 0.934914 0.000000 0.647106
O O11 0.500000 0.720172 0.124941
O O12 0.431173 0.500000 0.131379
O O13 0.394177 0.768313 0.135318
O O14 0.436405 0.661749 0.000000
O O15 0.911603 0.500000 0.500000
O O16 0.000000 0.656721 0.500000
O O17 0.289428 0.735502 0.119631
O O18 0.331284 0.000000 0.134450
O O19 0.345781 0.848882 0.000000
O O20 0.232567 0.500000 0.105187
O O21 0.215871 0.285757 0.000000
#
# Coordination Sequence:
#
# PCOD8196692 Si02
#       7
#     8   8   8   8   4   8   8
#     4  11  21  30  42  60  78  96 123 157 189 223
#     4   9  18  31  43  54  71  96 123 151 187 228
#     4   9  18  32  47  62  82 104 120 140 180 231
#     4   8  13  21  33  49  69  92 117 147 187 234
#     4   9  17  29  47  69  85  97 117 143 172 213
#     4   9  16  25  37  52  69  90 120 159 198 232
#     4  10  20  32  43  53  70 100 134 165 199 236
#
# _framework density 14.097998
#
# number of rings (size 3 to 8) (size 9 to 14) (size 15 to 20)
#    0.000    2.692    0.000    3.462    0.000    8.308 
#    0.000    3.846    0.000    0.000    0.000    0.000 
#    0.000    0.000    0.000    0.000    0.000    0.000 
#
# Total GULP energy -644207.184979 kJ/mol
# GULP energy per Si atom -12388.599711 kJ/mol
# Density = 1.406591 g / cm^3
# Si number density = 14.097998 Si / 1000 Ang^3
#
#
#
# Elastic Constant Matrix: (Units=GPa)
#
#
# Indices 1 2 3 4 5 6 
#
# 1 102.0846 51.2769 36.4433 0.0000 0.0000 0.0000
# 2 51.2769 73.7459 30.3139 0.0000 0.0000 0.0000
# 3 36.4433 30.3139 44.2967 0.0000 0.0000 0.0000
# 4 0.0000 0.0000 0.0000 15.0573 0.0000 0.0000
# 5 0.0000 0.0000 0.0000 0.0000 7.5045 0.0000
# 6 0.0000 0.0000 0.0000 0.0000 0.0000 23.5214
#
#
#
# Elastic Compliance Matrix: (Units=1/GPa)
#
#
# Indices 1 2 3 4 5 6 
#
# 1 0.016945 -0.008420 -0.008178 0.000000 0.000000 0.000000
# 2 -0.008420 0.023052 -0.008848 0.000000 0.000000 0.000000
# 3 -0.008178 -0.008848 0.035358 0.000000 0.000000 0.000000
# 4 0.000000 0.000000 0.000000 0.066413 0.000000 0.000000
# 5 0.000000 0.000000 0.000000 0.000000 0.133254 0.000000
# 6 0.000000 0.000000 0.000000 0.000000 0.000000 0.042515
#
#
# Mechanical properties :
#
#
# Convention : Reuss Voigt Hill
#
# Bulk Modulus (GPa) = 40.87952 50.68836 45.78394
# Shear Modulus (GPa) = 13.27726 16.02283 14.65005
#
# Velocity S-wave (km/s) = 3.07218 3.37491 3.22709
# Velocity P-wave (km/s) = 6.45322 7.15675 6.81407
#
# Compressibility (1/GPa) = 0.02446212
#
# Stress axis : x y z
#
# Youngs Moduli (GPa) = 59.01475 43.38051 28.28190
#
# Poissons Ratio (x) = 0.36528 0.23130
# Poissons Ratio (y) = 0.49692 0.25023
# Poissons Ratio (z) = 0.48265 0.38382
#
# Static dielectric constant tensor:
#      x y z
#    x 2.857660 0.000000 0.000000 
#    y 0.000000 2.979000 0.000000 
#    z 0.000000 0.000000 2.424170 
# 
# 
# High freq. dielectric constant tensor:
#      x y z
#    x 1.529080 0.000000 0.000000 
#    y 0.000000 1.552090 0.000000 
#    z 0.000000 0.000000 1.476690 
# 
# From -- ./inp_files/25437.got.cif
#   From: 2010.03.12/outbox.cif.g09.slc.cpg/sg47_13_cif.got.tgz:25437.got - 2010.04.14 03:12:58.
