data_PCOD8196809
_publ_section_title
;
Structure prediction by ZEFSAII (Michael W. Deem and Ramdas Pophale) SiO2 
 PCOD8196809
Probable space group: P M M M
;
_chemical_formula_sum "Si O2"
_cell_formula_units_Z 64
_cell_length_a 8.949491
_cell_length_b 14.048310
_cell_length_c 30.703682
_cell_angle_alpha 90.000000
_cell_angle_beta 90.000000
_cell_angle_gamma 90.000000
_cell_volume 3860.227294
_symmetry_space_group_name_H-M "P M M M"
_symmetry_group_IT_number 47
_symmetry_cell_setting 'orthorhombic'
loop_
_space_group_symop_operation_xyz
x,y,z
-x,-y,z
x,-y,-z
-x,y,-z
-x,-y,-z
x,y,-z
-x,y,z
x,-y,z
loop_
_atom_site_type_symbol
_atom_site_label
_atom_site_fract_x
_atom_site_fract_y
_atom_site_fract_z
Si Si1 0.673157 0.110376 0.790989
Si Si2 0.827240 0.608355 0.835421
Si Si3 0.832228 0.113038 0.452174
Si Si4 0.828748 0.890576 0.949839
Si Si5 0.324601 0.392125 0.744016
Si Si6 0.176192 0.214711 0.711591
Si Si7 0.329792 0.887125 0.632889
Si Si8 0.326231 0.774977 0.877295
O O1 0.500000 0.125555 0.778836
O O2 0.772076 0.158719 0.754203
O O3 0.713070 0.155561 0.837371
O O4 0.715027 0.000000 0.793484
O O5 0.803560 0.500000 0.850931
O O6 0.734324 0.630511 0.792097
O O7 0.765619 0.676783 0.873110
O O8 0.000000 0.629708 0.825633
O O9 0.778105 0.149235 0.500000
O O10 0.722050 0.150698 0.414571
O O11 0.000000 0.150275 0.442952
O O12 0.832174 0.000000 0.452001
O O13 0.720360 0.824904 0.921868
O O14 0.000000 0.873821 0.935821
O O15 0.783891 0.000000 0.942270
O O16 0.805849 0.862516 0.000000
O O17 0.500000 0.373374 0.744070
O O18 0.285278 0.500000 0.730118
O O19 0.246420 0.320612 0.710307
O O20 0.225577 0.159177 0.668859
O O21 0.000000 0.223716 0.711974
O O22 0.500000 0.855460 0.640311
O O23 0.311935 0.000000 0.636560
O O24 0.500000 0.750245 0.879134
#
# Coordination Sequence:
#
# PCOD8196809 Si02
#       8
#     8   8   8   8   8   8   8   8
#     4  10  21  35  48  66  97 134 168 201 238 283
#     4  10  20  34  53  77 102 128 162 202 243 289
#     4   8  14  26  44  65  90 121 160 207 253 295
#     4   9  19  36  56  77 103 135 168 203 244 290
#     4  10  20  35  54  73  95 125 161 202 248 294
#     4  12  23  33  48  69  96 131 168 204 245 293
#     4  10  20  32  46  65  94 133 172 209 248 293
#     4  11  21  33  53  78 103 132 165 202 246 292
#
# _framework density 16.579335
#
# number of rings (size 3 to 8) (size 9 to 14) (size 15 to 20)
#    0.000    2.000    1.250    4.125    0.000    5.750 
#    0.000    1.875    0.000    0.375    0.000    2.625 
#    0.000    0.500    0.000    5.250    0.000    2.500 
#
# Total GULP energy -793705.903664 kJ/mol
# GULP energy per Si atom -12401.654745 kJ/mol
# Density = 1.654160 g / cm^3
# Si number density = 16.579335 Si / 1000 Ang^3
#
#
#
# Elastic Constant Matrix: (Units=GPa)
#
#
# Indices 1 2 3 4 5 6 
#
# 1 96.7694 45.8771 45.6912 0.0000 0.0000 0.0000
# 2 45.8771 75.0506 34.7103 0.0000 0.0000 0.0000
# 3 45.6912 34.7103 85.9559 0.0000 0.0000 0.0000
# 4 0.0000 0.0000 0.0000 4.7534 0.0000 0.0000
# 5 0.0000 0.0000 0.0000 0.0000 29.8962 0.0000
# 6 0.0000 0.0000 0.0000 0.0000 0.0000 25.4528
#
#
#
# Elastic Compliance Matrix: (Units=1/GPa)
#
#
# Indices 1 2 3 4 5 6 
#
# 1 0.016623 -0.007470 -0.005820 0.000000 0.000000 0.000000
# 2 -0.007470 0.019741 -0.004001 0.000000 0.000000 0.000000
# 3 -0.005820 -0.004001 0.016343 0.000000 0.000000 0.000000
# 4 0.000000 0.000000 0.000000 0.210376 0.000000 0.000000
# 5 0.000000 0.000000 0.000000 0.000000 0.033449 0.000000
# 6 0.000000 0.000000 0.000000 0.000000 0.000000 0.039288
#
#
# Mechanical properties :
#
#
# Convention : Reuss Voigt Hill
#
# Bulk Modulus (GPa) = 55.16960 56.70366 55.93663
# Shear Modulus (GPa) = 13.28218 20.78697 17.03457
#
# Velocity S-wave (km/s) = 2.83349 3.54473 3.20888
# Velocity P-wave (km/s) = 6.63726 7.14347 6.89501
#
# Compressibility (1/GPa) = 0.01812592
#
# Stress axis : x y z
#
# Youngs Moduli (GPa) = 60.15720 50.65619 61.18758
#
# Poissons Ratio (x) = 0.37839 0.35610
# Poissons Ratio (y) = 0.44936 0.24481
# Poissons Ratio (z) = 0.35011 0.20268
#
# Static dielectric constant tensor:
#      x y z
#    x 3.197740 0.000000 0.000000 
#    y 0.000000 3.102620 0.000000 
#    z 0.000000 0.000000 3.137370 
# 
# 
# High freq. dielectric constant tensor:
#      x y z
#    x 1.649940 0.000000 0.000000 
#    y 0.000000 1.620430 0.000000 
#    z 0.000000 0.000000 1.624930 
# 
# From -- ./inp_files/8342.got.cif
#   From: 2010.03.12/outbox.cif.g09.slc.cpg/sg47_5_cif.got.tgz:8342.got - 2010.04.14 03:12:58.
