data_PCOD8196174
_publ_section_title
;
Structure prediction by ZEFSAII (Michael W. Deem and Ramdas Pophale) SiO2 
 PCOD8196174
Probable space group: P M M M
;
_chemical_formula_sum "Si O2"
_cell_formula_units_Z 48
_cell_length_a 17.844008
_cell_length_b 8.916853
_cell_length_c 15.657624
_cell_angle_alpha 90.000000
_cell_angle_beta 90.000000
_cell_angle_gamma 90.000000
_cell_volume 2491.322074
_symmetry_space_group_name_H-M "P M M M"
_symmetry_group_IT_number 47
_symmetry_cell_setting 'orthorhombic'
loop_
_space_group_symop_operation_xyz
x,y,z
-x,-y,z
x,-y,-z
-x,y,-z
-x,-y,-z
x,y,-z
-x,y,z
x,-y,z
loop_
_atom_site_type_symbol
_atom_site_label
_atom_site_fract_x
_atom_site_fract_y
_atom_site_fract_z
Si Si1 0.168857 0.827302 0.595066
Si Si2 0.500000 0.178032 0.095332
Si Si3 0.679313 0.323252 0.639097
Si Si4 0.083566 0.821697 0.238555
Si Si5 0.652908 0.175638 0.182102
Si Si6 0.411977 0.832489 0.500000
Si Si7 0.805585 0.176136 0.905850
O O1 0.133210 0.809633 0.500000
O O2 0.242653 0.727741 0.598914
O O3 0.110890 0.771066 0.667252
O O4 0.191060 0.000000 0.612853
O O5 0.574373 0.233693 0.143841
O O6 0.500000 0.000000 0.089999
O O7 0.500000 0.246034 0.000000
O O8 0.673590 0.500000 0.634546
O O9 0.671710 0.269892 0.735209
O O10 0.612228 0.253727 0.584847
O O11 0.138617 0.753893 0.165571
O O12 0.000000 0.757443 0.223935
O O13 0.082897 0.000000 0.233412
O O14 0.718954 0.209524 0.115028
O O15 0.649519 0.000000 0.205421
O O16 0.500000 0.841593 0.500000
O O17 0.377068 0.000000 0.500000
O O18 0.819544 0.000000 0.907714
O O19 0.823138 0.243965 0.000000
#
# Coordination Sequence:
#
# PCOD8196174 Si02
#       7
#     8   4   8   8   8   4   8
#     4  10  19  34  57  80 106 145 188 230 275 333
#     4   9  18  32  55  86 111 136 181 237 282 327
#     4  12  24  37  56  83 114 148 186 229 275 329
#     4   9  17  29  47  78 116 146 179 230 288 340
#     4  10  19  34  55  79 110 146 186 231 280 333
#     4  11  25  43  63  85 112 147 188 231 279 332
#     4   9  16  27  48  77 108 144 185 233 285 335
#
# _framework density 19.266878999999999
#
# number of rings (size 3 to 8) (size 9 to 14) (size 15 to 20)
#    0.000    2.000    2.500    2.250    1.167    3.333 
#    0.000    3.333    0.000    3.000    0.000    1.167 
#    0.000    1.333    0.000    0.000    0.000    0.000 
#
# Total GULP energy -595147.228601 kJ/mol
# GULP energy per Si atom -12398.900596 kJ/mol
# Density = 1.922303 g / cm^3
# Si number density = 19.266879 Si / 1000 Ang^3
#
#
#
# Elastic Constant Matrix: (Units=GPa)
#
#
# Indices 1 2 3 4 5 6 
#
# 1 131.2789 19.6732 60.4480 0.0000 0.0000 0.0000
# 2 19.6732 63.7523 29.9738 0.0000 0.0000 0.0000
# 3 60.4480 29.9738 160.0505 0.0000 0.0000 0.0000
# 4 0.0000 0.0000 0.0000 0.5834 0.0000 0.0000
# 5 0.0000 0.0000 0.0000 0.0000 30.1008 0.0000
# 6 0.0000 0.0000 0.0000 0.0000 0.0000 2.6805
#
#
#
# Elastic Compliance Matrix: (Units=1/GPa)
#
#
# Indices 1 2 3 4 5 6 
#
# 1 0.009324 -0.001340 -0.003271 0.000000 0.000000 0.000000
# 2 -0.001340 0.017393 -0.002751 0.000000 0.000000 0.000000
# 3 -0.003271 -0.002751 0.007999 0.000000 0.000000 0.000000
# 4 0.000000 0.000000 0.000000 1.714066 0.000000 0.000000
# 5 0.000000 0.000000 0.000000 0.000000 0.033222 0.000000
# 6 0.000000 0.000000 0.000000 0.000000 0.000000 0.373065
#
#
# Mechanical properties :
#
#
# Convention : Reuss Voigt Hill
#
# Bulk Modulus (GPa) = 50.01952 63.91908 56.96930
# Shear Modulus (GPa) = 2.29731 23.00540 12.65135
#
# Velocity S-wave (km/s) = 1.09314 3.45924 2.56527
# Velocity P-wave (km/s) = 5.25462 7.01447 6.19733
#
# Compressibility (1/GPa) = 0.01999219
#
# Stress axis : x y z
#
# Youngs Moduli (GPa) = 107.24885 57.49563 125.02260
#
# Poissons Ratio (x) = 0.07702 0.40891
# Poissons Ratio (y) = 0.14367 0.34398
# Poissons Ratio (z) = 0.35078 0.15819
#
# Static dielectric constant tensor:
#      x y z
#    x 3.664600 0.000000 0.000000 
#    y 0.000000 3.049690 0.000000 
#    z 0.000000 0.000000 3.902280 
# 
# 
# High freq. dielectric constant tensor:
#      x y z
#    x 1.750870 0.000000 0.000000 
#    y 0.000000 1.692020 0.000000 
#    z 0.000000 0.000000 1.768880 
# 
# From -- ./inp_files/24434.got.cif
#   From: 2010.03.12/outbox.cif.g09.slc.cpg/sg47_13_cif.got.tgz:24434.got - 2010.04.14 03:12:58.
