data_PCOD8196362
_publ_section_title
;
Structure prediction by ZEFSAII (Michael W. Deem and Ramdas Pophale) SiO2 
 PCOD8196362
Probable space group: P M M M
;
_chemical_formula_sum "Si O2"
_cell_formula_units_Z 40
_cell_length_a 17.281148
_cell_length_b 9.481969
_cell_length_c 17.940148
_cell_angle_alpha 90.000000
_cell_angle_beta 90.000000
_cell_angle_gamma 90.000000
_cell_volume 2939.660266
_symmetry_space_group_name_H-M "P M M M"
_symmetry_group_IT_number 47
_symmetry_cell_setting 'orthorhombic'
loop_
_space_group_symop_operation_xyz
x,y,z
-x,-y,z
x,-y,-z
-x,y,-z
-x,-y,-z
x,y,-z
-x,y,z
x,-y,z
loop_
_atom_site_type_symbol
_atom_site_label
_atom_site_fract_x
_atom_site_fract_y
_atom_site_fract_z
Si Si1 0.592519 0.841463 0.659828
Si Si2 0.584590 0.832819 0.500000
Si Si3 0.859900 0.156326 0.911425
Si Si4 0.000000 0.341796 0.089066
Si Si5 0.408357 0.661891 0.201518
Si Si6 0.313563 0.163749 0.913196
O O1 0.500000 0.839478 0.654938
O O2 0.626506 0.791192 0.578436
O O3 0.622974 0.735915 0.723216
O O4 0.620964 0.000000 0.679215
O O5 0.500000 0.760778 0.500000
O O6 0.574670 0.000000 0.500000
O O7 0.773685 0.202078 0.887047
O O8 0.923367 0.264605 0.879520
O O9 0.878906 0.000000 0.880586
O O10 0.863498 0.152215 0.000000
O O11 0.000000 0.500000 0.120427
O O12 0.000000 0.340511 0.000000
O O13 0.500000 0.676604 0.195257
O O14 0.381856 0.500000 0.203085
O O15 0.372851 0.738081 0.130202
O O16 0.331316 0.000000 0.896712
O O17 0.324643 0.196848 0.000000
#
# Coordination Sequence:
#
# PCOD8196362 Si02
#       6
#     8   4   8   4   8   8
#     4   8  13  23  39  55  70  89 114 144 177 215
#     4   7  10  18  35  57  73  85 107 140 175 210
#     4   8  14  25  39  53  69  88 111 142 179 216
#     4   9  15  21  33  55  77  93 109 130 163 212
#     4  10  20  30  38  51  72  96 122 154 193 231
#     4   9  18  31  44  55  66  87 124 164 196 224
#
# _framework density 13.607013999999999
#
# number of rings (size 3 to 8) (size 9 to 14) (size 15 to 20)
#    0.000    3.400    0.000    3.300    0.000    4.000 
#    0.000    4.500    0.000    3.000    0.000    0.000 
#    0.000    0.000    0.000    0.000    0.000    1.000 
#
# Total GULP energy -495593.036155 kJ/mol
# GULP energy per Si atom -12389.825904 kJ/mol
# Density = 1.357604 g / cm^3
# Si number density = 13.607014 Si / 1000 Ang^3
#
#
#
# Elastic Constant Matrix: (Units=GPa)
#
#
# Indices 1 2 3 4 5 6 
#
# 1 32.6700 33.5253 25.7261 0.0000 0.0000 0.0000
# 2 33.5253 92.9892 50.0120 0.0000 0.0000 0.0000
# 3 25.7261 50.0120 73.1428 0.0000 0.0000 0.0000
# 4 0.0000 0.0000 0.0000 10.8681 0.0000 0.0000
# 5 0.0000 0.0000 0.0000 0.0000 0.3250 0.0000
# 6 0.0000 0.0000 0.0000 0.0000 0.0000 16.7049
#
#
#
# Elastic Compliance Matrix: (Units=1/GPa)
#
#
# Indices 1 2 3 4 5 6 
#
# 1 0.051806 -0.014041 -0.008621 0.000000 0.000000 0.000000
# 2 -0.014041 0.020814 -0.009293 0.000000 0.000000 0.000000
# 3 -0.008621 -0.009293 0.023058 0.000000 0.000000 0.000000
# 4 0.000000 0.000000 0.000000 0.092012 0.000000 0.000000
# 5 0.000000 0.000000 0.000000 0.000000 3.077341 0.000000
# 6 0.000000 0.000000 0.000000 0.000000 0.000000 0.059863
#
#
# Mechanical properties :
#
#
# Convention : Reuss Voigt Hill
#
# Bulk Modulus (GPa) = 31.47770 46.36988 38.92379
# Shear Modulus (GPa) = 1.47085 11.54882 6.50984
#
# Velocity S-wave (km/s) = 1.04082 2.91648 2.18965
# Velocity P-wave (km/s) = 4.96267 6.74485 5.92119
#
# Compressibility (1/GPa) = 0.03176852
#
# Stress axis : x y z
#
# Youngs Moduli (GPa) = 19.30260 48.04349 43.36799
#
# Poissons Ratio (x) = 0.67459 0.37386
# Poissons Ratio (y) = 0.27103 0.40304
# Poissons Ratio (z) = 0.16640 0.44649
#
# Static dielectric constant tensor:
#      x y z
#    x 2.521090 0.000000 0.000000 
#    y 0.000000 2.779460 0.000000 
#    z 0.000000 0.000000 2.678480 
# 
# 
# High freq. dielectric constant tensor:
#      x y z
#    x 1.480310 0.000000 0.000000 
#    y 0.000000 1.518100 0.000000 
#    z 0.000000 0.000000 1.490360 
# 
# From -- ./inp_files/9341.got.cif
#   From: 2010.03.12/outbox.cif.g09.slc.cpg/sg47_5_cif.got.tgz:9341.got - 2010.04.14 03:12:58.
