data_PCOD8196931
_publ_section_title
;
Structure prediction by ZEFSAII (Michael W. Deem and Ramdas Pophale) SiO2 
 PCOD8196931
Probable space group: P M M M
;
_chemical_formula_sum "Si O2"
_cell_formula_units_Z 44
_cell_length_a 30.176117
_cell_length_b 8.908955
_cell_length_c 8.283930
_cell_angle_alpha 90.000000
_cell_angle_beta 90.000000
_cell_angle_gamma 90.000000
_cell_volume 2227.032427
_symmetry_space_group_name_H-M "P M M M"
_symmetry_group_IT_number 47
_symmetry_cell_setting 'orthorhombic'
loop_
_space_group_symop_operation_xyz
x,y,z
-x,-y,z
x,-y,-z
-x,y,-z
-x,-y,-z
x,y,-z
-x,y,z
x,-y,z
loop_
_atom_site_type_symbol
_atom_site_label
_atom_site_fract_x
_atom_site_fract_y
_atom_site_fract_z
Si Si1 0.594860 0.822504 0.683770
Si Si2 0.447743 0.672578 0.000000
Si Si3 0.222583 0.822188 0.680317
Si Si4 0.952394 0.322446 0.315077
Si Si5 0.686598 0.177547 0.821227
Si Si6 0.861685 0.665114 0.813366
O O1 0.580071 0.772946 0.500000
O O2 0.568426 0.746658 0.831449
O O3 0.646582 0.777600 0.702215
O O4 0.588022 0.000000 0.702803
O O5 0.432339 0.500000 0.000000
O O6 0.500000 0.688743 0.000000
O O7 0.221250 0.759993 0.500000
O O8 0.266761 0.753182 0.762216
O O9 0.178380 0.771850 0.767926
O O10 0.224545 0.000000 0.685644
O O11 0.949536 0.275275 0.500000
O O12 0.951627 0.500000 0.292254
O O13 0.908695 0.255156 0.229884
O O14 0.000000 0.262634 0.244691
O O15 0.691284 0.000000 0.826598
O O16 0.675870 0.240277 0.000000
O O17 0.857253 0.500000 0.729088
O O18 0.860233 0.639863 0.000000
#
# Coordination Sequence:
#
# PCOD8196931 Si02
#       6
#     8   4   8   8   8   8
#     4  10  20  37  64  94 120 150 196 252 300 342
#     4  11  25  43  61  85 123 167 203 239 290 353
#     4  10  20  33  51  76 104 137 177 216 259 317
#     4   8  14  26  45  67  90 120 160 205 254 308
#     4   9  16  30  55  84 112 141 176 224 278 327
#     4  10  20  32  47  70 100 132 166 208 259 312
#
# _framework density 19.757232999999999
#
# number of rings (size 3 to 8) (size 9 to 14) (size 15 to 20)
#    0.000    2.455    0.909    2.455    0.000    6.182 
#    0.000    4.545    0.000    2.727    0.000    3.818 
#    0.000    0.000    0.000    0.000    0.000    0.000 
#
# Total GULP energy -545100.342492 kJ/mol
# GULP energy per Si atom -12388.644148 kJ/mol
# Density = 1.971226 g / cm^3
# Si number density = 19.757233 Si / 1000 Ang^3
#
#
#
# Elastic Constant Matrix: (Units=GPa)
#
#
# Indices 1 2 3 4 5 6 
#
# 1 125.4448 27.5736 62.1940 0.0000 0.0000 0.0000
# 2 27.5736 29.4924 29.4575 0.0000 0.0000 0.0000
# 3 62.1940 29.4575 120.3468 0.0000 0.0000 0.0000
# 4 0.0000 0.0000 0.0000 18.0153 0.0000 0.0000
# 5 0.0000 0.0000 0.0000 0.0000 36.5122 0.0000
# 6 0.0000 0.0000 0.0000 0.0000 0.0000 315.1051
#
#
#
# Elastic Compliance Matrix: (Units=1/GPa)
#
#
# Indices 1 2 3 4 5 6 
#
# 1 0.011566 -0.006411 -0.004408 0.000000 0.000000 0.000000
# 2 -0.006411 0.048432 -0.008542 0.000000 0.000000 0.000000
# 3 -0.004408 -0.008542 0.012678 0.000000 0.000000 0.000000
# 4 0.000000 0.000000 0.000000 0.055508 0.000000 0.000000
# 5 0.000000 0.000000 0.000000 0.000000 0.027388 0.000000
# 6 0.000000 0.000000 0.000000 0.000000 0.000000 0.003174
#
#
# Mechanical properties :
#
#
# Convention : Reuss Voigt Hill
#
# Bulk Modulus (GPa) = 29.45047 57.08157 43.26602
# Shear Modulus (GPa) = 23.94785 84.33045 54.13915
#
# Velocity S-wave (km/s) = 3.48531 6.54034 5.24039
# Velocity P-wave (km/s) = 5.57988 9.27302 7.65258
#
# Compressibility (1/GPa) = 0.03395532
#
# Stress axis : x y z
#
# Youngs Moduli (GPa) = 86.45824 20.64731 78.87558
#
# Poissons Ratio (x) = 0.13237 0.34769
# Poissons Ratio (y) = 0.55427 0.67374
# Poissons Ratio (z) = 0.38112 0.17637
#
# Static dielectric constant tensor:
#      x y z
#    x 3.943040 0.000000 0.000000 
#    y 0.000000 3.001880 0.000000 
#    z 0.000000 0.000000 3.784000 
# 
# 
# High freq. dielectric constant tensor:
#      x y z
#    x 1.788860 0.000000 0.000000 
#    y 0.000000 1.710830 0.000000 
#    z 0.000000 0.000000 1.777430 
# 
# From -- ./inp_files/13675.got.cif
#   From: 2010.03.12/outbox.cif.g09.slc.cpg/sg47_7_cif.got.tgz:13675.got - 2010.04.14 03:12:58.
