data_PCOD8196628
_publ_section_title
;
Structure prediction by ZEFSAII (Michael W. Deem and Ramdas Pophale) SiO2 
 PCOD8196628
Probable space group: P M M M
;
_chemical_formula_sum "Si O2"
_cell_formula_units_Z 52
_cell_length_a 9.545443
_cell_length_b 18.702548
_cell_length_c 15.676543
_cell_angle_alpha 90.000000
_cell_angle_beta 90.000000
_cell_angle_gamma 90.000000
_cell_volume 2798.640823
_symmetry_space_group_name_H-M "P M M M"
_symmetry_group_IT_number 47
_symmetry_cell_setting 'orthorhombic'
loop_
_space_group_symop_operation_xyz
x,y,z
-x,-y,z
x,-y,-z
-x,y,-z
-x,-y,-z
x,y,-z
-x,y,z
x,-y,z
loop_
_atom_site_type_symbol
_atom_site_label
_atom_site_fract_x
_atom_site_fract_y
_atom_site_fract_z
Si Si1 0.348645 0.325254 0.598505
Si Si2 0.166014 0.832831 0.899612
Si Si3 0.666696 0.831256 0.404143
Si Si4 0.832311 0.420640 0.000000
Si Si5 0.834380 0.675819 0.850747
Si Si6 0.337470 0.916015 0.761006
Si Si7 0.163439 0.580863 0.305071
O O1 0.377400 0.319878 0.500000
O O2 0.500000 0.337641 0.644196
O O3 0.282460 0.248188 0.624772
O O4 0.247062 0.393160 0.612389
O O5 0.221417 0.755564 0.866958
O O6 0.247840 0.890121 0.842420
O O7 0.000000 0.841624 0.885174
O O8 0.202117 0.842720 0.000000
O O9 0.724234 0.851971 0.500000
O O10 0.500000 0.832598 0.408596
O O11 0.719670 0.884231 0.329228
O O12 0.772072 0.378590 0.919463
O O13 0.769117 0.500000 0.000000
O O14 0.000000 0.424002 0.000000
O O15 0.787484 0.641294 0.761913
O O16 0.000000 0.676965 0.859830
O O17 0.500000 0.895117 0.775570
O O18 0.317272 0.000000 0.754347
O O19 0.204622 0.500000 0.277737
O O20 0.000000 0.584452 0.323932
#
# Coordination Sequence:
#
# PCOD8196628 Si02
#       7
#     8   8   8   4   8   8   8
#     4   9  18  33  52  71  92 125 169 208 240 285
#     4  10  20  35  55  76 100 135 178 217 252 297
#     4   8  15  31  55  80 104 130 164 207 253 304
#     4   9  14  22  42  70  98 125 152 192 245 291
#     4   9  16  29  47  70  98 126 161 203 243 290
#     4  10  21  35  53  80 109 134 164 206 256 308
#     4  10  20  31  45  70 102 131 160 201 254 301
#
# _framework density 18.580448000000001
#
# number of rings (size 3 to 8) (size 9 to 14) (size 15 to 20)
#    0.000    2.692    0.769    2.308    0.000    4.000 
#    0.000    4.615    0.000    1.385    0.000    1.077 
#    0.000    2.462    0.000    0.000    0.000    0.000 
#
# Total GULP energy -644270.698073 kJ/mol
# GULP energy per Si atom -12389.821117 kJ/mol
# Density = 1.853816 g / cm^3
# Si number density = 18.580448 Si / 1000 Ang^3
#
#
#
# Elastic Constant Matrix: (Units=GPa)
#
#
# Indices 1 2 3 4 5 6 
#
# 1 35.7583 43.7711 36.3891 0.0000 0.0000 0.0000
# 2 43.7711 114.1638 64.6637 0.0000 0.0000 0.0000
# 3 36.3891 64.6637 88.9332 0.0000 0.0000 0.0000
# 4 0.0000 0.0000 0.0000 24.9453 0.0000 0.0000
# 5 0.0000 0.0000 0.0000 0.0000 21.7637 0.0000
# 6 0.0000 0.0000 0.0000 0.0000 0.0000 24.4611
#
#
#
# Elastic Compliance Matrix: (Units=1/GPa)
#
#
# Indices 1 2 3 4 5 6 
#
# 1 0.060956 -0.015716 -0.013514 0.000000 0.000000 0.000000
# 2 -0.015716 0.018945 -0.007344 0.000000 0.000000 0.000000
# 3 -0.013514 -0.007344 0.022114 0.000000 0.000000 0.000000
# 4 0.000000 0.000000 0.000000 0.040088 0.000000 0.000000
# 5 0.000000 0.000000 0.000000 0.000000 0.045948 0.000000
# 6 0.000000 0.000000 0.000000 0.000000 0.000000 0.040881
#
#
# Mechanical properties :
#
#
# Convention : Reuss Voigt Hill
#
# Bulk Modulus (GPa) = 34.64329 58.72256 46.68292
# Shear Modulus (GPa) = 16.04087 20.50278 18.27182
#
# Velocity S-wave (km/s) = 2.94142 3.32544 3.13931
# Velocity P-wave (km/s) = 5.49740 6.81306 6.19029
#
# Compressibility (1/GPa) = 0.02886562
#
# Stress axis : x y z
#
# Youngs Moduli (GPa) = 16.40522 52.78448 45.22004
#
# Poissons Ratio (x) = 0.82958 0.61111
# Poissons Ratio (y) = 0.25783 0.33211
# Poissons Ratio (z) = 0.22170 0.38766
#
# Static dielectric constant tensor:
#      x y z
#    x 2.965260 0.000000 0.000000 
#    y 0.000000 3.572160 0.000000 
#    z 0.000000 0.000000 3.541130 
# 
# 
# High freq. dielectric constant tensor:
#      x y z
#    x 1.671970 0.000000 0.000000 
#    y 0.000000 1.728490 0.000000 
#    z 0.000000 0.000000 1.726670 
# 
# From -- ./inp_files/21412.got.cif
#   From: 2010.03.12/outbox.cif.g09.slc.cpg/sg47_11_cif.got.tgz:21412.got - 2010.04.14 03:12:58.
