data_PCOD8196494
_publ_section_title
;
Structure prediction by ZEFSAII (Michael W. Deem and Ramdas Pophale) SiO2 
 PCOD8196494
Probable space group: P M M M
;
_chemical_formula_sum "Si O2"
_cell_formula_units_Z 44
_cell_length_a 22.927648
_cell_length_b 14.983120
_cell_length_c 9.227986
_cell_angle_alpha 90.000000
_cell_angle_beta 90.000000
_cell_angle_gamma 90.000000
_cell_volume 3170.068818
_symmetry_space_group_name_H-M "P M M M"
_symmetry_group_IT_number 47
_symmetry_cell_setting 'orthorhombic'
loop_
_space_group_symop_operation_xyz
x,y,z
-x,-y,z
x,-y,-z
-x,y,-z
-x,-y,-z
x,y,-z
-x,y,z
x,-y,z
loop_
_atom_site_type_symbol
_atom_site_label
_atom_site_fract_x
_atom_site_fract_y
_atom_site_fract_z
Si Si1 0.735215 0.606223 0.836884
Si Si2 0.500000 0.402198 0.327909
Si Si3 0.150998 0.395016 0.331921
Si Si4 0.930898 0.731869 0.166085
Si Si5 0.930723 0.098384 0.337323
Si Si6 0.374941 0.606935 0.336792
O O1 0.733407 0.500000 0.835158
O O2 0.789894 0.640101 0.743254
O O3 0.675577 0.644404 0.767482
O O4 0.740943 0.643051 0.000000
O O5 0.500000 0.500000 0.255327
O O6 0.500000 0.412562 0.500000
O O7 0.561408 0.354467 0.283727
O O8 0.153634 0.369115 0.500000
O O9 0.143018 0.500000 0.309570
O O10 0.095951 0.348858 0.257083
O O11 0.907098 0.826212 0.228208
O O12 0.000000 0.724407 0.182649
O O13 0.911111 0.724523 0.000000
O O14 0.908496 0.119514 0.500000
O O15 0.000000 0.098625 0.335563
O O16 0.908277 0.000000 0.288329
O O17 0.360904 0.639007 0.500000
O O18 0.377523 0.500000 0.333125
#
# Coordination Sequence:
#
# PCOD8196494 Si02
#       6
#     8   4   8   8   8   8
#     4   9  16  25  36  49  65  85 111 146 186 222
#     4   7  10  16  27  43  61  81 105 135 170 207
#     4  10  20  32  44  55  68  92 127 162 192 224
#     4  10  20  31  43  60  80  99 118 146 187 230
#     4   8  14  26  44  63  81 100 120 142 170 208
#     4   8  12  19  31  45  61  82 109 139 172 211
#
# _framework density 13.879825
#
# number of rings (size 3 to 8) (size 9 to 14) (size 15 to 20)
#    0.000    3.182    0.000    3.273    0.000    5.091 
#    0.000    4.091    0.000    2.727    0.000    0.000 
#    0.000    0.000    0.000    0.000    0.000    0.000 
#
# Total GULP energy -545196.694088 kJ/mol
# GULP energy per Si atom -12390.833957 kJ/mol
# Density = 1.384823 g / cm^3
# Si number density = 13.879825 Si / 1000 Ang^3
#
#
#
# Elastic Constant Matrix: (Units=GPa)
#
#
# Indices 1 2 3 4 5 6 
#
# 1 64.2033 26.1341 47.2479 0.0000 0.0000 0.0000
# 2 26.1341 34.5979 34.5763 0.0000 0.0000 0.0000
# 3 47.2479 34.5763 108.2006 0.0000 0.0000 0.0000
# 4 0.0000 0.0000 0.0000 15.9189 0.0000 0.0000
# 5 0.0000 0.0000 0.0000 0.0000 18.9908 0.0000
# 6 0.0000 0.0000 0.0000 0.0000 0.0000 0.6828
#
#
#
# Elastic Compliance Matrix: (Units=1/GPa)
#
#
# Indices 1 2 3 4 5 6 
#
# 1 0.026042 -0.012204 -0.007472 0.000000 0.000000 0.000000
# 2 -0.012204 0.048184 -0.010069 0.000000 0.000000 0.000000
# 3 -0.007472 -0.010069 0.015722 0.000000 0.000000 0.000000
# 4 0.000000 0.000000 0.000000 0.062818 0.000000 0.000000
# 5 0.000000 0.000000 0.000000 0.000000 0.052657 0.000000
# 6 0.000000 0.000000 0.000000 0.000000 0.000000 1.464565
#
#
# Mechanical properties :
#
#
# Convention : Reuss Voigt Hill
#
# Bulk Modulus (GPa) = 32.83030 46.99094 39.91062
# Shear Modulus (GPa) = 2.87417 13.72139 8.29778
#
# Velocity S-wave (km/s) = 1.44057 3.14759 2.44771
# Velocity P-wave (km/s) = 5.14506 6.86577 6.06673
#
# Compressibility (1/GPa) = 0.03045966
#
# Stress axis : x y z
#
# Youngs Moduli (GPa) = 38.39990 20.75374 63.60408
#
# Poissons Ratio (x) = 0.25328 0.47524
# Poissons Ratio (y) = 0.46863 0.64040
# Poissons Ratio (z) = 0.28692 0.20896
#
# Static dielectric constant tensor:
#      x y z
#    x 2.853390 0.000000 0.000000 
#    y 0.000000 2.417980 0.000000 
#    z 0.000000 0.000000 2.863470 
# 
# 
# High freq. dielectric constant tensor:
#      x y z
#    x 1.520540 0.000000 0.000000 
#    y 0.000000 1.466040 0.000000 
#    z 0.000000 0.000000 1.535580 
# 
# From -- ./inp_files/12433.got.cif
#   From: 2010.03.12/outbox.cif.g09.slc.cpg/sg47_7_cif.got.tgz:12433.got - 2010.04.14 03:12:58.
