data_PCOD8196419
_publ_section_title
;
Structure prediction by ZEFSAII (Michael W. Deem and Ramdas Pophale) SiO2 
 PCOD8196419
Probable space group: P M M M
;
_chemical_formula_sum "Si O2"
_cell_formula_units_Z 60
_cell_length_a 25.492984
_cell_length_b 22.838041
_cell_length_c 9.245496
_cell_angle_alpha 90.000000
_cell_angle_beta 90.000000
_cell_angle_gamma 90.000000
_cell_volume 5382.818505
_symmetry_space_group_name_H-M "P M M M"
_symmetry_group_IT_number 47
_symmetry_cell_setting 'orthorhombic'
loop_
_space_group_symop_operation_xyz
x,y,z
-x,-y,z
x,-y,-z
-x,y,-z
-x,-y,-z
x,y,-z
-x,y,z
x,-y,z
loop_
_atom_site_type_symbol
_atom_site_label
_atom_site_fract_x
_atom_site_fract_y
_atom_site_fract_z
Si Si1 0.562413 0.226109 0.664041
Si Si2 0.942344 0.569594 0.662440
Si Si3 0.370660 0.568301 0.331703
Si Si4 0.562533 0.113333 0.835590
Si Si5 0.438316 0.340609 0.167481
Si Si6 0.155819 0.430017 0.838364
Si Si7 0.562487 0.000000 0.335601
Si Si8 0.746528 0.569552 0.339871
O O1 0.584324 0.225125 0.500000
O O2 0.500000 0.224329 0.662248
O O3 0.584178 0.170350 0.752149
O O4 0.582320 0.284236 0.744918
O O5 0.933932 0.592936 0.500000
O O6 0.939207 0.500000 0.663047
O O7 0.896106 0.595681 0.761197
O O8 0.000000 0.589355 0.719934
O O9 0.381117 0.582484 0.500000
O O10 0.379113 0.500000 0.301307
O O11 0.410979 0.602103 0.230690
O O12 0.311594 0.587864 0.287712
O O13 0.500000 0.113624 0.838031
O O14 0.583579 0.056781 0.749464
O O15 0.584107 0.112664 0.000000
O O16 0.500000 0.349086 0.188316
O O17 0.423605 0.332370 0.000000
O O18 0.155651 0.500000 0.833903
O O19 0.208546 0.404956 0.764394
O O20 0.155243 0.405813 0.000000
O O21 0.500000 0.000000 0.338509
O O22 0.584180 0.000000 0.500000
O O23 0.757232 0.594561 0.500000
O O24 0.749517 0.500000 0.344797
#
# Coordination Sequence:
#
# PCOD8196419 Si02
#       8
#     8   8   8   8   8   8   4   8
#     4   9  16  26  39  51  62  78  99 119 137 161
#     4   8  13  20  28  37  51  73  97 115 130 149
#     4   9  18  31  44  55  64  75  92 114 141 174
#     4   9  15  22  32  46  64  83 101 121 143 162
#     4  10  20  31  41  53  67  80  93 111 139 176
#     4   9  15  20  28  43  59  73  89 109 132 156
#     4   9  15  21  29  43  63  85 107 125 139 157
#     4   8  14  25  38  48  58  72  89 108 131 162
#
# _framework density 11.146577000000001
#
# number of rings (size 3 to 8) (size 9 to 14) (size 15 to 20)
#    0.000    3.133    0.000    3.000    0.000    7.733 
#    0.000    4.000    0.000    0.000    0.000    0.000 
#    0.000    0.000    0.000    0.000    0.000    0.000 
#
# Total GULP energy -743671.659130 kJ/mol
# GULP energy per Si atom -12394.527652 kJ/mol
# Density = 1.112121 g / cm^3
# Si number density = 11.146577 Si / 1000 Ang^3
#
#
#
# Elastic Constant Matrix: (Units=GPa)
#
#
# Indices 1 2 3 4 5 6 
#
# 1 40.1322 21.6659 35.5402 0.0000 0.0000 0.0000
# 2 21.6659 46.5489 37.7238 0.0000 0.0000 0.0000
# 3 35.5402 37.7238 99.8085 0.0000 0.0000 0.0000
# 4 0.0000 0.0000 0.0000 16.6715 0.0000 0.0000
# 5 0.0000 0.0000 0.0000 0.0000 11.5170 0.0000
# 6 0.0000 0.0000 0.0000 0.0000 0.0000 0.0917
#
#
#
# Elastic Compliance Matrix: (Units=1/GPa)
#
#
# Indices 1 2 3 4 5 6 
#
# 1 0.039405 -0.010047 -0.010234 0.000000 0.000000 0.000000
# 2 -0.010047 0.033530 -0.009096 0.000000 0.000000 0.000000
# 3 -0.010234 -0.009096 0.017101 0.000000 0.000000 0.000000
# 4 0.000000 0.000000 0.000000 0.059982 0.000000 0.000000
# 5 0.000000 0.000000 0.000000 0.000000 0.086828 0.000000
# 6 0.000000 0.000000 0.000000 0.000000 0.000000 10.903461
#
#
# Mechanical properties :
#
#
# Convention : Reuss Voigt Hill
#
# Bulk Modulus (GPa) = 31.96627 41.81663 36.89145
# Shear Modulus (GPa) = 0.44605 11.76003 6.10304
#
# Velocity S-wave (km/s) = 0.63327 3.25165 2.34247
# Velocity P-wave (km/s) = 5.41064 7.18988 6.36276
#
# Compressibility (1/GPa) = 0.03128297
#
# Stress axis : x y z
#
# Youngs Moduli (GPa) = 25.37774 29.82377 58.47558
#
# Poissons Ratio (x) = 0.29964 0.59844
# Poissons Ratio (y) = 0.25497 0.53187
# Poissons Ratio (z) = 0.25972 0.27127
#
# Static dielectric constant tensor:
#      x y z
#    x 2.251630 0.000000 0.000000 
#    y 0.000000 2.118090 0.000000 
#    z 0.000000 0.000000 2.571540 
# 
# 
# High freq. dielectric constant tensor:
#      x y z
#    x 1.385790 0.000000 0.000000 
#    y 0.000000 1.376120 0.000000 
#    z 0.000000 0.000000 1.437800 
# 
# From -- ./inp_files/13523.got.cif
#   From: 2010.03.12/outbox.cif.g09.slc.cpg/sg47_7_cif.got.tgz:13523.got - 2010.04.14 03:12:58.
