data_PCOD8196652
_publ_section_title
;
Structure prediction by ZEFSAII (Michael W. Deem and Ramdas Pophale) SiO2 
 PCOD8196652
Probable space group: P M M M
;
_chemical_formula_sum "Si O2"
_cell_formula_units_Z 52
_cell_length_a 14.862711
_cell_length_b 22.875757
_cell_length_c 9.132865
_cell_angle_alpha 90.000000
_cell_angle_beta 90.000000
_cell_angle_gamma 90.000000
_cell_volume 3105.135424
_symmetry_space_group_name_H-M "P M M M"
_symmetry_group_IT_number 47
_symmetry_cell_setting 'orthorhombic'
loop_
_space_group_symop_operation_xyz
x,y,z
-x,-y,z
x,-y,-z
-x,y,-z
-x,-y,-z
x,y,-z
-x,y,z
x,-y,z
loop_
_atom_site_type_symbol
_atom_site_label
_atom_site_fract_x
_atom_site_fract_y
_atom_site_fract_z
Si Si1 0.146321 0.934786 0.669625
Si Si2 0.604809 0.321894 0.172343
Si Si3 0.337795 0.106263 0.659987
Si Si4 0.261717 0.234488 0.665604
Si Si5 0.500000 0.064384 0.171034
Si Si6 0.606432 0.435866 0.663495
Si Si7 0.101351 0.180850 0.831639
O O1 0.124973 0.920396 0.500000
O O2 0.253345 0.934812 0.696394
O O3 0.100723 0.885007 0.767251
O O4 0.110613 0.000000 0.710683
O O5 0.500000 0.310153 0.216146
O O6 0.670801 0.277005 0.250690
O O7 0.637007 0.386418 0.222196
O O8 0.617804 0.316425 0.000000
O O9 0.377166 0.090098 0.500000
O O10 0.308935 0.172704 0.662038
O O11 0.412171 0.099072 0.782463
O O12 0.244544 0.257302 0.500000
O O13 0.166000 0.226408 0.747223
O O14 0.500000 0.000000 0.242742
O O15 0.500000 0.060023 0.000000
O O16 0.641842 0.420456 0.500000
O O17 0.500000 0.438759 0.660415
O O18 0.643776 0.500000 0.711747
O O19 0.000000 0.205413 0.818767
O O20 0.132816 0.177272 0.000000
#
# Coordination Sequence:
#
# PCOD8196652 Si02
#       7
#     8   8   8   8   4   8   8
#     4   9  18  33  52  72  92 116 149 188 232 286
#     4  10  20  31  46  72 104 137 170 205 246 287
#     4   9  19  34  49  64  83 114 153 192 234 277
#     4  10  21  36  53  71  93 124 163 203 241 285
#     4  11  23  33  43  63  87 113 148 189 234 283
#     4   8  14  26  44  66  95 134 176 211 241 275
#     4  10  21  36  53  73  97 123 151 190 245 302
#
# _framework density 16.746451
#
# number of rings (size 3 to 8) (size 9 to 14) (size 15 to 20)
#    0.000    2.538    0.000    3.462    1.077    7.385 
#    0.000    3.077    0.000    0.000    0.000    0.000 
#    0.000    0.615    0.000    6.462    0.000    3.077 
#
# Total GULP energy -644526.265775 kJ/mol
# GULP energy per Si atom -12394.735880 kJ/mol
# Density = 1.670834 g / cm^3
# Si number density = 16.746451 Si / 1000 Ang^3
#
#
#
# Elastic Constant Matrix: (Units=GPa)
#
#
# Indices 1 2 3 4 5 6 
#
# 1 78.8418 33.7254 48.3752 0.0000 0.0000 0.0000
# 2 33.7254 73.6541 41.1293 0.0000 0.0000 0.0000
# 3 48.3752 41.1293 104.6569 0.0000 0.0000 0.0000
# 4 0.0000 0.0000 0.0000 37.0436 0.0000 0.0000
# 5 0.0000 0.0000 0.0000 0.0000 23.2322 0.0000
# 6 0.0000 0.0000 0.0000 0.0000 0.0000 6.1795
#
#
#
# Elastic Compliance Matrix: (Units=1/GPa)
#
#
# Indices 1 2 3 4 5 6 
#
# 1 0.018970 -0.004855 -0.006860 0.000000 0.000000 0.000000
# 2 -0.004855 0.018637 -0.005080 0.000000 0.000000 0.000000
# 3 -0.006860 -0.005080 0.014722 0.000000 0.000000 0.000000
# 4 0.000000 0.000000 0.000000 0.026995 0.000000 0.000000
# 5 0.000000 0.000000 0.000000 0.000000 0.043044 0.000000
# 6 0.000000 0.000000 0.000000 0.000000 0.000000 0.161825
#
#
# Mechanical properties :
#
#
# Convention : Reuss Voigt Hill
#
# Bulk Modulus (GPa) = 53.36690 55.95696 54.66193
# Shear Modulus (GPa) = 15.43068 22.21926 18.82497
#
# Velocity S-wave (km/s) = 3.03880 3.64648 3.35642
# Velocity P-wave (km/s) = 6.65201 7.15653 6.90887
#
# Compressibility (1/GPa) = 0.01873821
#
# Stress axis : x y z
#
# Youngs Moduli (GPa) = 52.71544 53.65729 67.92368
#
# Poissons Ratio (x) = 0.26052 0.46598
# Poissons Ratio (y) = 0.25594 0.34505
# Poissons Ratio (z) = 0.36164 0.27257
#
# Static dielectric constant tensor:
#      x y z
#    x 3.033370 0.000000 0.000000 
#    y 0.000000 3.330960 0.000000 
#    z 0.000000 0.000000 3.278240 
# 
# 
# High freq. dielectric constant tensor:
#      x y z
#    x 1.619940 0.000000 0.000000 
#    y 0.000000 1.630410 0.000000 
#    z 0.000000 0.000000 1.653900 
# 
# From -- ./inp_files/7017.got.cif
#   From: 2010.03.12/outbox.cif.g09.slc.cpg/sg47_4_cif.got.tgz:7017.got - 2010.04.14 03:12:58.
