data_PCOD8196253
_publ_section_title
;
Structure prediction by ZEFSAII (Michael W. Deem and Ramdas Pophale) SiO2 
 PCOD8196253
Probable space group: P M M M
;
_chemical_formula_sum "Si O2"
_cell_formula_units_Z 56
_cell_length_a 22.222523
_cell_length_b 14.806936
_cell_length_c 9.594865
_cell_angle_alpha 90.000000
_cell_angle_beta 90.000000
_cell_angle_gamma 90.000000
_cell_volume 3157.166109
_symmetry_space_group_name_H-M "P M M M"
_symmetry_group_IT_number 47
_symmetry_cell_setting 'orthorhombic'
loop_
_space_group_symop_operation_xyz
x,y,z
-x,-y,z
x,-y,-z
-x,y,-z
-x,-y,-z
x,y,-z
-x,y,z
x,-y,z
loop_
_atom_site_type_symbol
_atom_site_label
_atom_site_fract_x
_atom_site_fract_y
_atom_site_fract_z
Si Si1 0.112651 0.104619 0.661171
Si Si2 0.258557 0.396877 0.837201
Si Si3 0.670216 0.099146 0.657575
Si Si4 0.606862 0.649520 0.153696
Si Si5 0.431262 0.150300 0.154085
Si Si6 0.225208 0.769553 0.336256
Si Si7 0.000000 0.106944 0.157622
Si Si8 0.500000 0.398356 0.351321
O O1 0.093455 0.115437 0.500000
O O2 0.168438 0.168132 0.698794
O O3 0.058668 0.139755 0.758671
O O4 0.129229 0.000000 0.692179
O O5 0.238913 0.500000 0.801528
O O6 0.328277 0.384725 0.797056
O O7 0.220190 0.325122 0.746904
O O8 0.248115 0.376053 0.000000
O O9 0.653033 0.124400 0.500000
O O10 0.607835 0.090309 0.742078
O O11 0.716386 0.174177 0.715262
O O12 0.701244 0.000000 0.664257
O O13 0.604324 0.756502 0.146814
O O14 0.559488 0.618530 0.265391
O O15 0.591882 0.609409 0.000000
O O16 0.500000 0.162158 0.208677
O O17 0.432387 0.106182 0.000000
O O18 0.228772 0.748059 0.500000
O O19 0.000000 0.000000 0.152459
O O20 0.000000 0.146788 0.000000
O O21 0.500000 0.500000 0.395125
O O22 0.500000 0.343664 0.500000
#
# Coordination Sequence:
#
# PCOD8196253 Si02
#       8
#     8   8   8   8   8   8   4   4
#     4   9  17  31  52  78 111 151 187 214 248 298
#     4  10  21  36  54  75  99 130 168 210 258 313
#     4  10  21  36  53  74 100 130 165 207 257 309
#     4  10  19  35  54  69  90 124 162 200 251 315
#     4  10  20  35  53  71  91 120 163 211 256 306
#     4  10  20  34  54  79 106 137 173 215 257 301
#     4   9  17  29  47  77 116 151 184 221 255 288
#     4  11  23  33  45  71  98 117 148 199 257 316
#
# _framework density 17.737425999999999
#
# number of rings (size 3 to 8) (size 9 to 14) (size 15 to 20)
#    0.000    2.143    2.143    1.286    0.000    6.571 
#    0.000    1.429    0.000    2.571    0.000    0.500 
#    0.000    4.000    0.000    0.000    0.000    0.000 
#
# Total GULP energy -694087.627005 kJ/mol
# GULP energy per Si atom -12394.421911 kJ/mol
# Density = 1.769706 g / cm^3
# Si number density = 17.737426 Si / 1000 Ang^3
#
#
#
# Elastic Constant Matrix: (Units=GPa)
#
#
# Indices 1 2 3 4 5 6 
#
# 1 100.4184 41.4229 60.5278 0.0000 0.0000 0.0000
# 2 41.4229 94.6149 41.7107 0.0000 0.0000 0.0000
# 3 60.5278 41.7107 94.7371 0.0000 0.0000 0.0000
# 4 0.0000 0.0000 0.0000 23.0544 0.0000 0.0000
# 5 0.0000 0.0000 0.0000 0.0000 26.9905 0.0000
# 6 0.0000 0.0000 0.0000 0.0000 0.0000 8.0973
#
#
#
# Elastic Compliance Matrix: (Units=1/GPa)
#
#
# Indices 1 2 3 4 5 6 
#
# 1 0.016982 -0.003290 -0.009401 0.000000 0.000000 0.000000
# 2 -0.003290 0.013752 -0.003953 0.000000 0.000000 0.000000
# 3 -0.009401 -0.003953 0.018302 0.000000 0.000000 0.000000
# 4 0.000000 0.000000 0.000000 0.043376 0.000000 0.000000
# 5 0.000000 0.000000 0.000000 0.000000 0.037050 0.000000
# 6 0.000000 0.000000 0.000000 0.000000 0.000000 0.123499
#
#
# Mechanical properties :
#
#
# Convention : Reuss Voigt Hill
#
# Bulk Modulus (GPa) = 63.49930 64.12147 63.81038
# Shear Modulus (GPa) = 17.15270 21.36903 19.26087
#
# Velocity S-wave (km/s) = 3.11309 3.47471 3.29886
# Velocity P-wave (km/s) = 6.98564 7.23374 7.11077
#
# Compressibility (1/GPa) = 0.01574821
#
# Stress axis : x y z
#
# Youngs Moduli (GPa) = 58.88457 72.71577 54.63787
#
# Poissons Ratio (x) = 0.23926 0.51367
# Poissons Ratio (y) = 0.19375 0.21596
# Poissons Ratio (z) = 0.55360 0.28741
#
# Static dielectric constant tensor:
#      x y z
#    x 3.090870 0.000000 0.000000 
#    y 0.000000 3.224320 0.000000 
#    z 0.000000 0.000000 3.445770 
# 
# 
# High freq. dielectric constant tensor:
#      x y z
#    x 1.661910 0.000000 0.000000 
#    y 0.000000 1.673990 0.000000 
#    z 0.000000 0.000000 1.689520 
# 
# From -- ./inp_files/7394.got.cif
#   From: 2010.03.12/outbox.cif.g09.slc.cpg/sg47_4_cif.got.tgz:7394.got - 2010.04.14 03:12:58.
