data_PCOD8196619
_publ_section_title
;
Structure prediction by ZEFSAII (Michael W. Deem and Ramdas Pophale) SiO2 
 PCOD8196619
Probable space group: P M M M
;
_chemical_formula_sum "Si O2"
_cell_formula_units_Z 64
_cell_length_a 15.727358
_cell_length_b 9.590205
_cell_length_c 23.292022
_cell_angle_alpha 90.000000
_cell_angle_beta 90.000000
_cell_angle_gamma 90.000000
_cell_volume 3513.102774
_symmetry_space_group_name_H-M "P M M M"
_symmetry_group_IT_number 47
_symmetry_cell_setting 'orthorhombic'
loop_
_space_group_symop_operation_xyz
x,y,z
-x,-y,z
x,-y,-z
-x,y,-z
-x,-y,-z
x,y,-z
-x,y,z
x,-y,z
loop_
_atom_site_type_symbol
_atom_site_label
_atom_site_fract_x
_atom_site_fract_y
_atom_site_fract_z
Si Si1 0.095034 0.334128 0.382988
Si Si2 0.727338 0.160810 0.935518
Si Si3 0.594840 0.656987 0.876435
Si Si4 0.401683 0.836867 0.642276
Si Si5 0.902079 0.350706 0.258175
Si Si6 0.637072 0.157679 0.772187
Si Si7 0.270668 0.662572 0.433864
Si Si8 0.819391 0.845858 0.176186
O O1 0.088616 0.500000 0.382027
O O2 0.122853 0.280672 0.319275
O O3 0.172526 0.286001 0.424079
O O4 0.000000 0.276330 0.401239
O O5 0.647279 0.259395 0.924319
O O6 0.799970 0.199744 0.889407
O O7 0.699259 0.000000 0.925588
O O8 0.761849 0.184383 0.000000
O O9 0.500000 0.649374 0.900680
O O10 0.631652 0.500000 0.868467
O O11 0.592645 0.735805 0.815525
O O12 0.500000 0.802656 0.627132
O O13 0.383752 0.793728 0.707962
O O14 0.339000 0.749190 0.602231
O O15 0.382497 0.000000 0.632893
O O16 0.854281 0.500000 0.249938
O O17 0.887831 0.255896 0.202912
O O18 0.000000 0.382299 0.262082
O O19 0.737330 0.163202 0.783221
O O20 0.602875 0.000000 0.782557
O O21 0.292657 0.687587 0.500000
O O22 0.279011 0.500000 0.416969
O O23 0.858396 0.000000 0.176526
#
# Coordination Sequence:
#
# PCOD8196619 Si02
#       8
#     8   8   8   8   8   8   8   8
#     4   8  15  30  52  77 104 132 162 198 243 300
#     4   9  19  35  51  66  88 124 169 208 240 280
#     4  10  20  31  45  70 101 127 153 192 243 295
#     4  10  21  36  54  74  97 132 176 217 257 301
#     4   9  17  29  47  72 100 128 155 184 228 291
#     4   9  18  33  52  73  96 123 160 204 248 297
#     4  10  21  35  52  76 103 132 169 212 256 301
#     4   9  17  29  48  73  96 119 151 196 246 289
#
# _framework density 18.217514000000001
#
# number of rings (size 3 to 8) (size 9 to 14) (size 15 to 20)
#    0.000    2.750    0.000    3.000    0.000    5.750 
#    0.000    3.750    0.000    1.500    0.000    3.500 
#    0.000    0.000    0.000    0.000    0.000    0.000 
#
# Total GULP energy -793090.619791 kJ/mol
# GULP energy per Si atom -12392.040934 kJ/mol
# Density = 1.817605 g / cm^3
# Si number density = 18.217514 Si / 1000 Ang^3
#
#
#
# Elastic Constant Matrix: (Units=GPa)
#
#
# Indices 1 2 3 4 5 6 
#
# 1 53.8793 18.8056 39.1981 0.0000 0.0000 0.0000
# 2 18.8056 58.9484 35.6933 0.0000 0.0000 0.0000
# 3 39.1981 35.6933 104.4150 0.0000 0.0000 0.0000
# 4 0.0000 0.0000 0.0000 18.7801 0.0000 0.0000
# 5 0.0000 0.0000 0.0000 0.0000 14.1593 0.0000
# 6 0.0000 0.0000 0.0000 0.0000 0.0000 19.5866
#
#
#
# Elastic Compliance Matrix: (Units=1/GPa)
#
#
# Indices 1 2 3 4 5 6 
#
# 1 0.025948 -0.003001 -0.008715 0.000000 0.000000 0.000000
# 2 -0.003001 0.021739 -0.006305 0.000000 0.000000 0.000000
# 3 -0.008715 -0.006305 0.015004 0.000000 0.000000 0.000000
# 4 0.000000 0.000000 0.000000 0.053248 0.000000 0.000000
# 5 0.000000 0.000000 0.000000 0.000000 0.070625 0.000000
# 6 0.000000 0.000000 0.000000 0.000000 0.000000 0.051055
#
#
# Mechanical properties :
#
#
# Convention : Reuss Voigt Hill
#
# Bulk Modulus (GPa) = 37.52432 44.95964 41.24198
# Shear Modulus (GPa) = 17.69641 18.74159 18.21900
#
# Velocity S-wave (km/s) = 3.12010 3.21092 3.16584
# Velocity P-wave (km/s) = 5.79851 6.20319 6.00426
#
# Compressibility (1/GPa) = 0.02664938
#
# Stress axis : x y z
#
# Youngs Moduli (GPa) = 38.53893 46.00074 66.64841
#
# Poissons Ratio (x) = 0.13804 0.58085
# Poissons Ratio (y) = 0.11565 0.42020
# Poissons Ratio (z) = 0.33587 0.29002
#
# Static dielectric constant tensor:
#      x y z
#    x 3.232970 0.000000 0.000000 
#    y 0.000000 3.274560 0.000000 
#    z 0.000000 0.000000 3.409870 
# 
# 
# High freq. dielectric constant tensor:
#      x y z
#    x 1.691540 0.000000 0.000000 
#    y 0.000000 1.691600 0.000000 
#    z 0.000000 0.000000 1.702470 
# 
# From -- ./inp_files/25577.got.cif
#   From: 2010.03.12/outbox.cif.g09.slc.cpg/sg47_13_cif.got.tgz:25577.got - 2010.04.14 03:12:58.
