data_PCOD8196389
_publ_section_title
;
Structure prediction by ZEFSAII (Michael W. Deem and Ramdas Pophale) SiO2 
 PCOD8196389
Probable space group: P M M M
;
_chemical_formula_sum "Si O2"
_cell_formula_units_Z 52
_cell_length_a 21.756308
_cell_length_b 15.137644
_cell_length_c 9.441578
_cell_angle_alpha 90.000000
_cell_angle_beta 90.000000
_cell_angle_gamma 90.000000
_cell_volume 3109.482173
_symmetry_space_group_name_H-M "P M M M"
_symmetry_group_IT_number 47
_symmetry_cell_setting 'orthorhombic'
loop_
_space_group_symop_operation_xyz
x,y,z
-x,-y,z
x,-y,-z
-x,y,-z
-x,-y,-z
x,y,-z
-x,y,z
x,-y,z
loop_
_atom_site_type_symbol
_atom_site_label
_atom_site_fract_x
_atom_site_fract_y
_atom_site_fract_z
Si Si1 0.500000 0.397121 0.336125
Si Si2 0.289342 0.738183 0.837551
Si Si3 0.143552 0.739662 0.838325
Si Si4 0.856259 0.097425 0.658776
Si Si5 0.366924 0.395824 0.666378
Si Si6 0.070296 0.602722 0.338292
Si Si7 0.289814 0.097770 0.659064
O O1 0.500000 0.500000 0.307982
O O2 0.500000 0.376031 0.500000
O O3 0.565504 0.361232 0.277343
O O4 0.216419 0.732702 0.824050
O O5 0.315660 0.653643 0.756560
O O6 0.315291 0.828195 0.766311
O O7 0.310819 0.737292 0.000000
O O8 0.117635 0.828477 0.764257
O O9 0.114841 0.654435 0.765710
O O10 0.122198 0.742862 0.000000
O O11 0.879737 0.118211 0.500000
O O12 0.783210 0.098576 0.661390
O O13 0.879557 0.000000 0.706435
O O14 0.358387 0.375038 0.500000
O O15 0.359464 0.500000 0.693368
O O16 0.088145 0.624538 0.500000
O O17 0.079916 0.500000 0.306830
O O18 0.000000 0.629974 0.309275
O O19 0.313139 0.119113 0.500000
O O20 0.313209 0.000000 0.705640
#
# Coordination Sequence:
#
# PCOD8196389 Si02
#       7
#     4   8   8   8   8   8   8
#     4   7  12  26  47  67  84 107 148 197 233 262
#     4  10  20  30  41  65 100 129 151 179 220 271
#     4  10  20  31  45  68  97 126 151 180 223 271
#     4   8  14  26  45  67  90 118 151 185 221 262
#     4   9  17  30  48  67  88 118 155 192 228 266
#     4   9  19  36  55  71  86 110 150 196 234 269
#     4   8  14  26  44  64  86 115 153 192 224 259
#
# _framework density 16.723042
#
# number of rings (size 3 to 8) (size 9 to 14) (size 15 to 20)
#    0.000    3.154    0.000    3.231    0.000    4.000 
#    0.000    7.308    0.000    1.846    0.000    3.769 
#    0.000    4.308    0.000    0.000    0.000    0.000 
#
# Total GULP energy -644369.854542 kJ/mol
# GULP energy per Si atom -12391.727972 kJ/mol
# Density = 1.668498 g / cm^3
# Si number density = 16.723042 Si / 1000 Ang^3
#
#
#
# Elastic Constant Matrix: (Units=GPa)
#
#
# Indices 1 2 3 4 5 6 
#
# 1 27.0752 30.9081 33.7080 0.0000 0.0000 0.0000
# 2 30.9081 102.5536 72.5482 0.0000 0.0000 0.0000
# 3 33.7080 72.5482 116.2532 0.0000 0.0000 0.0000
# 4 0.0000 0.0000 0.0000 14.7261 0.0000 0.0000
# 5 0.0000 0.0000 0.0000 0.0000 15.9395 0.0000
# 6 0.0000 0.0000 0.0000 0.0000 0.0000 1.8286
#
#
#
# Elastic Compliance Matrix: (Units=1/GPa)
#
#
# Indices 1 2 3 4 5 6 
#
# 1 0.064103 -0.011049 -0.011692 0.000000 0.000000 0.000000
# 2 -0.011049 0.019362 -0.008880 0.000000 0.000000 0.000000
# 3 -0.011692 -0.008880 0.017533 0.000000 0.000000 0.000000
# 4 0.000000 0.000000 0.000000 0.067907 0.000000 0.000000
# 5 0.000000 0.000000 0.000000 0.000000 0.062737 0.000000
# 6 0.000000 0.000000 0.000000 0.000000 0.000000 0.546873
#
#
# Mechanical properties :
#
#
# Convention : Reuss Voigt Hill
#
# Bulk Modulus (GPa) = 26.48405 57.80119 42.14262
# Shear Modulus (GPa) = 5.85245 13.74667 9.79956
#
# Velocity S-wave (km/s) = 1.87276 2.87020 2.42335
# Velocity P-wave (km/s) = 4.53294 6.75447 5.75198
#
# Compressibility (1/GPa) = 0.03775858
#
# Stress axis : x y z
#
# Youngs Moduli (GPa) = 15.59986 51.64623 57.03381
#
# Poissons Ratio (x) = 0.57062 0.66684
# Poissons Ratio (y) = 0.17236 0.50644
# Poissons Ratio (z) = 0.18239 0.45860
#
# Static dielectric constant tensor:
#      x y z
#    x 2.919360 0.000000 0.000000 
#    y 0.000000 3.256200 0.000000 
#    z 0.000000 0.000000 3.161830 
# 
# 
# High freq. dielectric constant tensor:
#      x y z
#    x 1.606690 0.000000 0.000000 
#    y 0.000000 1.645780 0.000000 
#    z 0.000000 0.000000 1.637980 
# 
# From -- ./inp_files/7100.got.cif
#   From: 2010.03.12/outbox.cif.g09.slc.cpg/sg47_4_cif.got.tgz:7100.got - 2010.04.14 03:12:58.
