data_PCOD8196702
_publ_section_title
;
Structure prediction by ZEFSAII (Michael W. Deem and Ramdas Pophale) SiO2 
 PCOD8196702
Probable space group: P M M M
;
_chemical_formula_sum "Si O2"
_cell_formula_units_Z 44
_cell_length_a 8.986245
_cell_length_b 14.289922
_cell_length_c 23.408086
_cell_angle_alpha 90.000000
_cell_angle_beta 90.000000
_cell_angle_gamma 90.000000
_cell_volume 3005.896464
_symmetry_space_group_name_H-M "P M M M"
_symmetry_group_IT_number 47
_symmetry_cell_setting 'orthorhombic'
loop_
_space_group_symop_operation_xyz
x,y,z
-x,-y,z
x,-y,-z
-x,y,-z
-x,-y,-z
x,y,-z
-x,y,z
x,-y,z
loop_
_atom_site_type_symbol
_atom_site_label
_atom_site_fract_x
_atom_site_fract_y
_atom_site_fract_z
Si Si1 0.670275 0.110781 0.500000
Si Si2 0.823177 0.796491 0.607645
Si Si3 0.834007 0.888792 0.172328
Si Si4 0.327379 0.890196 0.286232
Si Si5 0.332684 0.111277 0.062771
Si Si6 0.823681 0.398309 0.564059
O O1 0.500000 0.146055 0.500000
O O2 0.752324 0.146078 0.443772
O O3 0.677007 0.000000 0.500000
O O4 0.766277 0.834794 0.667346
O O5 0.771569 0.687607 0.603735
O O6 0.000000 0.807532 0.604017
O O7 0.729514 0.856713 0.224366
O O8 0.770299 0.846813 0.112934
O O9 0.000000 0.849100 0.181553
O O10 0.836952 0.000000 0.168846
O O11 0.500000 0.864833 0.291991
O O12 0.299492 0.000000 0.295244
O O13 0.500000 0.148763 0.071753
O O14 0.333348 0.000000 0.066404
O O15 0.273171 0.142672 0.000000
O O16 0.761491 0.381729 0.500000
O O17 0.766595 0.500000 0.587214
O O18 0.000000 0.399528 0.561387
#
# Coordination Sequence:
#
# PCOD8196702 Si02
#       6
#     4   8   8   8   8   8
#     4  11  23  35  44  57  82 112 135 159 198 243
#     4  11  20  31  48  67  81  99 131 168 201 234
#     4   9  16  25  37  53  72  96 131 173 207 234
#     4  10  20  32  43  55  77 110 140 166 202 246
#     4   8  13  21  33  49  70  97 128 162 202 245
#     4   8  14  27  47  68  86 101 120 151 196 247
#
# _framework density 14.637896
#
# number of rings (size 3 to 8) (size 9 to 14) (size 15 to 20)
#    0.000    2.636    0.909    3.545    0.000    6.545 
#    0.000    1.818    0.000    2.727    0.000    0.000 
#    0.000    0.000    0.000    0.000    0.000    0.909 
#
# Total GULP energy -545317.734709 kJ/mol
# GULP energy per Si atom -12393.584880 kJ/mol
# Density = 1.460458 g / cm^3
# Si number density = 14.637896 Si / 1000 Ang^3
#
#
#
# Elastic Constant Matrix: (Units=GPa)
#
#
# Indices 1 2 3 4 5 6 
#
# 1 78.8977 30.9710 44.8169 0.0000 0.0000 0.0000
# 2 30.9710 53.3403 36.2269 0.0000 0.0000 0.0000
# 3 44.8169 36.2269 112.0114 0.0000 0.0000 0.0000
# 4 0.0000 0.0000 0.0000 -0.4000 0.0000 0.0000
# 5 0.0000 0.0000 0.0000 0.0000 20.2514 0.0000
# 6 0.0000 0.0000 0.0000 0.0000 0.0000 5.5077
#
#
#
# Elastic Compliance Matrix: (Units=1/GPa)
#
#
# Indices 1 2 3 4 5 6 
#
# 1 0.018367 -0.007271 -0.004998 0.000000 0.000000 0.000000
# 2 -0.007271 0.026903 -0.005792 0.000000 0.000000 0.000000
# 3 -0.004998 -0.005792 0.012800 0.000000 0.000000 0.000000
# 4 0.000000 0.000000 0.000000 -2.500282 0.000000 0.000000
# 5 0.000000 0.000000 0.000000 0.000000 0.049379 0.000000
# 6 0.000000 0.000000 0.000000 0.000000 0.000000 0.181563
#
#
# Mechanical properties :
#
#
# Convention : Reuss Voigt Hill
#
# Bulk Modulus (GPa) = 45.55676 52.03100 48.79388
# Shear Modulus (GPa) = -2.30645 13.88748 5.79051
#
# Velocity S-wave (km/s) = -1.25662 3.08350 1.99109
# Velocity P-wave (km/s) = 5.39301 6.94981 6.22031
#
# Compressibility (1/GPa) = 0.02195064
#
# Stress axis : x y z
#
# Youngs Moduli (GPa) = 54.44405 37.17100 78.12222
#
# Poissons Ratio (x) = 0.27025 0.39042
# Poissons Ratio (y) = 0.39584 0.45247
# Poissons Ratio (z) = 0.27209 0.21529
#
# Static dielectric constant tensor:
#      x y z
#    x 2.925820 0.000000 0.000000 
#    y 0.000000 2.708640 0.000000 
#    z 0.000000 0.000000 3.049800 
# 
# 
# High freq. dielectric constant tensor:
#      x y z
#    x 1.561880 0.000000 0.000000 
#    y 0.000000 1.504450 0.000000 
#    z 0.000000 0.000000 1.561110 
# 
# From -- ./inp_files/29462.got.cif
#   From: 2010.03.12/outbox.cif.g09.slc.cpg/sg47_15_cif.got.tgz:29462.got - 2010.04.14 03:12:58.
