data_PCOD8196612
_publ_section_title
;
Structure prediction by ZEFSAII (Michael W. Deem and Ramdas Pophale) SiO2 
 PCOD8196612
Probable space group: P M M M
;
_chemical_formula_sum "Si O2"
_cell_formula_units_Z 48
_cell_length_a 30.937153
_cell_length_b 9.534475
_cell_length_c 9.365307
_cell_angle_alpha 90.000000
_cell_angle_beta 90.000000
_cell_angle_gamma 90.000000
_cell_volume 2762.480034
_symmetry_space_group_name_H-M "P M M M"
_symmetry_group_IT_number 47
_symmetry_cell_setting 'orthorhombic'
loop_
_space_group_symop_operation_xyz
x,y,z
-x,-y,z
x,-y,-z
-x,y,-z
-x,-y,-z
x,y,-z
-x,y,z
x,-y,z
loop_
_atom_site_type_symbol
_atom_site_label
_atom_site_fract_x
_atom_site_fract_y
_atom_site_fract_z
Si Si1 0.198953 0.164030 0.164754
Si Si2 0.047612 0.666536 0.839815
Si Si3 0.547923 0.157302 0.169771
Si Si4 0.296239 0.844885 0.830696
Si Si5 0.871015 0.664830 0.334104
Si Si6 0.626127 0.342295 0.170661
O O1 0.247887 0.201524 0.211701
O O2 0.168738 0.255880 0.264066
O O3 0.189720 0.000000 0.188578
O O4 0.190987 0.204772 0.000000
O O5 0.047263 0.500000 0.837167
O O6 0.084329 0.723217 0.733439
O O7 0.000000 0.721558 0.792066
O O8 0.057984 0.719792 0.000000
O O9 0.500000 0.204174 0.221302
O O10 0.583680 0.263603 0.231444
O O11 0.558067 0.000000 0.224646
O O12 0.549642 0.158386 0.000000
O O13 0.331091 0.735106 0.769428
O O14 0.306383 0.000000 0.768798
O O15 0.299606 0.852074 0.000000
O O16 0.872314 0.700537 0.500000
O O17 0.865343 0.500000 0.305150
O O18 0.625990 0.500000 0.230610
O O19 0.626039 0.341871 0.000000
#
# Coordination Sequence:
#
# PCOD8196612 Si02
#       6
#     8   8   8   8   8   8
#     4   9  18  32  49  67  86 113 151 191 230 272
#     4   8  14  26  45  68  93 122 156 191 225 262
#     4   8  13  20  28  37  53  84 125 163 200 246
#     4   8  14  25  39  53  70  94 127 168 212 258
#     4  10  20  31  45  69  98 125 152 183 224 273
#     4   9  15  20  28  45  67  89 117 159 210 257
#
# _framework density 17.375692000000001
#
# number of rings (size 3 to 8) (size 9 to 14) (size 15 to 20)
#    0.000    3.333    0.000    3.000    0.000    4.667 
#    0.000    5.000    0.000    0.500    0.000    3.500 
#    0.000    0.000    0.000    0.000    0.000    0.833 
#
# Total GULP energy -594884.633658 kJ/mol
# GULP energy per Si atom -12393.429868 kJ/mol
# Density = 1.733614 g / cm^3
# Si number density = 17.375692 Si / 1000 Ang^3
#
#
#
# Elastic Constant Matrix: (Units=GPa)
#
#
# Indices 1 2 3 4 5 6 
#
# 1 179.2059 86.4848 54.0474 0.0000 0.0000 0.0000
# 2 86.4848 91.1388 34.3335 0.0000 0.0000 0.0000
# 3 54.0474 34.3335 50.4747 0.0000 0.0000 0.0000
# 4 0.0000 0.0000 0.0000 12.6018 0.0000 0.0000
# 5 0.0000 0.0000 0.0000 0.0000 0.7411 0.0000
# 6 0.0000 0.0000 0.0000 0.0000 0.0000 23.1143
#
#
#
# Elastic Compliance Matrix: (Units=1/GPa)
#
#
# Indices 1 2 3 4 5 6 
#
# 1 0.011784 -0.008644 -0.006738 0.000000 0.000000 0.000000
# 2 -0.008644 0.021093 -0.005092 0.000000 0.000000 0.000000
# 3 -0.006738 -0.005092 0.030491 0.000000 0.000000 0.000000
# 4 0.000000 0.000000 0.000000 0.079354 0.000000 0.000000
# 5 0.000000 0.000000 0.000000 0.000000 1.349287 0.000000
# 6 0.000000 0.000000 0.000000 0.000000 0.000000 0.043263
#
#
# Mechanical properties :
#
#
# Convention : Reuss Voigt Hill
#
# Bulk Modulus (GPa) = 44.60448 74.50564 59.55506
# Shear Modulus (GPa) = 3.15718 17.02170 10.08944
#
# Velocity S-wave (km/s) = 1.34943 3.13330 2.41231
# Velocity P-wave (km/s) = 5.30606 7.48748 6.48909
#
# Compressibility (1/GPa) = 0.02241927
#
# Stress axis : x y z
#
# Youngs Moduli (GPa) = 84.86186 47.40950 32.79650
#
# Poissons Ratio (x) = 0.40979 0.22100
# Poissons Ratio (y) = 0.73351 0.16701
# Poissons Ratio (z) = 0.57184 0.24142
#
# Static dielectric constant tensor:
#      x y z
#    x 3.642350 0.000000 0.000000 
#    y 0.000000 3.188010 0.000000 
#    z 0.000000 0.000000 2.709060 
# 
# 
# High freq. dielectric constant tensor:
#      x y z
#    x 1.690590 0.000000 0.000000 
#    y 0.000000 1.652140 0.000000 
#    z 0.000000 0.000000 1.607580 
# 
# From -- ./inp_files/13800.got.cif
#   From: 2010.03.12/outbox.cif.g09.slc.cpg/sg47_7_cif.got.tgz:13800.got - 2010.04.14 03:12:58.
