data_PCOD8196223
_publ_section_title
;
Structure prediction by ZEFSAII (Michael W. Deem and Ramdas Pophale) SiO2 
 PCOD8196223
Probable space group: P M M M
;
_chemical_formula_sum "Si O2"
_cell_formula_units_Z 40
_cell_length_a 20.465771
_cell_length_b 8.770518
_cell_length_c 11.852160
_cell_angle_alpha 90.000000
_cell_angle_beta 90.000000
_cell_angle_gamma 90.000000
_cell_volume 2127.408353
_symmetry_space_group_name_H-M "P M M M"
_symmetry_group_IT_number 47
_symmetry_cell_setting 'orthorhombic'
loop_
_space_group_symop_operation_xyz
x,y,z
-x,-y,z
x,-y,-z
-x,y,-z
-x,-y,-z
x,y,-z
-x,y,z
x,-y,z
loop_
_atom_site_type_symbol
_atom_site_label
_atom_site_fract_x
_atom_site_fract_y
_atom_site_fract_z
Si Si1 0.692042 0.319544 0.228288
Si Si2 0.731909 0.179800 0.000000
Si Si3 0.427654 0.680962 0.373971
Si Si4 0.180907 0.677862 0.630172
Si Si5 0.074457 0.174955 0.778689
Si Si6 0.874246 0.320946 0.000000
O O1 0.689243 0.500000 0.210418
O O2 0.627607 0.255011 0.290643
O O3 0.754962 0.272804 0.301404
O O4 0.693321 0.238387 0.108478
O O5 0.804925 0.240714 0.000000
O O6 0.733810 0.000000 0.000000
O O7 0.415407 0.745259 0.500000
O O8 0.500000 0.730541 0.331625
O O9 0.422377 0.500000 0.378123
O O10 0.192259 0.719585 0.500000
O O11 0.166278 0.500000 0.646478
O O12 0.119336 0.771147 0.675811
O O13 0.000000 0.195576 0.738985
O O14 0.090304 0.000000 0.808322
O O15 0.085632 0.275266 0.889701
O O16 0.861958 0.500000 0.000000
#
# Coordination Sequence:
#
# PCOD8196223 Si02
#       6
#     8   4   8   8   8   4
#     4  10  19  34  57  84 113 146 187 232 278 328
#     4  12  24  37  56  81 112 147 184 229 282 336
#     4   8  14  27  52  87 121 149 181 226 276 322
#     4  10  21  36  56  82 111 146 189 235 280 328
#     4  11  24  40  58  82 113 148 185 228 279 335
#     4  12  23  39  62  86 109 139 182 234 285 336
#
# _framework density 18.802219999999998
#
# number of rings (size 3 to 8) (size 9 to 14) (size 15 to 20)
#    0.000    1.800    2.000    3.900    0.000    6.000 
#    0.000    2.500    0.000    5.400    0.000    1.400 
#    0.000    0.000    0.000    0.000    0.000    0.000 
#
# Total GULP energy -496095.842494 kJ/mol
# GULP energy per Si atom -12402.396062 kJ/mol
# Density = 1.875943 g / cm^3
# Si number density = 18.802220 Si / 1000 Ang^3
#
#
#
# Elastic Constant Matrix: (Units=GPa)
#
#
# Indices 1 2 3 4 5 6 
#
# 1 155.1295 47.6865 80.2928 0.0000 0.0000 0.0000
# 2 47.6865 44.0378 50.9537 0.0000 0.0000 0.0000
# 3 80.2928 50.9537 145.9302 0.0000 0.0000 0.0000
# 4 0.0000 0.0000 0.0000 3.9784 0.0000 0.0000
# 5 0.0000 0.0000 0.0000 0.0000 37.3100 0.0000
# 6 0.0000 0.0000 0.0000 0.0000 0.0000 5.9404
#
#
#
# Elastic Compliance Matrix: (Units=1/GPa)
#
#
# Indices 1 2 3 4 5 6 
#
# 1 0.010391 -0.007780 -0.003001 0.000000 0.000000 0.000000
# 2 -0.007780 0.043925 -0.011057 0.000000 0.000000 0.000000
# 3 -0.003001 -0.011057 0.012364 0.000000 0.000000 0.000000
# 4 0.000000 0.000000 0.000000 0.251360 0.000000 0.000000
# 5 0.000000 0.000000 0.000000 0.000000 0.026802 0.000000
# 6 0.000000 0.000000 0.000000 0.000000 0.000000 0.168340
#
#
# Mechanical properties :
#
#
# Convention : Reuss Voigt Hill
#
# Bulk Modulus (GPa) = 43.46704 78.10706 60.78705
# Shear Modulus (GPa) = 8.85701 20.52338 14.69019
#
# Velocity S-wave (km/s) = 2.17275 3.30743 2.79821
# Velocity P-wave (km/s) = 5.42795 7.49780 6.54522
#
# Compressibility (1/GPa) = 0.02300594
#
# Stress axis : x y z
#
# Youngs Moduli (GPa) = 96.23837 22.76605 80.87847
#
# Poissons Ratio (x) = 0.17711 0.24270
# Poissons Ratio (y) = 0.74871 0.89424
# Poissons Ratio (z) = 0.28879 0.25171
#
# Static dielectric constant tensor:
#      x y z
#    x 3.652670 0.000000 0.000000 
#    y 0.000000 3.250580 0.000000 
#    z 0.000000 0.000000 3.590840 
# 
# 
# High freq. dielectric constant tensor:
#      x y z
#    x 1.736840 0.000000 0.000000 
#    y 0.000000 1.708310 0.000000 
#    z 0.000000 0.000000 1.734170 
# 
# From -- ./inp_files/18943.got.cif
#   From: 2010.03.12/outbox.cif.g09.slc.cpg/sg47_10_cif.got.tgz:18943.got - 2010.04.14 03:12:58.
