data_PCOD8196752
_publ_section_title
;
Structure prediction by ZEFSAII (Michael W. Deem and Ramdas Pophale) SiO2 
 PCOD8196752
Probable space group: P M M M
;
_chemical_formula_sum "Si O2"
_cell_formula_units_Z 64
_cell_length_a 14.165586
_cell_length_b 8.990472
_cell_length_c 31.132965
_cell_angle_alpha 90.000000
_cell_angle_beta 90.000000
_cell_angle_gamma 90.000000
_cell_volume 3964.948231
_symmetry_space_group_name_H-M "P M M M"
_symmetry_group_IT_number 47
_symmetry_cell_setting 'orthorhombic'
loop_
_space_group_symop_operation_xyz
x,y,z
-x,-y,z
x,-y,-z
-x,y,-z
-x,-y,-z
x,y,-z
-x,y,z
x,-y,z
loop_
_atom_site_type_symbol
_atom_site_label
_atom_site_fract_x
_atom_site_fract_y
_atom_site_fract_z
Si Si1 0.892859 0.173359 0.578192
Si Si2 0.895395 0.331426 0.334064
Si Si3 0.387666 0.666126 0.129509
Si Si4 0.715901 0.329105 0.548446
Si Si5 0.387747 0.832706 0.047109
Si Si6 0.608583 0.824938 0.215142
Si Si7 0.388845 0.172404 0.624292
Si Si8 0.296748 0.328016 0.705447
O O1 0.875513 0.217468 0.627558
O O2 0.822901 0.267886 0.548612
O O3 0.000000 0.209708 0.564167
O O4 0.870219 0.000000 0.572937
O O5 0.887666 0.500000 0.352201
O O6 0.816514 0.306438 0.297668
O O7 0.000000 0.303449 0.314354
O O8 0.500000 0.667988 0.127151
O O9 0.348415 0.500000 0.134922
O O10 0.345007 0.732390 0.085268
O O11 0.353231 0.762107 0.170018
O O12 0.676752 0.315098 0.500000
O O13 0.715015 0.500000 0.563851
O O14 0.650189 0.232115 0.579256
O O15 0.500000 0.832440 0.049821
O O16 0.350091 0.000000 0.053369
O O17 0.356135 0.771953 0.000000
O O18 0.500000 0.778513 0.222870
O O19 0.670870 0.759749 0.252973
O O20 0.620522 0.000000 0.214285
O O21 0.500000 0.195346 0.624760
O O22 0.345539 0.264770 0.663121
O O23 0.361099 0.000000 0.629400
O O24 0.325098 0.500000 0.710201
#
# Coordination Sequence:
#
# PCOD8196752 Si02
#       8
#     8   8   8   8   8   8   8   8
#     4  10  20  34  55  81 105 128 153 183 220 264
#     4   9  18  33  53  76 101 126 150 178 218 269
#     4   9  16  25  37  54  78 108 146 194 241 281
#     4  11  24  40  57  77 100 127 157 188 225 269
#     4   8  13  21  33  49  71 103 144 188 234 283
#     4  10  20  32  45  62  88 123 159 195 236 278
#     4  11  24  40  57  76  98 124 154 190 231 272
#     4  11  21  33  53  77  98 122 152 187 226 269
#
# _framework density 16.141445999999998
#
# number of rings (size 3 to 8) (size 9 to 14) (size 15 to 20)
#    0.000    2.125    1.250    3.000    0.000    7.750 
#    0.000    3.750    0.000    0.000    0.000    0.000 
#    0.000    0.000    0.000    0.000    0.000    0.625 
#
# Total GULP energy -793519.856248 kJ/mol
# GULP energy per Si atom -12398.747754 kJ/mol
# Density = 1.610471 g / cm^3
# Si number density = 16.141446 Si / 1000 Ang^3
#
#
#
# Elastic Constant Matrix: (Units=GPa)
#
#
# Indices 1 2 3 4 5 6 
#
# 1 50.7177 23.5951 30.5459 0.0000 0.0000 0.0000
# 2 23.5951 70.9275 37.3129 0.0000 0.0000 0.0000
# 3 30.5459 37.3129 109.7261 0.0000 0.0000 0.0000
# 4 0.0000 0.0000 0.0000 31.7715 0.0000 0.0000
# 5 0.0000 0.0000 0.0000 0.0000 3.9048 0.0000
# 6 0.0000 0.0000 0.0000 0.0000 0.0000 20.1041
#
#
#
# Elastic Compliance Matrix: (Units=1/GPa)
#
#
# Indices 1 2 3 4 5 6 
#
# 1 0.025498 -0.005783 -0.005132 0.000000 0.000000 0.000000
# 2 -0.005783 0.018482 -0.004675 0.000000 0.000000 0.000000
# 3 -0.005132 -0.004675 0.012132 0.000000 0.000000 0.000000
# 4 0.000000 0.000000 0.000000 0.031475 0.000000 0.000000
# 5 0.000000 0.000000 0.000000 0.000000 0.256093 0.000000
# 6 0.000000 0.000000 0.000000 0.000000 0.000000 0.049741
#
#
# Mechanical properties :
#
#
# Convention : Reuss Voigt Hill
#
# Bulk Modulus (GPa) = 40.10759 46.03101 43.06930
# Shear Modulus (GPa) = 11.54972 20.48392 16.01682
#
# Velocity S-wave (km/s) = 2.67784 3.56620 3.15346
# Velocity P-wave (km/s) = 5.87049 6.74806 6.32451
#
# Compressibility (1/GPa) = 0.02493293
#
# Stress axis : x y z
#
# Youngs Moduli (GPa) = 39.21896 54.10668 82.42660
#
# Poissons Ratio (x) = 0.31288 0.42300
# Poissons Ratio (y) = 0.22679 0.38536
# Poissons Ratio (z) = 0.20126 0.25296
#
# Static dielectric constant tensor:
#      x y z
#    x 2.919150 0.000000 0.000000 
#    y 0.000000 3.260360 0.000000 
#    z 0.000000 0.000000 3.099320 
# 
# 
# High freq. dielectric constant tensor:
#      x y z
#    x 1.580360 0.000000 0.000000 
#    y 0.000000 1.637740 0.000000 
#    z 0.000000 0.000000 1.612360 
# 
# From -- ./inp_files/14314.got.cif
#   From: 2010.03.12/outbox.cif.g09.slc.cpg/sg47_8_cif.got.tgz:14314.got - 2010.04.14 03:12:58.
