data_PCOD8196909
_publ_section_title
;
Structure prediction by ZEFSAII (Michael W. Deem and Ramdas Pophale) SiO2 
 PCOD8196909
Probable space group: P M M M
;
_chemical_formula_sum "Si O2"
_cell_formula_units_Z 40
_cell_length_a 25.947300
_cell_length_b 9.430791
_cell_length_c 8.894893
_cell_angle_alpha 90.000000
_cell_angle_beta 90.000000
_cell_angle_gamma 90.000000
_cell_volume 2176.612012
_symmetry_space_group_name_H-M "P M M M"
_symmetry_group_IT_number 47
_symmetry_cell_setting 'orthorhombic'
loop_
_space_group_symop_operation_xyz
x,y,z
-x,-y,z
x,-y,-z
-x,y,-z
-x,-y,-z
x,y,-z
-x,y,z
x,-y,z
loop_
_atom_site_type_symbol
_atom_site_label
_atom_site_fract_x
_atom_site_fract_y
_atom_site_fract_z
Si Si1 0.000000 0.340642 0.679756
Si Si2 0.396038 0.836809 0.177251
Si Si3 0.304563 0.335732 0.322605
Si Si4 0.500000 0.831706 0.668980
Si Si5 0.905567 0.159308 0.321244
Si Si6 0.208316 0.158713 0.678527
O O1 0.949011 0.263667 0.744605
O O2 0.000000 0.500000 0.741434
O O3 0.000000 0.337223 0.500000
O O4 0.350750 0.740689 0.239195
O O5 0.449185 0.777102 0.246059
O O6 0.386326 0.000000 0.225275
O O7 0.399596 0.821658 0.000000
O O8 0.311109 0.312764 0.500000
O O9 0.304218 0.500000 0.278681
O O10 0.251194 0.267907 0.262138
O O11 0.500000 0.770737 0.500000
O O12 0.500000 0.000000 0.669324
O O13 0.907112 0.163626 0.500000
O O14 0.848561 0.206365 0.264557
O O15 0.917481 0.000000 0.265489
O O16 0.208268 0.157504 0.500000
O O17 0.220973 0.000000 0.737770
#
# Coordination Sequence:
#
# PCOD8196909 Si02
#       6
#     4   8   8   4   8   8
#     4   9  15  19  25  41  67 101 140 181 226 277
#     4  10  20  34  53  76 101 129 161 197 237 282
#     4  10  20  32  47  69  96 126 160 198 241 289
#     4   9  17  31  54  81 104 127 158 198 240 279
#     4   8  13  21  32  46  67  99 140 184 229 277
#     4   8  14  25  41  59  79 108 149 195 239 282
#
# _framework density 18.377184
#
# number of rings (size 3 to 8) (size 9 to 14) (size 15 to 20)
#    0.000    3.000    0.000    3.000    0.000    5.600 
#    0.000    4.500    0.000    3.000    0.000    0.000 
#    0.000    0.000    0.000    0.900    0.000   18.400 
#
# Total GULP energy -495824.121880 kJ/mol
# GULP energy per Si atom -12395.603047 kJ/mol
# Density = 1.833536 g / cm^3
# Si number density = 18.377184 Si / 1000 Ang^3
#
#
#
# Elastic Constant Matrix: (Units=GPa)
#
#
# Indices 1 2 3 4 5 6 
#
# 1 197.6259 101.0906 39.6500 0.0000 0.0000 0.0000
# 2 101.0906 118.8699 33.0675 0.0000 0.0000 0.0000
# 3 39.6500 33.0675 34.3709 0.0000 0.0000 0.0000
# 4 0.0000 0.0000 0.0000 13.4133 0.0000 0.0000
# 5 0.0000 0.0000 0.0000 0.0000 -2.6756 0.0000
# 6 0.0000 0.0000 0.0000 0.0000 0.0000 6.2569
#
#
#
# Elastic Compliance Matrix: (Units=1/GPa)
#
#
# Indices 1 2 3 4 5 6 
#
# 1 0.009401 -0.006797 -0.004305 0.000000 0.000000 0.000000
# 2 -0.006797 0.016401 -0.007938 0.000000 0.000000 0.000000
# 3 -0.004305 -0.007938 0.041698 0.000000 0.000000 0.000000
# 4 0.000000 0.000000 0.000000 0.074553 0.000000 0.000000
# 5 0.000000 0.000000 0.000000 0.000000 -0.373748 0.000000
# 6 0.000000 0.000000 0.000000 0.000000 0.000000 0.159824
#
#
# Mechanical properties :
#
#
# Convention : Reuss Voigt Hill
#
# Bulk Modulus (GPa) = 33.99179 77.60922 55.80051
# Shear Modulus (GPa) = -208.47662 15.20283 -96.63689
#
# Velocity S-wave (km/s) = -10.66253 2.87934 -7.25944
# Velocity P-wave (km/s) = 11.53469 7.30597 6.31157
#
# Compressibility (1/GPa) = 0.02941887
#
# Stress axis : x y z
#
# Youngs Moduli (GPa) = 106.37562 60.97114 23.98184
#
# Poissons Ratio (x) = 0.41442 0.10325
# Poissons Ratio (y) = 0.72303 0.19038
# Poissons Ratio (z) = 0.45798 0.48401
#
# Static dielectric constant tensor:
#      x y z
#    x 3.843910 0.000000 0.000000 
#    y 0.000000 3.384110 0.000000 
#    z 0.000000 0.000000 2.853970 
# 
# 
# High freq. dielectric constant tensor:
#      x y z
#    x 1.733690 0.000000 0.000000 
#    y 0.000000 1.698070 0.000000 
#    z 0.000000 0.000000 1.655280 
# 
# From -- ./inp_files/13026.got.cif
#   From: 2010.03.12/outbox.cif.g09.slc.cpg/sg47_7_cif.got.tgz:13026.got - 2010.04.14 03:12:58.
