data_PCOD8196770
_publ_section_title
;
Structure prediction by ZEFSAII (Michael W. Deem and Ramdas Pophale) SiO2 
 PCOD8196770
Probable space group: P M M M
;
_chemical_formula_sum "Si O2"
_cell_formula_units_Z 52
_cell_length_a 9.141983
_cell_length_b 27.632971
_cell_length_c 11.964883
_cell_angle_alpha 90.000000
_cell_angle_beta 90.000000
_cell_angle_gamma 90.000000
_cell_volume 3022.570552
_symmetry_space_group_name_H-M "P M M M"
_symmetry_group_IT_number 47
_symmetry_cell_setting 'orthorhombic'
loop_
_space_group_symop_operation_xyz
x,y,z
-x,-y,z
x,-y,-z
-x,y,-z
-x,-y,-z
x,y,-z
-x,y,z
x,-y,z
loop_
_atom_site_type_symbol
_atom_site_label
_atom_site_fract_x
_atom_site_fract_y
_atom_site_fract_z
Si Si1 0.841928 0.053853 0.500000
Si Si2 0.835993 0.728052 0.367099
Si Si3 0.670767 0.076484 0.279782
Si Si4 0.667851 0.177428 0.372196
Si Si5 0.171267 0.000000 0.867960
Si Si6 0.827450 0.447208 0.000000
Si Si7 0.335994 0.635612 0.632367
Si Si8 0.169657 0.443005 0.241294
O O1 0.739731 0.060661 0.394728
O O2 0.000000 0.083432 0.500000
O O3 0.896590 0.000000 0.500000
O O4 0.834056 0.726127 0.500000
O O5 0.760805 0.777555 0.327085
O O6 0.751324 0.681600 0.318044
O O7 0.000000 0.726889 0.319559
O O8 0.500000 0.062359 0.274662
O O9 0.691104 0.134778 0.280977
O O10 0.754324 0.049062 0.179559
O O11 0.714897 0.161592 0.500000
O O12 0.500000 0.193817 0.375759
O O13 0.000000 0.000000 0.835776
O O14 0.194864 0.000000 0.000000
O O15 0.784568 0.421944 0.882419
O O16 0.753099 0.500000 0.000000
O O17 0.000000 0.454691 0.000000
O O18 0.334800 0.637141 0.500000
O O19 0.500000 0.638058 0.679393
O O20 0.263352 0.585332 0.668177
O O21 0.204113 0.500000 0.250127
O O22 0.000000 0.433180 0.266012
#
# Coordination Sequence:
#
# PCOD8196770 Si02
#       8
#     4   8   8   8   4   4   8   8
#     4  11  21  31  47  75 110 140 162 194 247 294
#     4   9  17  29  46  69  95 127 166 202 237 285
#     4  11  21  34  54  78 104 134 169 205 246 298
#     4   9  17  30  47  73 106 132 156 193 246 298
#     4  11  25  42  55  72 101 137 177 217 254 293
#     4   7  12  26  47  69  91 115 147 191 243 288
#     4  10  20  32  45  64  96 136 168 198 239 286
#     4   9  17  30  49  71  94 122 159 203 247 294
#
# _framework density 17.203897999999999
#
# number of rings (size 3 to 8) (size 9 to 14) (size 15 to 20)
#    0.000    2.385    1.538    2.769    0.000    5.538 
#    0.000    1.923    0.000    1.385    2.000    0.000 
#    0.000    0.000    0.000    0.000    0.000    0.000 
#
# Total GULP energy -644283.669862 kJ/mol
# GULP energy per Si atom -12390.070574 kJ/mol
# Density = 1.716474 g / cm^3
# Si number density = 17.203898 Si / 1000 Ang^3
#
#
#
# Elastic Constant Matrix: (Units=GPa)
#
#
# Indices 1 2 3 4 5 6 
#
# 1 130.7023 69.9175 39.5224 0.0000 0.0000 0.0000
# 2 69.9175 107.8088 31.9999 0.0000 0.0000 0.0000
# 3 39.5224 31.9999 47.0047 0.0000 0.0000 0.0000
# 4 0.0000 0.0000 0.0000 -6.8287 0.0000 0.0000
# 5 0.0000 0.0000 0.0000 0.0000 18.5672 0.0000
# 6 0.0000 0.0000 0.0000 0.0000 0.0000 30.8207
#
#
#
# Elastic Compliance Matrix: (Units=1/GPa)
#
#
# Indices 1 2 3 4 5 6 
#
# 1 0.013164 -0.006582 -0.006588 0.000000 0.000000 0.000000
# 2 -0.006582 0.014916 -0.004620 0.000000 0.000000 0.000000
# 3 -0.006588 -0.004620 0.029959 0.000000 0.000000 0.000000
# 4 0.000000 0.000000 0.000000 -0.146442 0.000000 0.000000
# 5 0.000000 0.000000 0.000000 0.000000 0.053859 0.000000
# 6 0.000000 0.000000 0.000000 0.000000 0.000000 0.032446
#
#
# Mechanical properties :
#
#
# Convention : Reuss Voigt Hill
#
# Bulk Modulus (GPa) = 44.52547 63.15502 53.84024
# Shear Modulus (GPa) = 122.05182 18.11690 70.08436
#
# Velocity S-wave (km/s) = 8.43198 3.24862 6.38952
# Velocity P-wave (km/s) = 10.98795 7.13168 9.26271
#
# Compressibility (1/GPa) = 0.02245906
#
# Stress axis : x y z
#
# Youngs Moduli (GPa) = 75.96574 67.04406 33.37925
#
# Poissons Ratio (x) = 0.44127 0.21989
# Poissons Ratio (y) = 0.49999 0.15422
# Poissons Ratio (z) = 0.50043 0.30975
#
# Static dielectric constant tensor:
#      x y z
#    x 3.330110 0.000000 0.000000 
#    y 0.000000 3.282950 0.000000 
#    z 0.000000 0.000000 2.948490 
# 
# 
# High freq. dielectric constant tensor:
#      x y z
#    x 1.673950 0.000000 0.000000 
#    y 0.000000 1.661100 0.000000 
#    z 0.000000 0.000000 1.619520 
# 
# From -- ./inp_files/15692.got.cif
#   From: 2010.03.12/outbox.cif.g09.slc.cpg/sg47_8_cif.got.tgz:15692.got - 2010.04.14 03:12:58.
