data_PCOD8196344
_publ_section_title
;
Structure prediction by ZEFSAII (Michael W. Deem and Ramdas Pophale) SiO2 
 PCOD8196344
Probable space group: P M M M
;
_chemical_formula_sum "Si O2"
_cell_formula_units_Z 60
_cell_length_a 13.768257
_cell_length_b 18.563580
_cell_length_c 12.862093
_cell_angle_alpha 90.000000
_cell_angle_beta 90.000000
_cell_angle_gamma 90.000000
_cell_volume 3287.398430
_symmetry_space_group_name_H-M "P M M M"
_symmetry_group_IT_number 47
_symmetry_cell_setting 'orthorhombic'
loop_
_space_group_symop_operation_xyz
x,y,z
-x,-y,z
x,-y,-z
-x,y,-z
-x,-y,-z
x,y,-z
-x,y,z
x,-y,z
loop_
_atom_site_type_symbol
_atom_site_label
_atom_site_fract_x
_atom_site_fract_y
_atom_site_fract_z
Si Si1 0.678709 0.579136 0.115113
Si Si2 0.606012 0.730424 0.117630
Si Si3 0.109827 0.082050 0.877978
Si Si4 0.108934 0.286074 0.380150
Si Si5 0.391170 0.415553 0.500000
Si Si6 0.765707 0.418036 0.333047
Si Si7 0.610166 0.082164 0.378232
Si Si8 0.246600 0.182866 0.253092
O O1 0.628010 0.500000 0.126638
O O2 0.601562 0.643364 0.124696
O O3 0.755386 0.588143 0.208470
O O4 0.729620 0.583970 0.000000
O O5 0.500000 0.758652 0.153123
O O6 0.690044 0.760851 0.188970
O O7 0.626927 0.755482 0.000000
O O8 0.185555 0.133343 0.822975
O O9 0.000000 0.102843 0.845681
O O10 0.131246 0.000000 0.844732
O O11 0.123741 0.091458 0.000000
O O12 0.109688 0.265004 0.500000
O O13 0.145859 0.367485 0.365523
O O14 0.175181 0.227924 0.324189
O O15 0.000000 0.281851 0.334799
O O16 0.406178 0.500000 0.500000
O O17 0.500000 0.379581 0.500000
O O18 0.331600 0.392472 0.604101
O O19 0.790956 0.500000 0.365718
O O20 0.622115 0.094614 0.500000
O O21 0.500000 0.099877 0.343797
O O22 0.683590 0.134233 0.321305
O O23 0.635388 0.000000 0.348812
#
# Coordination Sequence:
#
# PCOD8196344 Si02
#       8
#     8   8   8   8   4   8   8   8
#     4   9  18  34  55  77 104 141 184 228 272 324
#     4  10  21  34  50  78 113 146 180 219 264 319
#     4   9  19  36  58  84 109 134 174 225 269 315
#     4  11  24  39  54  78 111 144 185 237 283 325
#     4   9  18  32  53  81 109 135 173 232 288 329
#     4  10  19  36  58  80 106 143 189 234 284 334
#     4   9  19  36  57  81 108 139 178 219 257 310
#     4  12  20  35  56  80 108 148 178 213 269 332
#
# _framework density 18.251514
#
# number of rings (size 3 to 8) (size 9 to 14) (size 15 to 20)
#    0.000    2.067    2.000    2.800    0.000    1.067 
#    0.000    3.333    0.000    1.200    0.000   13.067 
#    0.000    0.000    0.000    0.000    0.000    0.000 
#
# Total GULP energy -743676.338351 kJ/mol
# GULP energy per Si atom -12394.605639 kJ/mol
# Density = 1.820997 g / cm^3
# Si number density = 18.251514 Si / 1000 Ang^3
#
#
#
# Elastic Constant Matrix: (Units=GPa)
#
#
# Indices 1 2 3 4 5 6 
#
# 1 134.7326 72.4830 59.9531 0.0000 0.0000 0.0000
# 2 72.4830 104.8661 43.3630 0.0000 0.0000 0.0000
# 3 59.9531 43.3630 89.2060 0.0000 0.0000 0.0000
# 4 0.0000 0.0000 0.0000 29.3828 0.0000 0.0000
# 5 0.0000 0.0000 0.0000 0.0000 33.9918 0.0000
# 6 0.0000 0.0000 0.0000 0.0000 0.0000 63.3411
#
#
#
# Elastic Compliance Matrix: (Units=1/GPa)
#
#
# Indices 1 2 3 4 5 6 
#
# 1 0.013885 -0.007182 -0.005840 0.000000 0.000000 0.000000
# 2 -0.007182 0.015650 -0.002781 0.000000 0.000000 0.000000
# 3 -0.005840 -0.002781 0.016487 0.000000 0.000000 0.000000
# 4 0.000000 0.000000 0.000000 0.034034 0.000000 0.000000
# 5 0.000000 0.000000 0.000000 0.000000 0.029419 0.000000
# 6 0.000000 0.000000 0.000000 0.000000 0.000000 0.015788
#
#
# Mechanical properties :
#
#
# Convention : Reuss Voigt Hill
#
# Bulk Modulus (GPa) = 69.36970 75.60032 72.48501
# Shear Modulus (GPa) = 30.92672 35.54351 33.23511
#
# Velocity S-wave (km/s) = 4.12086 4.41776 4.27189
# Velocity P-wave (km/s) = 7.79309 8.21787 8.00830
#
# Compressibility (1/GPa) = 0.01441552
#
# Stress axis : x y z
#
# Youngs Moduli (GPa) = 72.02164 63.89805 60.65449
#
# Poissons Ratio (x) = 0.45892 0.35425
# Poissons Ratio (y) = 0.51726 0.16865
# Poissons Ratio (z) = 0.42064 0.17767
#
# Static dielectric constant tensor:
#      x y z
#    x 4.005900 0.000000 0.000000 
#    y 0.000000 3.416900 0.000000 
#    z 0.000000 0.000000 3.464700 
# 
# 
# High freq. dielectric constant tensor:
#      x y z
#    x 1.692170 0.000000 0.000000 
#    y 0.000000 1.709810 0.000000 
#    z 0.000000 0.000000 1.715130 
# 
# From -- ./inp_files/16600.got.cif
#   From: 2010.03.12/outbox.cif.g09.slc.cpg/sg47_9_cif.got.tgz:16600.got - 2010.04.14 03:12:58.
