data_PCOD8196745
_publ_section_title
;
Structure prediction by ZEFSAII (Michael W. Deem and Ramdas Pophale) SiO2 
 PCOD8196745
Probable space group: P M M M
;
_chemical_formula_sum "Si O2"
_cell_formula_units_Z 52
_cell_length_a 9.097240
_cell_length_b 12.309163
_cell_length_c 30.713984
_cell_angle_alpha 90.000000
_cell_angle_beta 90.000000
_cell_angle_gamma 90.000000
_cell_volume 3439.333807
_symmetry_space_group_name_H-M "P M M M"
_symmetry_group_IT_number 47
_symmetry_cell_setting 'orthorhombic'
loop_
_space_group_symop_operation_xyz
x,y,z
-x,-y,z
x,-y,-z
-x,y,-z
-x,-y,-z
x,y,-z
-x,y,z
x,-y,z
loop_
_atom_site_type_symbol
_atom_site_label
_atom_site_fract_x
_atom_site_fract_y
_atom_site_fract_z
Si Si1 0.334087 0.370450 0.215471
Si Si2 0.166002 0.370737 0.699908
Si Si3 0.670104 0.628090 0.613560
Si Si4 0.333662 0.000000 0.551748
Si Si5 0.164984 0.370357 0.130874
Si Si6 0.665249 0.629163 0.952108
Si Si7 0.170315 0.215101 0.448657
O O1 0.500000 0.325881 0.217586
O O2 0.333611 0.500000 0.215856
O O3 0.244555 0.324961 0.256846
O O4 0.258872 0.326217 0.171509
O O5 0.164623 0.500000 0.701259
O O6 0.256398 0.329735 0.658144
O O7 0.000000 0.325215 0.697738
O O8 0.500000 0.661966 0.613977
O O9 0.689666 0.500000 0.608196
O O10 0.752169 0.681906 0.573015
O O11 0.248124 0.894088 0.568820
O O12 0.500000 0.000000 0.570060
O O13 0.334393 0.000000 0.500000
O O14 0.167119 0.500000 0.130422
O O15 0.231624 0.323194 0.085877
O O16 0.000000 0.326136 0.135504
O O17 0.500000 0.672048 0.944500
O O18 0.665582 0.500000 0.949812
O O19 0.722136 0.666648 0.000000
O O20 0.190438 0.228314 0.500000
O O21 0.000000 0.210562 0.435459
#
# Coordination Sequence:
#
# PCOD8196745 Si02
#       7
#     8   8   8   4   8   8   8
#     4   9  15  22  32  44  58  77 102 132 166 205
#     4   9  16  26  39  53  70  92 118 148 182 220
#     4  10  20  32  45  62  85 112 140 167 197 237
#     4   9  17  31  51  71  89 109 135 167 201 235
#     4   9  15  20  26  37  51  66  88 120 157 197
#     4   8  13  20  27  33  43  61  84 111 148 196
#     4  10  20  33  49  68  89 112 138 168 201 236
#
# _framework density 15.119206999999999
#
# number of rings (size 3 to 8) (size 9 to 14) (size 15 to 20)
#    0.000    2.846    0.000    3.000    0.000    8.923 
#    0.000    3.077    0.000    0.000    0.000    0.000 
#    0.000    0.000    0.000    0.000    0.000    0.000 
#
# Total GULP energy -644652.605194 kJ/mol
# GULP energy per Si atom -12397.165484 kJ/mol
# Density = 1.508480 g / cm^3
# Si number density = 15.119207 Si / 1000 Ang^3
#
#
#
# Elastic Constant Matrix: (Units=GPa)
#
#
# Indices 1 2 3 4 5 6 
#
# 1 149.8179 25.7188 69.1322 0.0000 0.0000 0.0000
# 2 25.7188 19.8898 24.2755 0.0000 0.0000 0.0000
# 3 69.1322 24.2755 95.3001 0.0000 0.0000 0.0000
# 4 0.0000 0.0000 0.0000 0.6616 0.0000 0.0000
# 5 0.0000 0.0000 0.0000 0.0000 32.6053 0.0000
# 6 0.0000 0.0000 0.0000 0.0000 0.0000 14.0035
#
#
#
# Elastic Compliance Matrix: (Units=1/GPa)
#
#
# Indices 1 2 3 4 5 6 
#
# 1 0.010541 -0.006236 -0.006058 0.000000 0.000000 0.000000
# 2 -0.006236 0.076649 -0.015001 0.000000 0.000000 0.000000
# 3 -0.006058 -0.015001 0.018709 0.000000 0.000000 0.000000
# 4 0.000000 0.000000 0.000000 1.511378 0.000000 0.000000
# 5 0.000000 0.000000 0.000000 0.000000 0.030670 0.000000
# 6 0.000000 0.000000 0.000000 0.000000 0.000000 0.071411
#
#
# Mechanical properties :
#
#
# Convention : Reuss Voigt Hill
#
# Bulk Modulus (GPa) = 19.48974 55.91785 37.70380
# Shear Modulus (GPa) = 2.79166 19.17951 10.98558
#
# Velocity S-wave (km/s) = 1.36031 3.56554 2.69847
# Velocity P-wave (km/s) = 3.92249 7.34954 5.89074
#
# Compressibility (1/GPa) = 0.05130904
#
# Stress axis : x y z
#
# Youngs Moduli (GPa) = 94.87085 13.04644 53.45103
#
# Poissons Ratio (x) = 0.08136 0.32380
# Poissons Ratio (y) = 0.59163 0.80181
# Poissons Ratio (z) = 0.57471 0.19571
#
# Static dielectric constant tensor:
#      x y z
#    x 3.176250 0.000000 0.000000 
#    y 0.000000 2.258540 0.000000 
#    z 0.000000 0.000000 3.075210 
# 
# 
# High freq. dielectric constant tensor:
#      x y z
#    x 1.600890 0.000000 0.000000 
#    y 0.000000 1.486580 0.000000 
#    z 0.000000 0.000000 1.586660 
# 
# From -- ./inp_files/4765.got.cif
#   From: 2010.03.12/outbox.cif.g09.slc.cpg/sg47_3_cif.got.tgz:4765.got - 2010.04.14 03:12:58.
