data_PCOD8196242
_publ_section_title
;
Structure prediction by ZEFSAII (Michael W. Deem and Ramdas Pophale) SiO2 
 PCOD8196242
Probable space group: P M M M
;
_chemical_formula_sum "Si O2"
_cell_formula_units_Z 52
_cell_length_a 25.371083
_cell_length_b 8.909840
_cell_length_c 11.881043
_cell_angle_alpha 90.000000
_cell_angle_beta 90.000000
_cell_angle_gamma 90.000000
_cell_volume 2685.736980
_symmetry_space_group_name_H-M "P M M M"
_symmetry_group_IT_number 47
_symmetry_cell_setting 'orthorhombic'
loop_
_space_group_symop_operation_xyz
x,y,z
-x,-y,z
x,-y,-z
-x,y,-z
-x,-y,-z
x,y,-z
-x,y,z
x,-y,z
loop_
_atom_site_type_symbol
_atom_site_label
_atom_site_fract_x
_atom_site_fract_y
_atom_site_fract_z
Si Si1 0.346321 0.322562 0.874773
Si Si2 0.809127 0.825557 0.000000
Si Si3 0.559593 0.677405 0.274643
Si Si4 0.087500 0.331714 0.000000
Si Si5 0.941962 0.671078 0.247837
Si Si6 0.154480 0.823873 0.629686
Si Si7 0.437481 0.167297 0.500000
Si Si8 0.762617 0.322626 0.218982
O O1 0.347171 0.500000 0.887045
O O2 0.402077 0.266234 0.824882
O O3 0.299220 0.277108 0.789192
O O4 0.338469 0.251861 0.000000
O O5 0.871330 0.804072 0.000000
O O6 0.788531 0.741759 0.108343
O O7 0.793608 0.000000 0.000000
O O8 0.500000 0.731643 0.247192
O O9 0.561391 0.500000 0.289032
O O10 0.582178 0.746856 0.389492
O O11 0.053584 0.311771 0.112926
O O12 0.113316 0.500000 0.000000
O O13 0.928457 0.500000 0.280797
O O14 0.896800 0.773832 0.300935
O O15 0.000000 0.715943 0.295311
O O16 0.146823 0.778839 0.500000
O O17 0.208570 0.747829 0.672969
O O18 0.161073 0.000000 0.646204
O O19 0.500000 0.164792 0.500000
O O20 0.413882 0.000000 0.500000
O O21 0.770582 0.500000 0.223285
#
# Coordination Sequence:
#
# PCOD8196242 Si02
#       8
#     8   4   8   4   8   8   4   8
#     4   9  18  33  55  84 115 143 179 225 277 336
#     4  12  22  33  57  89 116 146 186 230 284 342
#     4   9  17  31  54  82 111 145 186 232 278 328
#     4  10  19  34  58  88 119 150 183 223 276 334
#     4  10  21  37  60  89 119 151 189 232 277 333
#     4  11  25  43  60  81 114 152 189 236 290 340
#     4   9  17  31  51  73 103 145 187 227 270 319
#     4  11  21  38  62  84 110 147 190 235 281 336
#
# _framework density 19.361539
#
# number of rings (size 3 to 8) (size 9 to 14) (size 15 to 20)
#    0.000    1.923    2.308    2.077    0.000    4.000 
#    1.385    4.615    0.000    1.385    0.000    2.154 
#    0.000    0.000    0.000    0.000    0.000    0.000 
#
# Total GULP energy -644561.307263 kJ/mol
# GULP energy per Si atom -12395.409755 kJ/mol
# Density = 1.931747 g / cm^3
# Si number density = 19.361539 Si / 1000 Ang^3
#
#
#
# Elastic Constant Matrix: (Units=GPa)
#
#
# Indices 1 2 3 4 5 6 
#
# 1 127.9693 36.1997 58.1604 0.0000 0.0000 0.0000
# 2 36.1997 65.3365 39.4178 0.0000 0.0000 0.0000
# 3 58.1604 39.4178 116.8293 0.0000 0.0000 0.0000
# 4 0.0000 0.0000 0.0000 16.2705 0.0000 0.0000
# 5 0.0000 0.0000 0.0000 0.0000 21.9955 0.0000
# 6 0.0000 0.0000 0.0000 0.0000 0.0000 9.6957
#
#
#
# Elastic Compliance Matrix: (Units=1/GPa)
#
#
# Indices 1 2 3 4 5 6 
#
# 1 0.010668 -0.003398 -0.004164 0.000000 0.000000 0.000000
# 2 -0.003398 0.020300 -0.005157 0.000000 0.000000 0.000000
# 3 -0.004164 -0.005157 0.012373 0.000000 0.000000 0.000000
# 4 0.000000 0.000000 0.000000 0.061461 0.000000 0.000000
# 5 0.000000 0.000000 0.000000 0.000000 0.045464 0.000000
# 6 0.000000 0.000000 0.000000 0.000000 0.000000 0.103139
#
#
# Mechanical properties :
#
#
# Convention : Reuss Voigt Hill
#
# Bulk Modulus (GPa) = 55.86388 64.18790 60.02589
# Shear Modulus (GPa) = 17.55550 21.34947 19.45248
#
# Velocity S-wave (km/s) = 3.01445 3.32426 3.17313
# Velocity P-wave (km/s) = 6.40558 6.92521 6.67046
#
# Compressibility (1/GPa) = 0.01790065
#
# Stress axis : x y z
#
# Youngs Moduli (GPa) = 93.73506 49.26193 80.82357
#
# Poissons Ratio (x) = 0.16741 0.33658
# Poissons Ratio (y) = 0.31855 0.41682
# Poissons Ratio (z) = 0.39035 0.25405
#
# Static dielectric constant tensor:
#      x y z
#    x 3.707740 0.000000 0.000000 
#    y 0.000000 3.405230 0.000000 
#    z 0.000000 0.000000 3.579740 
# 
# 
# High freq. dielectric constant tensor:
#      x y z
#    x 1.753530 0.000000 0.000000 
#    y 0.000000 1.735530 0.000000 
#    z 0.000000 0.000000 1.750250 
# 
# From -- ./inp_files/19884.got.cif
#   From: 2010.03.12/outbox.cif.g09.slc.cpg/sg47_10_cif.got.tgz:19884.got - 2010.04.14 03:12:58.
