data_PCOD8196647
_publ_section_title
;
Structure prediction by ZEFSAII (Michael W. Deem and Ramdas Pophale) SiO2 
 PCOD8196647
Probable space group: P M M M
;
_chemical_formula_sum "Si O2"
_cell_formula_units_Z 52
_cell_length_a 18.385852
_cell_length_b 18.550202
_cell_length_c 8.024329
_cell_angle_alpha 90.000000
_cell_angle_beta 90.000000
_cell_angle_gamma 90.000000
_cell_volume 2736.787828
_symmetry_space_group_name_H-M "P M M M"
_symmetry_group_IT_number 47
_symmetry_cell_setting 'orthorhombic'
loop_
_space_group_symop_operation_xyz
x,y,z
-x,-y,z
x,-y,-z
-x,y,-z
-x,-y,-z
x,y,-z
-x,y,z
x,-y,z
loop_
_atom_site_type_symbol
_atom_site_label
_atom_site_fract_x
_atom_site_fract_y
_atom_site_fract_z
Si Si1 0.803325 0.217560 0.806725
Si Si2 0.726466 0.918988 0.302249
Si Si3 0.347445 0.280647 0.190548
Si Si4 0.420914 0.852732 0.308422
Si Si5 0.417519 0.580659 0.304155
Si Si6 0.915760 0.322861 0.311730
Si Si7 0.913804 0.418874 0.000000
O O1 0.789098 0.133244 0.768418
O O2 0.733798 0.263994 0.745962
O O3 0.872294 0.247641 0.705424
O O4 0.819977 0.228009 0.000000
O O5 0.724855 0.911880 0.500000
O O6 0.646739 0.896831 0.228055
O O7 0.744563 0.000000 0.244158
O O8 0.405385 0.232748 0.292048
O O9 0.363647 0.364830 0.212392
O O10 0.354015 0.257163 0.000000
O O11 0.426547 0.873806 0.500000
O O12 0.500000 0.870756 0.225184
O O13 0.411278 0.591988 0.500000
O O14 0.500000 0.594440 0.244704
O O15 0.393446 0.500000 0.254336
O O16 0.904278 0.354110 0.500000
O O17 0.000000 0.304899 0.281097
O O18 0.887325 0.378823 0.169865
O O19 0.881263 0.500000 0.000000
O O20 0.000000 0.422820 0.000000
#
# Coordination Sequence:
#
# PCOD8196647 Si02
#       7
#     8   8   8   8   8   8   4
#     4  10  20  35  54  75 104 141 177 218 267 321
#     4   9  18  32  50  74 103 135 174 222 273 325
#     4  10  20  31  46  69  95 126 166 212 259 310
#     4   9  17  29  46  68  95 130 170 212 262 320
#     4   9  18  32  48  65  88 122 164 210 260 311
#     4  10  20  35  59  88 114 146 188 227 267 319
#     4   9  18  34  56  84 119 151 178 217 265 311
#
# _framework density 19.000378000000001
#
# number of rings (size 3 to 8) (size 9 to 14) (size 15 to 20)
#    0.000    2.538    0.769    1.846    0.000    5.538 
#    0.000    4.615    0.000    0.462    0.000    7.538 
#    0.000    0.000    0.000    0.000    0.000    0.000 
#
# Total GULP energy -644586.750678 kJ/mol
# GULP energy per Si atom -12395.899052 kJ/mol
# Density = 1.895713 g / cm^3
# Si number density = 19.000378 Si / 1000 Ang^3
#
#
#
# Elastic Constant Matrix: (Units=GPa)
#
#
# Indices 1 2 3 4 5 6 
#
# 1 71.2198 48.8237 29.8784 0.0000 0.0000 0.0000
# 2 48.8237 133.5485 31.5098 0.0000 0.0000 0.0000
# 3 29.8784 31.5098 67.7785 0.0000 0.0000 0.0000
# 4 0.0000 0.0000 0.0000 23.0599 0.0000 0.0000
# 5 0.0000 0.0000 0.0000 0.0000 21.0339 0.0000
# 6 0.0000 0.0000 0.0000 0.0000 0.0000 22.0636
#
#
#
# Elastic Compliance Matrix: (Units=1/GPa)
#
#
# Indices 1 2 3 4 5 6 
#
# 1 0.020927 -0.006148 -0.006367 0.000000 0.000000 0.000000
# 2 -0.006148 0.010217 -0.002039 0.000000 0.000000 0.000000
# 3 -0.006367 -0.002039 0.018509 0.000000 0.000000 0.000000
# 4 0.000000 0.000000 0.000000 0.043365 0.000000 0.000000
# 5 0.000000 0.000000 0.000000 0.000000 0.047542 0.000000
# 6 0.000000 0.000000 0.000000 0.000000 0.000000 0.045323
#
#
# Mechanical properties :
#
#
# Convention : Reuss Voigt Hill
#
# Bulk Modulus (GPa) = 48.67749 54.77450 51.72600
# Shear Modulus (GPa) = 22.53871 24.05383 23.29627
#
# Velocity S-wave (km/s) = 3.44790 3.56190 3.50536
# Velocity P-wave (km/s) = 6.44403 6.76808 6.60804
#
# Compressibility (1/GPa) = 0.02054338
#
# Stress axis : x y z
#
# Youngs Moduli (GPa) = 47.78510 97.87708 54.02881
#
# Poissons Ratio (x) = 0.60179 0.34399
# Poissons Ratio (y) = 0.29381 0.11018
# Poissons Ratio (z) = 0.30424 0.19961
#
# Static dielectric constant tensor:
#      x y z
#    x 3.380840 0.000000 0.000000 
#    y 0.000000 3.488760 0.000000 
#    z 0.000000 0.000000 3.403390 
# 
# 
# High freq. dielectric constant tensor:
#      x y z
#    x 1.714940 0.000000 0.000000 
#    y 0.000000 1.728260 0.000000 
#    z 0.000000 0.000000 1.734780 
# 
# From -- ./inp_files/9506.got.cif
#   From: 2010.03.12/outbox.cif.g09.slc.cpg/sg47_5_cif.got.tgz:9506.got - 2010.04.14 03:12:58.
