data_PCOD8196471
_publ_section_title
;
Structure prediction by ZEFSAII (Michael W. Deem and Ramdas Pophale) SiO2 
 PCOD8196471
Probable space group: P M M M
;
_chemical_formula_sum "Si O2"
_cell_formula_units_Z 64
_cell_length_a 20.119660
_cell_length_b 9.179144
_cell_length_c 22.347612
_cell_angle_alpha 90.000000
_cell_angle_beta 90.000000
_cell_angle_gamma 90.000000
_cell_volume 4127.185061
_symmetry_space_group_name_H-M "P M M M"
_symmetry_group_IT_number 47
_symmetry_cell_setting 'orthorhombic'
loop_
_space_group_symop_operation_xyz
x,y,z
-x,-y,z
x,-y,-z
-x,y,-z
-x,-y,-z
x,y,-z
-x,y,z
x,-y,z
loop_
_atom_site_type_symbol
_atom_site_label
_atom_site_fract_x
_atom_site_fract_y
_atom_site_fract_z
Si Si1 0.423698 0.327795 0.865924
Si Si2 0.777546 0.336482 0.840575
Si Si3 0.821875 0.172120 0.431078
Si Si4 0.147270 0.163684 0.750006
Si Si5 0.690363 0.167844 0.929946
Si Si6 0.725070 0.159599 0.666663
Si Si7 0.922660 0.332187 0.350469
Si Si8 0.347392 0.659415 0.754333
O O1 0.500000 0.290251 0.878501
O O2 0.408665 0.500000 0.872234
O O3 0.380072 0.241816 0.914178
O O4 0.404212 0.276034 0.798442
O O5 0.799707 0.500000 0.859185
O O6 0.839961 0.249799 0.812109
O O7 0.751460 0.249647 0.898295
O O8 0.720067 0.346538 0.791696
O O9 0.811736 0.211767 0.500000
O O10 0.755198 0.222782 0.395468
O O11 0.885257 0.258127 0.406167
O O12 0.833955 0.000000 0.420563
O O13 0.215299 0.154688 0.713640
O O14 0.092655 0.250328 0.711639
O O15 0.121505 0.000000 0.763888
O O16 0.688809 0.000000 0.908825
O O17 0.702297 0.181200 0.000000
O O18 0.663459 0.250336 0.693410
O O19 0.695768 0.000000 0.655165
O O20 0.899929 0.500000 0.344447
O O21 0.000000 0.319524 0.364717
O O22 0.368987 0.500000 0.732715
#
# Coordination Sequence:
#
# PCOD8196471 Si02
#       8
#     8   8   8   8   8   8   8   8
#     4   9  18  31  44  58  79 110 146 179 212 254
#     4   9  16  27  44  63  82 105 135 172 214 256
#     4   9  18  31  44  58  79 110 146 179 212 254
#     4   9  16  27  44  63  82 105 135 172 214 256
#     4  10  20  31  42  59  85 115 146 179 212 247
#     4   8  14  24  39  58  77  98 126 163 207 251
#     4  10  20  31  42  59  85 115 146 179 212 247
#     4   8  14  24  39  58  77  98 126 163 207 251
#
# _framework density 15.506938
#
# number of rings (size 3 to 8) (size 9 to 14) (size 15 to 20)
#    0.000    3.000    0.000    3.000    0.000    9.000 
#    0.000    2.500    0.000    0.000    0.000    0.000 
#    0.000    1.000    0.000   11.500    0.000    2.750 
#
# Total GULP energy -793240.072838 kJ/mol
# GULP energy per Si atom -12394.376138 kJ/mol
# Density = 1.547164 g / cm^3
# Si number density = 15.506938 Si / 1000 Ang^3
#
#
#
# Elastic Constant Matrix: (Units=GPa)
#
#
# Indices 1 2 3 4 5 6 
#
# 1 15.9954 22.7468 35.4636 0.0000 0.0000 0.0000
# 2 22.7468 95.3882 51.9299 0.0000 0.0000 0.0000
# 3 35.4636 51.9299 91.6233 0.0000 0.0000 0.0000
# 4 0.0000 0.0000 0.0000 20.4826 0.0000 0.0000
# 5 0.0000 0.0000 0.0000 0.0000 15.3189 0.0000
# 6 0.0000 0.0000 0.0000 0.0000 0.0000 17.8298
#
#
#
# Elastic Compliance Matrix: (Units=1/GPa)
#
#
# Indices 1 2 3 4 5 6 
#
# 1 0.462403 -0.018556 -0.168460 0.000000 0.000000 0.000000
# 2 -0.018556 0.015906 -0.001833 0.000000 0.000000 0.000000
# 3 -0.168460 -0.001833 0.077157 0.000000 0.000000 0.000000
# 4 0.000000 0.000000 0.000000 0.048822 0.000000 0.000000
# 5 0.000000 0.000000 0.000000 0.000000 0.065279 0.000000
# 6 0.000000 0.000000 0.000000 0.000000 0.000000 0.056086
#
#
# Mechanical properties :
#
#
# Convention : Reuss Voigt Hill
#
# Bulk Modulus (GPa) = 5.62531 47.03194 26.32863
# Shear Modulus (GPa) = 4.30068 16.91738 10.60903
#
# Velocity S-wave (km/s) = 1.66716 3.30654 2.61846
# Velocity P-wave (km/s) = 2.70950 6.70620 5.11441
#
# Compressibility (1/GPa) = 0.17776789
#
# Stress axis : x y z
#
# Youngs Moduli (GPa) = 2.16262 62.86776 12.96056
#
# Poissons Ratio (x) = 1.16659 2.18334
# Poissons Ratio (y) = 0.04013 0.02376
# Poissons Ratio (z) = 0.36431 0.11524
#
# Static dielectric constant tensor:
#      x y z
#    x 2.704650 0.000000 0.000000 
#    y 0.000000 3.241390 0.000000 
#    z 0.000000 0.000000 2.918210 
# 
# 
# High freq. dielectric constant tensor:
#      x y z
#    x 1.551020 0.000000 0.000000 
#    y 0.000000 1.607440 0.000000 
#    z 0.000000 0.000000 1.576620 
# 
# From -- ./inp_files/31522.got.cif
#   From: 2010.03.12/outbox.cif.g09.slc.cpg/sg47_16_cif.got.tgz:31522.got - 2010.04.14 03:12:58.
