data_PCOD8196022
_publ_section_title
;
Structure prediction by ZEFSAII (Michael W. Deem and Ramdas Pophale) SiO2 
 PCOD8196022
Probable space group: P M M M
;
_chemical_formula_sum "Si O2"
_cell_formula_units_Z 48
_cell_length_a 9.777818
_cell_length_b 16.553626
_cell_length_c 15.318565
_cell_angle_alpha 90.000000
_cell_angle_beta 90.000000
_cell_angle_gamma 90.000000
_cell_volume 2479.437537
_symmetry_space_group_name_H-M "P M M M"
_symmetry_group_IT_number 47
_symmetry_cell_setting 'orthorhombic'
loop_
_space_group_symop_operation_xyz
x,y,z
-x,-y,z
x,-y,-z
-x,y,-z
-x,-y,-z
x,y,-z
-x,y,z
x,-y,z
loop_
_atom_site_type_symbol
_atom_site_label
_atom_site_fract_x
_atom_site_fract_y
_atom_site_fract_z
Si Si1 0.157008 0.687975 0.900450
Si Si2 0.655227 0.311988 0.405133
Si Si3 0.660754 0.593564 0.764392
Si Si4 0.149293 0.171949 0.371933
Si Si5 0.152747 0.144589 0.825589
Si Si6 0.737267 0.000000 0.596264
Si Si7 0.345884 0.000000 0.210024
O O1 0.257998 0.636008 0.841661
O O2 0.188537 0.783674 0.892491
O O3 0.000000 0.671064 0.872624
O O4 0.182590 0.662045 0.000000
O O5 0.665909 0.355964 0.500000
O O6 0.500000 0.286608 0.384815
O O7 0.708828 0.370912 0.329188
O O8 0.737913 0.228988 0.413745
O O9 0.500000 0.607322 0.779881
O O10 0.699154 0.500000 0.764119
O O11 0.156636 0.184874 0.268940
O O12 0.169190 0.079089 0.398847
O O13 0.000000 0.197981 0.406410
O O14 0.000000 0.108747 0.843960
O O15 0.267693 0.076258 0.830658
O O16 0.643508 0.000000 0.683589
O O17 0.661588 0.000000 0.500000
O O18 0.500000 0.000000 0.174095
#
# Coordination Sequence:
#
# PCOD8196022 Si02
#       7
#     8   8   8   8   8   4   4
#     4  10  21  39  64  91 116 146 186 232 285 345
#     4  10  21  36  55  81 113 150 192 236 281 330
#     4  10  22  40  61  85 116 152 187 229 283 343
#     4  10  19  33  54  77 106 148 193 235 279 328
#     4   9  18  35  56  79 110 148 186 228 279 333
#     4  10  21  33  45  72 113 151 188 235 282 328
#     4  10  21  34  53  79 107 149 196 236 278 325
#
# _framework density 19.359228999999999
#
# number of rings (size 3 to 8) (size 9 to 14) (size 15 to 20)
#    0.000    2.167    1.667    1.000    0.000    8.500 
#    0.000    3.750    0.000    2.500    0.000    2.333 
#    0.000    0.000    0.000    0.000    0.000    0.000 
#
# Total GULP energy -594946.282408 kJ/mol
# GULP energy per Si atom -12394.714217 kJ/mol
# Density = 1.931517 g / cm^3
# Si number density = 19.359229 Si / 1000 Ang^3
#
#
#
# Elastic Constant Matrix: (Units=GPa)
#
#
# Indices 1 2 3 4 5 6 
#
# 1 108.4950 67.7639 41.4444 0.0000 0.0000 0.0000
# 2 67.7639 114.8858 53.7510 0.0000 0.0000 0.0000
# 3 41.4444 53.7510 99.1971 0.0000 0.0000 0.0000
# 4 0.0000 0.0000 0.0000 8.0749 0.0000 0.0000
# 5 0.0000 0.0000 0.0000 0.0000 12.1965 0.0000
# 6 0.0000 0.0000 0.0000 0.0000 0.0000 27.8048
#
#
#
# Elastic Compliance Matrix: (Units=1/GPa)
#
#
# Indices 1 2 3 4 5 6 
#
# 1 0.014871 -0.007856 -0.001956 0.000000 0.000000 0.000000
# 2 -0.007856 0.015811 -0.005285 0.000000 0.000000 0.000000
# 3 -0.001956 -0.005285 0.013762 0.000000 0.000000 0.000000
# 4 0.000000 0.000000 0.000000 0.123840 0.000000 0.000000
# 5 0.000000 0.000000 0.000000 0.000000 0.081991 0.000000
# 6 0.000000 0.000000 0.000000 0.000000 0.000000 0.035965
#
#
# Mechanical properties :
#
#
# Convention : Reuss Voigt Hill
#
# Bulk Modulus (GPa) = 70.17949 72.05515 71.11732
# Shear Modulus (GPa) = 15.56739 20.25650 17.91195
#
# Velocity S-wave (km/s) = 2.83880 3.23824 3.04508
# Velocity P-wave (km/s) = 6.86112 7.16118 7.01275
#
# Compressibility (1/GPa) = 0.01424918
#
# Stress axis : x y z
#
# Youngs Moduli (GPa) = 67.24417 63.24749 72.66455
#
# Poissons Ratio (x) = 0.49690 0.14214
# Poissons Ratio (y) = 0.52830 0.38403
# Poissons Ratio (z) = 0.13154 0.33426
#
# Static dielectric constant tensor:
#      x y z
#    x 3.442340 0.000000 0.000000 
#    y 0.000000 3.344840 0.000000 
#    z 0.000000 0.000000 3.654440 
# 
# 
# High freq. dielectric constant tensor:
#      x y z
#    x 1.745980 0.000000 0.000000 
#    y 0.000000 1.740200 0.000000 
#    z 0.000000 0.000000 1.755330 
# 
# From -- ./inp_files/21102.got.cif
#   From: 2010.03.12/outbox.cif.g09.slc.cpg/sg47_11_cif.got.tgz:21102.got - 2010.04.14 03:12:58.
