data_PCOD8196350
_publ_section_title
;
Structure prediction by ZEFSAII (Michael W. Deem and Ramdas Pophale) SiO2 
 PCOD8196350
Probable space group: P M M M
;
_chemical_formula_sum "Si O2"
_cell_formula_units_Z 48
_cell_length_a 27.676873
_cell_length_b 9.794617
_cell_length_c 9.559040
_cell_angle_alpha 90.000000
_cell_angle_beta 90.000000
_cell_angle_gamma 90.000000
_cell_volume 2591.306344
_symmetry_space_group_name_H-M "P M M M"
_symmetry_group_IT_number 47
_symmetry_cell_setting 'orthorhombic'
loop_
_space_group_symop_operation_xyz
x,y,z
-x,-y,z
x,-y,-z
-x,y,-z
-x,-y,-z
x,y,-z
-x,y,z
x,-y,z
loop_
_atom_site_type_symbol
_atom_site_label
_atom_site_fract_x
_atom_site_fract_y
_atom_site_fract_z
Si Si1 0.556671 0.500000 0.341191
Si Si2 0.107013 0.158136 0.226674
Si Si3 0.392477 0.727365 0.832492
Si Si4 0.446272 0.000000 0.836611
Si Si5 0.790070 0.153956 0.660460
Si Si6 0.700339 0.660530 0.661160
Si Si7 0.056973 0.661715 0.000000
Si Si8 0.052621 0.840316 0.500000
O O1 0.500000 0.500000 0.355544
O O2 0.579340 0.500000 0.500000
O O3 0.572745 0.627484 0.250634
O O4 0.164629 0.177907 0.237178
O O5 0.083512 0.204685 0.369626
O O6 0.095196 0.000000 0.185384
O O7 0.083369 0.267936 0.127690
O O8 0.414200 0.872508 0.791952
O O9 0.339056 0.715167 0.770080
O O10 0.392038 0.698888 0.000000
O O11 0.500000 0.000000 0.765518
O O12 0.454934 0.000000 0.000000
O O13 0.806783 0.173933 0.500000
O O14 0.749312 0.262180 0.701886
O O15 0.769983 0.000000 0.681208
O O16 0.685609 0.692475 0.500000
O O17 0.708131 0.500000 0.683194
O O18 0.066335 0.500000 0.000000
O O19 0.000000 0.694900 0.000000
O O20 0.000000 0.767831 0.500000
O O21 0.044655 0.000000 0.500000
#
# Coordination Sequence:
#
# PCOD8196350 Si02
#       8
#     4   8   8   4   8   8   4   4
#     4  11  23  39  61  89 121 155 195 243 294 349
#     4  10  19  36  61  87 115 148 194 245 295 353
#     4  11  22  38  61  87 118 155 198 244 293 350
#     4   9  20  38  59  85 119 153 189 237 294 353
#     4   9  18  35  60  89 116 147 190 243 299 354
#     4  10  21  37  57  82 116 156 195 238 289 347
#     4  11  25  41  55  79 121 165 201 239 294 355
#     4   9  16  28  55  91 117 139 179 239 294 345
#
# _framework density 18.523474
#
# number of rings (size 3 to 8) (size 9 to 14) (size 15 to 20)
#    0.000    2.000    1.667    2.000    1.167    3.333 
#    1.500    1.667    0.000    4.500    0.000    0.000 
#    0.000    0.000    0.000    0.000    0.000    0.000 
#
# Total GULP energy -594909.352348 kJ/mol
# GULP energy per Si atom -12393.944841 kJ/mol
# Density = 1.848131 g / cm^3
# Si number density = 18.523474 Si / 1000 Ang^3
#
#
#
# Elastic Constant Matrix: (Units=GPa)
#
#
# Indices 1 2 3 4 5 6 
#
# 1 132.6027 77.3915 58.5234 0.0000 0.0000 0.0000
# 2 77.3915 142.1142 63.8151 0.0000 0.0000 0.0000
# 3 58.5234 63.8151 115.3999 0.0000 0.0000 0.0000
# 4 0.0000 0.0000 0.0000 23.6104 0.0000 0.0000
# 5 0.0000 0.0000 0.0000 0.0000 27.2460 0.0000
# 6 0.0000 0.0000 0.0000 0.0000 0.0000 43.0107
#
#
#
# Elastic Compliance Matrix: (Units=1/GPa)
#
#
# Indices 1 2 3 4 5 6 
#
# 1 0.011913 -0.005021 -0.003265 0.000000 0.000000 0.000000
# 2 -0.005021 0.011478 -0.003801 0.000000 0.000000 0.000000
# 3 -0.003265 -0.003801 0.012423 0.000000 0.000000 0.000000
# 4 0.000000 0.000000 0.000000 0.042354 0.000000 0.000000
# 5 0.000000 0.000000 0.000000 0.000000 0.036703 0.000000
# 6 0.000000 0.000000 0.000000 0.000000 0.000000 0.023250
#
#
# Mechanical properties :
#
#
# Convention : Reuss Voigt Hill
#
# Bulk Modulus (GPa) = 85.90939 87.73075 86.82007
# Shear Modulus (GPa) = 30.08905 31.46588 30.77746
#
# Velocity S-wave (km/s) = 4.03472 4.12600 4.08062
# Velocity P-wave (km/s) = 8.25740 8.37635 8.31709
#
# Compressibility (1/GPa) = 0.01164017
#
# Stress axis : x y z
#
# Youngs Moduli (GPa) = 83.94308 87.12527 80.49739
#
# Poissons Ratio (x) = 0.43750 0.26279
# Poissons Ratio (y) = 0.42152 0.30593
# Poissons Ratio (z) = 0.27404 0.33112
#
# Static dielectric constant tensor:
#      x y z
#    x 3.522590 0.000000 0.000000 
#    y 0.000000 3.703270 0.000000 
#    z 0.000000 0.000000 10.184370 
# 
# 
# High freq. dielectric constant tensor:
#      x y z
#    x 1.730420 0.000000 0.000000 
#    y 0.000000 1.714960 0.000000 
#    z 0.000000 0.000000 1.712380 
# 
# From -- ./inp_files/14007.got.cif
#   From: 2010.03.12/outbox.cif.g09.slc.cpg/sg47_8_cif.got.tgz:14007.got - 2010.04.14 03:12:58.
