data_PCOD8196148
_publ_section_title
;
Structure prediction by ZEFSAII (Michael W. Deem and Ramdas Pophale) SiO2 
 PCOD8196148
Probable space group: P M M M
;
_chemical_formula_sum "Si O2"
_cell_formula_units_Z 60
_cell_length_a 22.305264
_cell_length_b 10.897400
_cell_length_c 13.224458
_cell_angle_alpha 90.000000
_cell_angle_beta 90.000000
_cell_angle_gamma 90.000000
_cell_volume 3214.460859
_symmetry_space_group_name_H-M "P M M M"
_symmetry_group_IT_number 47
_symmetry_cell_setting 'orthorhombic'
loop_
_space_group_symop_operation_xyz
x,y,z
-x,-y,z
x,-y,-z
-x,y,-z
-x,-y,-z
x,y,-z
-x,y,z
x,-y,z
loop_
_atom_site_type_symbol
_atom_site_label
_atom_site_fract_x
_atom_site_fract_y
_atom_site_fract_z
Si Si1 0.344901 0.641255 0.612203
Si Si2 0.254964 0.785118 0.747106
Si Si3 0.641201 0.136332 0.115607
Si Si4 0.833287 0.360082 0.112800
Si Si5 0.570473 0.640879 0.790481
Si Si6 0.929405 0.758674 0.230990
Si Si7 0.070643 0.000000 0.888369
Si Si8 0.850026 0.862846 0.613059
O O1 0.354641 0.698481 0.500000
O O2 0.328971 0.500000 0.601927
O O3 0.288553 0.700192 0.667184
O O4 0.405401 0.661423 0.676919
O O5 0.301817 0.866338 0.809927
O O6 0.219485 0.705345 0.827953
O O7 0.209338 0.866522 0.682096
O O8 0.598031 0.252607 0.138512
O O9 0.610508 0.000000 0.128931
O O10 0.662546 0.152093 0.000000
O O11 0.814603 0.500000 0.106724
O O12 0.897417 0.350616 0.170300
O O13 0.839419 0.304613 0.000000
O O14 0.500000 0.659857 0.789516
O O15 0.586473 0.500000 0.826941
O O16 0.901504 0.772282 0.343045
O O17 0.000000 0.735098 0.236386
O O18 0.908734 0.881009 0.172145
O O19 0.000000 0.000000 0.898826
O O20 0.100160 0.000000 0.000000
O O21 0.834524 0.816620 0.500000
O O22 0.876457 0.000000 0.609499
#
# Coordination Sequence:
#
# PCOD8196148 Si02
#       8
#     8   8   8   8   8   8   4   8
#     4   9  17  30  51  78 105 136 177 223 266 308
#     4  10  19  34  53  75 104 138 172 214 263 315
#     4  10  21  36  55  80 109 143 182 223 268 317
#     4  10  21  35  52  76 104 136 172 210 256 311
#     4   9  19  35  54  79 111 146 184 224 266 314
#     4  10  20  34  51  72 100 131 167 211 258 308
#     4   9  16  28  47  69  93 123 160 200 244 295
#     4  10  20  33  51  75 101 130 167 212 262 315
#
# _framework density 18.665648999999998
#
# number of rings (size 3 to 8) (size 9 to 14) (size 15 to 20)
#    0.000    2.333    0.667    2.000    0.000    2.933 
#    0.000    4.000    0.000    7.200    0.000    7.467 
#    0.000    0.000    0.000    0.000    0.000    0.000 
#
# Total GULP energy -743620.776324 kJ/mol
# GULP energy per Si atom -12393.679605 kJ/mol
# Density = 1.862317 g / cm^3
# Si number density = 18.665649 Si / 1000 Ang^3
#
#
#
# Elastic Constant Matrix: (Units=GPa)
#
#
# Indices 1 2 3 4 5 6 
#
# 1 87.8632 31.3199 38.4128 0.0000 0.0000 0.0000
# 2 31.3199 78.4711 42.8234 0.0000 0.0000 0.0000
# 3 38.4128 42.8234 136.9299 0.0000 0.0000 0.0000
# 4 0.0000 0.0000 0.0000 17.7616 0.0000 0.0000
# 5 0.0000 0.0000 0.0000 0.0000 17.6925 0.0000
# 6 0.0000 0.0000 0.0000 0.0000 0.0000 21.6900
#
#
#
# Elastic Compliance Matrix: (Units=1/GPa)
#
#
# Indices 1 2 3 4 5 6 
#
# 1 0.014014 -0.004157 -0.002631 0.000000 0.000000 0.000000
# 2 -0.004157 0.016599 -0.004025 0.000000 0.000000 0.000000
# 3 -0.002631 -0.004025 0.009300 0.000000 0.000000 0.000000
# 4 0.000000 0.000000 0.000000 0.056301 0.000000 0.000000
# 5 0.000000 0.000000 0.000000 0.000000 0.056521 0.000000
# 6 0.000000 0.000000 0.000000 0.000000 0.000000 0.046104
#
#
# Mechanical properties :
#
#
# Convention : Reuss Voigt Hill
#
# Bulk Modulus (GPa) = 54.68673 58.70848 56.69760
# Shear Modulus (GPa) = 22.06907 24.14270 23.10588
#
# Velocity S-wave (km/s) = 3.44224 3.60033 3.52217
# Velocity P-wave (km/s) = 6.72015 6.98600 6.85436
#
# Compressibility (1/GPa) = 0.01828597
#
# Stress axis : x y z
#
# Youngs Moduli (GPa) = 71.35960 60.24316 107.52837
#
# Poissons Ratio (x) = 0.25045 0.28291
# Poissons Ratio (y) = 0.29667 0.43280
# Poissons Ratio (z) = 0.18775 0.24248
#
# Static dielectric constant tensor:
#      x y z
#    x 3.247130 0.000000 0.000000 
#    y 0.000000 3.393600 0.000000 
#    z 0.000000 0.000000 3.710830 
# 
# 
# High freq. dielectric constant tensor:
#      x y z
#    x 1.713020 0.000000 0.000000 
#    y 0.000000 1.715420 0.000000 
#    z 0.000000 0.000000 1.735830 
# 
# From -- ./inp_files/19209.got.cif
#   From: 2010.03.12/outbox.cif.g09.slc.cpg/sg47_10_cif.got.tgz:19209.got - 2010.04.14 03:12:58.
