data_PCOD8196410
_publ_section_title
;
Structure prediction by ZEFSAII (Michael W. Deem and Ramdas Pophale) SiO2 
 PCOD8196410
Probable space group: P M M M
;
_chemical_formula_sum "Si O2"
_cell_formula_units_Z 60
_cell_length_a 9.075133
_cell_length_b 28.022182
_cell_length_c 20.747461
_cell_angle_alpha 90.000000
_cell_angle_beta 90.000000
_cell_angle_gamma 90.000000
_cell_volume 5276.183663
_symmetry_space_group_name_H-M "P M M M"
_symmetry_group_IT_number 47
_symmetry_cell_setting 'orthorhombic'
loop_
_space_group_symop_operation_xyz
x,y,z
-x,-y,z
x,-y,-z
-x,y,-z
-x,-y,-z
x,y,-z
-x,y,z
x,-y,z
loop_
_atom_site_type_symbol
_atom_site_label
_atom_site_fract_x
_atom_site_fract_y
_atom_site_fract_z
Si Si1 0.169452 0.056297 0.831776
Si Si2 0.328273 0.874800 0.924715
Si Si3 0.666631 0.313155 0.076872
Si Si4 0.833419 0.406610 0.076828
Si Si5 0.324889 0.946543 0.568243
Si Si6 0.666596 0.500000 0.076838
Si Si7 0.665883 0.943000 0.294013
Si Si8 0.833571 0.220093 0.923294
O O1 0.261673 0.079697 0.888991
O O2 0.228073 0.075137 0.762786
O O3 0.000000 0.071119 0.838275
O O4 0.192473 0.000000 0.838134
O O5 0.500000 0.870266 0.909550
O O6 0.249955 0.826991 0.898745
O O7 0.297950 0.882366 0.000000
O O8 0.500000 0.313344 0.103250
O O9 0.750071 0.359889 0.103190
O O10 0.749692 0.266514 0.103940
O O11 0.666804 0.312926 0.000000
O O12 0.749974 0.453298 0.103304
O O13 0.000000 0.406610 0.103328
O O14 0.833580 0.406675 0.000000
O O15 0.276385 0.920708 0.500000
O O16 0.500000 0.948671 0.571671
O O17 0.274050 0.922541 0.636338
O O18 0.261067 0.000000 0.565337
O O19 0.500000 0.500000 0.103309
O O20 0.666496 0.500000 0.000000
O O21 0.500000 0.924796 0.279537
O O22 0.666487 0.000000 0.298182
O O23 0.000000 0.219818 0.896512
O O24 0.833118 0.221587 0.000000
#
# Coordination Sequence:
#
# PCOD8196410 Si02
#       8
#     8   8   8   8   8   4   8   8
#     4  10  20  31  41  52  66  83 100 118 142 174
#     4  10  20  32  44  55  64  74  91 117 148 181
#     4   9  15  22  32  45  59  73  89 108 130 158
#     4   9  15  21  28  38  52  70  91 112 133 157
#     4   7   9  14  27  48  69  85 102 123 142 157
#     4   9  15  21  27  35  49  69  91 113 135 157
#     4   8  13  22  36  51  66  84 104 123 140 160
#     4   9  16  26  39  52  64  75  86 104 134 171
#
# _framework density 11.371855
#
# number of rings (size 3 to 8) (size 9 to 14) (size 15 to 20)
#    0.000    3.133    0.000    3.400    0.000    7.467 
#    0.000    1.333    0.000    0.400    0.000    2.800 
#    0.000    0.000    0.000    0.000    0.000    0.000 
#
# Total GULP energy -743433.598148 kJ/mol
# GULP energy per Si atom -12390.559969 kJ/mol
# Density = 1.134597 g / cm^3
# Si number density = 11.371855 Si / 1000 Ang^3
#
#
#
# Elastic Constant Matrix: (Units=GPa)
#
#
# Indices 1 2 3 4 5 6 
#
# 1 89.9134 36.5199 27.7863 0.0000 0.0000 0.0000
# 2 36.5199 52.0840 23.4807 0.0000 0.0000 0.0000
# 3 27.7863 23.4807 38.8696 0.0000 0.0000 0.0000
# 4 0.0000 0.0000 0.0000 0.2296 0.0000 0.0000
# 5 0.0000 0.0000 0.0000 0.0000 5.8828 0.0000
# 6 0.0000 0.0000 0.0000 0.0000 0.0000 20.9213
#
#
#
# Elastic Compliance Matrix: (Units=1/GPa)
#
#
# Indices 1 2 3 4 5 6 
#
# 1 0.016730 -0.008711 -0.006697 0.000000 0.000000 0.000000
# 2 -0.008711 0.030921 -0.012452 0.000000 0.000000 0.000000
# 3 -0.006697 -0.012452 0.038037 0.000000 0.000000 0.000000
# 4 0.000000 0.000000 0.000000 4.355038 0.000000 0.000000
# 5 0.000000 0.000000 0.000000 0.000000 0.169987 0.000000
# 6 0.000000 0.000000 0.000000 0.000000 0.000000 0.047798
#
#
# Mechanical properties :
#
#
# Convention : Reuss Voigt Hill
#
# Bulk Modulus (GPa) = 33.36977 39.60453 36.48715
# Shear Modulus (GPa) = 1.05838 11.61209 6.33523
#
# Velocity S-wave (km/s) = 0.96577 3.19897 2.36285
# Velocity P-wave (km/s) = 5.53638 6.96757 6.29279
#
# Compressibility (1/GPa) = 0.02996724
#
# Stress axis : x y z
#
# Youngs Moduli (GPa) = 59.77423 32.34000 26.29043
#
# Poissons Ratio (x) = 0.28172 0.17607
# Poissons Ratio (y) = 0.52070 0.32737
# Poissons Ratio (z) = 0.40031 0.40270
#
# Static dielectric constant tensor:
#      x y z
#    x 2.508670 0.000000 0.000000 
#    y 0.000000 2.303890 0.000000 
#    z 0.000000 0.000000 2.252040 
# 
# 
# High freq. dielectric constant tensor:
#      x y z
#    x 1.440120 0.000000 0.000000 
#    y 0.000000 1.405790 0.000000 
#    z 0.000000 0.000000 1.377050 
# 
# From -- ./inp_files/13534.got.cif
#   From: 2010.03.12/outbox.cif.g09.slc.cpg/sg47_7_cif.got.tgz:13534.got - 2010.04.14 03:12:58.
