data_PCOD8196189
_publ_section_title
;
Structure prediction by ZEFSAII (Michael W. Deem and Ramdas Pophale) SiO2 
 PCOD8196189
Probable space group: P M M M
;
_chemical_formula_sum "Si O2"
_cell_formula_units_Z 56
_cell_length_a 23.536022
_cell_length_b 8.762070
_cell_length_c 14.615720
_cell_angle_alpha 90.000000
_cell_angle_beta 90.000000
_cell_angle_gamma 90.000000
_cell_volume 3014.116221
_symmetry_space_group_name_H-M "P M M M"
_symmetry_group_IT_number 47
_symmetry_cell_setting 'orthorhombic'
loop_
_space_group_symop_operation_xyz
x,y,z
-x,-y,z
x,-y,-z
-x,y,-z
-x,-y,-z
x,y,-z
-x,y,z
x,-y,z
loop_
_atom_site_type_symbol
_atom_site_label
_atom_site_fract_x
_atom_site_fract_y
_atom_site_fract_z
Si Si1 0.565775 0.178142 0.102927
Si Si2 0.343915 0.322877 0.767181
Si Si3 0.146600 0.678989 0.849718
Si Si4 0.720883 0.820358 0.603412
Si Si5 0.064910 0.819806 0.500000
Si Si6 0.060907 0.679521 0.000000
Si Si7 0.740073 0.171913 0.897236
Si Si8 0.848962 0.180823 0.342900
O O1 0.500000 0.211679 0.121493
O O2 0.599641 0.255975 0.185768
O O3 0.579474 0.000000 0.106951
O O4 0.581983 0.237822 0.000000
O O5 0.353556 0.500000 0.752053
O O6 0.326930 0.252264 0.669189
O O7 0.292541 0.292796 0.835873
O O8 0.161068 0.500000 0.858492
O O9 0.091944 0.728092 0.907188
O O10 0.195195 0.780048 0.895374
O O11 0.135379 0.724791 0.746264
O O12 0.707056 0.767891 0.500000
O O13 0.785554 0.769676 0.626016
O O14 0.715836 0.000000 0.613635
O O15 0.102149 0.766938 0.413275
O O16 0.000000 0.750996 0.500000
O O17 0.059913 0.000000 0.500000
O O18 0.053861 0.500000 0.000000
O O19 0.000000 0.761963 0.000000
O O20 0.732972 0.000000 0.857524
O O21 0.716112 0.177640 0.000000
O O22 0.850776 0.000000 0.325769
#
# Coordination Sequence:
#
# PCOD8196189 Si02
#       8
#     8   8   8   8   4   4   8   8
#     4   9  19  38  63  89 120 161 204 240 277 327
#     4  12  24  35  54  87 122 153 189 234 285 338
#     4  11  21  34  54  79 104 137 179 224 277 337
#     4  10  20  36  58  81 108 149 195 236 283 345
#     4   9  18  34  57  83 109 139 180 231 286 343
#     4   9  20  38  55  71 101 145 184 219 270 343
#     4  11  22  35  53  77 109 146 183 228 280 332
#     4  10  19  34  56  80 106 140 178 224 285 344
#
# _framework density 18.579243999999999
#
# number of rings (size 3 to 8) (size 9 to 14) (size 15 to 20)
#    0.000    1.714    2.857    3.000    0.000    4.000 
#    0.000    1.071    0.000    3.857    0.000    3.000 
#    0.000    0.000    0.000    0.000    0.000    0.000 
#
# Total GULP energy -694177.363597 kJ/mol
# GULP energy per Si atom -12396.024350 kJ/mol
# Density = 1.853696 g / cm^3
# Si number density = 18.579244 Si / 1000 Ang^3
#
#
#
# Elastic Constant Matrix: (Units=GPa)
#
#
# Indices 1 2 3 4 5 6 
#
# 1 117.0659 37.0108 67.0922 0.0000 0.0000 0.0000
# 2 37.0108 49.5343 46.0079 0.0000 0.0000 0.0000
# 3 67.0922 46.0079 157.3646 0.0000 0.0000 0.0000
# 4 0.0000 0.0000 0.0000 19.3746 0.0000 0.0000
# 5 0.0000 0.0000 0.0000 0.0000 28.6476 0.0000
# 6 0.0000 0.0000 0.0000 0.0000 0.0000 18.8673
#
#
#
# Elastic Compliance Matrix: (Units=1/GPa)
#
#
# Indices 1 2 3 4 5 6 
#
# 1 0.012488 -0.006020 -0.003564 0.000000 0.000000 0.000000
# 2 -0.006020 0.030616 -0.006384 0.000000 0.000000 0.000000
# 3 -0.003564 -0.006384 0.009741 0.000000 0.000000 0.000000
# 4 0.000000 0.000000 0.000000 0.051614 0.000000 0.000000
# 5 0.000000 0.000000 0.000000 0.000000 0.034907 0.000000
# 6 0.000000 0.000000 0.000000 0.000000 0.000000 0.053002
#
#
# Mechanical properties :
#
#
# Convention : Reuss Voigt Hill
#
# Bulk Modulus (GPa) = 47.83004 69.35405 58.59204
# Shear Modulus (GPa) = 21.61930 24.96817 23.29374
#
# Velocity S-wave (km/s) = 3.41490 3.66987 3.54468
# Velocity P-wave (km/s) = 6.43027 7.44090 6.95397
#
# Compressibility (1/GPa) = 0.02090736
#
# Stress axis : x y z
#
# Youngs Moduli (GPa) = 80.07510 32.66252 102.66107
#
# Poissons Ratio (x) = 0.19664 0.36590
# Poissons Ratio (y) = 0.48209 0.65541
# Poissons Ratio (z) = 0.28540 0.20853
#
# Static dielectric constant tensor:
#      x y z
#    x 3.570810 0.000000 0.000000 
#    y 0.000000 3.195970 0.000000 
#    z 0.000000 0.000000 3.528170 
# 
# 
# High freq. dielectric constant tensor:
#      x y z
#    x 1.714960 0.000000 0.000000 
#    y 0.000000 1.703560 0.000000 
#    z 0.000000 0.000000 1.727990 
# 
# From -- ./inp_files/25179.got.cif
#   From: 2010.03.12/outbox.cif.g09.slc.cpg/sg47_13_cif.got.tgz:25179.got - 2010.04.14 03:12:58.
