data_PCOD8196088
_publ_section_title
;
Structure prediction by ZEFSAII (Michael W. Deem and Ramdas Pophale) SiO2 
 PCOD8196088
Probable space group: P M M M
;
_chemical_formula_sum "Si O2"
_cell_formula_units_Z 48
_cell_length_a 18.880196
_cell_length_b 15.191048
_cell_length_c 8.922773
_cell_angle_alpha 90.000000
_cell_angle_beta 90.000000
_cell_angle_gamma 90.000000
_cell_volume 2559.140200
_symmetry_space_group_name_H-M "P M M M"
_symmetry_group_IT_number 47
_symmetry_cell_setting 'orthorhombic'
loop_
_space_group_symop_operation_xyz
x,y,z
-x,-y,z
x,-y,-z
-x,y,-z
-x,-y,-z
x,y,-z
-x,y,z
x,-y,z
loop_
_atom_site_type_symbol
_atom_site_label
_atom_site_fract_x
_atom_site_fract_y
_atom_site_fract_z
Si Si1 0.671156 0.351256 0.324016
Si Si2 0.828297 0.837621 0.324697
Si Si3 0.920434 0.000000 0.321812
Si Si4 0.583500 0.500000 0.172712
Si Si5 0.579517 0.000000 0.823619
Si Si6 0.333741 0.149662 0.671325
Si Si7 0.078981 0.500000 0.822535
Si Si8 0.820382 0.344403 0.177447
O O1 0.676741 0.369365 0.500000
O O2 0.612251 0.412764 0.251798
O O3 0.648595 0.250901 0.291220
O O4 0.746895 0.372715 0.252656
O O5 0.838854 0.816504 0.500000
O O6 0.880465 0.913116 0.264283
O O7 0.748446 0.869628 0.294754
O O8 0.846378 0.750820 0.231321
O O9 0.919789 0.000000 0.500000
O O10 0.000000 0.000000 0.257523
O O11 0.500000 0.500000 0.191391
O O12 0.606983 0.500000 0.000000
O O13 0.618766 0.088164 0.773417
O O14 0.500000 0.000000 0.757572
O O15 0.577727 0.000000 0.000000
O O16 0.351410 0.127265 0.500000
O O17 0.120396 0.413275 0.768568
O O18 0.000000 0.500000 0.752216
O O19 0.073944 0.500000 0.000000
O O20 0.809746 0.344829 0.000000
#
# Coordination Sequence:
#
# PCOD8196088 Si02
#       8
#     8   8   4   4   4   8   4   8
#     4  10  21  38  60  83 108 140 181 227 269 314
#     4   9  18  34  54  77 105 135 174 221 264 311
#     4   9  17  30  51  77 106 143 180 216 266 325
#     4  11  24  39  56  82 116 149 178 215 266 320
#     4  11  24  37  51  77 110 139 168 212 268 317
#     4   9  19  36  57  78 101 137 180 219 260 308
#     4   9  19  34  50  72 106 145 178 209 254 316
#     4  10  19  33  56  81 104 136 179 223 269 319
#
# _framework density 18.756298999999999
#
# number of rings (size 3 to 8) (size 9 to 14) (size 15 to 20)
#    0.000    2.333    0.000    3.500    0.000    8.000 
#    0.000    5.000    0.000    4.000    0.000    0.000 
#    0.000    0.000    0.000    0.000    0.000    0.000 
#
# Total GULP energy -595310.358027 kJ/mol
# GULP energy per Si atom -12402.299126 kJ/mol
# Density = 1.871361 g / cm^3
# Si number density = 18.756299 Si / 1000 Ang^3
#
#
#
# Elastic Constant Matrix: (Units=GPa)
#
#
# Indices 1 2 3 4 5 6 
#
# 1 127.1286 89.8615 53.2357 0.0000 0.0000 0.0000
# 2 89.8615 137.6547 55.3169 0.0000 0.0000 0.0000
# 3 53.2357 55.3169 81.4931 0.0000 0.0000 0.0000
# 4 0.0000 0.0000 0.0000 29.6145 0.0000 0.0000
# 5 0.0000 0.0000 0.0000 0.0000 22.4907 0.0000
# 6 0.0000 0.0000 0.0000 0.0000 0.0000 10.7198
#
#
#
# Elastic Compliance Matrix: (Units=1/GPa)
#
#
# Indices 1 2 3 4 5 6 
#
# 1 0.015743 -0.008449 -0.004549 0.000000 0.000000 0.000000
# 2 -0.008449 0.014524 -0.004339 0.000000 0.000000 0.000000
# 3 -0.004549 -0.004339 0.018188 0.000000 0.000000 0.000000
# 4 0.000000 0.000000 0.000000 0.033767 0.000000 0.000000
# 5 0.000000 0.000000 0.000000 0.000000 0.044463 0.000000
# 6 0.000000 0.000000 0.000000 0.000000 0.000000 0.093286
#
#
# Mechanical properties :
#
#
# Convention : Reuss Voigt Hill
#
# Bulk Modulus (GPa) = 72.56768 82.56719 77.56744
# Shear Modulus (GPa) = 19.28714 22.42250 20.85482
#
# Velocity S-wave (km/s) = 3.21019 3.46130 3.33811
# Velocity P-wave (km/s) = 7.24667 7.75182 7.50350
#
# Compressibility (1/GPa) = 0.01378024
#
# Stress axis : x y z
#
# Youngs Moduli (GPa) = 63.51849 68.85144 54.98073
#
# Poissons Ratio (x) = 0.58175 0.25012
# Poissons Ratio (y) = 0.53669 0.23858
# Poissons Ratio (z) = 0.28896 0.29876
#
# Static dielectric constant tensor:
#      x y z
#    x 3.524850 0.000000 0.000000 
#    y 0.000000 3.604760 0.000000 
#    z 0.000000 0.000000 3.309340 
# 
# 
# High freq. dielectric constant tensor:
#      x y z
#    x 1.726840 0.000000 0.000000 
#    y 0.000000 1.742260 0.000000 
#    z 0.000000 0.000000 1.716160 
# 
# From -- ./inp_files/9305.got.cif
#   From: 2010.03.12/outbox.cif.g09.slc.cpg/sg47_5_cif.got.tgz:9305.got - 2010.04.14 03:12:58.
