data_PCOD8196917
_publ_section_title
;
Structure prediction by ZEFSAII (Michael W. Deem and Ramdas Pophale) SiO2 
 PCOD8196917
Probable space group: P M M M
;
_chemical_formula_sum "Si O2"
_cell_formula_units_Z 48
_cell_length_a 18.709070
_cell_length_b 9.346867
_cell_length_c 13.657520
_cell_angle_alpha 90.000000
_cell_angle_beta 90.000000
_cell_angle_gamma 90.000000
_cell_volume 2388.306761
_symmetry_space_group_name_H-M "P M M M"
_symmetry_group_IT_number 47
_symmetry_cell_setting 'orthorhombic'
loop_
_space_group_symop_operation_xyz
x,y,z
-x,-y,z
x,-y,-z
-x,y,-z
-x,-y,-z
x,y,-z
-x,y,z
x,-y,z
loop_
_atom_site_type_symbol
_atom_site_label
_atom_site_fract_x
_atom_site_fract_y
_atom_site_fract_z
Si Si1 0.916974 0.844378 0.394040
Si Si2 0.081374 0.332988 0.211501
Si Si3 0.292631 0.163869 0.389594
Si Si4 0.342226 0.337326 0.109337
Si Si5 0.214738 0.833695 0.192525
Si Si6 0.420147 0.666407 0.302111
O O1 0.881633 0.812148 0.500000
O O2 0.904188 0.710416 0.323796
O O3 0.000000 0.866039 0.408229
O O4 0.886341 0.000000 0.354012
O O5 0.095801 0.500000 0.197404
O O6 0.140928 0.240579 0.154603
O O7 0.000000 0.294040 0.178477
O O8 0.264696 0.196786 0.500000
O O9 0.230595 0.198182 0.309058
O O10 0.363795 0.254304 0.370614
O O11 0.315813 0.000000 0.378407
O O12 0.314425 0.500000 0.122287
O O13 0.276831 0.231094 0.126762
O O14 0.404494 0.304758 0.187208
O O15 0.372747 0.312372 0.000000
O O16 0.209602 0.000000 0.169142
O O17 0.500000 0.723061 0.324118
O O18 0.414154 0.500000 0.327037
#
# Coordination Sequence:
#
# PCOD8196917 Si02
#       6
#     8   8   8   8   8   8
#     4   8  14  25  40  58  83 117 156 196 239 290
#     4  10  20  32  47  69  97 128 163 207 261 317
#     4   9  19  35  52  71  99 139 184 221 253 294
#     4   9  18  34  56  79 104 136 170 205 252 309
#     4  10  20  34  53  75 100 132 172 218 262 307
#     4   9  18  32  51  79 112 140 170 210 252 297
#
# _framework density 20.097920999999999
#
# number of rings (size 3 to 8) (size 9 to 14) (size 15 to 20)
#    0.000    2.833    0.000    1.500    0.000    4.333 
#    0.000    6.667    0.000    0.500    0.000    8.167 
#    0.000    0.000    0.000    0.000    0.000    0.000 
#
# Total GULP energy -594721.663252 kJ/mol
# GULP energy per Si atom -12390.034651 kJ/mol
# Density = 2.005218 g / cm^3
# Si number density = 20.097921 Si / 1000 Ang^3
#
#
#
# Elastic Constant Matrix: (Units=GPa)
#
#
# Indices 1 2 3 4 5 6 
#
# 1 114.9973 49.9416 -3.4803 0.0000 0.0000 0.0000
# 2 49.9416 80.1343 5.9733 0.0000 0.0000 0.0000
# 3 -3.4803 5.9733 46.9479 0.0000 0.0000 0.0000
# 4 0.0000 0.0000 0.0000 20.4767 0.0000 0.0000
# 5 0.0000 0.0000 0.0000 0.0000 9.2008 0.0000
# 6 0.0000 0.0000 0.0000 0.0000 0.0000 25.2797
#
#
#
# Elastic Compliance Matrix: (Units=1/GPa)
#
#
# Indices 1 2 3 4 5 6 
#
# 1 0.012084 -0.007670 0.001872 0.000000 0.000000 0.000000
# 2 -0.007670 0.017467 -0.002791 0.000000 0.000000 0.000000
# 3 0.001872 -0.002791 0.021794 0.000000 0.000000 0.000000
# 4 0.000000 0.000000 0.000000 0.048836 0.000000 0.000000
# 5 0.000000 0.000000 0.000000 0.000000 0.108686 0.000000
# 6 0.000000 0.000000 0.000000 0.000000 0.000000 0.039557
#
#
# Mechanical properties :
#
#
# Convention : Reuss Voigt Hill
#
# Bulk Modulus (GPa) = 29.26904 38.54984 33.90944
# Shear Modulus (GPa) = 18.05106 23.63445 20.84276
#
# Velocity S-wave (km/s) = 3.00018 3.43296 3.22384
# Velocity P-wave (km/s) = 5.15715 5.91069 5.54673
#
# Compressibility (1/GPa) = 0.03416580
#
# Stress axis : x y z
#
# Youngs Moduli (GPa) = 82.75680 57.24944 45.88405
#
# Poissons Ratio (x) = 0.43912 -0.08588
# Poissons Ratio (y) = 0.63477 0.12806
# Poissons Ratio (z) = -0.15489 0.15978
#
# Static dielectric constant tensor:
#      x y z
#    x 3.725580 0.000000 0.000000 
#    y 0.000000 3.586780 0.000000 
#    z 0.000000 0.000000 3.528450 
# 
# 
# High freq. dielectric constant tensor:
#      x y z
#    x 1.786460 0.000000 0.000000 
#    y 0.000000 1.778140 0.000000 
#    z 0.000000 0.000000 1.758600 
# 
# From -- ./inp_files/6845.got.cif
#   From: 2010.03.12/outbox.cif.g09.slc.cpg/sg47_4_cif.got.tgz:6845.got - 2010.04.14 03:12:58.
