data_PCOD8196501
_publ_section_title
;
Structure prediction by ZEFSAII (Michael W. Deem and Ramdas Pophale) SiO2 
 PCOD8196501
Probable space group: P M M M
;
_chemical_formula_sum "Si O2"
_cell_formula_units_Z 44
_cell_length_a 9.311521
_cell_length_b 12.111491
_cell_length_c 25.623839
_cell_angle_alpha 90.000000
_cell_angle_beta 90.000000
_cell_angle_gamma 90.000000
_cell_volume 2889.764388
_symmetry_space_group_name_H-M "P M M M"
_symmetry_group_IT_number 47
_symmetry_cell_setting 'orthorhombic'
loop_
_space_group_symop_operation_xyz
x,y,z
-x,-y,z
x,-y,-z
-x,y,-z
-x,-y,-z
x,y,-z
-x,y,z
x,-y,z
loop_
_atom_site_type_symbol
_atom_site_label
_atom_site_fract_x
_atom_site_fract_y
_atom_site_fract_z
Si Si1 0.163283 0.000000 0.938008
Si Si2 0.666499 0.214834 0.938340
Si Si3 0.164594 0.631027 0.865789
Si Si4 0.661567 0.368848 0.232880
Si Si5 0.161077 0.368717 0.443052
Si Si6 0.338954 0.631260 0.652391
O O1 0.249585 0.106775 0.917868
O O2 0.000000 0.000000 0.915977
O O3 0.160234 0.000000 0.000000
O O4 0.500000 0.206599 0.921681
O O5 0.741389 0.320823 0.912844
O O6 0.681111 0.228418 0.000000
O O7 0.175739 0.500000 0.869769
O O8 0.229555 0.675621 0.811039
O O9 0.000000 0.670746 0.869944
O O10 0.500000 0.323959 0.222348
O O11 0.657395 0.500000 0.231385
O O12 0.716809 0.330236 0.290311
O O13 0.224920 0.333991 0.500000
O O14 0.162720 0.500000 0.438718
O O15 0.248366 0.315441 0.394925
O O16 0.000000 0.323831 0.438339
O O17 0.500000 0.673756 0.644909
O O18 0.332542 0.500000 0.649125
#
# Coordination Sequence:
#
# PCOD8196501 Si02
#       6
#     4   8   8   8   8   8
#     4   9  17  31  51  71  89 107 129 161 198 233
#     4  10  20  33  49  67  86 109 136 164 197 240
#     4  10  20  31  43  61  84 109 137 169 205 243
#     4   8  14  25  38  50  67  92 122 156 193 233
#     4   8  13  19  25  35  53  76 102 136 180 225
#     4   8  13  20  30  43  57  77 108 145 184 224
#
# _framework density 15.226156
#
# number of rings (size 3 to 8) (size 9 to 14) (size 15 to 20)
#    0.000    3.182    0.000    3.000    0.000    4.727 
#    0.000    7.273    0.000    0.000    0.000    0.000 
#    0.000    0.000    0.000    0.000    0.000    0.000 
#
# Total GULP energy -545216.757501 kJ/mol
# GULP energy per Si atom -12391.289943 kJ/mol
# Density = 1.519150 g / cm^3
# Si number density = 15.226156 Si / 1000 Ang^3
#
#
#
# Elastic Constant Matrix: (Units=GPa)
#
#
# Indices 1 2 3 4 5 6 
#
# 1 113.1575 24.9688 60.2813 0.0000 0.0000 0.0000
# 2 24.9688 21.7513 22.4196 0.0000 0.0000 0.0000
# 3 60.2813 22.4196 88.1902 0.0000 0.0000 0.0000
# 4 0.0000 0.0000 0.0000 0.9456 0.0000 0.0000
# 5 0.0000 0.0000 0.0000 0.0000 30.5399 0.0000
# 6 0.0000 0.0000 0.0000 0.0000 0.0000 16.6165
#
#
#
# Elastic Compliance Matrix: (Units=1/GPa)
#
#
# Indices 1 2 3 4 5 6 
#
# 1 0.015115 -0.009081 -0.008023 0.000000 0.000000 0.000000
# 2 -0.009081 0.067754 -0.011017 0.000000 0.000000 0.000000
# 3 -0.008023 -0.011017 0.019624 0.000000 0.000000 0.000000
# 4 0.000000 0.000000 0.000000 1.057496 0.000000 0.000000
# 5 0.000000 0.000000 0.000000 0.000000 0.032744 0.000000
# 6 0.000000 0.000000 0.000000 0.000000 0.000000 0.060181
#
#
# Mechanical properties :
#
#
# Convention : Reuss Voigt Hill
#
# Bulk Modulus (GPa) = 21.62136 48.71536 35.16836
# Shear Modulus (GPa) = 3.77480 17.31570 10.54525
#
# Velocity S-wave (km/s) = 1.57624 3.37595 2.63454
# Velocity P-wave (km/s) = 4.18852 6.87459 5.69226
#
# Compressibility (1/GPa) = 0.04625055
#
# Stress axis : x y z
#
# Youngs Moduli (GPa) = 66.15862 14.75921 50.95810
#
# Poissons Ratio (x) = 0.13403 0.40884
# Poissons Ratio (y) = 0.60081 0.56140
# Poissons Ratio (z) = 0.53080 0.16260
#
# Static dielectric constant tensor:
#      x y z
#    x 3.166780 0.000000 0.000000 
#    y 0.000000 2.354880 0.000000 
#    z 0.000000 0.000000 3.235900 
# 
# 
# High freq. dielectric constant tensor:
#      x y z
#    x 1.593540 0.000000 0.000000 
#    y 0.000000 1.504470 0.000000 
#    z 0.000000 0.000000 1.588990 
# 
# From -- ./inp_files/13186.got.cif
#   From: 2010.03.12/outbox.cif.g09.slc.cpg/sg47_7_cif.got.tgz:13186.got - 2010.04.14 03:12:58.
