data_PCOD8196936
_publ_section_title
;
Structure prediction by ZEFSAII (Michael W. Deem and Ramdas Pophale) SiO2 
 PCOD8196936
Probable space group: P M M M
;
_chemical_formula_sum "Si O2"
_cell_formula_units_Z 52
_cell_length_a 23.550273
_cell_length_b 9.138906
_cell_length_c 13.693478
_cell_angle_alpha 90.000000
_cell_angle_beta 90.000000
_cell_angle_gamma 90.000000
_cell_volume 2947.161429
_symmetry_space_group_name_H-M "P M M M"
_symmetry_group_IT_number 47
_symmetry_cell_setting 'orthorhombic'
loop_
_space_group_symop_operation_xyz
x,y,z
-x,-y,z
x,-y,-z
-x,y,-z
-x,-y,-z
x,y,-z
-x,y,z
x,-y,z
loop_
_atom_site_type_symbol
_atom_site_label
_atom_site_fract_x
_atom_site_fract_y
_atom_site_fract_z
Si Si1 0.062553 0.664161 0.115999
Si Si2 0.828769 0.833499 0.884067
Si Si3 0.612223 0.833359 0.884352
Si Si4 0.500000 0.668354 0.116841
Si Si5 0.561126 0.165442 0.616007
Si Si6 0.331131 0.332466 0.608240
Si Si7 0.721295 0.670002 0.803610
O O1 0.075351 0.500000 0.153982
O O2 0.110719 0.774008 0.155283
O O3 0.000000 0.715199 0.152929
O O4 0.063097 0.664461 0.000000
O O5 0.780182 0.735837 0.837754
O O6 0.821961 0.000000 0.849052
O O7 0.824577 0.820966 0.000000
O O8 0.556265 0.751107 0.842032
O O9 0.669404 0.751594 0.854295
O O10 0.613010 0.000000 0.844766
O O11 0.609292 0.833121 0.000000
O O12 0.500000 0.500000 0.152957
O O13 0.500000 0.673981 0.000000
O O14 0.563511 0.174092 0.500000
O O15 0.500000 0.229040 0.651824
O O16 0.614059 0.255463 0.657594
O O17 0.567553 0.000000 0.652252
O O18 0.314566 0.270305 0.500000
O O19 0.348124 0.500000 0.597779
O O20 0.280450 0.310174 0.685481
O O21 0.718373 0.500000 0.833285
#
# Coordination Sequence:
#
# PCOD8196936 Si02
#       7
#     8   8   8   4   8   8   8
#     4   8  14  26  45  69  98 133 169 199 227 264
#     4  10  20  32  47  70 101 134 165 199 236 273
#     4  10  20  34  51  70  93 120 151 190 235 281
#     4   9  17  31  51  71  90 115 150 191 233 278
#     4   8  14  26  45  67  87 107 134 171 220 280
#     4   9  19  35  51  67  88 115 149 191 239 287
#     4  11  22  34  49  69  92 123 160 197 238 285
#
# _framework density 17.644096999999999
#
# number of rings (size 3 to 8) (size 9 to 14) (size 15 to 20)
#    0.000    2.692    0.000    3.000    0.000    6.462 
#    1.385    3.077    0.000    0.000    0.000    0.000 
#    0.000    0.615    0.000    7.077    0.000    2.308 
#
# Total GULP energy -644529.038752 kJ/mol
# GULP energy per Si atom -12394.789207 kJ/mol
# Density = 1.760394 g / cm^3
# Si number density = 17.644097 Si / 1000 Ang^3
#
#
#
# Elastic Constant Matrix: (Units=GPa)
#
#
# Indices 1 2 3 4 5 6 
#
# 1 133.3516 68.3109 27.1471 0.0000 0.0000 0.0000
# 2 68.3109 118.4305 19.8377 0.0000 0.0000 0.0000
# 3 27.1471 19.8377 21.2903 0.0000 0.0000 0.0000
# 4 0.0000 0.0000 0.0000 9.0362 0.0000 0.0000
# 5 0.0000 0.0000 0.0000 0.0000 12.5575 0.0000
# 6 0.0000 0.0000 0.0000 0.0000 0.0000 -1.0321
#
#
#
# Elastic Compliance Matrix: (Units=1/GPa)
#
#
# Indices 1 2 3 4 5 6 
#
# 1 0.012465 -0.005365 -0.010895 0.000000 0.000000 0.000000
# 2 -0.005365 0.012314 -0.004633 0.000000 0.000000 0.000000
# 3 -0.010895 -0.004633 0.065180 0.000000 0.000000 0.000000
# 4 0.000000 0.000000 0.000000 0.110666 0.000000 0.000000
# 5 0.000000 0.000000 0.000000 0.000000 0.079634 0.000000
# 6 0.000000 0.000000 0.000000 0.000000 0.000000 -0.968934
#
#
# Mechanical properties :
#
#
# Convention : Reuss Voigt Hill
#
# Bulk Modulus (GPa) = 20.75906 55.96266 38.36086
# Shear Modulus (GPa) = -7.92606 14.63076 3.35235
#
# Velocity S-wave (km/s) = -2.12178 2.88273 1.37989
# Velocity P-wave (km/s) = 2.40591 6.54726 4.93229
#
# Compressibility (1/GPa) = 0.04817173
#
# Stress axis : x y z
#
# Youngs Moduli (GPa) = 80.22276 81.20573 15.34220
#
# Poissons Ratio (x) = 0.43566 0.16716
# Poissons Ratio (y) = 0.43039 0.07109
# Poissons Ratio (z) = 0.87407 0.37626
#
# Static dielectric constant tensor:
#      x y z
#    x 3.507430 0.000000 0.000000 
#    y 0.000000 3.469160 0.000000 
#    z 0.000000 0.000000 3.126970 
# 
# 
# High freq. dielectric constant tensor:
#      x y z
#    x 1.670580 0.000000 0.000000 
#    y 0.000000 1.689980 0.000000 
#    z 0.000000 0.000000 1.654780 
# 
# From -- ./inp_files/6956.got.cif
#   From: 2010.03.12/outbox.cif.g09.slc.cpg/sg47_4_cif.got.tgz:6956.got - 2010.04.14 03:12:58.
