data_PCOD8196249
_publ_section_title
;
Structure prediction by ZEFSAII (Michael W. Deem and Ramdas Pophale) SiO2 
 PCOD8196249
Probable space group: P M M M
;
_chemical_formula_sum "Si O2"
_cell_formula_units_Z 48
_cell_length_a 19.461136
_cell_length_b 13.779558
_cell_length_c 8.410513
_cell_angle_alpha 90.000000
_cell_angle_beta 90.000000
_cell_angle_gamma 90.000000
_cell_volume 2255.412387
_symmetry_space_group_name_H-M "P M M M"
_symmetry_group_IT_number 47
_symmetry_cell_setting 'orthorhombic'
loop_
_space_group_symop_operation_xyz
x,y,z
-x,-y,z
x,-y,-z
-x,y,-z
-x,-y,-z
x,y,-z
-x,y,z
x,-y,z
loop_
_atom_site_type_symbol
_atom_site_label
_atom_site_fract_x
_atom_site_fract_y
_atom_site_fract_z
Si Si1 0.126011 0.000000 0.681947
Si Si2 0.642929 0.842931 0.320034
Si Si3 0.312613 0.346348 0.814223
Si Si4 0.500000 0.113919 0.813659
Si Si5 0.922223 0.209454 0.311475
Si Si6 0.731696 0.000000 0.823385
Si Si7 0.168842 0.607754 0.685757
Si Si8 0.423551 0.500000 0.186772
O O1 0.099219 0.897601 0.758941
O O2 0.102493 0.000000 0.500000
O O3 0.207972 0.000000 0.694780
O O4 0.647512 0.881991 0.500000
O O5 0.682991 0.743051 0.304962
O O6 0.564562 0.833960 0.265759
O O7 0.682118 0.910018 0.197029
O O8 0.240163 0.397427 0.781276
O O9 0.378531 0.408385 0.761613
O O10 0.317105 0.318385 0.000000
O O11 0.500000 0.000000 0.773968
O O12 0.500000 0.134484 0.000000
O O13 0.915151 0.205129 0.500000
O O14 0.877099 0.301387 0.248350
O O15 0.000000 0.230060 0.257574
O O16 0.763719 0.000000 0.000000
O O17 0.183143 0.624088 0.500000
O O18 0.134138 0.500000 0.711630
O O19 0.500000 0.500000 0.266715
O O20 0.433038 0.500000 0.000000
#
# Coordination Sequence:
#
# PCOD8196249 Si02
#       8
#     4   8   8   4   8   4   8   4
#     4  10  19  34  59  87 118 155 196 249 306 357
#     4  12  25  40  60  87 120 156 199 253 309 362
#     4  11  22  39  63  88 117 157 203 253 307 371
#     4  11  23  41  63  86 118 161 206 252 305 370
#     4   9  18  33  56  87 119 155 202 251 303 364
#     4  12  24  40  60  87 118 157 203 245 290 357
#     4  10  20  35  57  85 120 159 201 257 315 369
#     4   9  20  38  59  85 112 149 199 251 302 354
#
# _framework density 21.282136999999999
#
# number of rings (size 3 to 8) (size 9 to 14) (size 15 to 20)
#    0.000    1.500    1.667    4.250    1.167    3.000 
#    0.000    1.667    0.000    4.500    0.000    1.167 
#    0.000    0.000    0.000    0.000    0.000    0.000 
#
# Total GULP energy -594900.418248 kJ/mol
# GULP energy per Si atom -12393.758714 kJ/mol
# Density = 2.123370 g / cm^3
# Si number density = 21.282137 Si / 1000 Ang^3
#
#
#
# Elastic Constant Matrix: (Units=GPa)
#
#
# Indices 1 2 3 4 5 6 
#
# 1 143.8050 63.2459 9.6464 0.0000 0.0000 0.0000
# 2 63.2459 164.8156 19.1695 0.0000 0.0000 0.0000
# 3 9.6464 19.1695 55.7536 0.0000 0.0000 0.0000
# 4 0.0000 0.0000 0.0000 20.4850 0.0000 0.0000
# 5 0.0000 0.0000 0.0000 0.0000 18.6536 0.0000
# 6 0.0000 0.0000 0.0000 0.0000 0.0000 63.2373
#
#
#
# Elastic Compliance Matrix: (Units=1/GPa)
#
#
# Indices 1 2 3 4 5 6 
#
# 1 0.008373 -0.003171 -0.000358 0.000000 0.000000 0.000000
# 2 -0.003171 0.007521 -0.002037 0.000000 0.000000 0.000000
# 3 -0.000358 -0.002037 0.018699 0.000000 0.000000 0.000000
# 4 0.000000 0.000000 0.000000 0.048816 0.000000 0.000000
# 5 0.000000 0.000000 0.000000 0.000000 0.053609 0.000000
# 6 0.000000 0.000000 0.000000 0.000000 0.000000 0.015813
#
#
# Mechanical properties :
#
#
# Convention : Reuss Voigt Hill
#
# Bulk Modulus (GPa) = 42.62798 60.94420 51.78609
# Shear Modulus (GPa) = 29.10629 38.62934 33.86781
#
# Velocity S-wave (km/s) = 3.70217 4.26503 3.99353
# Velocity P-wave (km/s) = 6.19259 7.27684 6.75650
#
# Compressibility (1/GPa) = 0.02345877
#
# Stress axis : x y z
#
# Youngs Moduli (GPa) = 119.43718 132.95650 53.48018
#
# Poissons Ratio (x) = 0.42163 0.01916
# Poissons Ratio (y) = 0.37876 0.10896
# Poissons Ratio (z) = 0.04279 0.27087
#
# Static dielectric constant tensor:
#      x y z
#    x 3.925570 0.000000 0.000000 
#    y 0.000000 4.028520 0.000000 
#    z 0.000000 0.000000 3.404570 
# 
# 
# High freq. dielectric constant tensor:
#      x y z
#    x 1.835520 0.000000 0.000000 
#    y 0.000000 1.849610 0.000000 
#    z 0.000000 0.000000 1.800370 
# 
# From -- ./inp_files/9294.got.cif
#   From: 2010.03.12/outbox.cif.g09.slc.cpg/sg47_5_cif.got.tgz:9294.got - 2010.04.14 03:12:58.
