data_PCOD8196656
_publ_section_title
;
Structure prediction by ZEFSAII (Michael W. Deem and Ramdas Pophale) SiO2 
 PCOD8196656
Probable space group: P M M M
;
_chemical_formula_sum "Si O2"
_cell_formula_units_Z 44
_cell_length_a 9.504479
_cell_length_b 9.562703
_cell_length_c 28.066738
_cell_angle_alpha 90.000000
_cell_angle_beta 90.000000
_cell_angle_gamma 90.000000
_cell_volume 2550.943993
_symmetry_space_group_name_H-M "P M M M"
_symmetry_group_IT_number 47
_symmetry_cell_setting 'orthorhombic'
loop_
_space_group_symop_operation_xyz
x,y,z
-x,-y,z
x,-y,-z
-x,y,-z
-x,-y,-z
x,y,-z
-x,y,z
x,-y,z
loop_
_atom_site_type_symbol
_atom_site_label
_atom_site_fract_x
_atom_site_fract_y
_atom_site_fract_z
Si Si1 0.338803 0.340237 0.324312
Si Si2 0.834886 0.163672 0.397391
Si Si3 0.836965 0.165132 0.140786
Si Si4 0.836054 0.837365 0.500000
Si Si5 0.657675 0.833958 0.947357
Si Si6 0.338704 0.338685 0.786065
O O1 0.500000 0.307100 0.336462
O O2 0.302886 0.500000 0.336551
O O3 0.241512 0.241658 0.355160
O O4 0.308373 0.309948 0.269174
O O5 0.777494 0.221342 0.449309
O O6 0.000000 0.192729 0.392823
O O7 0.802604 0.000000 0.392587
O O8 0.765817 0.222466 0.092162
O O9 0.765855 0.240005 0.185284
O O10 0.000000 0.205489 0.138885
O O11 0.814482 0.000000 0.146735
O O12 0.000000 0.808293 0.500000
O O13 0.804752 0.000000 0.500000
O O14 0.500000 0.781139 0.935056
O O15 0.659984 0.000000 0.947671
O O16 0.702258 0.778970 0.000000
O O17 0.500000 0.300905 0.798487
O O18 0.308750 0.500000 0.798692
#
# Coordination Sequence:
#
# PCOD8196656 Si02
#       6
#     8   8   8   4   8   8
#     4   9  19  35  51  68  93 124 158 196 238 284
#     4   9  17  30  50  74  97 123 157 195 233 276
#     4  10  20  31  46  73 104 128 153 191 238 284
#     4   7  12  26  46  67  94 126 156 187 226 273
#     4   8  14  26  45  68  94 126 162 195 228 271
#     4   9  19  36  54  68  87 123 166 200 234 281
#
# _framework density 17.248517
#
# number of rings (size 3 to 8) (size 9 to 14) (size 15 to 20)
#    0.000    3.182    0.000    3.273    0.000    4.000 
#    0.000    8.182    0.000    4.909    0.000    3.818 
#    0.000    0.000    0.000    0.000    0.000    0.000 
#
# Total GULP energy -545239.696483 kJ/mol
# GULP energy per Si atom -12391.811284 kJ/mol
# Density = 1.720926 g / cm^3
# Si number density = 17.248517 Si / 1000 Ang^3
#
#
#
# Elastic Constant Matrix: (Units=GPa)
#
#
# Indices 1 2 3 4 5 6 
#
# 1 105.2484 50.3685 81.7125 0.0000 0.0000 0.0000
# 2 50.3685 48.0689 54.9840 0.0000 0.0000 0.0000
# 3 81.7125 54.9840 128.6594 0.0000 0.0000 0.0000
# 4 0.0000 0.0000 0.0000 -6.1736 0.0000 0.0000
# 5 0.0000 0.0000 0.0000 0.0000 28.3123 0.0000
# 6 0.0000 0.0000 0.0000 0.0000 0.0000 26.1149
#
#
#
# Elastic Compliance Matrix: (Units=1/GPa)
#
#
# Indices 1 2 3 4 5 6 
#
# 1 0.022915 -0.014407 -0.008397 0.000000 0.000000 0.000000
# 2 -0.014407 0.049756 -0.012114 0.000000 0.000000 0.000000
# 3 -0.008397 -0.012114 0.018282 0.000000 0.000000 0.000000
# 4 0.000000 0.000000 0.000000 -0.161980 0.000000 0.000000
# 5 0.000000 0.000000 0.000000 0.000000 0.035320 0.000000
# 6 0.000000 0.000000 0.000000 0.000000 0.000000 0.038292
#
#
# Mechanical properties :
#
#
# Convention : Reuss Voigt Hill
#
# Bulk Modulus (GPa) = 47.35138 72.90075 60.12606
# Shear Modulus (GPa) = 62.92547 15.97816 39.45181
#
# Velocity S-wave (km/s) = 6.04656 3.04690 4.78772
# Velocity P-wave (km/s) = 8.73269 7.39830 8.09304
#
# Compressibility (1/GPa) = 0.02111871
#
# Stress axis : x y z
#
# Youngs Moduli (GPa) = 43.64007 20.09806 54.69796
#
# Poissons Ratio (x) = 0.28954 0.45927
# Poissons Ratio (y) = 0.62870 0.66261
# Poissons Ratio (z) = 0.36642 0.24347
#
# Static dielectric constant tensor:
#      x y z
#    x 3.120260 0.000000 0.000000 
#    y 0.000000 2.869730 0.000000 
#    z 0.000000 0.000000 3.526640 
# 
# 
# High freq. dielectric constant tensor:
#      x y z
#    x 1.654950 0.000000 0.000000 
#    y 0.000000 1.631410 0.000000 
#    z 0.000000 0.000000 1.683840 
# 
# From -- ./inp_files/2004.got.cif
#   From: 2010.03.12/outbox.cif.g09.slc.cpg/sg47_2_cif.got.tgz:2004.got - 2010.04.14 03:12:58.
