data_PCOD8196843
_publ_section_title
;
Structure prediction by ZEFSAII (Michael W. Deem and Ramdas Pophale) SiO2 
 PCOD8196843
Probable space group: P M M M
;
_chemical_formula_sum "Si O2"
_cell_formula_units_Z 44
_cell_length_a 17.388255
_cell_length_b 15.517697
_cell_length_c 9.138955
_cell_angle_alpha 90.000000
_cell_angle_beta 90.000000
_cell_angle_gamma 90.000000
_cell_volume 2465.924678
_symmetry_space_group_name_H-M "P M M M"
_symmetry_group_IT_number 47
_symmetry_cell_setting 'orthorhombic'
loop_
_space_group_symop_operation_xyz
x,y,z
-x,-y,z
x,-y,-z
-x,y,-z
-x,-y,-z
x,y,-z
-x,y,z
x,-y,z
loop_
_atom_site_type_symbol
_atom_site_label
_atom_site_fract_x
_atom_site_fract_y
_atom_site_fract_z
Si Si1 0.085614 0.000000 0.173859
Si Si2 0.913132 0.341128 0.328663
Si Si3 0.766482 0.595906 0.829649
Si Si4 0.310626 0.234890 0.163554
Si Si5 0.588683 0.903728 0.328141
Si Si6 0.138249 0.178970 0.834800
O O1 0.126624 0.915035 0.234793
O O2 0.000000 0.000000 0.234152
O O3 0.089584 0.000000 0.000000
O O4 0.895400 0.340681 0.500000
O O5 0.848636 0.399796 0.251528
O O6 0.907122 0.244797 0.267410
O O7 0.000000 0.376122 0.298641
O O8 0.732191 0.500000 0.806309
O O9 0.703568 0.666914 0.774544
O O10 0.783519 0.615709 0.000000
O O11 0.366438 0.176589 0.259554
O O12 0.228475 0.191217 0.164376
O O13 0.345369 0.238778 0.000000
O O14 0.600996 0.897945 0.500000
O O15 0.500000 0.891664 0.285861
O O16 0.615614 0.000000 0.274280
O O17 0.104864 0.186535 0.000000
#
# Coordination Sequence:
#
# PCOD8196843 Si02
#       6
#     4   8   8   8   8   8
#     4   9  16  26  43  65  88 121 166 210 247 285
#     4  10  20  32  46  67  97 129 163 209 260 303
#     4   9  19  36  55  74  97 128 167 208 252 303
#     4   9  18  31  51  77 101 126 160 206 251 292
#     4   9  19  35  53  75 105 139 170 197 231 284
#     4   9  18  31  47  67  92 127 169 209 248 297
#
# _framework density 17.843205000000001
#
# number of rings (size 3 to 8) (size 9 to 14) (size 15 to 20)
#    0.000    2.818    0.000    2.727    1.273    6.545 
#    0.000    3.182    0.000    2.182    0.000    3.818 
#    0.000    0.000    0.000    0.000    0.000    0.000 
#
# Total GULP energy -545203.058171 kJ/mol
# GULP energy per Si atom -12390.978595 kJ/mol
# Density = 1.780259 g / cm^3
# Si number density = 17.843205 Si / 1000 Ang^3
#
#
#
# Elastic Constant Matrix: (Units=GPa)
#
#
# Indices 1 2 3 4 5 6 
#
# 1 64.3132 53.3646 32.6471 0.0000 0.0000 0.0000
# 2 53.3646 162.0907 33.2984 0.0000 0.0000 0.0000
# 3 32.6471 33.2984 55.3205 0.0000 0.0000 0.0000
# 4 0.0000 0.0000 0.0000 17.4415 0.0000 0.0000
# 5 0.0000 0.0000 0.0000 0.0000 25.1748 0.0000
# 6 0.0000 0.0000 0.0000 0.0000 0.0000 17.4773
#
#
#
# Elastic Compliance Matrix: (Units=1/GPa)
#
#
# Indices 1 2 3 4 5 6 
#
# 1 0.026994 -0.006407 -0.012074 0.000000 0.000000 0.000000
# 2 -0.006407 0.008560 -0.001372 0.000000 0.000000 0.000000
# 3 -0.012074 -0.001372 0.026028 0.000000 0.000000 0.000000
# 4 0.000000 0.000000 0.000000 0.057335 0.000000 0.000000
# 5 0.000000 0.000000 0.000000 0.000000 0.039722 0.000000
# 6 0.000000 0.000000 0.000000 0.000000 0.000000 0.057217
#
#
# Mechanical properties :
#
#
# Convention : Reuss Voigt Hill
#
# Bulk Modulus (GPa) = 45.71018 57.81603 51.76311
# Shear Modulus (GPa) = 19.02199 22.84634 20.93416
#
# Velocity S-wave (km/s) = 3.26860 3.58214 3.42896
# Velocity P-wave (km/s) = 6.31810 7.04142 6.68954
#
# Compressibility (1/GPa) = 0.02187697
#
# Stress axis : x y z
#
# Youngs Moduli (GPa) = 37.04507 116.81587 38.42073
#
# Poissons Ratio (x) = 0.74842 0.46389
# Poissons Ratio (y) = 0.23734 0.05270
# Poissons Ratio (z) = 0.44728 0.16024
#
# Static dielectric constant tensor:
#      x y z
#    x 3.106860 0.000000 0.000000 
#    y 0.000000 3.588250 0.000000 
#    z 0.000000 0.000000 3.169600 
# 
# 
# High freq. dielectric constant tensor:
#      x y z
#    x 1.665210 0.000000 0.000000 
#    y 0.000000 1.703030 0.000000 
#    z 0.000000 0.000000 1.672310 
# 
# From -- ./inp_files/8964.got.cif
#   From: 2010.03.12/outbox.cif.g09.slc.cpg/sg47_5_cif.got.tgz:8964.got - 2010.04.14 03:12:58.
