data_PCOD8196475
_publ_section_title
;
Structure prediction by ZEFSAII (Michael W. Deem and Ramdas Pophale) SiO2 
 PCOD8196475
Probable space group: P M M M
;
_chemical_formula_sum "Si O2"
_cell_formula_units_Z 64
_cell_length_a 30.715397
_cell_length_b 9.150503
_cell_length_c 14.196872
_cell_angle_alpha 90.000000
_cell_angle_beta 90.000000
_cell_angle_gamma 90.000000
_cell_volume 3990.191760
_symmetry_space_group_name_H-M "P M M M"
_symmetry_group_IT_number 47
_symmetry_cell_setting 'orthorhombic'
loop_
_space_group_symop_operation_xyz
x,y,z
-x,-y,z
x,-y,-z
-x,y,-z
-x,-y,-z
x,y,-z
-x,y,z
x,-y,z
loop_
_atom_site_type_symbol
_atom_site_label
_atom_site_fract_x
_atom_site_fract_y
_atom_site_fract_z
Si Si1 0.154438 0.831304 0.106882
Si Si2 0.122009 0.328050 0.721486
Si Si3 0.747432 0.826797 0.102225
Si Si4 0.368230 0.331044 0.611067
Si Si5 0.452094 0.836268 0.611762
Si Si6 0.792290 0.331299 0.609662
Si Si7 0.049957 0.832794 0.608632
Si Si8 0.287720 0.173809 0.298148
O O1 0.123123 0.739121 0.174171
O O2 0.203525 0.769423 0.118008
O O3 0.152250 0.000000 0.137135
O O4 0.138166 0.810607 0.000000
O O5 0.119278 0.500000 0.729401
O O6 0.164774 0.278164 0.664088
O O7 0.078938 0.273344 0.670621
O O8 0.717495 0.774926 0.189008
O O9 0.749597 0.000000 0.098870
O O10 0.729748 0.769359 0.000000
O O11 0.362388 0.304878 0.500000
O O12 0.363483 0.500000 0.637329
O O13 0.415315 0.275620 0.647469
O O14 0.332461 0.238983 0.665418
O O15 0.452714 0.836503 0.500000
O O16 0.500000 0.786974 0.648909
O O17 0.441500 0.000000 0.648250
O O18 0.801279 0.307197 0.500000
O O19 0.781132 0.500000 0.631735
O O20 0.751884 0.232680 0.639942
O O21 0.056839 0.791561 0.500000
O O22 0.000000 0.808499 0.637845
O O23 0.063718 0.000000 0.626689
O O24 0.288923 0.000000 0.307735
#
# Coordination Sequence:
#
# PCOD8196475 Si02
#       8
#     8   8   8   8   8   8   8   8
#     4   9  17  32  53  73  95 124 159 198 238 281
#     4  11  21  32  50  75 102 128 156 193 237 286
#     4   8  15  29  48  68  89 114 149 195 240 277
#     4  10  20  31  42  59  90 130 162 189 228 279
#     4   8  14  26  44  64  85 111 150 200 241 270
#     4  10  21  34  44  60  93 131 159 185 222 269
#     4   9  19  36  56  76  98 126 161 199 235 275
#     4  11  20  30  47  67  88 118 158 198 232 270
#
# _framework density 16.03933
#
# number of rings (size 3 to 8) (size 9 to 14) (size 15 to 20)
#    0.000    2.500    1.250    3.375    0.000    4.500 
#    0.000    1.875    0.000    1.875    0.000    2.625 
#    0.000    0.500    0.000    5.750    0.000    1.875 
#
# Total GULP energy -793454.664770 kJ/mol
# GULP energy per Si atom -12397.729137 kJ/mol
# Density = 1.600282 g / cm^3
# Si number density = 16.039330 Si / 1000 Ang^3
#
#
#
# Elastic Constant Matrix: (Units=GPa)
#
#
# Indices 1 2 3 4 5 6 
#
# 1 94.6785 46.0722 44.8031 0.0000 0.0000 0.0000
# 2 46.0722 69.3989 41.8683 0.0000 0.0000 0.0000
# 3 44.8031 41.8683 81.7294 0.0000 0.0000 0.0000
# 4 0.0000 0.0000 0.0000 16.9824 0.0000 0.0000
# 5 0.0000 0.0000 0.0000 0.0000 8.6453 0.0000
# 6 0.0000 0.0000 0.0000 0.0000 0.0000 27.5216
#
#
#
# Elastic Compliance Matrix: (Units=1/GPa)
#
#
# Indices 1 2 3 4 5 6 
#
# 1 0.016958 -0.008177 -0.005107 0.000000 0.000000 0.000000
# 2 -0.008177 0.024797 -0.008221 0.000000 0.000000 0.000000
# 3 -0.005107 -0.008221 0.019247 0.000000 0.000000 0.000000
# 4 0.000000 0.000000 0.000000 0.058884 0.000000 0.000000
# 5 0.000000 0.000000 0.000000 0.000000 0.115670 0.000000
# 6 0.000000 0.000000 0.000000 0.000000 0.000000 0.036335
#
#
# Mechanical properties :
#
#
# Convention : Reuss Voigt Hill
#
# Bulk Modulus (GPa) = 55.57971 56.81044 56.19507
# Shear Modulus (GPa) = 15.58124 18.16740 16.87432
#
# Velocity S-wave (km/s) = 3.12017 3.36918 3.24706
# Velocity P-wave (km/s) = 6.90710 7.11558 7.01212
#
# Compressibility (1/GPa) = 0.01799218
#
# Stress axis : x y z
#
# Youngs Moduli (GPa) = 58.96995 40.32694 51.95701
#
# Poissons Ratio (x) = 0.32974 0.26536
# Poissons Ratio (y) = 0.48217 0.42713
# Poissons Ratio (z) = 0.30118 0.33152
#
# Static dielectric constant tensor:
#      x y z
#    x 3.084010 0.000000 0.000000 
#    y 0.000000 2.983900 0.000000 
#    z 0.000000 0.000000 3.104200 
# 
# 
# High freq. dielectric constant tensor:
#      x y z
#    x 1.605380 0.000000 0.000000 
#    y 0.000000 1.612530 0.000000 
#    z 0.000000 0.000000 1.598840 
# 
# From -- ./inp_files/14312.got.cif
#   From: 2010.03.12/outbox.cif.g09.slc.cpg/sg47_8_cif.got.tgz:14312.got - 2010.04.14 03:12:58.
