data_PCOD8196804
_publ_section_title
;
Structure prediction by ZEFSAII (Michael W. Deem and Ramdas Pophale) SiO2 
 PCOD8196804
Probable space group: P M M M
;
_chemical_formula_sum "Si O2"
_cell_formula_units_Z 64
_cell_length_a 9.110178
_cell_length_b 14.576856
_cell_length_c 28.268453
_cell_angle_alpha 90.000000
_cell_angle_beta 90.000000
_cell_angle_gamma 90.000000
_cell_volume 3753.987035
_symmetry_space_group_name_H-M "P M M M"
_symmetry_group_IT_number 47
_symmetry_cell_setting 'orthorhombic'
loop_
_space_group_symop_operation_xyz
x,y,z
-x,-y,z
x,-y,-z
-x,y,-z
-x,-y,-z
x,y,-z
-x,y,z
x,-y,z
loop_
_atom_site_type_symbol
_atom_site_label
_atom_site_fract_x
_atom_site_fract_y
_atom_site_fract_z
Si Si1 0.174288 0.102841 0.947839
Si Si2 0.825219 0.208489 0.857263
Si Si3 0.674338 0.602456 0.447216
Si Si4 0.659759 0.350494 0.733514
Si Si5 0.674949 0.727770 0.637043
Si Si6 0.829674 0.400990 0.820245
Si Si7 0.168879 0.898043 0.322469
Si Si8 0.662970 0.146623 0.769197
O O1 0.231510 0.174443 0.908483
O O2 0.000000 0.102271 0.947648
O O3 0.231396 0.000000 0.936426
O O4 0.230901 0.133502 0.000000
O O5 0.771018 0.314743 0.850992
O O6 0.751717 0.141933 0.818462
O O7 0.000000 0.199750 0.852273
O O8 0.726977 0.630007 0.500000
O O9 0.500000 0.601062 0.444761
O O10 0.732623 0.500000 0.434659
O O11 0.733460 0.678426 0.410471
O O12 0.500000 0.398657 0.732578
O O13 0.720858 0.340033 0.680120
O O14 0.765664 0.407704 0.767218
O O15 0.644131 0.250697 0.755019
O O16 0.500000 0.744087 0.637370
O O17 0.752157 0.826557 0.642277
O O18 0.795545 0.500000 0.845138
O O19 0.000000 0.386401 0.812962
O O20 0.245514 0.904370 0.271278
O O21 0.000000 0.867821 0.315623
O O22 0.179151 0.000000 0.345108
O O23 0.500000 0.102311 0.774836
#
# Coordination Sequence:
#
# PCOD8196804 Si02
#       8
#     8   8   8   8   8   8   8   8
#     4   8  14  25  42  64  85 104 134 178 222 262
#     4   9  16  27  44  63  85 114 145 178 217 261
#     4   8  14  26  46  72  98 121 148 186 232 279
#     4   8  15  26  39  58  83 110 141 176 212 250
#     4   9  17  29  47  70  93 118 150 189 229 266
#     4   9  17  27  38  55  82 115 146 173 204 247
#     4  10  20  32  46  65  91 124 158 187 218 263
#     4   9  17  29  44  63  88 115 144 180 219 257
#
# _framework density 17.048541
#
# number of rings (size 3 to 8) (size 9 to 14) (size 15 to 20)
#    0.000    3.250    0.000    2.250    0.000    5.250 
#    0.000    2.500    0.000    1.875    0.000    7.000 
#    0.000    0.000    0.000    6.250    0.000    6.500 
#
# Total GULP energy -792883.188374 kJ/mol
# GULP energy per Si atom -12388.799818 kJ/mol
# Density = 1.700974 g / cm^3
# Si number density = 17.048541 Si / 1000 Ang^3
#
#
#
# Elastic Constant Matrix: (Units=GPa)
#
#
# Indices 1 2 3 4 5 6 
#
# 1 43.3447 28.8453 26.9714 0.0000 0.0000 0.0000
# 2 28.8453 102.4867 68.4777 0.0000 0.0000 0.0000
# 3 26.9714 68.4777 133.1828 0.0000 0.0000 0.0000
# 4 0.0000 0.0000 0.0000 23.2882 0.0000 0.0000
# 5 0.0000 0.0000 0.0000 0.0000 16.5737 0.0000
# 6 0.0000 0.0000 0.0000 0.0000 0.0000 12.1193
#
#
#
# Elastic Compliance Matrix: (Units=1/GPa)
#
#
# Indices 1 2 3 4 5 6 
#
# 1 0.028945 -0.006444 -0.002549 0.000000 0.000000 0.000000
# 2 -0.006444 0.016298 -0.007075 0.000000 0.000000 0.000000
# 3 -0.002549 -0.007075 0.011662 0.000000 0.000000 0.000000
# 4 0.000000 0.000000 0.000000 0.042940 0.000000 0.000000
# 5 0.000000 0.000000 0.000000 0.000000 0.060337 0.000000
# 6 0.000000 0.000000 0.000000 0.000000 0.000000 0.082513
#
#
# Mechanical properties :
#
#
# Convention : Reuss Voigt Hill
#
# Bulk Modulus (GPa) = 40.37023 58.62256 49.49639
# Shear Modulus (GPa) = 17.66241 20.71090 19.18665
#
# Velocity S-wave (km/s) = 3.22220 3.48921 3.35836
# Velocity P-wave (km/s) = 6.12980 7.11991 6.64332
#
# Compressibility (1/GPa) = 0.02477073
#
# Stress axis : x y z
#
# Youngs Moduli (GPa) = 34.54831 61.35633 85.74634
#
# Poissons Ratio (x) = 0.39537 0.21853
# Poissons Ratio (y) = 0.22262 0.60665
# Poissons Ratio (z) = 0.08805 0.43410
#
# Static dielectric constant tensor:
#      x y z
#    x 3.109810 0.000000 0.000000 
#    y 0.000000 3.278370 0.000000 
#    z 0.000000 0.000000 3.390490 
# 
# 
# High freq. dielectric constant tensor:
#      x y z
#    x 1.631880 0.000000 0.000000 
#    y 0.000000 1.653070 0.000000 
#    z 0.000000 0.000000 1.637530 
# 
# From -- ./inp_files/34436.got.cif
#   From: 2010.03.12/outbox.cif.g09.slc.cpg/sg47_18_cif.got.tgz:34436.got - 2010.04.14 03:12:58.
