data_PCOD8196090
_publ_section_title
;
Structure prediction by ZEFSAII (Michael W. Deem and Ramdas Pophale) SiO2 
 PCOD8196090
Probable space group: P M M M
;
_chemical_formula_sum "Si O2"
_cell_formula_units_Z 52
_cell_length_a 8.711695
_cell_length_b 21.203124
_cell_length_c 14.569702
_cell_angle_alpha 90.000000
_cell_angle_beta 90.000000
_cell_angle_gamma 90.000000
_cell_volume 2691.244681
_symmetry_space_group_name_H-M "P M M M"
_symmetry_group_IT_number 47
_symmetry_cell_setting 'orthorhombic'
loop_
_space_group_symop_operation_xyz
x,y,z
-x,-y,z
x,-y,-z
-x,y,-z
-x,-y,-z
x,y,-z
-x,y,z
x,-y,z
loop_
_atom_site_type_symbol
_atom_site_label
_atom_site_fract_x
_atom_site_fract_y
_atom_site_fract_z
Si Si1 0.684085 0.000000 0.607663
Si Si2 0.676349 0.336189 0.647443
Si Si3 0.680333 0.432705 0.500000
Si Si4 0.818697 0.572900 0.000000
Si Si5 0.171722 0.788520 0.396555
Si Si6 0.676283 0.116928 0.274850
Si Si7 0.318020 0.809224 0.102912
Si Si8 0.323048 0.332340 0.140642
O O1 0.750885 0.058783 0.667947
O O2 0.500000 0.000000 0.604331
O O3 0.743052 0.000000 0.500000
O O4 0.500000 0.317016 0.625604
O O5 0.728443 0.397991 0.593271
O O6 0.792306 0.284622 0.609014
O O7 0.699730 0.348862 0.753934
O O8 0.764763 0.500000 0.500000
O O9 0.500000 0.441724 0.500000
O O10 0.763918 0.612055 0.911710
O O11 0.755513 0.500000 0.000000
O O12 0.000000 0.570646 0.000000
O O13 0.183948 0.813200 0.500000
O O14 0.302218 0.822125 0.337406
O O15 0.000000 0.801755 0.358496
O O16 0.500000 0.100060 0.260716
O O17 0.747201 0.137602 0.174885
O O18 0.500000 0.806564 0.116815
O O19 0.254657 0.738139 0.121020
O O20 0.272003 0.830574 0.000000
O O21 0.500000 0.333521 0.109693
#
# Coordination Sequence:
#
# PCOD8196090 Si02
#       8
#     4   8   4   4   8   8   8   8
#     4   9  18  32  52  82 114 145 183 227 272 323
#     4  10  19  33  56  81 105 138 179 223 276 327
#     4   9  18  32  51  77 107 136 173 222 269 323
#     4  11  25  41  55  77 111 150 187 226 280 340
#     4  11  22  33  49  78 112 142 178 225 273 321
#     4  10  19  34  56  80 108 144 184 224 270 325
#     4   9  16  29  52  81 108 133 170 223 275 318
#     4  10  19  34  57  83 106 136 181 231 280 327
#
# _framework density 19.321915000000001
#
# number of rings (size 3 to 8) (size 9 to 14) (size 15 to 20)
#    0.000    2.077    3.077    1.154    0.000    3.385 
#    0.000    2.308    0.000    4.615    0.000    0.000 
#    0.000    1.231    0.000    0.000    0.000    0.000 
#
# Total GULP energy -644281.530517 kJ/mol
# GULP energy per Si atom -12390.029433 kJ/mol
# Density = 1.927794 g / cm^3
# Si number density = 19.321915 Si / 1000 Ang^3
#
#
#
# Elastic Constant Matrix: (Units=GPa)
#
#
# Indices 1 2 3 4 5 6 
#
# 1 19.7497 7.7215 16.8641 0.0000 0.0000 0.0000
# 2 7.7215 131.5919 78.3333 0.0000 0.0000 0.0000
# 3 16.8641 78.3333 163.2093 0.0000 0.0000 0.0000
# 4 0.0000 0.0000 0.0000 32.9255 0.0000 0.0000
# 5 0.0000 0.0000 0.0000 0.0000 11.6184 0.0000
# 6 0.0000 0.0000 0.0000 0.0000 0.0000 9.6460
#
#
#
# Elastic Compliance Matrix: (Units=1/GPa)
#
#
# Indices 1 2 3 4 5 6 
#
# 1 0.055538 0.000220 -0.005844 0.000000 0.000000 0.000000
# 2 0.000220 0.010640 -0.005129 0.000000 0.000000 0.000000
# 3 -0.005844 -0.005129 0.009193 0.000000 0.000000 0.000000
# 4 0.000000 0.000000 0.000000 0.030372 0.000000 0.000000
# 5 0.000000 0.000000 0.000000 0.000000 0.086070 0.000000
# 6 0.000000 0.000000 0.000000 0.000000 0.000000 0.103670
#
#
# Mechanical properties :
#
#
# Convention : Reuss Voigt Hill
#
# Bulk Modulus (GPa) = 18.56543 57.82096 38.19319
# Shear Modulus (GPa) = 14.92789 24.94679 19.93734
#
# Velocity S-wave (km/s) = 2.78256 3.59711 3.21573
# Velocity P-wave (km/s) = 4.46687 6.87330 5.79634
#
# Compressibility (1/GPa) = 0.05386356
#
# Stress axis : x y z
#
# Youngs Moduli (GPa) = 18.00569 93.98772 108.78040
#
# Poissons Ratio (x) = -0.02069 0.63574
# Poissons Ratio (y) = -0.00396 0.55797
# Poissons Ratio (z) = 0.10523 0.48209
#
# Static dielectric constant tensor:
#      x y z
#    x 3.076080 0.000000 0.000000 
#    y 0.000000 3.725790 0.000000 
#    z 0.000000 0.000000 3.788540 
# 
# 
# High freq. dielectric constant tensor:
#      x y z
#    x 1.703490 0.000000 0.000000 
#    y 0.000000 1.744930 0.000000 
#    z 0.000000 0.000000 1.768410 
# 
# From -- ./inp_files/21532.got.cif
#   From: 2010.03.12/outbox.cif.g09.slc.cpg/sg47_11_cif.got.tgz:21532.got - 2010.04.14 03:12:58.
