data_PCOD8196486
_publ_section_title
;
Structure prediction by ZEFSAII (Michael W. Deem and Ramdas Pophale) SiO2 
 PCOD8196486
Probable space group: P M M M
;
_chemical_formula_sum "Si O2"
_cell_formula_units_Z 52
_cell_length_a 15.008163
_cell_length_b 9.189933
_cell_length_c 28.161616
_cell_angle_alpha 90.000000
_cell_angle_beta 90.000000
_cell_angle_gamma 90.000000
_cell_volume 3884.163075
_symmetry_space_group_name_H-M "P M M M"
_symmetry_group_IT_number 47
_symmetry_cell_setting 'orthorhombic'
loop_
_space_group_symop_operation_xyz
x,y,z
-x,-y,z
x,-y,-z
-x,y,-z
-x,-y,-z
x,y,-z
-x,y,z
x,-y,z
loop_
_atom_site_type_symbol
_atom_site_label
_atom_site_fract_x
_atom_site_fract_y
_atom_site_fract_z
Si Si1 0.106019 0.335639 0.716709
Si Si2 0.097679 0.327135 0.000000
Si Si3 0.231684 0.666703 0.556252
Si Si4 0.104636 0.830955 0.376703
Si Si5 0.401830 0.163363 0.556400
Si Si6 0.106302 0.836061 0.192103
Si Si7 0.893314 0.663764 0.898231
O O1 0.143301 0.500000 0.714770
O O2 0.139617 0.247487 0.670881
O O3 0.143596 0.256801 0.763704
O O4 0.000000 0.336373 0.718130
O O5 0.145335 0.282659 0.050001
O O6 0.087495 0.500000 0.000000
O O7 0.000000 0.254416 0.000000
O O8 0.224271 0.683679 0.500000
O O9 0.223257 0.500000 0.572302
O O10 0.151761 0.759580 0.578137
O O11 0.326330 0.727376 0.575578
O O12 0.000000 0.807401 0.383709
O O13 0.129324 0.000000 0.373140
O O14 0.401645 0.164969 0.500000
O O15 0.500000 0.212925 0.574675
O O16 0.380941 0.000000 0.574538
O O17 0.143344 0.768069 0.143109
O O18 0.000000 0.833294 0.192241
O O19 0.142296 0.000000 0.196529
O O20 0.861147 0.500000 0.886815
O O21 0.000000 0.667278 0.900551
#
# Coordination Sequence:
#
# PCOD8196486 Si02
#       7
#     8   4   8   8   8   8   8
#     4   9  16  26  39  51  62  78 102 133 168 204
#     4   7  10  16  25  35  47  65  89 115 143 181
#     4  10  20  31  43  60  80 100 121 145 172 205
#     4  10  20  32  44  56  71  93 120 149 180 213
#     4   8  14  26  44  63  81 100 120 142 169 201
#     4   9  15  21  29  42  58  73  92 121 156 193
#     4   8  12  18  27  37  49  67  91 117 147 185
#
# _framework density 13.387698
#
# number of rings (size 3 to 8) (size 9 to 14) (size 15 to 20)
#    0.000    3.154    0.000    3.231    0.000    6.154 
#    0.000    3.462    0.000    2.308    0.000    0.000 
#    0.000    0.000    0.000    0.000    0.000    0.000 
#
# Total GULP energy -644367.388028 kJ/mol
# GULP energy per Si atom -12391.680539 kJ/mol
# Density = 1.335723 g / cm^3
# Si number density = 13.387698 Si / 1000 Ang^3
#
#
#
# Elastic Constant Matrix: (Units=GPa)
#
#
# Indices 1 2 3 4 5 6 
#
# 1 28.0648 28.9972 23.7604 0.0000 0.0000 0.0000
# 2 28.9972 109.2765 49.2173 0.0000 0.0000 0.0000
# 3 23.7604 49.2173 70.8110 0.0000 0.0000 0.0000
# 4 0.0000 0.0000 0.0000 19.9376 0.0000 0.0000
# 5 0.0000 0.0000 0.0000 0.0000 0.4725 0.0000
# 6 0.0000 0.0000 0.0000 0.0000 0.0000 13.0135
#
#
#
# Elastic Compliance Matrix: (Units=1/GPa)
#
#
# Indices 1 2 3 4 5 6 
#
# 1 0.055505 -0.009230 -0.012209 0.000000 0.000000 0.000000
# 2 -0.009230 0.014856 -0.007229 0.000000 0.000000 0.000000
# 3 -0.012209 -0.007229 0.023243 0.000000 0.000000 0.000000
# 4 0.000000 0.000000 0.000000 0.050157 0.000000 0.000000
# 5 0.000000 0.000000 0.000000 0.000000 2.116583 0.000000
# 6 0.000000 0.000000 0.000000 0.000000 0.000000 0.076844
#
#
# Mechanical properties :
#
#
# Convention : Reuss Voigt Hill
#
# Bulk Modulus (GPa) = 27.57199 45.78911 36.68055
# Shear Modulus (GPa) = 2.07761 13.76320 7.92040
#
# Velocity S-wave (km/s) = 1.24710 3.20980 2.43496
# Velocity P-wave (km/s) = 4.76586 6.92919 5.94673
#
# Compressibility (1/GPa) = 0.03626869
#
# Stress axis : x y z
#
# Youngs Moduli (GPa) = 18.01644 67.31296 43.02324
#
# Poissons Ratio (x) = 0.62127 0.52529
# Poissons Ratio (y) = 0.16628 0.31100
# Poissons Ratio (z) = 0.21997 0.48659
#
# Static dielectric constant tensor:
#      x y z
#    x 2.249620 0.000000 0.000000 
#    y 0.000000 2.816470 0.000000 
#    z 0.000000 0.000000 2.809960 
# 
# 
# High freq. dielectric constant tensor:
#      x y z
#    x 1.433300 0.000000 0.000000 
#    y 0.000000 1.519710 0.000000 
#    z 0.000000 0.000000 1.506810 
# 
# From -- ./inp_files/33379.got.cif
#   From: 2010.03.12/outbox.cif.g09.slc.cpg/sg47_17_cif.got.tgz:33379.got - 2010.04.14 03:12:58.
