data_PCOD8196688
_publ_section_title
;
Structure prediction by ZEFSAII (Michael W. Deem and Ramdas Pophale) SiO2 
 PCOD8196688
Probable space group: P M M M
;
_chemical_formula_sum "Si O2"
_cell_formula_units_Z 52
_cell_length_a 14.034175
_cell_length_b 9.052056
_cell_length_c 24.451095
_cell_angle_alpha 90.000000
_cell_angle_beta 90.000000
_cell_angle_gamma 90.000000
_cell_volume 3106.221581
_symmetry_space_group_name_H-M "P M M M"
_symmetry_group_IT_number 47
_symmetry_cell_setting 'orthorhombic'
loop_
_space_group_symop_operation_xyz
x,y,z
-x,-y,z
x,-y,-z
-x,y,-z
-x,-y,-z
x,y,-z
-x,y,z
x,-y,z
loop_
_atom_site_type_symbol
_atom_site_label
_atom_site_fract_x
_atom_site_fract_y
_atom_site_fract_z
Si Si1 0.891871 0.169832 0.300927
Si Si2 0.284948 0.325709 0.343422
Si Si3 0.387834 0.830420 0.244933
Si Si4 0.285694 0.336615 0.850036
Si Si5 0.107511 0.829926 0.173665
Si Si6 0.387278 0.500000 0.063050
Si Si7 0.390462 0.169598 0.436818
O O1 0.823610 0.271880 0.336953
O O2 0.866289 0.190438 0.237295
O O3 0.000000 0.219738 0.312227
O O4 0.877505 0.000000 0.317905
O O5 0.288654 0.500000 0.339186
O O6 0.351396 0.257651 0.296996
O O7 0.322616 0.275596 0.402320
O O8 0.500000 0.812510 0.241827
O O9 0.345097 0.769097 0.189042
O O10 0.356074 0.000000 0.251165
O O11 0.273896 0.500000 0.822937
O O12 0.181343 0.267465 0.861348
O O13 0.342128 0.354259 0.907741
O O14 0.000000 0.774560 0.162142
O O15 0.117147 0.000000 0.156448
O O16 0.500000 0.500000 0.071351
O O17 0.357956 0.500000 0.000000
O O18 0.364728 0.193557 0.500000
O O19 0.500000 0.212169 0.425670
O O20 0.373012 0.000000 0.419645
#
# Coordination Sequence:
#
# PCOD8196688 Si02
#       7
#     8   8   8   8   8   4   8
#     4   9  18  33  52  73 102 141 179 213 255 316
#     4  12  23  32  49  78 111 140 169 214 268 324
#     4  11  22  34  49  72 106 143 175 214 267 321
#     4  10  20  31  53  80 105 133 174 221 263 315
#     4   9  17  31  52  78 109 143 177 214 263 323
#     4   9  20  38  57  77 107 147 183 219 265 316
#     4   9  19  37  58  76  97 135 186 227 260 308
#
# _framework density 16.740594999999999
#
# number of rings (size 3 to 8) (size 9 to 14) (size 15 to 20)
#    0.462    1.615    1.538    4.615    0.000    4.000 
#    0.000    2.308    0.000    3.231    0.000    9.692 
#    0.000    0.000    0.000    0.000    0.000    0.000 
#
# Total GULP energy -644758.810128 kJ/mol
# GULP energy per Si atom -12399.207887 kJ/mol
# Density = 1.670249 g / cm^3
# Si number density = 16.740595 Si / 1000 Ang^3
#
#
#
# Elastic Constant Matrix: (Units=GPa)
#
#
# Indices 1 2 3 4 5 6 
#
# 1 110.5557 64.9636 55.7352 0.0000 0.0000 0.0000
# 2 64.9636 108.6594 44.7662 0.0000 0.0000 0.0000
# 3 55.7352 44.7662 84.5782 0.0000 0.0000 0.0000
# 4 0.0000 0.0000 0.0000 19.0548 0.0000 0.0000
# 5 0.0000 0.0000 0.0000 0.0000 22.6421 0.0000
# 6 0.0000 0.0000 0.0000 0.0000 0.0000 26.3131
#
#
#
# Elastic Compliance Matrix: (Units=1/GPa)
#
#
# Indices 1 2 3 4 5 6 
#
# 1 0.016942 -0.007071 -0.007422 0.000000 0.000000 0.000000
# 2 -0.007071 0.014721 -0.003132 0.000000 0.000000 0.000000
# 3 -0.007422 -0.003132 0.018372 0.000000 0.000000 0.000000
# 4 0.000000 0.000000 0.000000 0.052480 0.000000 0.000000
# 5 0.000000 0.000000 0.000000 0.000000 0.044165 0.000000
# 6 0.000000 0.000000 0.000000 0.000000 0.000000 0.038004
#
#
# Mechanical properties :
#
#
# Convention : Reuss Voigt Hill
#
# Bulk Modulus (GPa) = 67.63543 70.52481 69.08012
# Shear Modulus (GPa) = 22.23586 22.82389 22.52987
#
# Velocity S-wave (km/s) = 3.64848 3.69641 3.67253
# Velocity P-wave (km/s) = 7.63140 7.77415 7.70311
#
# Compressibility (1/GPa) = 0.01478515
#
# Stress axis : x y z
#
# Youngs Moduli (GPa) = 59.02524 67.92991 54.43173
#
# Poissons Ratio (x) = 0.48036 0.40397
# Poissons Ratio (y) = 0.41739 0.17047
# Poissons Ratio (z) = 0.43806 0.21274
#
# Static dielectric constant tensor:
#      x y z
#    x 3.271330 0.000000 0.000000 
#    y 0.000000 3.106870 0.000000 
#    z 0.000000 0.000000 2.851720 
# 
# 
# High freq. dielectric constant tensor:
#      x y z
#    x 1.658880 0.000000 0.000000 
#    y 0.000000 1.642960 0.000000 
#    z 0.000000 0.000000 1.611130 
# 
# From -- ./inp_files/32665.got.cif
#   From: 2010.03.12/outbox.cif.g09.slc.cpg/sg47_17_cif.got.tgz:32665.got - 2010.04.14 03:12:58.
