data_PCOD8196961
_publ_section_title
;
Structure prediction by ZEFSAII (Michael W. Deem and Ramdas Pophale) SiO2 
 PCOD8196961
Probable space group: P M M M
;
_chemical_formula_sum "Si O2"
_cell_formula_units_Z 40
_cell_length_a 9.052143
_cell_length_b 26.028780
_cell_length_c 9.347128
_cell_angle_alpha 90.000000
_cell_angle_beta 90.000000
_cell_angle_gamma 90.000000
_cell_volume 2202.335142
_symmetry_space_group_name_H-M "P M M M"
_symmetry_group_IT_number 47
_symmetry_cell_setting 'orthorhombic'
loop_
_space_group_symop_operation_xyz
x,y,z
-x,-y,z
x,-y,-z
-x,y,-z
-x,-y,-z
x,y,-z
-x,y,z
x,-y,z
loop_
_atom_site_type_symbol
_atom_site_label
_atom_site_fract_x
_atom_site_fract_y
_atom_site_fract_z
Si Si1 0.172829 0.792386 0.166660
Si Si2 0.828364 0.402008 0.334555
Si Si3 0.673844 0.297424 0.664031
Si Si4 0.838241 0.000000 0.330146
Si Si5 0.824235 0.500000 0.161691
Si Si6 0.823540 0.890007 0.660491
O O1 0.259403 0.745738 0.235658
O O2 0.232541 0.845557 0.234130
O O3 0.000000 0.785111 0.198451
O O4 0.208045 0.793935 0.000000
O O5 0.801721 0.415570 0.500000
O O6 0.739011 0.351880 0.286956
O O7 0.765728 0.449345 0.242124
O O8 0.000000 0.391580 0.303007
O O9 0.718253 0.285843 0.500000
O O10 0.500000 0.299037 0.684994
O O11 0.758212 0.054069 0.287468
O O12 0.855831 0.000000 0.500000
O O13 0.000000 0.000000 0.257789
O O14 0.000000 0.500000 0.166152
O O15 0.763764 0.500000 0.000000
O O16 0.768200 0.876933 0.500000
O O17 0.000000 0.893986 0.661852
#
# Coordination Sequence:
#
# PCOD8196961 Si02
#       6
#     8   8   8   4   4   8
#     4  10  20  32  47  70  99 130 164 200 240 289
#     4   9  17  31  52  75  98 125 157 194 237 283
#     4  10  21  36  53  73  96 125 164 207 249 291
#     4   7  10  18  35  61  90 119 152 191 236 282
#     4   9  17  29  48  75 102 126 156 193 230 273
#     4   8  13  23  41  64  91 123 158 196 237 282
#
# _framework density 18.162538999999999
#
# number of rings (size 3 to 8) (size 9 to 14) (size 15 to 20)
#    0.000    3.000    0.000    2.700    0.000    4.400 
#    0.000    3.000    0.000    6.000    0.000    0.700 
#    0.000    5.600    0.000    0.000    0.000    0.000 
#
# Total GULP energy -495778.917057 kJ/mol
# GULP energy per Si atom -12394.472926 kJ/mol
# Density = 1.812120 g / cm^3
# Si number density = 18.162539 Si / 1000 Ang^3
#
#
#
# Elastic Constant Matrix: (Units=GPa)
#
#
# Indices 1 2 3 4 5 6 
#
# 1 34.5206 46.6195 34.5149 0.0000 0.0000 0.0000
# 2 46.6195 201.7269 95.6275 0.0000 0.0000 0.0000
# 3 34.5149 95.6275 97.0964 0.0000 0.0000 0.0000
# 4 0.0000 0.0000 0.0000 6.0069 0.0000 0.0000
# 5 0.0000 0.0000 0.0000 0.0000 15.2919 0.0000
# 6 0.0000 0.0000 0.0000 0.0000 0.0000 -4.3583
#
#
#
# Elastic Compliance Matrix: (Units=1/GPa)
#
#
# Indices 1 2 3 4 5 6 
#
# 1 0.048148 -0.005653 -0.011548 0.000000 0.000000 0.000000
# 2 -0.005653 0.009962 -0.007802 0.000000 0.000000 0.000000
# 3 -0.011548 -0.007802 0.022088 0.000000 0.000000 0.000000
# 4 0.000000 0.000000 0.000000 0.166474 0.000000 0.000000
# 5 0.000000 0.000000 0.000000 0.000000 0.065394 0.000000
# 6 0.000000 0.000000 0.000000 0.000000 0.000000 -0.229447
#
#
# Mechanical properties :
#
#
# Convention : Reuss Voigt Hill
#
# Bulk Modulus (GPa) = 33.12045 76.31863 54.71954
# Shear Modulus (GPa) = 35.04126 13.82689 24.43407
#
# Velocity S-wave (km/s) = 4.39716 2.76214 3.67181
# Velocity P-wave (km/s) = 6.63741 7.23074 6.94042
#
# Compressibility (1/GPa) = 0.03019283
#
# Stress axis : x y z
#
# Youngs Moduli (GPa) = 20.76911 100.38083 45.27377
#
# Poissons Ratio (x) = 0.56745 0.52282
# Poissons Ratio (y) = 0.11741 0.35322
# Poissons Ratio (z) = 0.23984 0.78316
#
# Static dielectric constant tensor:
#      x y z
#    x 2.873620 0.000000 0.000000 
#    y 0.000000 3.803190 0.000000 
#    z 0.000000 0.000000 3.286380 
# 
# 
# High freq. dielectric constant tensor:
#      x y z
#    x 1.650070 0.000000 0.000000 
#    y 0.000000 1.727560 0.000000 
#    z 0.000000 0.000000 1.689040 
# 
# From -- ./inp_files/1787.got.cif
#   From: 2010.03.12/outbox.cif.g09.slc.cpg/sg47_1_cif.got.tgz:1787.got - 2010.04.14 03:12:58.
