data_PCOD8196560
_publ_section_title
;
Structure prediction by ZEFSAII (Michael W. Deem and Ramdas Pophale) SiO2 
 PCOD8196560
Probable space group: P M M M
;
_chemical_formula_sum "Si O2"
_cell_formula_units_Z 52
_cell_length_a 8.141493
_cell_length_b 9.981525
_cell_length_c 35.056310
_cell_angle_alpha 90.000000
_cell_angle_beta 90.000000
_cell_angle_gamma 90.000000
_cell_volume 2848.834062
_symmetry_space_group_name_H-M "P M M M"
_symmetry_group_IT_number 47
_symmetry_cell_setting 'orthorhombic'
loop_
_space_group_symop_operation_xyz
x,y,z
-x,-y,z
x,-y,-z
-x,y,-z
-x,-y,-z
x,y,-z
-x,y,z
x,-y,z
loop_
_atom_site_type_symbol
_atom_site_label
_atom_site_fract_x
_atom_site_fract_y
_atom_site_fract_z
Si Si1 0.310600 0.350244 0.746239
Si Si2 0.814350 0.342845 0.332710
Si Si3 0.804514 0.350214 0.957591
Si Si4 0.192685 0.846601 0.809517
Si Si5 0.317710 0.340377 0.588847
Si Si6 0.195449 0.148500 0.895231
Si Si7 0.000000 0.340357 0.543326
O O1 0.500000 0.362951 0.737089
O O2 0.238525 0.500000 0.754782
O O3 0.229752 0.281672 0.708647
O O4 0.285214 0.254465 0.782012
O O5 0.784571 0.500000 0.328612
O O6 0.704676 0.287383 0.367669
O O7 0.000000 0.307579 0.343505
O O8 0.740488 0.500000 0.948957
O O9 0.727800 0.251001 0.925996
O O10 0.000000 0.347638 0.955468
O O11 0.747534 0.305458 0.000000
O O12 0.249505 0.810948 0.852532
O O13 0.000000 0.824967 0.804587
O O14 0.240392 0.000000 0.799941
O O15 0.500000 0.293926 0.574418
O O16 0.307363 0.500000 0.588381
O O17 0.167905 0.284157 0.562880
O O18 0.000000 0.148793 0.897336
O O19 0.261339 0.000000 0.904996
O O20 0.000000 0.500000 0.545652
O O21 0.000000 0.289163 0.500000
#
# Coordination Sequence:
#
# PCOD8196560 Si02
#       7
#     8   8   8   8   8   8   4
#     4  10  20  31  44  66  91 113 145 189 230 272
#     4   9  15  25  41  59  80 106 138 179 228 277
#     4   8  13  20  30  48  76 107 137 171 214 263
#     4   9  18  32  47  63  86 117 152 187 226 275
#     4   9  15  23  35  50  71 102 140 184 234 283
#     4   8  14  24  37  53  74 103 140 178 213 256
#     4   9  16  24  32  46  70 102 145 191 233 283
#
# _framework density 18.253081999999999
#
# number of rings (size 3 to 8) (size 9 to 14) (size 15 to 20)
#    0.000    3.154    0.769    2.308    0.000    4.308 
#    0.000    4.615    0.000    0.000    0.000    0.000 
#    0.000    0.615    0.000    6.769    0.000   12.615 
#
# Total GULP energy -644331.914064 kJ/mol
# GULP energy per Si atom -12390.998347 kJ/mol
# Density = 1.821154 g / cm^3
# Si number density = 18.253082 Si / 1000 Ang^3
#
#
#
# Elastic Constant Matrix: (Units=GPa)
#
#
# Indices 1 2 3 4 5 6 
#
# 1 60.1031 17.6382 43.7782 0.0000 0.0000 0.0000
# 2 17.6382 50.4239 53.4774 0.0000 0.0000 0.0000
# 3 43.7782 53.4774 147.2741 0.0000 0.0000 0.0000
# 4 0.0000 0.0000 0.0000 2.7515 0.0000 0.0000
# 5 0.0000 0.0000 0.0000 0.0000 9.6135 0.0000
# 6 0.0000 0.0000 0.0000 0.0000 0.0000 8.7915
#
#
#
# Elastic Compliance Matrix: (Units=1/GPa)
#
#
# Indices 1 2 3 4 5 6 
#
# 1 0.021280 -0.001195 -0.005892 0.000000 0.000000 0.000000
# 2 -0.001195 0.032319 -0.011380 0.000000 0.000000 0.000000
# 3 -0.005892 -0.011380 0.012674 0.000000 0.000000 0.000000
# 4 0.000000 0.000000 0.000000 0.363432 0.000000 0.000000
# 5 0.000000 0.000000 0.000000 0.000000 0.104021 0.000000
# 6 0.000000 0.000000 0.000000 0.000000 0.000000 0.113746
#
#
# Mechanical properties :
#
#
# Convention : Reuss Voigt Hill
#
# Bulk Modulus (GPa) = 34.08463 54.17653 44.13058
# Shear Modulus (GPa) = 7.20268 13.75847 10.48057
#
# Velocity S-wave (km/s) = 1.98861 2.74845 2.39881
# Velocity P-wave (km/s) = 4.89762 6.31008 5.64818
#
# Compressibility (1/GPa) = 0.02933874
#
# Stress axis : x y z
#
# Youngs Moduli (GPa) = 46.99195 30.94108 78.90331
#
# Poissons Ratio (x) = 0.03699 0.46487
# Poissons Ratio (y) = 0.05618 0.89795
# Poissons Ratio (z) = 0.27686 0.35212
#
# Static dielectric constant tensor:
#      x y z
#    x 3.168640 0.000000 0.000000 
#    y 0.000000 3.061300 0.000000 
#    z 0.000000 0.000000 3.599630 
# 
# 
# High freq. dielectric constant tensor:
#      x y z
#    x 1.689990 0.000000 0.000000 
#    y 0.000000 1.647650 0.000000 
#    z 0.000000 0.000000 1.716540 
# 
# From -- ./inp_files/34301.got.cif
#   From: 2010.03.12/outbox.cif.g09.slc.cpg/sg47_18_cif.got.tgz:34301.got - 2010.04.14 03:12:58.
