data_PCOD8196491
_publ_section_title
;
Structure prediction by ZEFSAII (Michael W. Deem and Ramdas Pophale) SiO2 
 PCOD8196491
Probable space group: P M M M
;
_chemical_formula_sum "Si O2"
_cell_formula_units_Z 40
_cell_length_a 14.981790
_cell_length_b 9.238811
_cell_length_c 20.088970
_cell_angle_alpha 90.000000
_cell_angle_beta 90.000000
_cell_angle_gamma 90.000000
_cell_volume 2780.593212
_symmetry_space_group_name_H-M "P M M M"
_symmetry_group_IT_number 47
_symmetry_cell_setting 'orthorhombic'
loop_
_space_group_symop_operation_xyz
x,y,z
-x,-y,z
x,-y,-z
-x,y,-z
-x,-y,-z
x,y,-z
-x,y,z
x,-y,z
loop_
_atom_site_type_symbol
_atom_site_label
_atom_site_fract_x
_atom_site_fract_y
_atom_site_fract_z
Si Si1 0.901585 0.162477 0.920933
Si Si2 0.604979 0.832166 0.827973
Si Si3 0.393711 0.337380 0.698137
Si Si4 0.732041 0.334126 0.921120
Si Si5 0.393850 0.837392 0.573523
O O1 0.826294 0.271679 0.893956
O O2 0.000000 0.211244 0.895317
O O3 0.880348 0.000000 0.895574
O O4 0.901320 0.164223 0.000000
O O5 0.500000 0.810458 0.837359
O O6 0.639558 0.757190 0.760372
O O7 0.651232 0.756815 0.890611
O O8 0.631199 0.000000 0.825029
O O9 0.500000 0.337935 0.695767
O O10 0.356274 0.500000 0.704954
O O11 0.354563 0.268192 0.630130
O O12 0.724825 0.500000 0.898413
O O13 0.724656 0.317992 0.000000
O O14 0.362911 0.784289 0.500000
O O15 0.500000 0.837475 0.577105
O O16 0.358766 0.000000 0.586698
#
# Coordination Sequence:
#
# PCOD8196491 Si02
#       5
#     8   8   8   8   8
#     4   8  14  26  44  63  81 100 121 147 182 227
#     4  10  20  32  44  55  70  98 135 170 201 235
#     4   9  16  25  37  52  70  92 120 156 195 232
#     4  10  20  31  43  60  80 100 124 159 201 240
#     4   8  13  21  33  49  69  92 118 149 184 222
#
# _framework density 14.385419000000001
#
# number of rings (size 3 to 8) (size 9 to 14) (size 15 to 20)
#    0.000    3.000    0.000    3.000    0.000    6.000 
#    0.000    6.000    0.000    0.000    0.000    0.000 
#    0.000    0.000    0.000    0.000    0.000    1.000 
#
# Total GULP energy -495797.812636 kJ/mol
# GULP energy per Si atom -12394.945316 kJ/mol
# Density = 1.435268 g / cm^3
# Si number density = 14.385419 Si / 1000 Ang^3
#
#
#
# Elastic Constant Matrix: (Units=GPa)
#
#
# Indices 1 2 3 4 5 6 
#
# 1 39.9639 40.4716 26.9640 0.0000 0.0000 0.0000
# 2 40.4716 124.4580 49.6387 0.0000 0.0000 0.0000
# 3 26.9640 49.6387 57.8516 0.0000 0.0000 0.0000
# 4 0.0000 0.0000 0.0000 25.7548 0.0000 0.0000
# 5 0.0000 0.0000 0.0000 0.0000 0.8679 0.0000
# 6 0.0000 0.0000 0.0000 0.0000 0.0000 18.1788
#
#
#
# Elastic Compliance Matrix: (Units=1/GPa)
#
#
# Indices 1 2 3 4 5 6 
#
# 1 0.042149 -0.008925 -0.011987 0.000000 0.000000 0.000000
# 2 -0.008925 0.014105 -0.007943 0.000000 0.000000 0.000000
# 3 -0.011987 -0.007943 0.029688 0.000000 0.000000 0.000000
# 4 0.000000 0.000000 0.000000 0.038828 0.000000 0.000000
# 5 0.000000 0.000000 0.000000 0.000000 1.152248 0.000000
# 6 0.000000 0.000000 0.000000 0.000000 0.000000 0.055009
#
#
# Mechanical properties :
#
#
# Convention : Reuss Voigt Hill
#
# Bulk Modulus (GPa) = 35.42096 50.71358 43.06727
# Shear Modulus (GPa) = 3.57361 15.97358 9.77359
#
# Velocity S-wave (km/s) = 1.57784 3.33588 2.60938
# Velocity P-wave (km/s) = 5.29110 7.08290 6.25153
#
# Compressibility (1/GPa) = 0.02823187
#
# Stress axis : x y z
#
# Youngs Moduli (GPa) = 23.72538 70.89689 33.68393
#
# Poissons Ratio (x) = 0.63277 0.40377
# Poissons Ratio (y) = 0.21175 0.26754
# Poissons Ratio (z) = 0.28440 0.56311
#
# Static dielectric constant tensor:
#      x y z
#    x 2.552590 0.000000 0.000000 
#    y 0.000000 3.042260 0.000000 
#    z 0.000000 0.000000 2.784170 
# 
# 
# High freq. dielectric constant tensor:
#      x y z
#    x 1.495210 0.000000 0.000000 
#    y 0.000000 1.564610 0.000000 
#    z 0.000000 0.000000 1.531940 
# 
# From -- ./inp_files/4012.got.cif
#   From: 2010.03.12/outbox.cif.g09.slc.cpg/sg47_3_cif.got.tgz:4012.got - 2010.04.14 03:12:58.
