data_PCOD8196258
_publ_section_title
;
Structure prediction by ZEFSAII (Michael W. Deem and Ramdas Pophale) SiO2 
 PCOD8196258
Probable space group: P M M M
;
_chemical_formula_sum "Si O2"
_cell_formula_units_Z 52
_cell_length_a 14.641251
_cell_length_b 19.722484
_cell_length_c 9.564133
_cell_angle_alpha 90.000000
_cell_angle_beta 90.000000
_cell_angle_gamma 90.000000
_cell_volume 2761.756630
_symmetry_space_group_name_H-M "P M M M"
_symmetry_group_IT_number 47
_symmetry_cell_setting 'orthorhombic'
loop_
_space_group_symop_operation_xyz
x,y,z
-x,-y,z
x,-y,-z
-x,y,-z
-x,-y,-z
x,y,-z
-x,y,z
x,-y,z
loop_
_atom_site_type_symbol
_atom_site_label
_atom_site_fract_x
_atom_site_fract_y
_atom_site_fract_z
Si Si1 0.651395 0.077450 0.659154
Si Si2 0.272325 0.323101 0.832944
Si Si3 0.600999 0.800846 0.841818
Si Si4 0.106629 0.287702 0.342486
Si Si5 0.000000 0.922441 0.160411
Si Si6 0.851502 0.866345 0.348699
Si Si7 0.395002 0.579447 0.658640
O O1 0.616882 0.083785 0.500000
O O2 0.596271 0.130211 0.752800
O O3 0.755902 0.097990 0.671665
O O4 0.637447 0.000000 0.712003
O O5 0.323514 0.253091 0.789692
O O6 0.170416 0.328783 0.766079
O O7 0.331008 0.384268 0.770881
O O8 0.265076 0.330618 0.000000
O O9 0.500000 0.767324 0.831880
O O10 0.624330 0.821857 0.000000
O O11 0.112653 0.318267 0.500000
O O12 0.152078 0.214134 0.342875
O O13 0.000000 0.286967 0.293506
O O14 0.910314 0.889887 0.220499
O O15 0.000000 0.000000 0.198685
O O16 0.000000 0.905724 0.000000
O O17 0.892817 0.888012 0.500000
O O18 0.371383 0.602856 0.500000
O O19 0.500000 0.597123 0.692230
O O20 0.377587 0.500000 0.673986
#
# Coordination Sequence:
#
# PCOD8196258 Si02
#       7
#     8   8   8   8   4   8   8
#     4  10  21  36  54  75  99 132 179 235 289 338
#     4  11  22  36  58  87 120 154 187 231 282 334
#     4  10  22  38  54  76 108 146 186 227 277 337
#     4  10  20  36  58  82 108 143 189 236 282 337
#     4  11  23  33  45  71 103 133 170 221 284 353
#     4  10  19  35  55  73  97 132 177 230 286 343
#     4   9  19  37  62  93 127 161 195 229 269 322
#
# _framework density 18.828595
#
# number of rings (size 3 to 8) (size 9 to 14) (size 15 to 20)
#    0.000    1.923    2.308    2.077    0.000    5.538 
#    0.000    2.308    0.000    0.462    0.000    3.231 
#    0.000    0.000    0.000    0.000    0.000    0.000 
#
# Total GULP energy -644533.923267 kJ/mol
# GULP energy per Si atom -12394.883140 kJ/mol
# Density = 1.878574 g / cm^3
# Si number density = 18.828595 Si / 1000 Ang^3
#
#
#
# Elastic Constant Matrix: (Units=GPa)
#
#
# Indices 1 2 3 4 5 6 
#
# 1 99.7829 33.6134 59.3293 0.0000 0.0000 0.0000
# 2 33.6134 64.6261 38.5249 0.0000 0.0000 0.0000
# 3 59.3293 38.5249 121.6947 0.0000 0.0000 0.0000
# 4 0.0000 0.0000 0.0000 22.0737 0.0000 0.0000
# 5 0.0000 0.0000 0.0000 0.0000 29.3739 0.0000
# 6 0.0000 0.0000 0.0000 0.0000 0.0000 19.0160
#
#
#
# Elastic Compliance Matrix: (Units=1/GPa)
#
#
# Indices 1 2 3 4 5 6 
#
# 1 0.015001 -0.004243 -0.005970 0.000000 0.000000 0.000000
# 2 -0.004243 0.020273 -0.004349 0.000000 0.000000 0.000000
# 3 -0.005970 -0.004349 0.012505 0.000000 0.000000 0.000000
# 4 0.000000 0.000000 0.000000 0.045303 0.000000 0.000000
# 5 0.000000 0.000000 0.000000 0.000000 0.034044 0.000000
# 6 0.000000 0.000000 0.000000 0.000000 0.000000 0.052587
#
#
# Mechanical properties :
#
#
# Convention : Reuss Voigt Hill
#
# Bulk Modulus (GPa) = 53.60864 61.00432 57.30648
# Shear Modulus (GPa) = 23.24978 24.40179 23.82578
#
# Velocity S-wave (km/s) = 3.51780 3.60390 3.56111
# Velocity P-wave (km/s) = 6.71071 7.05603 6.88554
#
# Compressibility (1/GPa) = 0.01865371
#
# Stress axis : x y z
#
# Youngs Moduli (GPa) = 66.66279 49.32579 79.97050
#
# Poissons Ratio (x) = 0.20931 0.47742
# Poissons Ratio (y) = 0.28288 0.34780
# Poissons Ratio (z) = 0.39797 0.21453
#
# Static dielectric constant tensor:
#      x y z
#    x 3.424120 0.000000 0.000000 
#    y 0.000000 3.234120 0.000000 
#    z 0.000000 0.000000 3.604370 
# 
# 
# High freq. dielectric constant tensor:
#      x y z
#    x 1.736010 0.000000 0.000000 
#    y 0.000000 1.707880 0.000000 
#    z 0.000000 0.000000 1.733950 
# 
# From -- ./inp_files/7069.got.cif
#   From: 2010.03.12/outbox.cif.g09.slc.cpg/sg47_4_cif.got.tgz:7069.got - 2010.04.14 03:12:58.
