data_PCOD8196031
_publ_section_title
;
Structure prediction by ZEFSAII (Michael W. Deem and Ramdas Pophale) SiO2 
 PCOD8196031
Probable space group: P M M M
;
_chemical_formula_sum "Si O2"
_cell_formula_units_Z 52
_cell_length_a 18.799506
_cell_length_b 9.234377
_cell_length_c 15.229616
_cell_angle_alpha 90.000000
_cell_angle_beta 90.000000
_cell_angle_gamma 90.000000
_cell_volume 2643.887621
_symmetry_space_group_name_H-M "P M M M"
_symmetry_group_IT_number 47
_symmetry_cell_setting 'orthorhombic'
loop_
_space_group_symop_operation_xyz
x,y,z
-x,-y,z
x,-y,-z
-x,y,-z
-x,-y,-z
x,y,-z
-x,y,z
x,-y,z
loop_
_atom_site_type_symbol
_atom_site_label
_atom_site_fract_x
_atom_site_fract_y
_atom_site_fract_z
Si Si1 0.921822 0.672228 0.000000
Si Si2 0.687349 0.169737 0.899250
Si Si3 0.331112 0.670079 0.396873
Si Si4 0.081109 0.333738 0.674779
Si Si5 0.417590 0.832744 0.746093
Si Si6 0.174611 0.332529 0.155134
Si Si7 0.195002 0.841927 0.400316
O O1 0.879765 0.728766 0.916277
O O2 0.928452 0.500000 0.000000
O O3 0.000000 0.742460 0.000000
O O4 0.619685 0.208748 0.838611
O O5 0.753266 0.244088 0.850815
O O6 0.701734 0.000000 0.901186
O O7 0.676321 0.226255 0.000000
O O8 0.346697 0.701280 0.500000
O O9 0.326050 0.500000 0.379095
O O10 0.392827 0.737466 0.336922
O O11 0.256857 0.738594 0.361949
O O12 0.081983 0.500000 0.644171
O O13 0.133719 0.305909 0.755129
O O14 0.116830 0.232773 0.601398
O O15 0.000000 0.286014 0.695173
O O16 0.500000 0.801035 0.761256
O O17 0.402742 0.000000 0.722364
O O18 0.192842 0.500000 0.139137
O O19 0.214865 0.867934 0.500000
O O20 0.194477 0.000000 0.352633
#
# Coordination Sequence:
#
# PCOD8196031 Si02
#       7
#     4   8   8   8   8   8   8
#     4   9  16  28  49  75 102 133 170 214 261 311
#     4  10  21  37  57  81 111 147 188 236 285 333
#     4  10  21  38  61  88 117 149 185 228 281 339
#     4  10  21  35  52  78 111 146 186 233 285 336
#     4  10  22  39  59  85 116 151 190 231 278 334
#     4  10  19  33  54  79 105 138 181 226 270 327
#     4  10  21  37  57  80 107 143 188 233 276 328
#
# _framework density 19.668005999999998
#
# number of rings (size 3 to 8) (size 9 to 14) (size 15 to 20)
#    0.000    2.077    0.769    2.308    0.000    8.923 
#    0.000    4.615    0.000    1.846    0.000    2.154 
#    0.000    0.000    0.000    0.000    0.000    0.000 
#
# Total GULP energy -644608.559820 kJ/mol
# GULP energy per Si atom -12396.318458 kJ/mol
# Density = 1.962324 g / cm^3
# Si number density = 19.668006 Si / 1000 Ang^3
#
#
#
# Elastic Constant Matrix: (Units=GPa)
#
#
# Indices 1 2 3 4 5 6 
#
# 1 162.4335 64.2675 50.2419 0.0000 0.0000 0.0000
# 2 64.2675 84.6616 41.3250 0.0000 0.0000 0.0000
# 3 50.2419 41.3250 69.8689 0.0000 0.0000 0.0000
# 4 0.0000 0.0000 0.0000 14.4073 0.0000 0.0000
# 5 0.0000 0.0000 0.0000 0.0000 30.7545 0.0000
# 6 0.0000 0.0000 0.0000 0.0000 0.0000 31.3987
#
#
#
# Elastic Compliance Matrix: (Units=1/GPa)
#
#
# Indices 1 2 3 4 5 6 
#
# 1 0.009391 -0.005388 -0.003566 0.000000 0.000000 0.000000
# 2 -0.005388 0.019698 -0.007776 0.000000 0.000000 0.000000
# 3 -0.003566 -0.007776 0.021476 0.000000 0.000000 0.000000
# 4 0.000000 0.000000 0.000000 0.069409 0.000000 0.000000
# 5 0.000000 0.000000 0.000000 0.000000 0.032516 0.000000
# 6 0.000000 0.000000 0.000000 0.000000 0.000000 0.031848
#
#
# Mechanical properties :
#
#
# Convention : Reuss Voigt Hill
#
# Bulk Modulus (GPa) = 58.46452 69.84808 64.15630
# Shear Modulus (GPa) = 22.37139 26.05409 24.21274
#
# Velocity S-wave (km/s) = 3.37627 3.64358 3.51247
# Velocity P-wave (km/s) = 6.70740 7.30011 7.01002
#
# Compressibility (1/GPa) = 0.01710439
#
# Stress axis : x y z
#
# Youngs Moduli (GPa) = 106.48123 50.76782 46.56370
#
# Poissons Ratio (x) = 0.27355 0.16606
# Poissons Ratio (y) = 0.57376 0.36206
# Poissons Ratio (z) = 0.37973 0.39475
#
# Static dielectric constant tensor:
#      x y z
#    x 3.665300 0.000000 0.000000 
#    y 0.000000 3.566350 0.000000 
#    z 0.000000 0.000000 3.587940 
# 
# 
# High freq. dielectric constant tensor:
#      x y z
#    x 1.767990 0.000000 0.000000 
#    y 0.000000 1.754540 0.000000 
#    z 0.000000 0.000000 1.770110 
# 
# From -- ./inp_files/28524.got.cif
#   From: 2010.03.12/outbox.cif.g09.slc.cpg/sg47_15_cif.got.tgz:28524.got - 2010.04.14 03:12:58.
