data_PCOD8196434
_publ_section_title
;
Structure prediction by ZEFSAII (Michael W. Deem and Ramdas Pophale) SiO2 
 PCOD8196434
Probable space group: P M M M
;
_chemical_formula_sum "Si O2"
_cell_formula_units_Z 36
_cell_length_a 9.231396
_cell_length_b 20.465287
_cell_length_c 12.427067
_cell_angle_alpha 90.000000
_cell_angle_beta 90.000000
_cell_angle_gamma 90.000000
_cell_volume 2347.760873
_symmetry_space_group_name_H-M "P M M M"
_symmetry_group_IT_number 47
_symmetry_cell_setting 'orthorhombic'
loop_
_space_group_symop_operation_xyz
x,y,z
-x,-y,z
x,-y,-z
-x,y,-z
-x,-y,-z
x,y,-z
-x,y,z
x,-y,z
loop_
_atom_site_type_symbol
_atom_site_label
_atom_site_fract_x
_atom_site_fract_y
_atom_site_fract_z
Si Si1 0.833129 0.678419 0.627099
Si Si2 0.837251 0.072140 0.627967
Si Si3 0.662791 0.805347 0.628214
Si Si4 0.671723 0.575637 0.767072
Si Si5 0.658285 0.422758 0.000000
O O1 0.816233 0.671426 0.500000
O O2 0.756146 0.744132 0.669536
O O3 0.756249 0.616115 0.678229
O O4 0.000000 0.681268 0.662087
O O5 0.837223 0.075568 0.500000
O O6 0.731971 0.127850 0.675249
O O7 0.000000 0.084987 0.670236
O O8 0.783916 0.000000 0.665359
O O9 0.662988 0.807294 0.500000
O O10 0.500000 0.798987 0.673119
O O11 0.500000 0.588907 0.759712
O O12 0.705334 0.500000 0.744193
O O13 0.733528 0.596701 0.886406
O O14 0.638322 0.500000 0.000000
O O15 0.500000 0.389985 0.000000
#
# Coordination Sequence:
#
# PCOD8196434 Si02
#       5
#     8   8   8   8   4
#     4  10  20  31  41  55  80 113 143 170 203 243
#     4   8  13  21  33  49  70  97 128 161 198 239
#     4   9  16  25  37  52  71  98 134 172 204 236
#     4   9  17  30  48  66  82 102 131 167 205 246
#     4   7  12  26  47  67  83  99 122 157 204 251
#
# _framework density 15.333759000000001
#
# number of rings (size 3 to 8) (size 9 to 14) (size 15 to 20)
#    0.000    3.222    0.000    3.333    0.000    5.333 
#    0.000    5.000    0.000    2.000    0.000    0.000 
#    0.000    0.000    0.000    1.000    0.000   19.778 
#
# Total GULP energy -446038.248173 kJ/mol
# GULP energy per Si atom -12389.951338 kJ/mol
# Density = 1.529886 g / cm^3
# Si number density = 15.333759 Si / 1000 Ang^3
#
#
#
# Elastic Constant Matrix: (Units=GPa)
#
#
# Indices 1 2 3 4 5 6 
#
# 1 102.3990 71.6110 25.3743 0.0000 0.0000 0.0000
# 2 71.6110 116.7277 29.8669 0.0000 0.0000 0.0000
# 3 25.3743 29.8669 23.8457 0.0000 0.0000 0.0000
# 4 0.0000 0.0000 0.0000 0.5764 0.0000 0.0000
# 5 0.0000 0.0000 0.0000 0.0000 9.0241 0.0000
# 6 0.0000 0.0000 0.0000 0.0000 0.0000 31.4325
#
#
#
# Elastic Compliance Matrix: (Units=1/GPa)
#
#
# Indices 1 2 3 4 5 6 
#
# 1 0.018051 -0.009064 -0.007855 0.000000 0.000000 0.000000
# 2 -0.009064 0.017159 -0.011846 0.000000 0.000000 0.000000
# 3 -0.007855 -0.011846 0.065133 0.000000 0.000000 0.000000
# 4 0.000000 0.000000 0.000000 1.734858 0.000000 0.000000
# 5 0.000000 0.000000 0.000000 0.000000 0.110815 0.000000
# 6 0.000000 0.000000 0.000000 0.000000 0.000000 0.031814
#
#
# Mechanical properties :
#
#
# Convention : Reuss Voigt Hill
#
# Bulk Modulus (GPa) = 23.35845 55.18633 39.27239
# Shear Modulus (GPa) = 2.43946 15.94793 9.19370
#
# Velocity S-wave (km/s) = 1.26268 3.22849 2.45127
# Velocity P-wave (km/s) = 4.17040 7.06864 5.80336
#
# Compressibility (1/GPa) = 0.04281106
#
# Stress axis : x y z
#
# Youngs Moduli (GPa) = 55.39795 58.27896 15.35327
#
# Poissons Ratio (x) = 0.52826 0.12060
# Poissons Ratio (y) = 0.50214 0.18188
# Poissons Ratio (z) = 0.43517 0.69039
#
# Static dielectric constant tensor:
#      x y z
#    x 2.985490 0.000000 0.000000 
#    y 0.000000 3.046930 0.000000 
#    z 0.000000 0.000000 2.618690 
# 
# 
# High freq. dielectric constant tensor:
#      x y z
#    x 1.585160 0.000000 0.000000 
#    y 0.000000 1.589330 0.000000 
#    z 0.000000 0.000000 1.527260 
# 
# From -- ./inp_files/3923.got.cif
#   From: 2010.03.12/outbox.cif.g09.slc.cpg/sg47_2_cif.got.tgz:3923.got - 2010.04.14 03:12:58.
