data_PCOD8196592
_publ_section_title
;
Structure prediction by ZEFSAII (Michael W. Deem and Ramdas Pophale) SiO2 
 PCOD8196592
Probable space group: P M M M
;
_chemical_formula_sum "Si O2"
_cell_formula_units_Z 64
_cell_length_a 17.804670
_cell_length_b 9.290377
_cell_length_c 22.787579
_cell_angle_alpha 90.000000
_cell_angle_beta 90.000000
_cell_angle_gamma 90.000000
_cell_volume 3769.341220
_symmetry_space_group_name_H-M "P M M M"
_symmetry_group_IT_number 47
_symmetry_cell_setting 'orthorhombic'
loop_
_space_group_symop_operation_xyz
x,y,z
-x,-y,z
x,-y,-z
-x,y,-z
-x,-y,-z
x,y,-z
-x,y,z
x,-y,z
loop_
_atom_site_type_symbol
_atom_site_label
_atom_site_fract_x
_atom_site_fract_y
_atom_site_fract_z
Si Si1 0.809954 0.334622 0.233148
Si Si2 0.796145 0.831707 0.064555
Si Si3 0.294958 0.662871 0.334783
Si Si4 0.226110 0.168259 0.567775
Si Si5 0.686495 0.168535 0.160625
Si Si6 0.585963 0.332605 0.238207
Si Si7 0.086390 0.168181 0.160759
Si Si8 0.917547 0.660469 0.430495
O O1 0.808718 0.500000 0.211088
O O2 0.785709 0.328223 0.301311
O O3 0.750505 0.236533 0.200137
O O4 0.890464 0.260952 0.218790
O O5 0.713673 0.803088 0.093551
O O6 0.863972 0.774261 0.105709
O O7 0.808956 0.000000 0.057351
O O8 0.798744 0.757888 0.000000
O O9 0.311216 0.500000 0.354865
O O10 0.291579 0.761125 0.392824
O O11 0.363112 0.717332 0.293267
O O12 0.241809 0.207710 0.500000
O O13 0.145809 0.228109 0.589886
O O14 0.226126 0.000000 0.578481
O O15 0.608675 0.246439 0.178695
O O16 0.678861 0.000000 0.173759
O O17 0.500000 0.299001 0.253572
O O18 0.600286 0.500000 0.225289
O O19 0.000000 0.197867 0.145921
O O20 0.101615 0.000000 0.173382
O O21 0.921162 0.658245 0.500000
O O22 0.897175 0.500000 0.407444
O O23 0.000000 0.706880 0.406102
#
# Coordination Sequence:
#
# PCOD8196592 Si02
#       8
#     8   8   8   8   8   8   8   8
#     4   9  17  30  47  65  86 116 154 193 236 281
#     4   8  14  25  42  65  93 126 163 200 235 271
#     4   9  18  32  50  70  90 116 150 185 222 270
#     4  10  20  31  45  68  96 125 155 187 226 272
#     4   9  16  27  46  71  95 119 151 189 228 272
#     4   9  18  33  53  76  99 120 145 183 231 279
#     4   9  17  28  43  65  92 122 159 204 248 284
#     4   8  14  26  44  63  83 111 148 187 223 258
#
# _framework density 16.979092999999999
#
# number of rings (size 3 to 8) (size 9 to 14) (size 15 to 20)
#    0.000    3.125    0.000    3.000    0.000    4.250 
#    0.000    3.125    0.000   10.875    0.000    8.750 
#    0.000    0.000    0.000    0.000    0.000    0.000 
#
# Total GULP energy -792927.215404 kJ/mol
# GULP energy per Si atom -12389.487741 kJ/mol
# Density = 1.694045 g / cm^3
# Si number density = 16.979093 Si / 1000 Ang^3
#
#
#
# Elastic Constant Matrix: (Units=GPa)
#
#
# Indices 1 2 3 4 5 6 
#
# 1 99.9913 45.0202 51.2385 0.0000 0.0000 0.0000
# 2 45.0202 69.2852 41.2810 0.0000 0.0000 0.0000
# 3 51.2385 41.2810 73.2178 0.0000 0.0000 0.0000
# 4 0.0000 0.0000 0.0000 17.6991 0.0000 0.0000
# 5 0.0000 0.0000 0.0000 0.0000 19.0517 0.0000
# 6 0.0000 0.0000 0.0000 0.0000 0.0000 25.0682
#
#
#
# Elastic Compliance Matrix: (Units=1/GPa)
#
#
# Indices 1 2 3 4 5 6 
#
# 1 0.017100 -0.005995 -0.008587 0.000000 0.000000 0.000000
# 2 -0.005995 0.023836 -0.009243 0.000000 0.000000 0.000000
# 3 -0.008587 -0.009243 0.024879 0.000000 0.000000 0.000000
# 4 0.000000 0.000000 0.000000 0.056500 0.000000 0.000000
# 5 0.000000 0.000000 0.000000 0.000000 0.052489 0.000000
# 6 0.000000 0.000000 0.000000 0.000000 0.000000 0.039891
#
#
# Mechanical properties :
#
#
# Convention : Reuss Voigt Hill
#
# Bulk Modulus (GPa) = 55.05433 57.50820 56.28127
# Shear Modulus (GPa) = 18.62886 19.36077 18.99482
#
# Velocity S-wave (km/s) = 3.31594 3.38045 3.34835
# Velocity P-wave (km/s) = 6.86701 7.01286 6.94031
#
# Compressibility (1/GPa) = 0.01816388
#
# Stress axis : x y z
#
# Youngs Moduli (GPa) = 58.47843 41.95305 40.19532
#
# Poissons Ratio (x) = 0.25153 0.34515
# Poissons Ratio (y) = 0.35060 0.37154
# Poissons Ratio (z) = 0.50214 0.38779
#
# Static dielectric constant tensor:
#      x y z
#    x 3.298770 0.000000 0.000000 
#    y 0.000000 3.236750 0.000000 
#    z 0.000000 0.000000 3.312110 
# 
# 
# High freq. dielectric constant tensor:
#      x y z
#    x 1.635330 0.000000 0.000000 
#    y 0.000000 1.648060 0.000000 
#    z 0.000000 0.000000 1.634870 
# 
# From -- ./inp_files/32923.got.cif
#   From: 2010.03.12/outbox.cif.g09.slc.cpg/sg47_17_cif.got.tgz:32923.got - 2010.04.14 03:12:58.
