data_PCOD8196226
_publ_section_title
;
Structure prediction by ZEFSAII (Michael W. Deem and Ramdas Pophale) SiO2 
 PCOD8196226
Probable space group: P M M M
;
_chemical_formula_sum "Si O2"
_cell_formula_units_Z 48
_cell_length_a 19.005663
_cell_length_b 8.896170
_cell_length_c 15.042600
_cell_angle_alpha 90.000000
_cell_angle_beta 90.000000
_cell_angle_gamma 90.000000
_cell_volume 2543.366841
_symmetry_space_group_name_H-M "P M M M"
_symmetry_group_IT_number 47
_symmetry_cell_setting 'orthorhombic'
loop_
_space_group_symop_operation_xyz
x,y,z
-x,-y,z
x,-y,-z
-x,y,-z
-x,-y,-z
x,y,-z
-x,y,z
x,-y,z
loop_
_atom_site_type_symbol
_atom_site_label
_atom_site_fract_x
_atom_site_fract_y
_atom_site_fract_z
Si Si1 0.325528 0.823652 0.839953
Si Si2 0.831879 0.825460 0.897659
Si Si3 0.679403 0.677847 0.655060
Si Si4 0.174760 0.174648 0.602237
Si Si5 0.918103 0.325153 0.746327
Si Si6 0.578970 0.178783 0.000000
Si Si7 0.578638 0.678460 0.500000
O O1 0.247899 0.784608 0.873893
O O2 0.343498 0.734339 0.751181
O O3 0.380700 0.763893 0.912690
O O4 0.333790 0.000000 0.822035
O O5 0.883207 0.726379 0.838146
O O6 0.846795 0.000000 0.878833
O O7 0.846320 0.785018 0.000000
O O8 0.685900 0.500000 0.654553
O O9 0.753968 0.742581 0.626794
O O10 0.620037 0.735466 0.586876
O O11 0.154650 0.203876 0.500000
O O12 0.111720 0.235875 0.662109
O O13 0.185792 0.000000 0.622954
O O14 0.902617 0.500000 0.732051
O O15 0.000000 0.289225 0.752865
O O16 0.500000 0.244018 0.000000
O O17 0.579245 0.000000 0.000000
O O18 0.574764 0.500000 0.500000
O O19 0.500000 0.747504 0.500000
#
# Coordination Sequence:
#
# PCOD8196226 Si02
#       7
#     8   8   8   8   8   4   4
#     4  10  19  34  57  85 115 151 196 242 288 341
#     4  10  20  36  60  87 115 155 201 243 286 343
#     4  11  21  35  59  88 115 152 198 240 288 348
#     4  11  23  39  62  89 117 151 193 242 293 350
#     4  11  25  42  60  87 122 155 191 241 295 347
#     4   9  18  34  57  85 120 159 196 240 294 346
#     4   9  20  38  57  81 118 159 194 233 287 350
#
# _framework density 18.872620999999999
#
# number of rings (size 3 to 8) (size 9 to 14) (size 15 to 20)
#    0.000    1.667    3.333    1.500    0.000    4.000 
#    0.000    3.750    0.000    4.000    0.000    0.000 
#    0.000    0.000    0.000    0.000    0.000    0.000 
#
# Total GULP energy -595381.912901 kJ/mol
# GULP energy per Si atom -12403.789852 kJ/mol
# Density = 1.882967 g / cm^3
# Si number density = 18.872621 Si / 1000 Ang^3
#
#
#
# Elastic Constant Matrix: (Units=GPa)
#
#
# Indices 1 2 3 4 5 6 
#
# 1 139.6384 49.0323 80.3042 0.0000 0.0000 0.0000
# 2 49.0323 64.5385 58.6618 0.0000 0.0000 0.0000
# 3 80.3042 58.6618 168.6219 0.0000 0.0000 0.0000
# 4 0.0000 0.0000 0.0000 25.5595 0.0000 0.0000
# 5 0.0000 0.0000 0.0000 0.0000 44.0964 0.0000
# 6 0.0000 0.0000 0.0000 0.0000 0.0000 17.2488
#
#
#
# Elastic Compliance Matrix: (Units=1/GPa)
#
#
# Indices 1 2 3 4 5 6 
#
# 1 0.010952 -0.005235 -0.003394 0.000000 0.000000 0.000000
# 2 -0.005235 0.025162 -0.006261 0.000000 0.000000 0.000000
# 3 -0.003394 -0.006261 0.009725 0.000000 0.000000 0.000000
# 4 0.000000 0.000000 0.000000 0.039124 0.000000 0.000000
# 5 0.000000 0.000000 0.000000 0.000000 0.022678 0.000000
# 6 0.000000 0.000000 0.000000 0.000000 0.000000 0.057975
#
#
# Mechanical properties :
#
#
# Convention : Reuss Voigt Hill
#
# Bulk Modulus (GPa) = 62.27063 83.19947 72.73505
# Shear Modulus (GPa) = 24.90670 29.70097 27.30384
#
# Velocity S-wave (km/s) = 3.63675 3.97137 3.80773
# Velocity P-wave (km/s) = 7.12049 8.07524 7.61285
#
# Compressibility (1/GPa) = 0.01605893
#
# Stress axis : x y z
#
# Youngs Moduli (GPa) = 91.31051 39.74179 102.82827
#
# Poissons Ratio (x) = 0.20805 0.34904
# Poissons Ratio (y) = 0.47802 0.64377
# Poissons Ratio (z) = 0.30994 0.24881
#
# Static dielectric constant tensor:
#      x y z
#    x 3.544430 0.000000 0.000000 
#    y 0.000000 3.337290 0.000000 
#    z 0.000000 0.000000 4.497110 
# 
# 
# High freq. dielectric constant tensor:
#      x y z
#    x 1.734000 0.000000 0.000000 
#    y 0.000000 1.720400 0.000000 
#    z 0.000000 0.000000 1.752140 
# 
# From -- ./inp_files/6478.got.cif
#   From: 2010.03.12/outbox.cif.g09.slc.cpg/sg47_4_cif.got.tgz:6478.got - 2010.04.14 03:12:58.
