data_PCOD8196542
_publ_section_title
;
Structure prediction by ZEFSAII (Michael W. Deem and Ramdas Pophale) SiO2 
 PCOD8196542
Probable space group: P M M M
;
_chemical_formula_sum "Si O2"
_cell_formula_units_Z 64
_cell_length_a 22.532274
_cell_length_b 9.765108
_cell_length_c 17.587451
_cell_angle_alpha 90.000000
_cell_angle_beta 90.000000
_cell_angle_gamma 90.000000
_cell_volume 3869.768410
_symmetry_space_group_name_H-M "P M M M"
_symmetry_group_IT_number 47
_symmetry_cell_setting 'orthorhombic'
loop_
_space_group_symop_operation_xyz
x,y,z
-x,-y,z
x,-y,-z
-x,y,-z
-x,-y,-z
x,y,-z
-x,y,z
x,-y,z
loop_
_atom_site_type_symbol
_atom_site_label
_atom_site_fract_x
_atom_site_fract_y
_atom_site_fract_z
Si Si1 0.432084 0.841484 0.804150
Si Si2 0.166963 0.650210 0.699837
Si Si3 0.359797 0.344211 0.087162
Si Si4 0.669046 0.152454 0.694125
Si Si5 0.261245 0.337022 0.412310
Si Si6 0.068156 0.662834 0.804181
Si Si7 0.140469 0.155195 0.912475
Si Si8 0.249735 0.252069 0.821932
O O1 0.500000 0.803418 0.787827
O O2 0.408407 0.751886 0.873862
O O3 0.395802 0.809163 0.726918
O O4 0.424205 0.000000 0.827134
O O5 0.149757 0.500000 0.672214
O O6 0.200234 0.719743 0.627624
O O7 0.105816 0.718699 0.730480
O O8 0.212542 0.641239 0.770806
O O9 0.381795 0.500000 0.094739
O O10 0.295071 0.333185 0.124846
O O11 0.354439 0.298493 0.000000
O O12 0.683710 0.261394 0.627948
O O13 0.714967 0.152746 0.764604
O O14 0.669528 0.000000 0.658773
O O15 0.259132 0.296127 0.500000
O O16 0.268577 0.500000 0.400163
O O17 0.078035 0.500000 0.816044
O O18 0.091492 0.741940 0.878151
O O19 0.000000 0.698985 0.789504
O O20 0.204635 0.164751 0.872945
O O21 0.117208 0.000000 0.903119
O O22 0.148067 0.195932 0.000000
#
# Coordination Sequence:
#
# PCOD8196542 Si02
#       8
#     8   8   8   8   8   8   8   8
#     4   9  19  35  51  66  88 122 162 199 234 273
#     4   8  14  26  45  66  87 113 146 180 213 257
#     4  10  20  31  45  68  95 122 155 197 242 284
#     4   9  17  29  48  71  91 114 148 188 224 264
#     4   9  17  29  47  72 100 124 142 168 216 276
#     4   9  18  32  48  64  84 116 157 195 229 267
#     4  10  20  31  44  64  89 117 150 191 238 282
#     4   9  16  29  46  64  89 118 148 185 231 279
#
# _framework density 16.538457999999999
#
# number of rings (size 3 to 8) (size 9 to 14) (size 15 to 20)
#    0.000    2.875    0.000    1.125    0.000    5.750 
#    0.000    2.500    0.000    0.750    0.000    5.250 
#    0.000    0.000    0.000    9.125    0.000    5.125 
#
# Total GULP energy -793106.552819 kJ/mol
# GULP energy per Si atom -12392.289888 kJ/mol
# Density = 1.650082 g / cm^3
# Si number density = 16.538458 Si / 1000 Ang^3
#
#
#
# Elastic Constant Matrix: (Units=GPa)
#
#
# Indices 1 2 3 4 5 6 
#
# 1 126.4571 34.3255 61.2387 0.0000 0.0000 0.0000
# 2 34.3255 57.8275 42.4199 0.0000 0.0000 0.0000
# 3 61.2387 42.4199 124.5231 0.0000 0.0000 0.0000
# 4 0.0000 0.0000 0.0000 21.8551 0.0000 0.0000
# 5 0.0000 0.0000 0.0000 0.0000 14.3051 0.0000
# 6 0.0000 0.0000 0.0000 0.0000 0.0000 20.7587
#
#
#
# Elastic Compliance Matrix: (Units=1/GPa)
#
#
# Indices 1 2 3 4 5 6 
#
# 1 0.010851 -0.003368 -0.004189 0.000000 0.000000 0.000000
# 2 -0.003368 0.024099 -0.006553 0.000000 0.000000 0.000000
# 3 -0.004189 -0.006553 0.012323 0.000000 0.000000 0.000000
# 4 0.000000 0.000000 0.000000 0.045756 0.000000 0.000000
# 5 0.000000 0.000000 0.000000 0.000000 0.069905 0.000000
# 6 0.000000 0.000000 0.000000 0.000000 0.000000 0.048173
#
#
# Mechanical properties :
#
#
# Convention : Reuss Voigt Hill
#
# Bulk Modulus (GPa) = 52.48606 64.97512 58.73059
# Shear Modulus (GPa) = 20.35188 22.77201 21.56194
#
# Velocity S-wave (km/s) = 3.51177 3.71470 3.61466
# Velocity P-wave (km/s) = 6.94608 7.60074 7.28077
#
# Compressibility (1/GPa) = 0.01905268
#
# Stress axis : x y z
#
# Youngs Moduli (GPa) = 92.16154 41.49508 81.14859
#
# Poissons Ratio (x) = 0.13975 0.33992
# Poissons Ratio (y) = 0.31040 0.53179
# Poissons Ratio (z) = 0.38605 0.27193
#
# Static dielectric constant tensor:
#      x y z
#    x 3.199690 0.000000 0.000000 
#    y 0.000000 2.981450 0.000000 
#    z 0.000000 0.000000 3.036540 
# 
# 
# High freq. dielectric constant tensor:
#      x y z
#    x 1.631060 0.000000 0.000000 
#    y 0.000000 1.627930 0.000000 
#    z 0.000000 0.000000 1.620610 
# 
# From -- ./inp_files/28885.got.cif
#   From: 2010.03.12/outbox.cif.g09.slc.cpg/sg47_15_cif.got.tgz:28885.got - 2010.04.14 03:12:58.
