data_PCOD8196147
_publ_section_title
;
Structure prediction by ZEFSAII (Michael W. Deem and Ramdas Pophale) SiO2 
 PCOD8196147
Probable space group: P M M M
;
_chemical_formula_sum "Si O2"
_cell_formula_units_Z 60
_cell_length_a 13.198889
_cell_length_b 10.938129
_cell_length_c 22.352806
_cell_angle_alpha 90.000000
_cell_angle_beta 90.000000
_cell_angle_gamma 90.000000
_cell_volume 3227.100320
_symmetry_space_group_name_H-M "P M M M"
_symmetry_group_IT_number 47
_symmetry_cell_setting 'orthorhombic'
loop_
_space_group_symop_operation_xyz
x,y,z
-x,-y,z
x,-y,-z
-x,y,-z
-x,-y,-z
x,y,-z
-x,y,z
x,-y,z
loop_
_atom_site_type_symbol
_atom_site_label
_atom_site_fract_x
_atom_site_fract_y
_atom_site_fract_z
Si Si1 0.387749 0.000000 0.070729
Si Si2 0.883744 0.638124 0.352461
Si Si3 0.885848 0.140936 0.163733
Si Si4 0.199907 0.858504 0.569826
Si Si5 0.611015 0.859097 0.357507
Si Si6 0.389463 0.360809 0.847619
Si Si7 0.742868 0.770373 0.929950
Si Si8 0.255317 0.255168 0.743589
O O1 0.325581 0.116543 0.092164
O O2 0.500000 0.000000 0.099614
O O3 0.396891 0.000000 0.000000
O O4 0.863939 0.500000 0.379549
O O5 0.864445 0.751695 0.397922
O O6 0.812372 0.650338 0.294486
O O7 0.000000 0.648007 0.332148
O O8 0.847309 0.220486 0.106860
O O9 0.819642 0.161226 0.223177
O O10 0.000000 0.183567 0.177245
O O11 0.881842 0.000000 0.145239
O O12 0.181300 0.842885 0.500000
O O13 0.318356 0.834500 0.584628
O O14 0.170452 0.000000 0.589341
O O15 0.500000 0.794879 0.365605
O O16 0.667921 0.815416 0.298680
O O17 0.591185 0.000000 0.348830
O O18 0.500000 0.293353 0.849911
O O19 0.413592 0.500000 0.840612
O O20 0.325102 0.343515 0.908909
O O21 0.322900 0.323349 0.791453
O O22 0.767054 0.765174 0.000000
#
# Coordination Sequence:
#
# PCOD8196147 Si02
#       8
#     4   8   8   8   8   8   8   8
#     4   9  16  28  47  69  93 121 152 190 240 297
#     4  10  21  36  55  79 106 140 182 225 269 315
#     4  10  20  33  51  76 105 136 170 211 259 310
#     4   9  19  35  54  79 111 144 179 220 265 314
#     4   9  17  30  51  79 109 141 176 214 256 306
#     4  10  21  35  52  75 101 132 170 210 254 307
#     4  10  20  34  51  72 100 130 165 207 254 307
#     4  10  19  34  53  75 104 137 173 213 262 310
#
# _framework density 18.592544
#
# number of rings (size 3 to 8) (size 9 to 14) (size 15 to 20)
#    0.000    2.333    0.667    2.000    0.000    2.933 
#    0.000    4.000    0.000    7.200    0.000    7.467 
#    0.000    0.000    0.000    0.000    0.000    0.000 
#
# Total GULP energy -743443.408719 kJ/mol
# GULP energy per Si atom -12390.723479 kJ/mol
# Density = 1.855023 g / cm^3
# Si number density = 18.592544 Si / 1000 Ang^3
#
#
#
# Elastic Constant Matrix: (Units=GPa)
#
#
# Indices 1 2 3 4 5 6 
#
# 1 112.7773 40.2600 20.1667 0.0000 0.0000 0.0000
# 2 40.2600 53.0345 32.5876 0.0000 0.0000 0.0000
# 3 20.1667 32.5876 71.4856 0.0000 0.0000 0.0000
# 4 0.0000 0.0000 0.0000 20.4271 0.0000 0.0000
# 5 0.0000 0.0000 0.0000 0.0000 17.5978 0.0000
# 6 0.0000 0.0000 0.0000 0.0000 0.0000 25.2934
#
#
#
# Elastic Compliance Matrix: (Units=1/GPa)
#
#
# Indices 1 2 3 4 5 6 
#
# 1 0.012224 -0.009947 0.001086 0.000000 0.000000 0.000000
# 2 -0.009947 0.034286 -0.012824 0.000000 0.000000 0.000000
# 3 0.001086 -0.012824 0.019528 0.000000 0.000000 0.000000
# 4 0.000000 0.000000 0.000000 0.048955 0.000000 0.000000
# 5 0.000000 0.000000 0.000000 0.000000 0.056825 0.000000
# 6 0.000000 0.000000 0.000000 0.000000 0.000000 0.039536
#
#
# Mechanical properties :
#
#
# Convention : Reuss Voigt Hill
#
# Bulk Modulus (GPa) = 44.11265 47.03623 45.57444
# Shear Modulus (GPa) = 19.06365 22.28253 20.67309
#
# Velocity S-wave (km/s) = 3.20556 3.46564 3.33814
# Velocity P-wave (km/s) = 6.12196 6.43176 6.27877
#
# Compressibility (1/GPa) = 0.02266923
#
# Stress axis : x y z
#
# Youngs Moduli (GPa) = 81.80870 29.16639 51.20752
#
# Poissons Ratio (x) = 0.29010 -0.05560
# Poissons Ratio (y) = 0.81371 0.65667
# Poissons Ratio (z) = -0.08883 0.37402
#
# Static dielectric constant tensor:
#      x y z
#    x 3.747390 0.000000 0.000000 
#    y 0.000000 3.395450 0.000000 
#    z 0.000000 0.000000 3.298920 
# 
# 
# High freq. dielectric constant tensor:
#      x y z
#    x 1.736400 0.000000 0.000000 
#    y 0.000000 1.708160 0.000000 
#    z 0.000000 0.000000 1.710800 
# 
# From -- ./inp_files/16603.got.cif
#   From: 2010.03.12/outbox.cif.g09.slc.cpg/sg47_9_cif.got.tgz:16603.got - 2010.04.14 03:12:58.
