data_PCOD8196709
_publ_section_title
;
Structure prediction by ZEFSAII (Michael W. Deem and Ramdas Pophale) SiO2 
 PCOD8196709
Probable space group: P M M M
;
_chemical_formula_sum "Si O2"
_cell_formula_units_Z 52
_cell_length_a 23.006424
_cell_length_b 9.190316
_cell_length_c 20.171051
_cell_angle_alpha 90.000000
_cell_angle_beta 90.000000
_cell_angle_gamma 90.000000
_cell_volume 4264.892523
_symmetry_space_group_name_H-M "P M M M"
_symmetry_group_IT_number 47
_symmetry_cell_setting 'orthorhombic'
loop_
_space_group_symop_operation_xyz
x,y,z
-x,-y,z
x,-y,-z
-x,y,-z
-x,-y,-z
x,y,-z
-x,y,z
x,-y,z
loop_
_atom_site_type_symbol
_atom_site_label
_atom_site_fract_x
_atom_site_fract_y
_atom_site_fract_z
Si Si1 0.875390 0.836133 0.420573
Si Si2 0.569123 0.336500 0.926841
Si Si3 0.430786 0.163352 0.802056
Si Si4 0.651518 0.168221 0.578221
Si Si5 0.000000 0.172835 0.572668
Si Si6 0.765165 0.336307 0.421096
Si Si7 0.431457 0.668222 0.327669
O O1 0.877983 0.832440 0.500000
O O2 0.824922 0.731732 0.392788
O O3 0.938799 0.782669 0.391902
O O4 0.861485 0.000000 0.396733
O O5 0.500000 0.336644 0.923233
O O6 0.592019 0.500000 0.914099
O O7 0.594703 0.231151 0.870154
O O8 0.589210 0.282381 0.000000
O O9 0.500000 0.162606 0.804397
O O10 0.409116 0.259973 0.740554
O O11 0.406435 0.000000 0.794437
O O12 0.644563 0.187071 0.500000
O O13 0.711122 0.240637 0.604094
O O14 0.597369 0.249784 0.610832
O O15 0.651788 0.000000 0.599185
O O16 0.000000 0.245566 0.500000
O O17 0.000000 0.000000 0.565065
O O18 0.766920 0.334868 0.500000
O O19 0.758753 0.500000 0.393758
O O20 0.500000 0.687095 0.335999
O O21 0.413062 0.500000 0.327480
#
# Coordination Sequence:
#
# PCOD8196709 Si02
#       7
#     8   8   8   8   4   8   8
#     4   8  12  19  31  45  61  81 103 123 144 173
#     4   8  13  21  33  49  69  91 111 128 146 171
#     4   9  16  25  37  52  69  87 106 127 150 180
#     4  10  20  32  44  55  65  78  99 129 164 202
#     4   7  10  16  27  43  61  81 103 123 141 167
#     4   9  16  25  36  49  64  80  98 122 153 188
#     4  10  20  32  44  55  67  83 101 124 159 203
#
# _framework density 12.19257
#
# number of rings (size 3 to 8) (size 9 to 14) (size 15 to 20)
#    0.000    3.154    0.000    3.231    0.000    6.154 
#    0.000    3.462    0.000    2.308    0.000    0.000 
#    0.000    0.000    0.000    0.000    0.000    0.000 
#
# Total GULP energy -644367.782763 kJ/mol
# GULP energy per Si atom -12391.688130 kJ/mol
# Density = 1.216482 g / cm^3
# Si number density = 12.192570 Si / 1000 Ang^3
#
#
#
# Elastic Constant Matrix: (Units=GPa)
#
#
# Indices 1 2 3 4 5 6 
#
# 1 48.3006 38.4534 23.3217 0.0000 0.0000 0.0000
# 2 38.4534 101.3414 34.2620 0.0000 0.0000 0.0000
# 3 23.3217 34.2620 37.4663 0.0000 0.0000 0.0000
# 4 0.0000 0.0000 0.0000 16.8582 0.0000 0.0000
# 5 0.0000 0.0000 0.0000 0.0000 0.3732 0.0000
# 6 0.0000 0.0000 0.0000 0.0000 0.0000 14.3317
#
#
#
# Elastic Compliance Matrix: (Units=1/GPa)
#
#
# Indices 1 2 3 4 5 6 
#
# 1 0.033791 -0.008266 -0.013475 0.000000 0.000000 0.000000
# 2 -0.008266 0.016306 -0.009766 0.000000 0.000000 0.000000
# 3 -0.013475 -0.009766 0.044009 0.000000 0.000000 0.000000
# 4 0.000000 0.000000 0.000000 0.059318 0.000000 0.000000
# 5 0.000000 0.000000 0.000000 0.000000 2.679704 0.000000
# 6 0.000000 0.000000 0.000000 0.000000 0.000000 0.069776
#
#
# Mechanical properties :
#
#
# Convention : Reuss Voigt Hill
#
# Bulk Modulus (GPa) = 32.16239 42.13139 37.14689
# Shear Modulus (GPa) = 1.67995 12.38402 7.03198
#
# Velocity S-wave (km/s) = 1.17509 3.19047 2.40415
# Velocity P-wave (km/s) = 5.31762 6.94277 6.18382
#
# Compressibility (1/GPa) = 0.03109222
#
# Stress axis : x y z
#
# Youngs Moduli (GPa) = 29.59391 61.32761 22.72271
#
# Poissons Ratio (x) = 0.50694 0.30618
# Poissons Ratio (y) = 0.24463 0.22191
# Poissons Ratio (z) = 0.39877 0.59892
#
# Static dielectric constant tensor:
#      x y z
#    x 2.464160 0.000000 0.000000 
#    y 0.000000 2.668650 0.000000 
#    z 0.000000 0.000000 2.288100 
# 
# 
# High freq. dielectric constant tensor:
#      x y z
#    x 1.432400 0.000000 0.000000 
#    y 0.000000 1.473490 0.000000 
#    z 0.000000 0.000000 1.415190 
# 
# From -- ./inp_files/28858.got.cif
#   From: 2010.03.12/outbox.cif.g09.slc.cpg/sg47_15_cif.got.tgz:28858.got - 2010.04.14 03:12:58.
