data_PCOD8196683
_publ_section_title
;
Structure prediction by ZEFSAII (Michael W. Deem and Ramdas Pophale) SiO2 
 PCOD8196683
Probable space group: P M M M
;
_chemical_formula_sum "Si O2"
_cell_formula_units_Z 44
_cell_length_a 18.610247
_cell_length_b 9.679074
_cell_length_c 13.304712
_cell_angle_alpha 90.000000
_cell_angle_beta 90.000000
_cell_angle_gamma 90.000000
_cell_volume 2396.577212
_symmetry_space_group_name_H-M "P M M M"
_symmetry_group_IT_number 47
_symmetry_cell_setting 'orthorhombic'
loop_
_space_group_symop_operation_xyz
x,y,z
-x,-y,z
x,-y,-z
-x,y,-z
-x,-y,-z
x,y,-z
-x,y,z
x,-y,z
loop_
_atom_site_type_symbol
_atom_site_label
_atom_site_fract_x
_atom_site_fract_y
_atom_site_fract_z
Si Si1 0.317939 0.161912 0.717133
Si Si2 0.420445 0.163826 0.889599
Si Si3 0.848209 0.163403 0.709954
Si Si4 0.577967 0.349916 0.383919
Si Si5 0.084959 0.656849 0.886454
Si Si6 0.081715 0.163799 0.500000
O O1 0.357098 0.217925 0.817858
O O2 0.235102 0.202986 0.715483
O O3 0.359099 0.238784 0.628654
O O4 0.328039 0.000000 0.701286
O O5 0.500000 0.212100 0.853648
O O6 0.418330 0.000000 0.893037
O O7 0.404531 0.224455 0.000000
O O8 0.884612 0.239141 0.803538
O O9 0.879093 0.216040 0.602127
O O10 0.861321 0.000000 0.722707
O O11 0.569424 0.372507 0.500000
O O12 0.500000 0.298786 0.341107
O O13 0.597469 0.500000 0.335205
O O14 0.110197 0.500000 0.863129
O O15 0.000000 0.666056 0.880531
O O16 0.110051 0.698701 0.000000
O O17 0.000000 0.219924 0.500000
O O18 0.083043 0.000000 0.500000
#
# Coordination Sequence:
#
# PCOD8196683 Si02
#       6
#     8   8   8   8   8   4
#     4  10  20  31  49  77 105 131 166 216 263 308
#     4   8  14  26  44  66  95 131 167 202 245 298
#     4  10  21  34  52  80 110 142 178 221 271 327
#     4   9  19  35  52  70  96 134 177 216 257 308
#     4   9  19  37  59  81 107 139 176 222 273 324
#     4   9  18  34  53  71 100 141 178 214 263 321
#
# _framework density 18.359517
#
# number of rings (size 3 to 8) (size 9 to 14) (size 15 to 20)
#    0.000    2.818    0.000    2.727    1.273    4.364 
#    0.000    4.091    0.000    2.182    0.000    2.545 
#    0.000    0.000    0.000    0.000    0.000    0.000 
#
# Total GULP energy -545133.820904 kJ/mol
# GULP energy per Si atom -12389.405021 kJ/mol
# Density = 1.831773 g / cm^3
# Si number density = 18.359517 Si / 1000 Ang^3
#
#
#
# Elastic Constant Matrix: (Units=GPa)
#
#
# Indices 1 2 3 4 5 6 
#
# 1 127.9536 37.6284 68.1463 0.0000 0.0000 0.0000
# 2 37.6284 43.5328 40.6619 0.0000 0.0000 0.0000
# 3 68.1463 40.6619 130.4141 0.0000 0.0000 0.0000
# 4 0.0000 0.0000 0.0000 23.2545 0.0000 0.0000
# 5 0.0000 0.0000 0.0000 0.0000 37.4398 0.0000
# 6 0.0000 0.0000 0.0000 0.0000 0.0000 25.7204
#
#
#
# Elastic Compliance Matrix: (Units=1/GPa)
#
#
# Indices 1 2 3 4 5 6 
#
# 1 0.011955 -0.006347 -0.004268 0.000000 0.000000 0.000000
# 2 -0.006347 0.035779 -0.007839 0.000000 0.000000 0.000000
# 3 -0.004268 -0.007839 0.012342 0.000000 0.000000 0.000000
# 4 0.000000 0.000000 0.000000 0.043002 0.000000 0.000000
# 5 0.000000 0.000000 0.000000 0.000000 0.026710 0.000000
# 6 0.000000 0.000000 0.000000 0.000000 0.000000 0.038880
#
#
# Mechanical properties :
#
#
# Convention : Reuss Voigt Hill
#
# Bulk Modulus (GPa) = 43.16221 66.08595 54.62408
# Shear Modulus (GPa) = 23.44127 27.64721 25.54424
#
# Velocity S-wave (km/s) = 3.57710 3.88478 3.73411
# Velocity P-wave (km/s) = 6.37349 7.49637 6.95762
#
# Compressibility (1/GPa) = 0.02316841
#
# Stress axis : x y z
#
# Youngs Moduli (GPa) = 83.64781 27.94905 81.02263
#
# Poissons Ratio (x) = 0.17739 0.34580
# Poissons Ratio (y) = 0.53091 0.63515
# Poissons Ratio (z) = 0.35701 0.21910
#
# Static dielectric constant tensor:
#      x y z
#    x 3.848390 0.000000 0.000000 
#    y 0.000000 3.120970 0.000000 
#    z 0.000000 0.000000 3.608770 
# 
# 
# High freq. dielectric constant tensor:
#      x y z
#    x 1.713230 0.000000 0.000000 
#    y 0.000000 1.680790 0.000000 
#    z 0.000000 0.000000 1.717940 
# 
# From -- ./inp_files/6056.got.cif
#   From: 2010.03.12/outbox.cif.g09.slc.cpg/sg47_4_cif.got.tgz:6056.got - 2010.04.14 03:12:58.
