data_PCOD8196213
_publ_section_title
;
Structure prediction by ZEFSAII (Michael W. Deem and Ramdas Pophale) SiO2 
 PCOD8196213
Probable space group: P M M M
;
_chemical_formula_sum "Si O2"
_cell_formula_units_Z 42
_cell_length_a 16.850925
_cell_length_b 12.371075
_cell_length_c 11.452494
_cell_angle_alpha 90.000000
_cell_angle_beta 90.000000
_cell_angle_gamma 90.000000
_cell_volume 2387.433362
_symmetry_space_group_name_H-M "P M M M"
_symmetry_group_IT_number 47
_symmetry_cell_setting 'orthorhombic'
loop_
_space_group_symop_operation_xyz
x,y,z
-x,-y,z
x,-y,-z
-x,y,-z
-x,-y,-z
x,y,-z
-x,y,z
x,-y,z
loop_
_atom_site_type_symbol
_atom_site_label
_atom_site_fract_x
_atom_site_fract_y
_atom_site_fract_z
Si Si1 0.715565 0.180372 0.000000
Si Si2 0.500000 0.128114 0.368771
Si Si3 0.090535 0.000000 0.749160
Si Si4 0.182279 0.804123 0.636563
Si Si5 0.846917 0.000000 0.000000
Si Si6 0.175461 0.624438 0.000000
Si Si7 0.339221 0.127483 0.248334
Si Si8 0.091178 0.625447 0.759112
O O1 0.661241 0.155577 0.888351
O O2 0.793209 0.106335 0.000000
O O3 0.744706 0.304293 0.000000
O O4 0.500000 0.176013 0.500000
O O5 0.422489 0.168370 0.300043
O O6 0.500000 0.000000 0.373992
O O7 0.131190 0.894243 0.699755
O O8 0.096620 0.000000 0.888484
O O9 0.000000 0.000000 0.709465
O O10 0.183356 0.826204 0.500000
O O11 0.271472 0.806395 0.684821
O O12 0.143314 0.688558 0.663923
O O13 0.121865 0.652022 0.111556
O O14 0.203042 0.500000 0.000000
O O15 0.325184 0.000000 0.268019
O O16 0.100092 0.500000 0.728935
O O17 0.000000 0.662869 0.751351
#
# Coordination Sequence:
#
# PCOD8196213 Si02
#       8
#     4   4   4   8   2   4   8   8
#     4  12  18  33  58  82 112 141 178 226 280 332
#     4   9  20  35  55  83 115 149 186 220 261 327
#     4  12  24  36  53  77 106 146 190 229 272 329
#     4  12  23  36  54  76 109 151 187 224 275 332
#     4  12  19  38  54  77 108 142 182 227 280 330
#     4  10  19  34  57  82 107 138 185 238 283 328
#     4  11  20  36  57  83 114 148 182 222 275 331
#     4  10  21  37  56  79 106 141 189 241 286 324
#
# _framework density 17.592115
#
# number of rings (size 3 to 8) (size 9 to 14) (size 15 to 20)
#    0.000    1.048    5.714    1.857    0.000    4.571 
#    0.000    5.238    0.000    0.000    0.000    3.333 
#    0.000    4.571    0.000    0.000    0.000    0.000 
#
# Total GULP energy -521016.319040 kJ/mol
# GULP energy per Si atom -12405.150453 kJ/mol
# Density = 1.755207 g / cm^3
# Si number density = 17.592115 Si / 1000 Ang^3
#
#
#
# Elastic Constant Matrix: (Units=GPa)
#
#
# Indices 1 2 3 4 5 6 
#
# 1 135.7654 37.2407 50.9368 0.0000 0.0000 0.0000
# 2 37.2407 61.7043 24.7366 0.0000 0.0000 0.0000
# 3 50.9368 24.7366 127.6844 0.0000 0.0000 0.0000
# 4 0.0000 0.0000 0.0000 -46.8076 0.0000 0.0000
# 5 0.0000 0.0000 0.0000 0.0000 13.3642 0.0000
# 6 0.0000 0.0000 0.0000 0.0000 0.0000 21.0458
#
#
#
# Elastic Compliance Matrix: (Units=1/GPa)
#
#
# Indices 1 2 3 4 5 6 
#
# 1 0.009777 -0.004702 -0.002989 0.000000 0.000000 0.000000
# 2 -0.004702 0.019833 -0.001966 0.000000 0.000000 0.000000
# 3 -0.002989 -0.001966 0.009405 0.000000 0.000000 0.000000
# 4 0.000000 0.000000 0.000000 -0.021364 0.000000 0.000000
# 5 0.000000 0.000000 0.000000 0.000000 0.074827 0.000000
# 6 0.000000 0.000000 0.000000 0.000000 0.000000 0.047515
#
#
# Mechanical properties :
#
#
# Convention : Reuss Voigt Hill
#
# Bulk Modulus (GPa) = 50.76423 61.22026 55.99225
# Shear Modulus (GPa) = 30.14304 11.66981 20.90643
#
# Velocity S-wave (km/s) = 4.14386 2.57836 3.45105
# Velocity P-wave (km/s) = 7.19822 6.61357 6.91208
#
# Compressibility (1/GPa) = 0.01969891
#
# Stress axis : x y z
#
# Youngs Moduli (GPa) = 102.28006 50.42180 106.32330
#
# Poissons Ratio (x) = 0.23710 0.31784
# Poissons Ratio (y) = 0.48096 0.20907
# Poissons Ratio (z) = 0.30575 0.09915
#
# Static dielectric constant tensor:
#      x y z
#    x 3.279010 0.000000 0.000000 
#    y 0.000000 3.544540 0.000000 
#    z 0.000000 0.000000 3.425170 
# 
# 
# High freq. dielectric constant tensor:
#      x y z
#    x 1.673500 0.000000 0.000000 
#    y 0.000000 1.661790 0.000000 
#    z 0.000000 0.000000 1.693970 
# 
# From -- ./inp_files/18392.got.cif
#   From: 2010.03.12/outbox.cif.g09.slc.cpg/sg47_10_cif.got.tgz:18392.got - 2010.04.14 03:12:58.
