data_PCOD8196359
_publ_section_title
;
Structure prediction by ZEFSAII (Michael W. Deem and Ramdas Pophale) SiO2 
 PCOD8196359
Probable space group: P M M M
;
_chemical_formula_sum "Si O2"
_cell_formula_units_Z 28
_cell_length_a 9.279235
_cell_length_b 13.587826
_cell_length_c 13.764478
_cell_angle_alpha 90.000000
_cell_angle_beta 90.000000
_cell_angle_gamma 90.000000
_cell_volume 1735.489124
_symmetry_space_group_name_H-M "P M M M"
_symmetry_group_IT_number 47
_symmetry_cell_setting 'orthorhombic'
loop_
_space_group_symop_operation_xyz
x,y,z
-x,-y,z
x,-y,-z
-x,y,-z
-x,-y,-z
x,y,-z
-x,y,z
x,-y,z
loop_
_atom_site_type_symbol
_atom_site_label
_atom_site_fract_x
_atom_site_fract_y
_atom_site_fract_z
Si Si1 0.000000 0.384817 0.391845
Si Si2 0.666172 0.611107 0.113496
Si Si3 0.160594 0.741035 0.258214
Si Si4 0.666030 0.884860 0.390338
O O1 0.143862 0.344736 0.339044
O O2 0.000000 0.500000 0.388244
O O3 0.000000 0.343271 0.500000
O O4 0.500000 0.622272 0.143381
O O5 0.719057 0.500000 0.139369
O O6 0.756016 0.695160 0.167441
O O7 0.687292 0.630284 0.000000
O O8 0.243842 0.831252 0.306832
O O9 0.000000 0.776573 0.224861
O O10 0.718162 0.857756 0.500000
O O11 0.500000 0.854353 0.378567
O O12 0.686753 0.000000 0.372575
#
# Coordination Sequence:
#
# PCOD8196359 Si02
#       4
#     4   8   8   8
#     4   9  18  30  42  64 100 135 162 192 234 285
#     4   9  18  33  52  73  98 129 168 213 254 295
#     4  10  20  29  48  72 100 133 163 199 249 298
#     4   9  18  33  52  73  98 129 168 213 254 295
#
# _framework density 16.133780000000002
#
# number of rings (size 3 to 8) (size 9 to 14) (size 15 to 20)
#    0.857    1.857    0.000    4.286    0.000    1.143 
#    0.000    2.857    0.000    0.857    0.000   18.000 
#    0.000    0.000    0.000    0.000    0.000    0.000 
#
# Total GULP energy -346971.430716 kJ/mol
# GULP energy per Si atom -12391.836811 kJ/mol
# Density = 1.609706 g / cm^3
# Si number density = 16.133780 Si / 1000 Ang^3
#
#
#
# Elastic Constant Matrix: (Units=GPa)
#
#
# Indices 1 2 3 4 5 6 
#
# 1 91.0723 46.5390 47.0560 0.0000 0.0000 0.0000
# 2 46.5390 64.0004 40.7391 0.0000 0.0000 0.0000
# 3 47.0560 40.7391 72.2776 0.0000 0.0000 0.0000
# 4 0.0000 0.0000 0.0000 36.7971 0.0000 0.0000
# 5 0.0000 0.0000 0.0000 0.0000 23.5301 0.0000
# 6 0.0000 0.0000 0.0000 0.0000 0.0000 28.3790
#
#
#
# Elastic Compliance Matrix: (Units=1/GPa)
#
#
# Indices 1 2 3 4 5 6 
#
# 1 0.019734 -0.009625 -0.007423 0.000000 0.000000 0.000000
# 2 -0.009625 0.029062 -0.010115 0.000000 0.000000 0.000000
# 3 -0.007423 -0.010115 0.024369 0.000000 0.000000 0.000000
# 4 0.000000 0.000000 0.000000 0.027176 0.000000 0.000000
# 5 0.000000 0.000000 0.000000 0.000000 0.042499 0.000000
# 6 0.000000 0.000000 0.000000 0.000000 0.000000 0.035237
#
#
# Mechanical properties :
#
#
# Convention : Reuss Voigt Hill
#
# Bulk Modulus (GPa) = 53.07597 55.11316 54.09456
# Shear Modulus (GPa) = 20.94837 23.94233 22.44535
#
# Velocity S-wave (km/s) = 3.60726 3.85643 3.73393
# Velocity P-wave (km/s) = 7.09356 7.35280 7.22435
#
# Compressibility (1/GPa) = 0.01884092
#
# Stress axis : x y z
#
# Youngs Moduli (GPa) = 50.67402 34.40887 41.03574
#
# Poissons Ratio (x) = 0.33119 0.30459
# Poissons Ratio (y) = 0.48774 0.41506
# Poissons Ratio (z) = 0.37613 0.34803
#
# Static dielectric constant tensor:
#      x y z
#    x 2.997830 0.000000 0.000000 
#    y 0.000000 2.831000 0.000000 
#    z 0.000000 0.000000 2.953000 
# 
# 
# High freq. dielectric constant tensor:
#      x y z
#    x 1.616440 0.000000 0.000000 
#    y 0.000000 1.609370 0.000000 
#    z 0.000000 0.000000 1.613700 
# 
# From -- ./inp_files/14618.got.cif
#   From: 2010.03.12/outbox.cif.g09.slc.cpg/sg47_8_cif.got.tgz:14618.got - 2010.04.14 03:12:58.
