data_PCOD8196828
_publ_section_title
;
Structure prediction by ZEFSAII (Michael W. Deem and Ramdas Pophale) SiO2 
 PCOD8196828
Probable space group: P M M M
;
_chemical_formula_sum "Si O2"
_cell_formula_units_Z 52
_cell_length_a 9.020999
_cell_length_b 18.629163
_cell_length_c 18.759123
_cell_angle_alpha 90.000000
_cell_angle_beta 90.000000
_cell_angle_gamma 90.000000
_cell_volume 3152.539293
_symmetry_space_group_name_H-M "P M M M"
_symmetry_group_IT_number 47
_symmetry_cell_setting 'orthorhombic'
loop_
_space_group_symop_operation_xyz
x,y,z
-x,-y,z
x,-y,-z
-x,y,-z
-x,-y,-z
x,y,-z
-x,y,z
x,-y,z
loop_
_atom_site_type_symbol
_atom_site_label
_atom_site_fract_x
_atom_site_fract_y
_atom_site_fract_z
Si Si1 0.825929 0.794778 0.340102
Si Si2 0.325253 0.645511 0.081657
Si Si3 0.167122 0.500000 0.084349
Si Si4 0.325990 0.917971 0.419426
Si Si5 0.668165 0.671595 0.579724
Si Si6 0.330034 0.581712 0.712000
Si Si7 0.826262 0.295141 0.793071
O O1 0.753989 0.870759 0.359390
O O2 0.774001 0.735702 0.396363
O O3 0.781014 0.770502 0.259469
O O4 0.000000 0.802568 0.346465
O O5 0.500000 0.639970 0.090718
O O6 0.255062 0.570710 0.109577
O O7 0.259989 0.709682 0.131142
O O8 0.281099 0.661981 0.000000
O O9 0.000000 0.500000 0.115738
O O10 0.161586 0.500000 0.000000
O O11 0.278981 0.895411 0.500000
O O12 0.500000 0.907922 0.410337
O O13 0.279581 0.000000 0.405578
O O14 0.710817 0.648201 0.500000
O O15 0.500000 0.700962 0.584015
O O16 0.687617 0.601595 0.628765
O O17 0.500000 0.594429 0.736832
O O18 0.280973 0.500000 0.722788
O O19 0.219841 0.630096 0.757322
O O20 0.000000 0.295274 0.808334
#
# Coordination Sequence:
#
# PCOD8196828 Si02
#       7
#     8   8   4   8   8   8   8
#     4  10  20  32  46  67  94 123 156 190 225 270
#     4  10  20  33  49  69  91 115 149 193 236 280
#     4   9  17  29  45  65  89 117 146 179 228 285
#     4   9  18  32  50  73 100 129 159 190 227 272
#     4   9  17  29  45  63  83 112 150 190 234 280
#     4   9  18  31  45  61  82 110 147 193 240 280
#     4  10  21  34  47  64  89 122 155 188 230 280
#
# _framework density 16.49464
#
# number of rings (size 3 to 8) (size 9 to 14) (size 15 to 20)
#    0.000    2.538    0.000    2.538    1.077    7.077 
#    0.000    2.308    0.000    0.000    0.000    4.308 
#    0.000    0.615    0.000    6.769    0.000    4.923 
#
# Total GULP energy -644673.177939 kJ/mol
# GULP energy per Si atom -12397.561114 kJ/mol
# Density = 1.645710 g / cm^3
# Si number density = 16.494640 Si / 1000 Ang^3
#
#
#
# Elastic Constant Matrix: (Units=GPa)
#
#
# Indices 1 2 3 4 5 6 
#
# 1 69.3306 35.9862 42.2056 0.0000 0.0000 0.0000
# 2 35.9862 78.3784 41.6757 0.0000 0.0000 0.0000
# 3 42.2056 41.6757 105.9460 0.0000 0.0000 0.0000
# 4 0.0000 0.0000 0.0000 24.3632 0.0000 0.0000
# 5 0.0000 0.0000 0.0000 0.0000 25.4665 0.0000
# 6 0.0000 0.0000 0.0000 0.0000 0.0000 19.2219
#
#
#
# Elastic Compliance Matrix: (Units=1/GPa)
#
#
# Indices 1 2 3 4 5 6 
#
# 1 0.021526 -0.006732 -0.005927 0.000000 0.000000 0.000000
# 2 -0.006732 0.018238 -0.004493 0.000000 0.000000 0.000000
# 3 -0.005927 -0.004493 0.013567 0.000000 0.000000 0.000000
# 4 0.000000 0.000000 0.000000 0.041045 0.000000 0.000000
# 5 0.000000 0.000000 0.000000 0.000000 0.039267 0.000000
# 6 0.000000 0.000000 0.000000 0.000000 0.000000 0.052024
#
#
# Mechanical properties :
#
#
# Convention : Reuss Voigt Hill
#
# Bulk Modulus (GPa) = 52.55315 54.82110 53.68712
# Shear Modulus (GPa) = 22.09318 22.72948 22.41133
#
# Velocity S-wave (km/s) = 3.66377 3.71616 3.69006
# Velocity P-wave (km/s) = 7.05886 7.19173 7.12561
#
# Compressibility (1/GPa) = 0.01902836
#
# Stress axis : x y z
#
# Youngs Moduli (GPa) = 46.45539 54.83001 73.70669
#
# Poissons Ratio (x) = 0.36910 0.43688
# Poissons Ratio (y) = 0.31272 0.33114
# Poissons Ratio (z) = 0.27536 0.24633
#
# Static dielectric constant tensor:
#      x y z
#    x 3.125490 0.000000 0.000000 
#    y 0.000000 2.922800 0.000000 
#    z 0.000000 0.000000 3.305370 
# 
# 
# High freq. dielectric constant tensor:
#      x y z
#    x 1.640780 0.000000 0.000000 
#    y 0.000000 1.597110 0.000000 
#    z 0.000000 0.000000 1.636240 
# 
# From -- ./inp_files/29883.got.cif
#   From: 2010.03.12/outbox.cif.g09.slc.cpg/sg47_15_cif.got.tgz:29883.got - 2010.04.14 03:12:58.
