data_PCOD8196136
_publ_section_title
;
Structure prediction by ZEFSAII (Michael W. Deem and Ramdas Pophale) SiO2 
 PCOD8196136
Probable space group: P M M M
;
_chemical_formula_sum "Si O2"
_cell_formula_units_Z 52
_cell_length_a 14.959431
_cell_length_b 9.358183
_cell_length_c 22.614913
_cell_angle_alpha 90.000000
_cell_angle_beta 90.000000
_cell_angle_gamma 90.000000
_cell_volume 3165.931616
_symmetry_space_group_name_H-M "P M M M"
_symmetry_group_IT_number 47
_symmetry_cell_setting 'orthorhombic'
loop_
_space_group_symop_operation_xyz
x,y,z
-x,-y,z
x,-y,-z
-x,y,-z
-x,-y,-z
x,y,-z
-x,y,z
x,-y,z
loop_
_atom_site_type_symbol
_atom_site_label
_atom_site_fract_x
_atom_site_fract_y
_atom_site_fract_z
Si Si1 0.676350 0.667513 0.137838
Si Si2 0.500000 0.668618 0.067734
Si Si3 0.152887 0.837846 0.114953
Si Si4 0.899301 0.838577 0.750084
Si Si5 0.000000 0.653766 0.066327
Si Si6 0.600183 0.671250 0.626878
Si Si7 0.606089 0.343611 0.500000
Si Si8 0.727454 0.667070 0.729822
O O1 0.694915 0.500000 0.126684
O O2 0.585187 0.718207 0.106321
O O3 0.751811 0.762885 0.107919
O O4 0.677480 0.700592 0.208221
O O5 0.500000 0.500000 0.062650
O O6 0.500000 0.731577 0.000000
O O7 0.113316 0.833737 0.180194
O O8 0.087044 0.747589 0.075527
O O9 0.160388 0.000000 0.091794
O O10 0.824151 0.739203 0.721062
O O11 0.000000 0.784084 0.734883
O O12 0.886714 0.000000 0.726744
O O13 0.000000 0.500000 0.102216
O O14 0.000000 0.606180 0.000000
O O15 0.500000 0.725484 0.641037
O O16 0.600807 0.500000 0.624705
O O17 0.633017 0.732689 0.562292
O O18 0.664674 0.729219 0.678094
O O19 0.651099 0.500000 0.500000
O O20 0.500000 0.360658 0.500000
O O21 0.743863 0.500000 0.722786
#
# Coordination Sequence:
#
# PCOD8196136 Si02
#       8
#     8   4   8   8   4   8   4   8
#     4   9  18  31  47  68  91 117 151 190 232 271
#     4   9  18  32  49  65  85 118 156 188 219 265
#     4  10  19  34  52  69  90 117 147 182 226 275
#     4   9  17  31  48  64  86 117 146 177 221 272
#     4  11  23  35  49  71  95 117 143 178 223 278
#     4   8  13  21  36  60  93 125 152 182 219 264
#     4   7  10  18  32  54  86 125 156 178 213 263
#     4   9  17  26  41  69  94 114 143 186 229 263
#
# _framework density 16.424866000000002
#
# number of rings (size 3 to 8) (size 9 to 14) (size 15 to 20)
#    0.000    3.000    0.769    1.615    1.077    2.154 
#    0.000    1.923    0.000    0.923    0.000    1.077 
#    0.000    6.154    0.000    0.000    0.000    0.000 
#
# Total GULP energy -644240.102602 kJ/mol
# GULP energy per Si atom -12389.232742 kJ/mol
# Density = 1.638748 g / cm^3
# Si number density = 16.424866 Si / 1000 Ang^3
#
#
#
# Elastic Constant Matrix: (Units=GPa)
#
#
# Indices 1 2 3 4 5 6 
#
# 1 145.9609 50.2247 70.3793 0.0000 0.0000 0.0000
# 2 50.2247 62.0688 31.5638 0.0000 0.0000 0.0000
# 3 70.3793 31.5638 91.3074 0.0000 0.0000 0.0000
# 4 0.0000 0.0000 0.0000 7.7168 0.0000 0.0000
# 5 0.0000 0.0000 0.0000 0.0000 45.7772 0.0000
# 6 0.0000 0.0000 0.0000 0.0000 0.0000 3.4980
#
#
#
# Elastic Compliance Matrix: (Units=1/GPa)
#
#
# Indices 1 2 3 4 5 6 
#
# 1 0.012722 -0.006440 -0.007580 0.000000 0.000000 0.000000
# 2 -0.006440 0.022807 -0.002920 0.000000 0.000000 0.000000
# 3 -0.007580 -0.002920 0.017804 0.000000 0.000000 0.000000
# 4 0.000000 0.000000 0.000000 0.129587 0.000000 0.000000
# 5 0.000000 0.000000 0.000000 0.000000 0.021845 0.000000
# 6 0.000000 0.000000 0.000000 0.000000 0.000000 0.285880
#
#
# Mechanical properties :
#
#
# Convention : Reuss Voigt Hill
#
# Bulk Modulus (GPa) = 51.40557 67.07474 59.24015
# Shear Modulus (GPa) = 9.41603 21.20968 15.31286
#
# Velocity S-wave (km/s) = 2.39692 3.59739 3.05667
# Velocity P-wave (km/s) = 6.24705 7.62764 6.97160
#
# Compressibility (1/GPa) = 0.01945315
#
# Stress axis : x y z
#
# Youngs Moduli (GPa) = 78.60480 43.84588 56.16688
#
# Poissons Ratio (x) = 0.28235 0.42574
# Poissons Ratio (y) = 0.50619 0.16403
# Poissons Ratio (z) = 0.59581 0.12805
#
# Static dielectric constant tensor:
#      x y z
#    x 3.204340 0.000000 0.000000 
#    y 0.000000 2.892370 0.000000 
#    z 0.000000 0.000000 3.216500 
# 
# 
# High freq. dielectric constant tensor:
#      x y z
#    x 1.627420 0.000000 0.000000 
#    y 0.000000 1.604130 0.000000 
#    z 0.000000 0.000000 1.616450 
# 
# From -- ./inp_files/32682.got.cif
#   From: 2010.03.12/outbox.cif.g09.slc.cpg/sg47_17_cif.got.tgz:32682.got - 2010.04.14 03:12:58.
