data_PCOD8196937
_publ_section_title
;
Structure prediction by ZEFSAII (Michael W. Deem and Ramdas Pophale) SiO2 
 PCOD8196937
Probable space group: P M M M
;
_chemical_formula_sum "Si O2"
_cell_formula_units_Z 48
_cell_length_a 15.044059
_cell_length_b 9.025633
_cell_length_c 19.883239
_cell_angle_alpha 90.000000
_cell_angle_beta 90.000000
_cell_angle_gamma 90.000000
_cell_volume 2699.789047
_symmetry_space_group_name_H-M "P M M M"
_symmetry_group_IT_number 47
_symmetry_cell_setting 'orthorhombic'
loop_
_space_group_symop_operation_xyz
x,y,z
-x,-y,z
x,-y,-z
-x,y,-z
-x,-y,-z
x,y,-z
-x,y,z
x,-y,z
loop_
_atom_site_type_symbol
_atom_site_label
_atom_site_fract_x
_atom_site_fract_y
_atom_site_fract_z
Si Si1 0.902202 0.827558 0.389961
Si Si2 0.602388 0.827809 0.867905
Si Si3 0.605738 0.332429 0.000000
Si Si4 0.715562 0.332742 0.237399
Si Si5 0.905499 0.667064 0.253704
Si Si6 0.603891 0.174561 0.500000
Si Si7 0.273589 0.327778 0.604031
O O1 0.907221 0.788479 0.311623
O O2 0.821611 0.734426 0.422836
O O3 0.000000 0.792451 0.422405
O O4 0.879711 0.000000 0.398523
O O5 0.500000 0.785364 0.857769
O O6 0.651938 0.780084 0.800340
O O7 0.615800 0.000000 0.880123
O O8 0.643118 0.745722 0.933000
O O9 0.639711 0.500000 0.000000
O O10 0.500000 0.319735 0.000000
O O11 0.682829 0.500000 0.223236
O O12 0.816857 0.308406 0.209161
O O13 0.714466 0.297954 0.316690
O O14 0.897305 0.500000 0.285307
O O15 0.000000 0.679693 0.213069
O O16 0.500000 0.213818 0.500000
O O17 0.646925 0.244157 0.433271
O O18 0.620415 0.000000 0.500000
O O19 0.278296 0.500000 0.586040
#
# Coordination Sequence:
#
# PCOD8196937 Si02
#       7
#     8   8   4   8   8   4   8
#     4   9  16  27  47  75 104 131 158 194 244 299
#     4  10  20  32  47  70 101 134 165 199 241 289
#     4   9  17  31  51  71  94 127 164 201 241 290
#     4   9  18  31  49  75 102 129 163 202 243 285
#     4   8  14  26  44  67  97 131 165 201 242 290
#     4  11  25  43  60  75  94 125 165 210 260 309
#     4  10  21  37  56  76 100 131 168 210 250 294
#
# _framework density 17.779167999999999
#
# number of rings (size 3 to 8) (size 9 to 14) (size 15 to 20)
#    0.000    2.667    0.000    3.000    0.000    7.667 
#    0.000    3.750    0.000    2.500    0.000    0.583 
#    0.000    4.667    0.000    0.000    0.000    0.000 
#
# Total GULP energy -594771.647206 kJ/mol
# GULP energy per Si atom -12391.075983 kJ/mol
# Density = 1.773870 g / cm^3
# Si number density = 17.779168 Si / 1000 Ang^3
#
#
#
# Elastic Constant Matrix: (Units=GPa)
#
#
# Indices 1 2 3 4 5 6 
#
# 1 125.4178 66.6338 46.5258 0.0000 0.0000 0.0000
# 2 66.6338 93.2629 37.1826 0.0000 0.0000 0.0000
# 3 46.5258 37.1826 68.5795 0.0000 0.0000 0.0000
# 4 0.0000 0.0000 0.0000 26.3387 0.0000 0.0000
# 5 0.0000 0.0000 0.0000 0.0000 -3.5771 0.0000
# 6 0.0000 0.0000 0.0000 0.0000 0.0000 28.6384
#
#
#
# Elastic Compliance Matrix: (Units=1/GPa)
#
#
# Indices 1 2 3 4 5 6 
#
# 1 0.014205 -0.008046 -0.005274 0.000000 0.000000 0.000000
# 2 -0.008046 0.018237 -0.004429 0.000000 0.000000 0.000000
# 3 -0.005274 -0.004429 0.020561 0.000000 0.000000 0.000000
# 4 0.000000 0.000000 0.000000 0.037967 0.000000 0.000000
# 5 0.000000 0.000000 0.000000 0.000000 -0.279555 0.000000
# 6 0.000000 0.000000 0.000000 0.000000 0.000000 0.034918
#
#
# Mechanical properties :
#
#
# Convention : Reuss Voigt Hill
#
# Bulk Modulus (GPa) = 57.13045 65.32721 61.22883
# Shear Modulus (GPa) = -44.51042 19.40786 -12.55128
#
# Velocity S-wave (km/s) = -5.00894 3.30753 -2.65986
# Velocity P-wave (km/s) = 1.11783 7.17006 5.00801
#
# Compressibility (1/GPa) = 0.01750380
#
# Stress axis : x y z
#
# Youngs Moduli (GPa) = 70.39846 54.83374 48.63518
#
# Poissons Ratio (x) = 0.44120 0.25652
# Poissons Ratio (y) = 0.56644 0.21541
# Poissons Ratio (z) = 0.37131 0.24286
#
# Static dielectric constant tensor:
#      x y z
#    x 3.567870 0.000000 0.000000 
#    y 0.000000 3.337860 0.000000 
#    z 0.000000 0.000000 2.944700 
# 
# 
# High freq. dielectric constant tensor:
#      x y z
#    x 1.690770 0.000000 0.000000 
#    y 0.000000 1.698780 0.000000 
#    z 0.000000 0.000000 1.643920 
# 
# From -- ./inp_files/9185.got.cif
#   From: 2010.03.12/outbox.cif.g09.slc.cpg/sg47_5_cif.got.tgz:9185.got - 2010.04.14 03:12:58.
