data_PCOD8196518
_publ_section_title
;
Structure prediction by ZEFSAII (Michael W. Deem and Ramdas Pophale) SiO2 
 PCOD8196518
Probable space group: P M M M
;
_chemical_formula_sum "Si O2"
_cell_formula_units_Z 56
_cell_length_a 9.086086
_cell_length_b 20.191956
_cell_length_c 15.861259
_cell_angle_alpha 90.000000
_cell_angle_beta 90.000000
_cell_angle_gamma 90.000000
_cell_volume 2909.999344
_symmetry_space_group_name_H-M "P M M M"
_symmetry_group_IT_number 47
_symmetry_cell_setting 'orthorhombic'
loop_
_space_group_symop_operation_xyz
x,y,z
-x,-y,z
x,-y,-z
-x,y,-z
-x,-y,-z
x,y,-z
-x,y,z
x,-y,z
loop_
_atom_site_type_symbol
_atom_site_label
_atom_site_fract_x
_atom_site_fract_y
_atom_site_fract_z
Si Si1 0.174873 0.500000 0.405566
Si Si2 0.663477 0.207141 0.174520
Si Si3 0.328544 0.072964 0.756226
Si Si4 0.674815 0.577801 0.000000
Si Si5 0.169750 0.332813 0.864642
Si Si6 0.829929 0.884741 0.593020
Si Si7 0.663353 0.757386 0.368879
Si Si8 0.830835 0.365215 0.670411
O O1 0.239515 0.500000 0.500000
O O2 0.232373 0.436604 0.354567
O O3 0.000000 0.500000 0.407934
O O4 0.500000 0.208876 0.133546
O O5 0.725915 0.130759 0.178730
O O6 0.767746 0.257606 0.122735
O O7 0.656174 0.230199 0.269976
O O8 0.500000 0.086460 0.737599
O O9 0.248820 0.073162 0.665664
O O10 0.302966 0.000000 0.796744
O O11 0.740902 0.613824 0.081561
O O12 0.719177 0.500000 0.000000
O O13 0.500000 0.586133 0.000000
O O14 0.189493 0.355936 0.769554
O O15 0.000000 0.331992 0.893197
O O16 0.812035 0.918187 0.500000
O O17 0.761876 0.811912 0.585921
O O18 0.000000 0.878771 0.618181
O O19 0.500000 0.757688 0.408191
O O20 0.738213 0.686743 0.384302
O O21 0.000000 0.356641 0.644217
#
# Coordination Sequence:
#
# PCOD8196518 Si02
#       8
#     4   8   8   4   8   8   8   8
#     4   9  18  32  49  70  97 130 170 215 263 315
#     4   8  15  30  51  73 101 134 171 210 252 305
#     4   9  18  32  50  73 101 134 174 221 269 318
#     4  11  25  41  57  83 118 149 180 217 263 322
#     4  10  20  34  56  82 110 143 179 220 262 312
#     4  10  20  31  43  62  91 128 170 217 272 331
#     4   9  17  30  48  68  89 118 161 213 261 311
#     4   9  18  32  52  75 100 133 173 215 263 317
#
# _framework density 19.243991999999999
#
# number of rings (size 3 to 8) (size 9 to 14) (size 15 to 20)
#    0.000    2.714    0.000    2.357    1.000    6.857 
#    0.000    3.214    0.000    0.429    0.000    0.500 
#    0.000    4.000    0.000    0.000    0.000    0.000 
#
# Total GULP energy -694030.421636 kJ/mol
# GULP energy per Si atom -12393.400386 kJ/mol
# Density = 1.920019 g / cm^3
# Si number density = 19.243992 Si / 1000 Ang^3
#
#
#
# Elastic Constant Matrix: (Units=GPa)
#
#
# Indices 1 2 3 4 5 6 
#
# 1 91.2528 51.9693 23.1621 0.0000 0.0000 0.0000
# 2 51.9693 173.9074 29.1239 0.0000 0.0000 0.0000
# 3 23.1621 29.1239 34.2834 0.0000 0.0000 0.0000
# 4 0.0000 0.0000 0.0000 8.3493 0.0000 0.0000
# 5 0.0000 0.0000 0.0000 0.0000 17.6807 0.0000
# 6 0.0000 0.0000 0.0000 0.0000 0.0000 26.5199
#
#
#
# Elastic Compliance Matrix: (Units=1/GPa)
#
#
# Indices 1 2 3 4 5 6 
#
# 1 0.014574 -0.003155 -0.007166 0.000000 0.000000 0.000000
# 2 -0.003155 0.007387 -0.004144 0.000000 0.000000 0.000000
# 3 -0.007166 -0.004144 0.037530 0.000000 0.000000 0.000000
# 4 0.000000 0.000000 0.000000 0.119770 0.000000 0.000000
# 5 0.000000 0.000000 0.000000 0.000000 0.056559 0.000000
# 6 0.000000 0.000000 0.000000 0.000000 0.000000 0.037708
#
#
# Mechanical properties :
#
#
# Convention : Reuss Voigt Hill
#
# Bulk Modulus (GPa) = 32.72086 56.43937 44.58012
# Shear Modulus (GPa) = 15.99257 23.52254 19.75756
#
# Velocity S-wave (km/s) = 2.88591 3.49998 3.20767
# Velocity P-wave (km/s) = 5.30516 6.76203 6.07741
#
# Compressibility (1/GPa) = 0.03056155
#
# Stress axis : x y z
#
# Youngs Moduli (GPa) = 68.61319 135.37308 26.64518
#
# Poissons Ratio (x) = 0.42713 0.19095
# Poissons Ratio (y) = 0.21649 0.11041
# Poissons Ratio (z) = 0.49170 0.56093
#
# Static dielectric constant tensor:
#      x y z
#    x 3.590540 0.000000 0.000000 
#    y 0.000000 3.895430 0.000000 
#    z 0.000000 0.000000 3.172140 
# 
# 
# High freq. dielectric constant tensor:
#      x y z
#    x 1.743100 0.000000 0.000000 
#    y 0.000000 1.758970 0.000000 
#    z 0.000000 0.000000 1.711730 
# 
# From -- ./inp_files/21590.got.cif
#   From: 2010.03.12/outbox.cif.g09.slc.cpg/sg47_11_cif.got.tgz:21590.got - 2010.04.14 03:12:58.
