data_PCOD8196493
_publ_section_title
;
Structure prediction by ZEFSAII (Michael W. Deem and Ramdas Pophale) SiO2 
 PCOD8196493
Probable space group: P M M M
;
_chemical_formula_sum "Si O2"
_cell_formula_units_Z 52
_cell_length_a 27.931963
_cell_length_b 9.304806
_cell_length_c 14.914164
_cell_angle_alpha 90.000000
_cell_angle_beta 90.000000
_cell_angle_gamma 90.000000
_cell_volume 3876.213549
_symmetry_space_group_name_H-M "P M M M"
_symmetry_group_IT_number 47
_symmetry_cell_setting 'orthorhombic'
loop_
_space_group_symop_operation_xyz
x,y,z
-x,-y,z
x,-y,-z
-x,y,-z
-x,-y,-z
x,y,-z
-x,y,z
x,-y,z
loop_
_atom_site_type_symbol
_atom_site_label
_atom_site_fract_x
_atom_site_fract_y
_atom_site_fract_z
Si Si1 0.376692 0.166484 0.605689
Si Si2 0.805288 0.838361 0.606650
Si Si3 0.000000 0.338971 0.607178
Si Si4 0.443217 0.335303 0.731966
Si Si5 0.556865 0.838754 0.900985
Si Si6 0.283797 0.661792 0.606757
Si Si7 0.088989 0.838821 0.606565
O O1 0.383166 0.184297 0.500000
O O2 0.421784 0.243606 0.650773
O O3 0.328388 0.243325 0.640010
O O4 0.374583 0.000000 0.633674
O O5 0.802692 0.839018 0.500000
O O6 0.764957 0.731912 0.645841
O O7 0.858196 0.785746 0.637771
O O8 0.795628 0.000000 0.641853
O O9 0.047594 0.262835 0.646149
O O10 0.000000 0.500000 0.643961
O O11 0.000000 0.334631 0.500000
O O12 0.500000 0.321684 0.724777
O O13 0.426417 0.500000 0.725037
O O14 0.423784 0.271483 0.826278
O O15 0.500000 0.837176 0.900739
O O16 0.575043 0.000000 0.878730
O O17 0.575353 0.791720 0.000000
O O18 0.282189 0.660209 0.500000
O O19 0.288518 0.500000 0.644467
O O20 0.086607 0.837403 0.500000
O O21 0.079780 0.000000 0.641726
#
# Coordination Sequence:
#
# PCOD8196493 Si02
#       7
#     8   8   4   8   8   8   8
#     4  10  20  32  44  55  69  93 123 151 177 209
#     4   8  13  21  32  44  56  71  94 123 154 191
#     4   9  15  19  23  33  49  67  87 113 145 183
#     4  10  20  31  43  60  80  99 118 143 175 210
#     4   8  14  26  44  63  81 100 120 141 165 196
#     4   9  16  25  37  51  65  80 100 131 170 206
#     4   8  13  20  28  36  48  68  91 114 143 183
#
# _framework density 13.415153999999999
#
# number of rings (size 3 to 8) (size 9 to 14) (size 15 to 20)
#    0.000    3.154    0.000    3.000    0.000    5.846 
#    0.000    6.154    0.000    0.000    0.000    0.000 
#    0.000    0.000    0.000    0.000    0.000    0.000 
#
# Total GULP energy -644454.471719 kJ/mol
# GULP energy per Si atom -12393.355225 kJ/mol
# Density = 1.338462 g / cm^3
# Si number density = 13.415154 Si / 1000 Ang^3
#
#
#
# Elastic Constant Matrix: (Units=GPa)
#
#
# Indices 1 2 3 4 5 6 
#
# 1 67.4783 52.8746 21.4841 0.0000 0.0000 0.0000
# 2 52.8746 115.3367 28.8926 0.0000 0.0000 0.0000
# 3 21.4841 28.8926 25.8691 0.0000 0.0000 0.0000
# 4 0.0000 0.0000 0.0000 13.2032 0.0000 0.0000
# 5 0.0000 0.0000 0.0000 0.0000 0.4989 0.0000
# 6 0.0000 0.0000 0.0000 0.0000 0.0000 23.0044
#
#
#
# Elastic Compliance Matrix: (Units=1/GPa)
#
#
# Indices 1 2 3 4 5 6 
#
# 1 0.025255 -0.008780 -0.011168 0.000000 0.000000 0.000000
# 2 -0.008780 0.015091 -0.009563 0.000000 0.000000 0.000000
# 3 -0.011168 -0.009563 0.058612 0.000000 0.000000 0.000000
# 4 0.000000 0.000000 0.000000 0.075739 0.000000 0.000000
# 5 0.000000 0.000000 0.000000 0.000000 2.004398 0.000000
# 6 0.000000 0.000000 0.000000 0.000000 0.000000 0.043470
#
#
# Mechanical properties :
#
#
# Convention : Reuss Voigt Hill
#
# Bulk Modulus (GPa) = 25.04013 46.13185 35.58599
# Shear Modulus (GPa) = 2.17875 14.37016 8.27445
#
# Velocity S-wave (km/s) = 1.27578 3.27645 2.48624
# Velocity P-wave (km/s) = 4.56905 6.98398 5.90137
#
# Compressibility (1/GPa) = 0.03993589
#
# Stress axis : x y z
#
# Youngs Moduli (GPa) = 39.59557 66.26432 17.06149
#
# Poissons Ratio (x) = 0.58183 0.19054
# Poissons Ratio (y) = 0.34766 0.16316
# Poissons Ratio (z) = 0.44220 0.63368
#
# Static dielectric constant tensor:
#      x y z
#    x 2.776060 0.000000 0.000000 
#    y 0.000000 2.907180 0.000000 
#    z 0.000000 0.000000 2.248320 
# 
# 
# High freq. dielectric constant tensor:
#      x y z
#    x 1.504630 0.000000 0.000000 
#    y 0.000000 1.525220 0.000000 
#    z 0.000000 0.000000 1.435300 
# 
# From -- ./inp_files/25676.got.cif
#   From: 2010.03.12/outbox.cif.g09.slc.cpg/sg47_13_cif.got.tgz:25676.got - 2010.04.14 03:12:58.
