data_PCOD8196146
_publ_section_title
;
Structure prediction by ZEFSAII (Michael W. Deem and Ramdas Pophale) SiO2 
 PCOD8196146
Probable space group: P M M M
;
_chemical_formula_sum "Si O2"
_cell_formula_units_Z 32
_cell_length_a 9.529310
_cell_length_b 10.250063
_cell_length_c 19.257348
_cell_angle_alpha 90.000000
_cell_angle_beta 90.000000
_cell_angle_gamma 90.000000
_cell_volume 1880.981259
_symmetry_space_group_name_H-M "P M M M"
_symmetry_group_IT_number 47
_symmetry_cell_setting 'orthorhombic'
loop_
_space_group_symop_operation_xyz
x,y,z
-x,-y,z
x,-y,-z
-x,y,-z
-x,-y,-z
x,y,-z
-x,y,z
x,-y,z
loop_
_atom_site_type_symbol
_atom_site_label
_atom_site_fract_x
_atom_site_fract_y
_atom_site_fract_z
Si Si1 0.660712 0.850323 0.701879
Si Si2 0.334089 0.500000 0.077694
Si Si3 0.664433 0.232907 0.146571
Si Si4 0.158314 0.844897 0.423766
Si Si5 0.838446 0.000000 0.917809
O O1 0.500000 0.841854 0.679576
O O2 0.691276 0.767989 0.770975
O O3 0.746780 0.787322 0.638014
O O4 0.704422 0.000000 0.716991
O O5 0.500000 0.500000 0.073080
O O6 0.283618 0.627658 0.118753
O O7 0.269575 0.500000 0.000000
O O8 0.500000 0.205202 0.130341
O O9 0.759084 0.126634 0.109374
O O10 0.209349 0.795522 0.500000
O O11 0.000000 0.797880 0.410694
O O12 0.167788 0.000000 0.422327
O O13 0.000000 0.000000 0.891731
O O14 0.831841 0.000000 0.000000
#
# Coordination Sequence:
#
# PCOD8196146 Si02
#       5
#     8   4   8   8   4
#     4   9  16  26  41  65  95 123 153 193 241 286
#     4   9  18  32  53  77  96 123 166 208 247 293
#     4  10  19  34  53  74  99 128 164 205 247 295
#     4   8  14  24  38  59  89 124 158 190 229 278
#     4  11  23  35  49  73 100 127 162 201 247 300
#
# _framework density 17.012398000000001
#
# number of rings (size 3 to 8) (size 9 to 14) (size 15 to 20)
#    0.000    2.750    1.250    1.875    0.000    3.500 
#    0.000    3.125    0.000    2.250    0.000    0.875 
#    0.000    7.000    0.000    0.000    0.000    0.000 
#
# Total GULP energy -396678.186979 kJ/mol
# GULP energy per Si atom -12396.193343 kJ/mol
# Density = 1.697368 g / cm^3
# Si number density = 17.012398 Si / 1000 Ang^3
#
#
#
# Elastic Constant Matrix: (Units=GPa)
#
#
# Indices 1 2 3 4 5 6 
#
# 1 76.7958 44.5351 66.8372 0.0000 0.0000 0.0000
# 2 44.5351 96.2189 59.7893 0.0000 0.0000 0.0000
# 3 66.8372 59.7893 155.2383 0.0000 0.0000 0.0000
# 4 0.0000 0.0000 0.0000 18.8822 0.0000 0.0000
# 5 0.0000 0.0000 0.0000 0.0000 30.8036 0.0000
# 6 0.0000 0.0000 0.0000 0.0000 0.0000 -0.6107
#
#
#
# Elastic Compliance Matrix: (Units=1/GPa)
#
#
# Indices 1 2 3 4 5 6 
#
# 1 0.023151 -0.005944 -0.007678 0.000000 0.000000 0.000000
# 2 -0.005944 0.015189 -0.003291 0.000000 0.000000 0.000000
# 3 -0.007678 -0.003291 0.011015 0.000000 0.000000 0.000000
# 4 0.000000 0.000000 0.000000 0.052960 0.000000 0.000000
# 5 0.000000 0.000000 0.000000 0.000000 0.032464 0.000000
# 6 0.000000 0.000000 0.000000 0.000000 0.000000 -1.637381
#
#
# Mechanical properties :
#
#
# Convention : Reuss Voigt Hill
#
# Bulk Modulus (GPa) = 64.39688 74.50846 69.45267
# Shear Modulus (GPa) = -3.41624 20.28778 8.43577
#
# Velocity S-wave (km/s) = -1.41861 3.45705 2.22921
# Velocity P-wave (km/s) = 5.93732 7.73476 6.89487
#
# Compressibility (1/GPa) = 0.01552870
#
# Stress axis : x y z
#
# Youngs Moduli (GPa) = 43.19392 65.83643 90.78591
#
# Poissons Ratio (x) = 0.39136 0.69708
# Poissons Ratio (y) = 0.25677 0.29875
# Poissons Ratio (z) = 0.33165 0.21665
#
# Static dielectric constant tensor:
#      x y z
#    x 3.172230 0.000000 0.000000 
#    y 0.000000 2.905100 0.000000 
#    z 0.000000 0.000000 3.554600 
# 
# 
# High freq. dielectric constant tensor:
#      x y z
#    x 1.642230 0.000000 0.000000 
#    y 0.000000 1.610100 0.000000 
#    z 0.000000 0.000000 1.674360 
# 
# From -- ./inp_files/26078.got.cif
#   From: 2010.03.12/outbox.cif.g09.slc.cpg/sg47_14_cif.got.tgz:26078.got - 2010.04.14 03:12:58.
