data_PCOD8196484
_publ_section_title
;
Structure prediction by ZEFSAII (Michael W. Deem and Ramdas Pophale) SiO2 
 PCOD8196484
Probable space group: P M M M
;
_chemical_formula_sum "Si O2"
_cell_formula_units_Z 48
_cell_length_a 10.485621
_cell_length_b 18.240419
_cell_length_c 17.491869
_cell_angle_alpha 90.000000
_cell_angle_beta 90.000000
_cell_angle_gamma 90.000000
_cell_volume 3345.531957
_symmetry_space_group_name_H-M "P M M M"
_symmetry_group_IT_number 47
_symmetry_cell_setting 'orthorhombic'
loop_
_space_group_symop_operation_xyz
x,y,z
-x,-y,z
x,-y,-z
-x,y,-z
-x,-y,-z
x,y,-z
-x,y,z
x,-y,z
loop_
_atom_site_type_symbol
_atom_site_label
_atom_site_fract_x
_atom_site_fract_y
_atom_site_fract_z
Si Si1 0.149671 0.420614 0.000000
Si Si2 0.358707 0.584436 0.280119
Si Si3 0.750853 0.836349 0.590389
Si Si4 0.251749 0.667191 0.410283
Si Si5 0.000000 0.418352 0.589856
Si Si6 0.855964 0.587670 0.164615
Si Si7 0.500000 0.083431 0.408764
Si Si8 0.000000 0.916944 0.408731
O O1 0.182697 0.379604 0.080274
O O2 0.219092 0.500000 0.000000
O O3 0.000000 0.434079 0.000000
O O4 0.500000 0.593213 0.243521
O O5 0.329230 0.500000 0.298673
O O6 0.360483 0.628609 0.360184
O O7 0.250099 0.617031 0.223844
O O8 0.751149 0.844802 0.500000
O O9 0.755841 0.751709 0.613560
O O10 0.624268 0.874854 0.623854
O O11 0.875134 0.876528 0.624401
O O12 0.282371 0.657555 0.500000
O O13 0.122036 0.627425 0.384477
O O14 0.000000 0.500000 0.628099
O O15 0.000000 0.427856 0.500000
O O16 0.851599 0.500000 0.159322
O O17 0.000000 0.612611 0.188863
O O18 0.500000 0.085110 0.500000
O O19 0.500000 0.000000 0.378856
O O20 0.000000 0.914088 0.500000
O O21 0.000000 0.000000 0.378934
#
# Coordination Sequence:
#
# PCOD8196484 Si02
#       8
#     4   8   8   8   4   8   4   4
#     4   7  10  20  41  65  81  93 115 149 190 239
#     4  10  21  32  40  54  77 103 135 175 213 245
#     4   9  17  27  40  56  74  94 120 155 197 243
#     4  10  20  31  43  55  73 101 138 178 215 245
#     4   9  17  29  43  57  69  86 125 180 222 249
#     4   8  14  26  44  62  78  97 122 155 197 243
#     4   9  16  26  40  58  75  91 115 150 192 241
#     4   9  15  25  41  59  77  93 108 140 197 252
#
# _framework density 14.347493999999999
#
# number of rings (size 3 to 8) (size 9 to 14) (size 15 to 20)
#    0.000    3.000    0.000    2.500    2.333    5.333 
#    0.000    1.250    0.000    2.500    0.000    0.000 
#    0.000    0.000    0.000    0.000    0.000    0.000 
#
# Total GULP energy -594762.024130 kJ/mol
# GULP energy per Si atom -12390.875503 kJ/mol
# Density = 1.431484 g / cm^3
# Si number density = 14.347494 Si / 1000 Ang^3
#
#
#
# Elastic Constant Matrix: (Units=GPa)
#
#
# Indices 1 2 3 4 5 6 
#
# 1 111.4225 48.6057 32.2369 0.0000 0.0000 0.0000
# 2 48.6057 85.9842 21.3970 0.0000 0.0000 0.0000
# 3 32.2369 21.3970 55.0452 0.0000 0.0000 0.0000
# 4 0.0000 0.0000 0.0000 2.0560 0.0000 0.0000
# 5 0.0000 0.0000 0.0000 0.0000 9.0006 0.0000
# 6 0.0000 0.0000 0.0000 0.0000 0.0000 19.4643
#
#
#
# Elastic Compliance Matrix: (Units=1/GPa)
#
#
# Indices 1 2 3 4 5 6 
#
# 1 0.013195 -0.006129 -0.005345 0.000000 0.000000 0.000000
# 2 -0.006129 0.015722 -0.002522 0.000000 0.000000 0.000000
# 3 -0.005345 -0.002522 0.022278 0.000000 0.000000 0.000000
# 4 0.000000 0.000000 0.000000 0.486384 0.000000 0.000000
# 5 0.000000 0.000000 0.000000 0.000000 0.111104 0.000000
# 6 0.000000 0.000000 0.000000 0.000000 0.000000 0.051376
#
#
# Mechanical properties :
#
#
# Convention : Reuss Voigt Hill
#
# Bulk Modulus (GPa) = 43.09883 50.77014 46.93448
# Shear Modulus (GPa) = 6.79546 16.11834 11.45690
#
# Velocity S-wave (km/s) = 2.17867 3.35539 2.82889
# Velocity P-wave (km/s) = 6.03600 7.10453 6.59195
#
# Compressibility (1/GPa) = 0.02320249
#
# Stress axis : x y z
#
# Youngs Moduli (GPa) = 75.78721 63.60445 44.88801
#
# Poissons Ratio (x) = 0.38981 0.23993
# Poissons Ratio (y) = 0.46448 0.11322
# Poissons Ratio (z) = 0.40509 0.16042
#
# Static dielectric constant tensor:
#      x y z
#    x 2.969560 0.000000 0.000000 
#    y 0.000000 2.666500 0.000000 
#    z 0.000000 0.000000 2.647200 
# 
# 
# High freq. dielectric constant tensor:
#      x y z
#    x 1.557920 0.000000 0.000000 
#    y 0.000000 1.517000 0.000000 
#    z 0.000000 0.000000 1.498610 
# 
# From -- ./inp_files/29867.got.cif
#   From: 2010.03.12/outbox.cif.g09.slc.cpg/sg47_15_cif.got.tgz:29867.got - 2010.04.14 03:12:58.
