data_PCOD8196149
_publ_section_title
;
Structure prediction by ZEFSAII (Michael W. Deem and Ramdas Pophale) SiO2 
 PCOD8196149
Probable space group: P M M M
;
_chemical_formula_sum "Si O2"
_cell_formula_units_Z 40
_cell_length_a 10.802020
_cell_length_b 9.222977
_cell_length_c 22.730174
_cell_angle_alpha 90.000000
_cell_angle_beta 90.000000
_cell_angle_gamma 90.000000
_cell_volume 2264.534090
_symmetry_space_group_name_H-M "P M M M"
_symmetry_group_IT_number 47
_symmetry_cell_setting 'orthorhombic'
loop_
_space_group_symop_operation_xyz
x,y,z
-x,-y,z
x,-y,-z
-x,y,-z
-x,-y,-z
x,y,-z
-x,y,z
x,-y,z
loop_
_atom_site_type_symbol
_atom_site_label
_atom_site_fract_x
_atom_site_fract_y
_atom_site_fract_z
Si Si1 0.144842 0.837666 0.733216
Si Si2 0.638222 0.672138 0.933649
Si Si3 0.240861 0.828458 0.390749
Si Si4 0.858303 0.671860 0.149929
Si Si5 0.141581 0.658060 0.500000
Si Si6 0.500000 0.829870 0.565032
O O1 0.202117 0.772507 0.673563
O O2 0.180841 0.735178 0.787204
O O3 0.000000 0.842016 0.723533
O O4 0.195635 0.000000 0.745644
O O5 0.500000 0.721746 0.911130
O O6 0.643087 0.500000 0.932887
O O7 0.754112 0.732417 0.895370
O O8 0.657525 0.729639 0.000000
O O9 0.167311 0.749879 0.441886
O O10 0.382758 0.781763 0.397500
O O11 0.217286 0.000000 0.396919
O O12 0.852508 0.500000 0.154050
O O13 0.000000 0.719927 0.132307
O O14 0.210685 0.500000 0.500000
O O15 0.000000 0.622595 0.500000
O O16 0.500000 0.756490 0.500000
O O17 0.500000 0.000000 0.555239
#
# Coordination Sequence:
#
# PCOD8196149 Si02
#       6
#     8   8   8   8   4   4
#     4   9  18  32  49  69  94 125 159 193 229 275
#     4   8  14  26  45  69  97 128 160 194 233 278
#     4  10  19  34  54  71  91 123 161 194 230 283
#     4   9  17  29  47  71  97 124 155 196 242 280
#     4  11  23  34  47  72 100 121 148 195 248 287
#     4   9  16  30  52  74  92 114 147 194 239 273
#
# _framework density 17.663677
#
# number of rings (size 3 to 8) (size 9 to 14) (size 15 to 20)
#    0.000    2.800    1.000    1.500    0.000    2.800 
#    1.800    5.000    0.000    0.600    0.000    4.200 
#    0.000    0.000    0.000    0.000    0.000    0.000 
#
# Total GULP energy -495644.945241 kJ/mol
# GULP energy per Si atom -12391.123631 kJ/mol
# Density = 1.762347 g / cm^3
# Si number density = 17.663677 Si / 1000 Ang^3
#
#
#
# Elastic Constant Matrix: (Units=GPa)
#
#
# Indices 1 2 3 4 5 6 
#
# 1 108.7201 24.9316 82.8441 0.0000 0.0000 0.0000
# 2 24.9316 29.6464 29.2931 0.0000 0.0000 0.0000
# 3 82.8441 29.2931 143.8441 0.0000 0.0000 0.0000
# 4 0.0000 0.0000 0.0000 20.2212 0.0000 0.0000
# 5 0.0000 0.0000 0.0000 0.0000 51.5427 0.0000
# 6 0.0000 0.0000 0.0000 0.0000 0.0000 10.0893
#
#
#
# Elastic Compliance Matrix: (Units=1/GPa)
#
#
# Indices 1 2 3 4 5 6 
#
# 1 0.017163 -0.005842 -0.008695 0.000000 0.000000 0.000000
# 2 -0.005842 0.044217 -0.005640 0.000000 0.000000 0.000000
# 3 -0.008695 -0.005640 0.013108 0.000000 0.000000 0.000000
# 4 0.000000 0.000000 0.000000 0.049453 0.000000 0.000000
# 5 0.000000 0.000000 0.000000 0.000000 0.019401 0.000000
# 6 0.000000 0.000000 0.000000 0.000000 0.000000 0.099115
#
#
# Mechanical properties :
#
#
# Convention : Reuss Voigt Hill
#
# Bulk Modulus (GPa) = 29.29638 61.81644 45.55641
# Shear Modulus (GPa) = 16.99585 26.04676 21.52130
#
# Velocity S-wave (km/s) = 3.10529 3.84421 3.49434
# Velocity P-wave (km/s) = 5.42943 7.40110 6.49057
#
# Compressibility (1/GPa) = 0.03413391
#
# Stress axis : x y z
#
# Youngs Moduli (GPa) = 58.26393 22.61596 76.28786
#
# Poissons Ratio (x) = 0.13213 0.66333
# Poissons Ratio (y) = 0.34039 0.43025
# Poissons Ratio (z) = 0.50661 0.12755
#
# Static dielectric constant tensor:
#      x y z
#    x 3.413200 0.000000 0.000000 
#    y 0.000000 3.004430 0.000000 
#    z 0.000000 0.000000 3.332660 
# 
# 
# High freq. dielectric constant tensor:
#      x y z
#    x 1.688610 0.000000 0.000000 
#    y 0.000000 1.646780 0.000000 
#    z 0.000000 0.000000 1.681600 
# 
# From -- ./inp_files/10707.got.cif
#   From: 2010.03.12/outbox.cif.g09.slc.cpg/sg47_6_cif.got.tgz:10707.got - 2010.04.14 03:12:58.
