data_PCOD8196878
_publ_section_title
;
Structure prediction by ZEFSAII (Michael W. Deem and Ramdas Pophale) SiO2 
 PCOD8196878
Probable space group: P M M M
;
_chemical_formula_sum "Si O2"
_cell_formula_units_Z 64
_cell_length_a 9.648007
_cell_length_b 18.084421
_cell_length_c 20.114888
_cell_angle_alpha 90.000000
_cell_angle_beta 90.000000
_cell_angle_gamma 90.000000
_cell_volume 3509.617908
_symmetry_space_group_name_H-M "P M M M"
_symmetry_group_IT_number 47
_symmetry_cell_setting 'orthorhombic'
loop_
_space_group_symop_operation_xyz
x,y,z
-x,-y,z
x,-y,-z
-x,y,-z
-x,-y,-z
x,y,-z
-x,y,z
x,-y,z
loop_
_atom_site_type_symbol
_atom_site_label
_atom_site_fract_x
_atom_site_fract_y
_atom_site_fract_z
Si Si1 0.848619 0.707985 0.924737
Si Si2 0.840692 0.419412 0.620171
Si Si3 0.660728 0.159849 0.923567
Si Si4 0.655444 0.584541 0.115574
Si Si5 0.838987 0.739431 0.425441
Si Si6 0.343941 0.372004 0.265083
Si Si7 0.337532 0.209311 0.694654
Si Si8 0.336789 0.918723 0.207871
O O1 0.748329 0.770898 0.895802
O O2 0.771760 0.629705 0.922980
O O3 0.000000 0.705515 0.888404
O O4 0.875874 0.729304 0.000000
O O5 0.812940 0.500000 0.585026
O O6 0.799765 0.348437 0.575518
O O7 0.755375 0.417983 0.687800
O O8 0.000000 0.413170 0.640448
O O9 0.500000 0.182707 0.918909
O O10 0.697171 0.096233 0.870206
O O11 0.696302 0.135592 0.000000
O O12 0.500000 0.610804 0.095826
O O13 0.676017 0.500000 0.095424
O O14 0.679943 0.595279 0.193107
O O15 0.808453 0.767831 0.500000
O O16 0.746228 0.787307 0.374834
O O17 0.000000 0.750778 0.406826
O O18 0.500000 0.384942 0.290167
O O19 0.309435 0.284627 0.264835
O O20 0.500000 0.198998 0.678196
O O21 0.278068 0.142468 0.740498
O O22 0.500000 0.918745 0.217212
O O23 0.275287 0.000000 0.225085
#
# Coordination Sequence:
#
# PCOD8196878 Si02
#       8
#     8   8   8   8   8   8   8   8
#     4  10  21  35  49  65  88 121 160 201 244 289
#     4   9  17  28  43  66  95 124 155 193 237 284
#     4   9  17  31  53  78 103 132 164 196 231 280
#     4  10  20  32  47  67  90 119 158 204 251 296
#     4   9  18  32  49  69  94 126 164 205 247 289
#     4   9  17  30  47  66  90 121 156 191 231 281
#     4   9  17  30  50  73  97 127 160 196 237 284
#     4   9  17  30  51  80 109 132 157 194 240 287
#
# _framework density 18.235602
#
# number of rings (size 3 to 8) (size 9 to 14) (size 15 to 20)
#    0.000    2.750    0.000    1.500    0.000    5.250 
#    0.000    6.875    0.000    1.875    0.000    7.875 
#    0.000    0.000    0.000    0.000    0.000    0.000 
#
# Total GULP energy -793068.221100 kJ/mol
# GULP energy per Si atom -12391.690955 kJ/mol
# Density = 1.819410 g / cm^3
# Si number density = 18.235602 Si / 1000 Ang^3
#
#
#
# Elastic Constant Matrix: (Units=GPa)
#
#
# Indices 1 2 3 4 5 6 
#
# 1 61.4587 32.4750 28.9851 0.0000 0.0000 0.0000
# 2 32.4750 96.8556 40.9335 0.0000 0.0000 0.0000
# 3 28.9851 40.9335 76.2057 0.0000 0.0000 0.0000
# 4 0.0000 0.0000 0.0000 -8.6102 0.0000 0.0000
# 5 0.0000 0.0000 0.0000 0.0000 20.4834 0.0000
# 6 0.0000 0.0000 0.0000 0.0000 0.0000 11.2923
#
#
#
# Elastic Compliance Matrix: (Units=1/GPa)
#
#
# Indices 1 2 3 4 5 6 
#
# 1 0.021452 -0.004844 -0.005557 0.000000 0.000000 0.000000
# 2 -0.004844 0.014451 -0.005920 0.000000 0.000000 0.000000
# 3 -0.005557 -0.005920 0.018416 0.000000 0.000000 0.000000
# 4 0.000000 0.000000 0.000000 -0.116141 0.000000 0.000000
# 5 0.000000 0.000000 0.000000 0.000000 0.048820 0.000000
# 6 0.000000 0.000000 0.000000 0.000000 0.000000 0.088556
#
#
# Mechanical properties :
#
#
# Convention : Reuss Voigt Hill
#
# Bulk Modulus (GPa) = 46.13346 48.81190 47.47268
# Shear Modulus (GPa) = 43.32023 13.44153 28.38088
#
# Velocity S-wave (km/s) = 4.87929 2.71791 3.94933
# Velocity P-wave (km/s) = 7.55624 6.05598 6.84732
#
# Compressibility (1/GPa) = 0.02167624
#
# Stress axis : x y z
#
# Youngs Moduli (GPa) = 46.61666 69.20146 54.30114
#
# Poissons Ratio (x) = 0.33521 0.30177
# Poissons Ratio (y) = 0.22581 0.32144
# Poissons Ratio (z) = 0.25906 0.40965
#
# Static dielectric constant tensor:
#      x y z
#    x 3.439210 0.000000 0.000000 
#    y 0.000000 3.479180 0.000000 
#    z 0.000000 0.000000 3.251790 
# 
# 
# High freq. dielectric constant tensor:
#      x y z
#    x 1.691870 0.000000 0.000000 
#    y 0.000000 1.693230 0.000000 
#    z 0.000000 0.000000 1.692030 
# 
# From -- ./inp_files/11589.got.cif
#   From: 2010.03.12/outbox.cif.g09.slc.cpg/sg47_6_cif.got.tgz:11589.got - 2010.04.14 03:12:58.
