data_PCOD8196978
_publ_section_title
;
Structure prediction by ZEFSAII (Michael W. Deem and Ramdas Pophale) SiO2 
 PCOD8196978
Probable space group: P M M M
;
_chemical_formula_sum "Si O2"
_cell_formula_units_Z 64
_cell_length_a 13.507932
_cell_length_b 18.493010
_cell_length_c 14.492359
_cell_angle_alpha 90.000000
_cell_angle_beta 90.000000
_cell_angle_gamma 90.000000
_cell_volume 3620.224923
_symmetry_space_group_name_H-M "P M M M"
_symmetry_group_IT_number 47
_symmetry_cell_setting 'orthorhombic'
loop_
_space_group_symop_operation_xyz
x,y,z
-x,-y,z
x,-y,-z
-x,y,-z
-x,-y,-z
x,y,-z
-x,y,z
x,-y,z
loop_
_atom_site_type_symbol
_atom_site_label
_atom_site_fract_x
_atom_site_fract_y
_atom_site_fract_z
Si Si1 0.278899 0.418258 0.268597
Si Si2 0.797213 0.078766 0.102859
Si Si3 0.246734 0.234372 0.104090
Si Si4 0.889527 0.918481 0.292259
Si Si5 0.613201 0.360702 0.894177
Si Si6 0.387019 0.304933 0.606680
Si Si7 0.205981 0.207548 0.392450
Si Si8 0.885686 0.692937 0.253507
O O1 0.268437 0.500000 0.304531
O O2 0.328467 0.418699 0.167267
O O3 0.349851 0.374079 0.336929
O O4 0.169917 0.383713 0.261057
O O5 0.725984 0.148923 0.115623
O O6 0.880846 0.084789 0.181124
O O7 0.741920 0.000000 0.113677
O O8 0.845461 0.082579 0.000000
O O9 0.344836 0.280301 0.126730
O O10 0.158183 0.257247 0.171905
O O11 0.210794 0.250996 0.000000
O O12 0.807902 0.869934 0.343784
O O13 0.000000 0.891406 0.317300
O O14 0.872970 0.000000 0.327622
O O15 0.500000 0.359336 0.864270
O O16 0.626972 0.383791 0.000000
O O17 0.378509 0.326499 0.500000
O O18 0.500000 0.285741 0.633844
O O19 0.317921 0.235251 0.627802
O O20 0.183255 0.200469 0.500000
O O21 0.128154 0.264399 0.349586
O O22 0.000000 0.677308 0.233902
#
# Coordination Sequence:
#
# PCOD8196978 Si02
#       8
#     8   8   8   8   8   8   8   8
#     4  10  21  35  51  75 104 129 158 199 244 293
#     4   9  17  29  46  69 100 137 171 205 248 290
#     4   9  17  30  49  72  97 127 166 210 250 289
#     4  10  20  32  47  71 103 136 171 210 250 291
#     4   9  18  32  50  73 100 130 164 202 245 292
#     4   9  19  36  57  79 100 125 159 200 250 302
#     4  10  20  34  52  73  99 131 166 206 247 289
#     4  10  20  34  51  71  96 130 169 203 240 288
#
# _framework density 17.678459
#
# number of rings (size 3 to 8) (size 9 to 14) (size 15 to 20)
#    0.000    2.500    1.250    0.750    0.000    3.500 
#    0.000    4.375    0.000    0.750    0.000   13.125 
#    0.000    0.000    0.000    0.000    0.000    0.250 
#
# Total GULP energy -793143.677392 kJ/mol
# GULP energy per Si atom -12392.869959 kJ/mol
# Density = 1.763822 g / cm^3
# Si number density = 17.678459 Si / 1000 Ang^3
#
#
#
# Elastic Constant Matrix: (Units=GPa)
#
#
# Indices 1 2 3 4 5 6 
#
# 1 89.4926 42.0207 28.9283 0.0000 0.0000 0.0000
# 2 42.0207 120.5125 37.1771 0.0000 0.0000 0.0000
# 3 28.9283 37.1771 85.9663 0.0000 0.0000 0.0000
# 4 0.0000 0.0000 0.0000 18.9761 0.0000 0.0000
# 5 0.0000 0.0000 0.0000 0.0000 19.7904 0.0000
# 6 0.0000 0.0000 0.0000 0.0000 0.0000 14.9455
#
#
#
# Elastic Compliance Matrix: (Units=1/GPa)
#
#
# Indices 1 2 3 4 5 6 
#
# 1 0.014002 -0.003957 -0.003001 0.000000 0.000000 0.000000
# 2 -0.003957 0.010693 -0.003293 0.000000 0.000000 0.000000
# 3 -0.003001 -0.003293 0.014066 0.000000 0.000000 0.000000
# 4 0.000000 0.000000 0.000000 0.052698 0.000000 0.000000
# 5 0.000000 0.000000 0.000000 0.000000 0.050529 0.000000
# 6 0.000000 0.000000 0.000000 0.000000 0.000000 0.066910
#
#
# Mechanical properties :
#
#
# Convention : Reuss Voigt Hill
#
# Bulk Modulus (GPa) = 54.76152 56.91373 55.83763
# Shear Modulus (GPa) = 21.23266 23.26542 22.24904
#
# Velocity S-wave (km/s) = 3.46937 3.63165 3.55144
# Velocity P-wave (km/s) = 6.86239 7.06038 6.96209
#
# Compressibility (1/GPa) = 0.01826100
#
# Stress axis : x y z
#
# Youngs Moduli (GPa) = 71.41928 93.51616 71.09169
#
# Poissons Ratio (x) = 0.37000 0.21332
# Poissons Ratio (y) = 0.28257 0.23411
# Poissons Ratio (z) = 0.21431 0.30795
#
# Static dielectric constant tensor:
#      x y z
#    x 3.097430 0.000000 0.000000 
#    y 0.000000 3.340910 0.000000 
#    z 0.000000 0.000000 3.469560 
# 
# 
# High freq. dielectric constant tensor:
#      x y z
#    x 1.652480 0.000000 0.000000 
#    y 0.000000 1.681610 0.000000 
#    z 0.000000 0.000000 1.697720 
# 
# From -- ./inp_files/22958.got.cif
#   From: 2010.03.12/outbox.cif.g09.slc.cpg/sg47_12_cif.got.tgz:22958.got - 2010.04.14 03:12:58.
