data_PCOD8196632
_publ_section_title
;
Structure prediction by ZEFSAII (Michael W. Deem and Ramdas Pophale) SiO2 
 PCOD8196632
Probable space group: P M M M
;
_chemical_formula_sum "Si O2"
_cell_formula_units_Z 64
_cell_length_a 9.210271
_cell_length_b 15.254905
_cell_length_c 23.263371
_cell_angle_alpha 90.000000
_cell_angle_beta 90.000000
_cell_angle_gamma 90.000000
_cell_volume 3268.545712
_symmetry_space_group_name_H-M "P M M M"
_symmetry_group_IT_number 47
_symmetry_cell_setting 'orthorhombic'
loop_
_space_group_symop_operation_xyz
x,y,z
-x,-y,z
x,-y,-z
-x,y,-z
-x,-y,-z
x,y,-z
-x,y,z
x,-y,z
loop_
_atom_site_type_symbol
_atom_site_label
_atom_site_fract_x
_atom_site_fract_y
_atom_site_fract_z
Si Si1 0.170880 0.102706 0.617061
Si Si2 0.837988 0.833116 0.821675
Si Si3 0.663318 0.597307 0.881577
Si Si4 0.836577 0.358521 0.226887
Si Si5 0.170040 0.601455 0.644412
Si Si6 0.332682 0.741010 0.565955
Si Si7 0.657779 0.099445 0.726656
Si Si8 0.831459 0.252087 0.063965
O O1 0.250711 0.165225 0.571497
O O2 0.230722 0.135753 0.679016
O O3 0.000000 0.120626 0.616040
O O4 0.203549 0.000000 0.603820
O O5 0.832208 0.744453 0.785107
O O6 0.726491 0.897357 0.790398
O O7 0.785718 0.818770 0.887673
O O8 0.000000 0.873405 0.820950
O O9 0.500000 0.632868 0.874663
O O10 0.665144 0.500000 0.907797
O O11 0.735371 0.593520 0.818878
O O12 0.746109 0.658092 0.926887
O O13 0.778595 0.378956 0.290524
O O14 0.000000 0.395074 0.220078
O O15 0.202405 0.500000 0.629227
O O16 0.259747 0.663873 0.602491
O O17 0.000000 0.623089 0.637325
O O18 0.322023 0.711933 0.500000
O O19 0.500000 0.752932 0.585093
O O20 0.500000 0.148035 0.724945
O O21 0.629734 0.000000 0.710944
O O22 0.000000 0.274794 0.072935
O O23 0.800060 0.214919 0.000000
#
# Coordination Sequence:
#
# PCOD8196632 Si02
#       8
#     8   8   8   8   8   8   8   8
#     4  10  21  38  62  90 117 145 178 219 270 328
#     4   9  17  30  51  77 103 133 170 215 262 308
#     4  10  20  31  45  70 102 132 163 203 253 308
#     4   9  18  33  53  77 103 131 168 214 263 315
#     4  10  21  37  59  85 111 144 188 237 284 326
#     4  11  25  42  59  81 111 149 190 230 273 324
#     4  10  20  33  52  81 114 142 168 202 249 310
#     4   9  19  35  52  69  91 126 173 217 256 301
#
# _framework density 19.580573999999999
#
# number of rings (size 3 to 8) (size 9 to 14) (size 15 to 20)
#    0.000    2.250    0.000    3.375    0.000    8.750 
#    0.000    3.750    0.000    0.375    0.000    2.625 
#    0.000    0.000    0.000    0.000    0.000    0.000 
#
# Total GULP energy -793398.979866 kJ/mol
# GULP energy per Si atom -12396.859060 kJ/mol
# Density = 1.953601 g / cm^3
# Si number density = 19.580574 Si / 1000 Ang^3
#
#
#
# Elastic Constant Matrix: (Units=GPa)
#
#
# Indices 1 2 3 4 5 6 
#
# 1 100.0918 28.4836 41.9172 0.0000 0.0000 0.0000
# 2 28.4836 52.4175 27.1559 0.0000 0.0000 0.0000
# 3 41.9172 27.1559 106.9713 0.0000 0.0000 0.0000
# 4 0.0000 0.0000 0.0000 16.6635 0.0000 0.0000
# 5 0.0000 0.0000 0.0000 0.0000 14.7831 0.0000
# 6 0.0000 0.0000 0.0000 0.0000 0.0000 26.4737
#
#
#
# Elastic Compliance Matrix: (Units=1/GPa)
#
#
# Indices 1 2 3 4 5 6 
#
# 1 0.013042 -0.005112 -0.003813 0.000000 0.000000 0.000000
# 2 -0.005112 0.023970 -0.004082 0.000000 0.000000 0.000000
# 3 -0.003813 -0.004082 0.011879 0.000000 0.000000 0.000000
# 4 0.000000 0.000000 0.000000 0.060012 0.000000 0.000000
# 5 0.000000 0.000000 0.000000 0.000000 0.067645 0.000000
# 6 0.000000 0.000000 0.000000 0.000000 0.000000 0.037773
#
#
# Mechanical properties :
#
#
# Convention : Reuss Voigt Hill
#
# Bulk Modulus (GPa) = 43.71103 50.51046 47.11075
# Shear Modulus (GPa) = 20.16452 22.37898 21.27175
#
# Velocity S-wave (km/s) = 3.21257 3.38437 3.29959
# Velocity P-wave (km/s) = 6.01107 6.41281 6.21519
#
# Compressibility (1/GPa) = 0.02287752
#
# Stress axis : x y z
#
# Youngs Moduli (GPa) = 76.67324 41.71866 84.18410
#
# Poissons Ratio (x) = 0.21326 0.32100
# Poissons Ratio (y) = 0.39194 0.34364
# Poissons Ratio (z) = 0.29236 0.17030
#
# Static dielectric constant tensor:
#      x y z
#    x 3.710290 0.000000 0.000000 
#    y 0.000000 3.362550 0.000000 
#    z 0.000000 0.000000 3.567730 
# 
# 
# High freq. dielectric constant tensor:
#      x y z
#    x 1.767200 0.000000 0.000000 
#    y 0.000000 1.744050 0.000000 
#    z 0.000000 0.000000 1.758130 
# 
# From -- ./inp_files/12733.got.cif
#   From: 2010.03.12/outbox.cif.g09.slc.cpg/sg47_7_cif.got.tgz:12733.got - 2010.04.14 03:12:58.
