data_PCOD8196216
_publ_section_title
;
Structure prediction by ZEFSAII (Michael W. Deem and Ramdas Pophale) SiO2 
 PCOD8196216
Probable space group: P M M M
;
_chemical_formula_sum "Si O2"
_cell_formula_units_Z 52
_cell_length_a 13.614408
_cell_length_b 13.955867
_cell_length_c 13.996095
_cell_angle_alpha 90.000000
_cell_angle_beta 90.000000
_cell_angle_gamma 90.000000
_cell_volume 2659.270189
_symmetry_space_group_name_H-M "P M M M"
_symmetry_group_IT_number 47
_symmetry_cell_setting 'orthorhombic'
loop_
_space_group_symop_operation_xyz
x,y,z
-x,-y,z
x,-y,-z
-x,y,-z
-x,-y,-z
x,y,-z
-x,y,z
x,-y,z
loop_
_atom_site_type_symbol
_atom_site_label
_atom_site_fract_x
_atom_site_fract_y
_atom_site_fract_z
Si Si1 0.110358 0.606374 0.113561
Si Si2 0.000000 0.393637 0.385762
Si Si3 0.610510 0.109045 0.213520
Si Si4 0.217135 0.795363 0.887611
Si Si5 0.392891 0.764127 0.391544
Si Si6 0.888780 0.890447 0.269770
Si Si7 0.816221 0.725395 0.389779
O O1 0.146247 0.500000 0.145906
O O2 0.186792 0.688156 0.148793
O O3 0.000000 0.626217 0.154341
O O4 0.105063 0.610608 0.000000
O O5 0.101211 0.345768 0.345893
O O6 0.000000 0.500000 0.343752
O O7 0.000000 0.394594 0.500000
O O8 0.500000 0.112525 0.173464
O O9 0.672934 0.180182 0.146231
O O10 0.614396 0.144414 0.322591
O O11 0.651456 0.000000 0.209718
O O12 0.142349 0.870790 0.839656
O O13 0.207834 0.806688 0.000000
O O14 0.386719 0.803074 0.500000
O O15 0.500000 0.712240 0.375272
O O16 0.298468 0.692580 0.374945
O O17 0.821245 0.828506 0.339659
O O18 0.000000 0.859181 0.285622
O O19 0.871721 0.000000 0.295960
O O20 0.842431 0.738966 0.500000
#
# Coordination Sequence:
#
# PCOD8196216 Si02
#       7
#     8   4   8   8   8   8   8
#     4   8  15  31  56  82 104 129 168 222 280 332
#     4   9  18  34  57  85 116 151 189 229 275 331
#     4  10  21  36  54  78 109 144 184 231 278 328
#     4  11  22  36  55  76 105 146 188 231 279 326
#     4   9  18  33  56  83 109 142 182 227 282 336
#     4  11  23  36  51  75 111 148 184 226 269 326
#     4  10  19  34  57  82 112 146 182 226 276 334
#
# _framework density 19.554237000000001
#
# number of rings (size 3 to 8) (size 9 to 14) (size 15 to 20)
#    0.000    2.231    2.308    1.385    0.000    3.077 
#    0.000    6.154    0.000    0.923    0.000    7.538 
#    0.000    0.000    0.000    0.000    0.000    0.308 
#
# Total GULP energy -644281.391598 kJ/mol
# GULP energy per Si atom -12390.026761 kJ/mol
# Density = 1.950973 g / cm^3
# Si number density = 19.554237 Si / 1000 Ang^3
#
#
#
# Elastic Constant Matrix: (Units=GPa)
#
#
# Indices 1 2 3 4 5 6 
#
# 1 172.7114 73.7618 24.4159 0.0000 0.0000 0.0000
# 2 73.7618 91.8711 23.3622 0.0000 0.0000 0.0000
# 3 24.4159 23.3622 36.1492 0.0000 0.0000 0.0000
# 4 0.0000 0.0000 0.0000 17.4601 0.0000 0.0000
# 5 0.0000 0.0000 0.0000 0.0000 28.4624 0.0000
# 6 0.0000 0.0000 0.0000 0.0000 0.0000 24.0686
#
#
#
# Elastic Compliance Matrix: (Units=1/GPa)
#
#
# Indices 1 2 3 4 5 6 
#
# 1 0.008894 -0.006718 -0.001666 0.000000 0.000000 0.000000
# 2 -0.006718 0.018099 -0.007160 0.000000 0.000000 0.000000
# 3 -0.001666 -0.007160 0.033415 0.000000 0.000000 0.000000
# 4 0.000000 0.000000 0.000000 0.057273 0.000000 0.000000
# 5 0.000000 0.000000 0.000000 0.000000 0.035134 0.000000
# 6 0.000000 0.000000 0.000000 0.000000 0.000000 0.041548
#
#
# Mechanical properties :
#
#
# Convention : Reuss Voigt Hill
#
# Bulk Modulus (GPa) = 34.10381 60.42351 47.26366
# Shear Modulus (GPa) = 21.25627 25.94435 23.60031
#
# Velocity S-wave (km/s) = 3.30061 3.64646 3.47784
# Velocity P-wave (km/s) = 5.65719 6.97829 6.35218
#
# Compressibility (1/GPa) = 0.02932224
#
# Stress axis : x y z
#
# Youngs Moduli (GPa) = 112.42917 55.25209 29.92624
#
# Poissons Ratio (x) = 0.37116 0.04986
# Poissons Ratio (y) = 0.75525 0.21426
# Poissons Ratio (z) = 0.18733 0.39558
#
# Static dielectric constant tensor:
#      x y z
#    x 4.123200 0.000000 0.000000 
#    y 0.000000 3.496150 0.000000 
#    z 0.000000 0.000000 3.454670 
# 
# 
# High freq. dielectric constant tensor:
#      x y z
#    x 1.774760 0.000000 0.000000 
#    y 0.000000 1.729920 0.000000 
#    z 0.000000 0.000000 1.762070 
# 
# From -- ./inp_files/23646.got.cif
#   From: 2010.03.12/outbox.cif.g09.slc.cpg/sg47_12_cif.got.tgz:23646.got - 2010.04.14 03:12:58.
