data_PCOD8196852
_publ_section_title
;
Structure prediction by ZEFSAII (Michael W. Deem and Ramdas Pophale) SiO2 
 PCOD8196852
Probable space group: P M M M
;
_chemical_formula_sum "Si O2"
_cell_formula_units_Z 64
_cell_length_a 9.103708
_cell_length_b 19.640485
_cell_length_c 20.627118
_cell_angle_alpha 90.000000
_cell_angle_beta 90.000000
_cell_angle_gamma 90.000000
_cell_volume 3688.154285
_symmetry_space_group_name_H-M "P M M M"
_symmetry_group_IT_number 47
_symmetry_cell_setting 'orthorhombic'
loop_
_space_group_symop_operation_xyz
x,y,z
-x,-y,z
x,-y,-z
-x,y,-z
-x,-y,-z
x,y,-z
-x,y,z
x,-y,z
loop_
_atom_site_type_symbol
_atom_site_label
_atom_site_fract_x
_atom_site_fract_y
_atom_site_fract_z
Si Si1 0.829702 0.077048 0.385797
Si Si2 0.825636 0.293776 0.680101
Si Si3 0.328475 0.422938 0.722383
Si Si4 0.825120 0.785268 0.191668
Si Si5 0.331795 0.794517 0.426664
Si Si6 0.173913 0.073418 0.763350
Si Si7 0.827222 0.300080 0.927901
Si Si8 0.669386 0.577025 0.871307
O O1 0.729983 0.128582 0.426178
O O2 0.783353 0.084721 0.311081
O O3 0.000000 0.096523 0.395301
O O4 0.801002 0.000000 0.410054
O O5 0.765000 0.370829 0.679043
O O6 0.770954 0.257216 0.746055
O O7 0.763640 0.254187 0.618566
O O8 0.000000 0.294909 0.675063
O O9 0.500000 0.407108 0.713728
O O10 0.293718 0.500000 0.699462
O O11 0.280831 0.414076 0.797023
O O12 0.763235 0.862855 0.195541
O O13 0.762219 0.752064 0.125647
O O14 0.000000 0.786428 0.190986
O O15 0.320307 0.766976 0.500000
O O16 0.500000 0.794641 0.402805
O O17 0.000000 0.071163 0.769321
O O18 0.237414 0.000000 0.787835
O O19 0.762984 0.374907 0.917577
O O20 0.000000 0.306023 0.919337
O O21 0.785504 0.274063 0.000000
O O22 0.500000 0.596678 0.878725
O O23 0.697325 0.500000 0.894270
#
# Coordination Sequence:
#
# PCOD8196852 Si02
#       8
#     8   8   8   8   8   8   8   8
#     4   9  17  31  52  77 103 133 173 217 258 304
#     4  11  20  33  56  80 101 130 172 219 258 299
#     4   9  18  33  53  78 107 135 164 204 257 312
#     4   9  16  28  47  72  98 127 165 209 256 299
#     4  11  24  38  51  72 106 144 176 209 256 312
#     4   8  13  24  46  73  97 122 158 206 254 296
#     4  10  20  32  46  68 101 137 170 209 256 303
#     4   9  18  32  49  70  98 132 169 207 245 293
#
# _framework density 17.352851999999999
#
# number of rings (size 3 to 8) (size 9 to 14) (size 15 to 20)
#    0.000    2.500    2.500    2.250    0.000    2.500 
#    0.000    3.750    0.000    0.750    0.000    5.250 
#    0.000    0.000    0.000    1.125    0.000    1.250 
#
# Total GULP energy -793376.938415 kJ/mol
# GULP energy per Si atom -12396.514663 kJ/mol
# Density = 1.731336 g / cm^3
# Si number density = 17.352852 Si / 1000 Ang^3
#
#
#
# Elastic Constant Matrix: (Units=GPa)
#
#
# Indices 1 2 3 4 5 6 
#
# 1 50.0098 39.2161 35.1297 0.0000 0.0000 0.0000
# 2 39.2161 125.9094 57.2494 0.0000 0.0000 0.0000
# 3 35.1297 57.2494 89.3592 0.0000 0.0000 0.0000
# 4 0.0000 0.0000 0.0000 18.7064 0.0000 0.0000
# 5 0.0000 0.0000 0.0000 0.0000 19.9962 0.0000
# 6 0.0000 0.0000 0.0000 0.0000 0.0000 21.5747
#
#
#
# Elastic Compliance Matrix: (Units=1/GPa)
#
#
# Indices 1 2 3 4 5 6 
#
# 1 0.030239 -0.005663 -0.008260 0.000000 0.000000 0.000000
# 2 -0.005663 0.012267 -0.005633 0.000000 0.000000 0.000000
# 3 -0.008260 -0.005633 0.018047 0.000000 0.000000 0.000000
# 4 0.000000 0.000000 0.000000 0.053458 0.000000 0.000000
# 5 0.000000 0.000000 0.000000 0.000000 0.050010 0.000000
# 6 0.000000 0.000000 0.000000 0.000000 0.000000 0.046351
#
#
# Mechanical properties :
#
#
# Convention : Reuss Voigt Hill
#
# Bulk Modulus (GPa) = 46.63794 58.71874 52.67834
# Shear Modulus (GPa) = 19.48340 20.96767 20.22553
#
# Velocity S-wave (km/s) = 3.35442 3.47985 3.41771
# Velocity P-wave (km/s) = 6.47591 7.07512 6.78214
#
# Compressibility (1/GPa) = 0.02144177
#
# Stress axis : x y z
#
# Youngs Moduli (GPa) = 33.07018 81.51839 55.41125
#
# Poissons Ratio (x) = 0.46160 0.45769
# Poissons Ratio (y) = 0.18726 0.31213
# Poissons Ratio (z) = 0.27316 0.45920
#
# Static dielectric constant tensor:
#      x y z
#    x 2.954050 0.000000 0.000000 
#    y 0.000000 3.544880 0.000000 
#    z 0.000000 0.000000 3.125550 
# 
# 
# High freq. dielectric constant tensor:
#      x y z
#    x 1.645170 0.000000 0.000000 
#    y 0.000000 1.677650 0.000000 
#    z 0.000000 0.000000 1.646280 
# 
# From -- ./inp_files/30139.got.cif
#   From: 2010.03.12/outbox.cif.g09.slc.cpg/sg47_16_cif.got.tgz:30139.got - 2010.04.14 03:12:58.
