data_PCOD8196041
_publ_section_title
;
Structure prediction by ZEFSAII (Michael W. Deem and Ramdas Pophale) SiO2 
 PCOD8196041
Probable space group: P M M M
;
_chemical_formula_sum "Si O2"
_cell_formula_units_Z 48
_cell_length_a 9.974160
_cell_length_b 8.739391
_cell_length_c 28.824073
_cell_angle_alpha 90.000000
_cell_angle_beta 90.000000
_cell_angle_gamma 90.000000
_cell_volume 2512.539220
_symmetry_space_group_name_H-M "P M M M"
_symmetry_group_IT_number 47
_symmetry_cell_setting 'orthorhombic'
loop_
_space_group_symop_operation_xyz
x,y,z
-x,-y,z
x,-y,-z
-x,y,-z
-x,-y,-z
x,y,-z
-x,y,z
x,-y,z
loop_
_atom_site_type_symbol
_atom_site_label
_atom_site_fract_x
_atom_site_fract_y
_atom_site_fract_z
Si Si1 0.654161 0.319280 0.296010
Si Si2 0.153252 0.820977 0.221600
Si Si3 0.747047 0.181602 0.389865
Si Si4 0.500000 0.818090 0.448744
Si Si5 0.151895 0.675345 0.124534
Si Si6 0.000000 0.182008 0.552626
Si Si7 0.346519 0.823965 0.946386
O O1 0.500000 0.256854 0.294497
O O2 0.652141 0.500000 0.298823
O O3 0.736515 0.268747 0.251091
O O4 0.736349 0.254240 0.339424
O O5 0.183262 0.782574 0.168276
O O6 0.000000 0.771863 0.234514
O O7 0.173012 0.000000 0.230053
O O8 0.626556 0.242563 0.421027
O O9 0.875170 0.241652 0.417728
O O10 0.747998 0.000000 0.383787
O O11 0.500000 0.746178 0.500000
O O12 0.500000 0.000000 0.452079
O O13 0.174185 0.500000 0.139487
O O14 0.250944 0.715465 0.082980
O O15 0.000000 0.702266 0.107182
O O16 0.000000 0.249051 0.500000
O O17 0.000000 0.000000 0.549073
O O18 0.500000 0.793465 0.931810
O O19 0.308560 0.000000 0.937247
O O20 0.325474 0.782252 0.000000
#
# Coordination Sequence:
#
# PCOD8196041 Si02
#       7
#     8   8   8   4   8   4   8
#     4  11  24  40  57  80 113 149 185 225 275 334
#     4  10  22  40  63  87 110 141 185 234 283 335
#     4  10  19  33  54  80 110 141 179 226 271 321
#     4   9  16  28  51  79 105 139 181 225 272 315
#     4  10  21  37  57  84 118 152 188 231 283 342
#     4   9  18  32  53  83 113 139 175 225 274 321
#     4   9  19  36  57  82 114 154 200 245 286 330
#
# _framework density 19.104178000000001
#
# number of rings (size 3 to 8) (size 9 to 14) (size 15 to 20)
#    0.000    2.167    0.833    2.500    1.167    6.667 
#    0.000    2.500    0.000    3.000    0.000    0.000 
#    0.000    0.000    0.000    0.000    0.000    0.000 
#
# Total GULP energy -595212.365024 kJ/mol
# GULP energy per Si atom -12400.257605 kJ/mol
# Density = 1.906070 g / cm^3
# Si number density = 19.104178 Si / 1000 Ang^3
#
#
#
# Elastic Constant Matrix: (Units=GPa)
#
#
# Indices 1 2 3 4 5 6 
#
# 1 138.9302 30.6136 66.8580 0.0000 0.0000 0.0000
# 2 30.6136 44.1863 22.7965 0.0000 0.0000 0.0000
# 3 66.8580 22.7965 100.5716 0.0000 0.0000 0.0000
# 4 0.0000 0.0000 0.0000 -3.7793 0.0000 0.0000
# 5 0.0000 0.0000 0.0000 0.0000 40.5502 0.0000
# 6 0.0000 0.0000 0.0000 0.0000 0.0000 34.2367
#
#
#
# Elastic Compliance Matrix: (Units=1/GPa)
#
#
# Indices 1 2 3 4 5 6 
#
# 1 0.011317 -0.004484 -0.006507 0.000000 0.000000 0.000000
# 2 -0.004484 0.027405 -0.003231 0.000000 0.000000 0.000000
# 3 -0.006507 -0.003231 0.015001 0.000000 0.000000 0.000000
# 4 0.000000 0.000000 0.000000 -0.264603 0.000000 0.000000
# 5 0.000000 0.000000 0.000000 0.000000 0.024661 0.000000
# 6 0.000000 0.000000 0.000000 0.000000 0.000000 0.029208
#
#
# Mechanical properties :
#
#
# Convention : Reuss Voigt Hill
#
# Bulk Modulus (GPa) = 39.55778 58.24714 48.90246
# Shear Modulus (GPa) = -41.61857 25.09619 -8.26119
#
# Velocity S-wave (km/s) = -4.67251 3.62836 -2.08175
# Velocity P-wave (km/s) = 2.89111 6.93605 4.45815
#
# Compressibility (1/GPa) = 0.02527948
#
# Stress axis : x y z
#
# Youngs Moduli (GPa) = 88.35964 36.48968 66.66036
#
# Poissons Ratio (x) = 0.16361 0.43377
# Poissons Ratio (y) = 0.39619 0.21539
# Poissons Ratio (z) = 0.57498 0.11790
#
# Static dielectric constant tensor:
#      x y z
#    x 3.682650 0.000000 0.000000 
#    y 0.000000 3.249880 0.000000 
#    z 0.000000 0.000000 3.481040 
# 
# 
# High freq. dielectric constant tensor:
#      x y z
#    x 1.753230 0.000000 0.000000 
#    y 0.000000 1.723020 0.000000 
#    z 0.000000 0.000000 1.749300 
# 
# From -- ./inp_files/2713.got.cif
#   From: 2010.03.12/outbox.cif.g09.slc.cpg/sg47_2_cif.got.tgz:2713.got - 2010.04.14 03:12:58.
