data_PCOD8196543
_publ_section_title
;
Structure prediction by ZEFSAII (Michael W. Deem and Ramdas Pophale) SiO2 
 PCOD8196543
Probable space group: P M M M
;
_chemical_formula_sum "Si O2"
_cell_formula_units_Z 64
_cell_length_a 14.143185
_cell_length_b 30.637615
_cell_length_c 9.153814
_cell_angle_alpha 90.000000
_cell_angle_beta 90.000000
_cell_angle_gamma 90.000000
_cell_volume 3966.470788
_symmetry_space_group_name_H-M "P M M M"
_symmetry_group_IT_number 47
_symmetry_cell_setting 'orthorhombic'
loop_
_space_group_symop_operation_xyz
x,y,z
-x,-y,z
x,-y,-z
-x,y,-z
-x,-y,-z
x,y,-z
-x,y,z
x,-y,z
loop_
_atom_site_type_symbol
_atom_site_label
_atom_site_fract_x
_atom_site_fract_y
_atom_site_fract_z
Si Si1 0.295323 0.126405 0.326592
Si Si2 0.716453 0.708104 0.172461
Si Si3 0.892877 0.264391 0.669650
Si Si4 0.387687 0.368559 0.666173
Si Si5 0.609150 0.795432 0.831877
Si Si6 0.102454 0.834486 0.326737
Si Si7 0.387669 0.451908 0.836012
Si Si8 0.608635 0.050136 0.168439
O O1 0.301963 0.127030 0.500000
O O2 0.365359 0.162981 0.265441
O O3 0.188122 0.135384 0.270476
O O4 0.324087 0.079045 0.269057
O O5 0.822240 0.705576 0.237161
O O6 0.654114 0.669755 0.237233
O O7 0.669617 0.753923 0.219316
O O8 0.719723 0.702432 0.000000
O O9 0.865024 0.267590 0.500000
O O10 0.882291 0.214887 0.728090
O O11 0.000000 0.280950 0.694620
O O12 0.353243 0.363789 0.500000
O O13 0.500000 0.366023 0.678379
O O14 0.348966 0.414860 0.726959
O O15 0.500000 0.783749 0.807249
O O16 0.629749 0.807240 0.000000
O O17 0.100688 0.833579 0.500000
O O18 0.000000 0.851982 0.269260
O O19 0.500000 0.451389 0.835303
O O20 0.352022 0.500000 0.784970
O O21 0.351006 0.442168 0.000000
O O22 0.500000 0.058692 0.211503
O O23 0.635599 0.000000 0.196848
O O24 0.624793 0.062574 0.000000
#
# Coordination Sequence:
#
# PCOD8196543 Si02
#       8
#     8   8   8   8   8   8   8   8
#     4  11  20  30  50  76  96 115 149 195 233 267
#     4  11  21  32  47  66  93 127 162 200 236 278
#     4   9  17  32  52  69  90 122 157 194 237 283
#     4  10  20  31  44  64  92 128 167 204 241 285
#     4  10  21  34  45  61  91 130 162 186 221 273
#     4   8  15  29  48  69  94 122 149 181 226 278
#     4   8  14  26  44  64  87 118 157 200 244 288
#     4   9  19  36  54  69  91 126 158 182 220 277
#
# _framework density 16.135249999999999
#
# number of rings (size 3 to 8) (size 9 to 14) (size 15 to 20)
#    0.000    2.500    1.250    3.375    0.000    4.500 
#    0.000    1.875    0.000    1.875    0.000    2.625 
#    0.000    0.500    0.000    5.250    0.000    2.500 
#
# Total GULP energy -793472.282263 kJ/mol
# GULP energy per Si atom -12398.004410 kJ/mol
# Density = 1.609853 g / cm^3
# Si number density = 16.135250 Si / 1000 Ang^3
#
#
#
# Elastic Constant Matrix: (Units=GPa)
#
#
# Indices 1 2 3 4 5 6 
#
# 1 66.4301 28.2575 33.5304 0.0000 0.0000 0.0000
# 2 28.2575 83.9047 42.6277 0.0000 0.0000 0.0000
# 3 33.5304 42.6277 70.8401 0.0000 0.0000 0.0000
# 4 0.0000 0.0000 0.0000 26.8662 0.0000 0.0000
# 5 0.0000 0.0000 0.0000 0.0000 20.3756 0.0000
# 6 0.0000 0.0000 0.0000 0.0000 0.0000 6.1905
#
#
#
# Elastic Compliance Matrix: (Units=1/GPa)
#
#
# Indices 1 2 3 4 5 6 
#
# 1 0.020227 -0.002806 -0.007886 0.000000 0.000000 0.000000
# 2 -0.002806 0.017556 -0.009236 0.000000 0.000000 0.000000
# 3 -0.007886 -0.009236 0.023406 0.000000 0.000000 0.000000
# 4 0.000000 0.000000 0.000000 0.037222 0.000000 0.000000
# 5 0.000000 0.000000 0.000000 0.000000 0.049078 0.000000
# 6 0.000000 0.000000 0.000000 0.000000 0.000000 0.161537
#
#
# Mechanical properties :
#
#
# Convention : Reuss Voigt Hill
#
# Bulk Modulus (GPa) = 46.87262 47.77846 47.32554
# Shear Modulus (GPa) = 14.04527 18.47042 16.25785
#
# Velocity S-wave (km/s) = 2.95358 3.38705 3.17771
# Velocity P-wave (km/s) = 6.38313 6.70609 6.54660
#
# Compressibility (1/GPa) = 0.02133441
#
# Stress axis : x y z
#
# Youngs Moduli (GPa) = 49.43839 56.96215 42.72340
#
# Poissons Ratio (x) = 0.15983 0.33690
# Poissons Ratio (y) = 0.13872 0.39459
# Poissons Ratio (z) = 0.38985 0.52609
#
# Static dielectric constant tensor:
#      x y z
#    x 3.090210 0.000000 0.000000 
#    y 0.000000 3.060730 0.000000 
#    z 0.000000 0.000000 3.005040 
# 
# 
# High freq. dielectric constant tensor:
#      x y z
#    x 1.601610 0.000000 0.000000 
#    y 0.000000 1.608450 0.000000 
#    z 0.000000 0.000000 1.616370 
# 
# From -- ./inp_files/8205.got.cif
#   From: 2010.03.12/outbox.cif.g09.slc.cpg/sg47_5_cif.got.tgz:8205.got - 2010.04.14 03:12:58.
