data_PCOD8196705
_publ_section_title
;
Structure prediction by ZEFSAII (Michael W. Deem and Ramdas Pophale) SiO2 
 PCOD8196705
Probable space group: P M M M
;
_chemical_formula_sum "Si O2"
_cell_formula_units_Z 56
_cell_length_a 14.427533
_cell_length_b 8.361143
_cell_length_c 32.746073
_cell_angle_alpha 90.000000
_cell_angle_beta 90.000000
_cell_angle_gamma 90.000000
_cell_volume 3950.180613
_symmetry_space_group_name_H-M "P M M M"
_symmetry_group_IT_number 47
_symmetry_cell_setting 'orthorhombic'
loop_
_space_group_symop_operation_xyz
x,y,z
-x,-y,z
x,-y,-z
-x,y,-z
-x,-y,-z
x,y,-z
-x,y,z
x,-y,z
loop_
_atom_site_type_symbol
_atom_site_label
_atom_site_fract_x
_atom_site_fract_y
_atom_site_fract_z
Si Si1 0.897844 0.311258 0.545725
Si Si2 0.390722 0.180178 0.735269
Si Si3 0.610130 0.000000 0.046384
Si Si4 0.610790 0.681009 0.093006
Si Si5 0.716012 0.814587 0.577136
Si Si6 0.396616 0.684533 0.183057
Si Si7 0.393759 0.315565 0.348644
Si Si8 0.395675 0.191112 0.500000
O O1 0.875564 0.246764 0.500000
O O2 0.898247 0.500000 0.545311
O O3 0.820344 0.252577 0.577316
O O4 0.000000 0.249119 0.559385
O O5 0.500000 0.206080 0.740044
O O6 0.344310 0.229947 0.778827
O O7 0.355584 0.286364 0.697253
O O8 0.363167 0.000000 0.725118
O O9 0.647409 0.832428 0.066285
O O10 0.500000 0.000000 0.049114
O O11 0.645407 0.000000 0.000000
O O12 0.500000 0.679934 0.093795
O O13 0.642285 0.500000 0.077871
O O14 0.651304 0.710749 0.138822
O O15 0.668885 0.782272 0.620303
O O16 0.655662 0.739421 0.540172
O O17 0.722846 0.000000 0.569542
O O18 0.500000 0.755918 0.179226
O O19 0.400110 0.500000 0.194412
O O20 0.500000 0.254827 0.352202
O O21 0.385768 0.500000 0.359746
O O22 0.500000 0.259043 0.500000
O O23 0.397473 0.000000 0.500000
#
# Coordination Sequence:
#
# PCOD8196705 Si02
#       8
#     8   8   4   8   8   8   8   4
#     4   9  18  33  51  68  86 105 124 151 186 223
#     4   9  16  24  36  53  69  88 114 144 177 211
#     4   9  16  22  28  38  52  72  98 128 166 213
#     4   8  14  22  30  40  54  72  96 128 166 208
#     4  11  20  31  47  65  84 105 128 157 188 218
#     4   8  13  21  32  45  60  78 101 133 171 209
#     4  10  20  32  43  56  78 107 133 155 180 217
#     4   9  18  30  42  59  82 106 129 153 182 213
#
# _framework density 14.176567
#
# number of rings (size 3 to 8) (size 9 to 14) (size 15 to 20)
#    0.000    2.857    0.714    3.000    1.000    3.714 
#    0.000    2.143    0.000    1.714    0.000    0.000 
#    0.000    0.000    0.000    0.000    0.000    0.000 
#
# Total GULP energy -693803.452020 kJ/mol
# GULP energy per Si atom -12389.347357 kJ/mol
# Density = 1.414430 g / cm^3
# Si number density = 14.176567 Si / 1000 Ang^3
#
#
#
# Elastic Constant Matrix: (Units=GPa)
#
#
# Indices 1 2 3 4 5 6 
#
# 1 47.6517 16.1177 24.5224 0.0000 0.0000 0.0000
# 2 16.1177 54.7087 33.2019 0.0000 0.0000 0.0000
# 3 24.5224 33.2019 93.0079 0.0000 0.0000 0.0000
# 4 0.0000 0.0000 0.0000 24.7620 0.0000 0.0000
# 5 0.0000 0.0000 0.0000 0.0000 1.7730 0.0000
# 6 0.0000 0.0000 0.0000 0.0000 0.0000 10.4654
#
#
#
# Elastic Compliance Matrix: (Units=1/GPa)
#
#
# Indices 1 2 3 4 5 6 
#
# 1 0.025050 -0.004304 -0.005068 0.000000 0.000000 0.000000
# 2 -0.004304 0.024073 -0.007459 0.000000 0.000000 0.000000
# 3 -0.005068 -0.007459 0.014751 0.000000 0.000000 0.000000
# 4 0.000000 0.000000 0.000000 0.040385 0.000000 0.000000
# 5 0.000000 0.000000 0.000000 0.000000 0.564016 0.000000
# 6 0.000000 0.000000 0.000000 0.000000 0.000000 0.095553
#
#
# Mechanical properties :
#
#
# Convention : Reuss Voigt Hill
#
# Bulk Modulus (GPa) = 33.10000 38.11692 35.60846
# Shear Modulus (GPa) = 6.19149 15.50183 10.84666
#
# Velocity S-wave (km/s) = 2.09210 3.31037 2.76907
# Velocity P-wave (km/s) = 5.40693 6.44648 5.94945
#
# Compressibility (1/GPa) = 0.03021148
#
# Stress axis : x y z
#
# Youngs Moduli (GPa) = 39.92089 41.53973 67.79347
#
# Poissons Ratio (x) = 0.17879 0.34358
# Poissons Ratio (y) = 0.17182 0.50566
# Poissons Ratio (z) = 0.20232 0.30984
#
# Static dielectric constant tensor:
#      x y z
#    x 2.411220 0.000000 0.000000 
#    y 0.000000 2.830840 0.000000 
#    z 0.000000 0.000000 2.914460 
# 
# 
# High freq. dielectric constant tensor:
#      x y z
#    x 1.459580 0.000000 0.000000 
#    y 0.000000 1.550500 0.000000 
#    z 0.000000 0.000000 1.541470 
# 
# From -- ./inp_files/34633.got.cif
#   From: 2010.03.12/outbox.cif.g09.slc.cpg/sg47_18_cif.got.tgz:34633.got - 2010.04.14 03:12:58.
