data_PCOD8196302
_publ_section_title
;
Structure prediction by ZEFSAII (Michael W. Deem and Ramdas Pophale) SiO2 
 PCOD8196302
Probable space group: P M M M
;
_chemical_formula_sum "Si O2"
_cell_formula_units_Z 52
_cell_length_a 12.140889
_cell_length_b 24.941736
_cell_length_c 9.264412
_cell_angle_alpha 90.000000
_cell_angle_beta 90.000000
_cell_angle_gamma 90.000000
_cell_volume 2805.401514
_symmetry_space_group_name_H-M "P M M M"
_symmetry_group_IT_number 47
_symmetry_cell_setting 'orthorhombic'
loop_
_space_group_symop_operation_xyz
x,y,z
-x,-y,z
x,-y,-z
-x,y,-z
-x,-y,-z
x,y,-z
-x,y,z
x,-y,z
loop_
_atom_site_type_symbol
_atom_site_label
_atom_site_fract_x
_atom_site_fract_y
_atom_site_fract_z
Si Si1 0.792817 0.559532 0.163376
Si Si2 0.000000 0.563171 0.657498
Si Si3 0.710068 0.328824 0.167006
Si Si4 0.873525 0.061825 0.165420
Si Si5 0.870496 0.255578 0.669394
Si Si6 0.259874 0.149101 0.671897
Si Si7 0.500000 0.707726 0.339858
Si Si8 0.500000 0.833274 0.658489
O O1 0.749179 0.500000 0.211553
O O2 0.702355 0.606105 0.178938
O O3 0.892327 0.581312 0.259015
O O4 0.835893 0.555865 0.000000
O O5 0.000000 0.500000 0.642597
O O6 0.000000 0.590867 0.500000
O O7 0.820522 0.304872 0.239455
O O8 0.606285 0.307974 0.251656
O O9 0.705893 0.310972 0.000000
O O10 0.797166 0.096194 0.269002
O O11 0.000000 0.071958 0.208030
O O12 0.842441 0.000000 0.189057
O O13 0.853271 0.078533 0.000000
O O14 0.850353 0.266155 0.500000
O O15 0.808756 0.201401 0.720628
O O16 0.000000 0.250393 0.704346
O O17 0.262972 0.146750 0.500000
O O18 0.385275 0.150033 0.736661
O O19 0.500000 0.680999 0.500000
O O20 0.500000 0.770299 0.359546
O O21 0.500000 0.860006 0.500000
#
# Coordination Sequence:
#
# PCOD8196302 Si02
#       8
#     8   4   8   8   8   8   4   4
#     4   9  19  36  54  73 105 147 182 219 275 336
#     4   9  17  29  49  77 105 135 177 225 266 317
#     4  11  23  37  57  84 110 139 186 235 274 331
#     4   9  19  36  56  80 114 153 188 226 278 331
#     4  10  21  36  55  82 115 150 184 224 282 341
#     4  10  19  35  58  83 109 144 191 232 268 322
#     4  11  21  41  64  79 106 148 185 225 283 338
#     4   9  18  35  58  79 106 144 185 223 270 327
#
# _framework density 18.535672000000002
#
# number of rings (size 3 to 8) (size 9 to 14) (size 15 to 20)
#    0.000    2.231    1.538    1.846    1.077    4.308 
#    0.000    1.923    0.000    4.615    0.000    0.000 
#    0.000    0.000    0.000    0.000    0.000    0.000 
#
# Total GULP energy -644511.860759 kJ/mol
# GULP energy per Si atom -12394.458861 kJ/mol
# Density = 1.849348 g / cm^3
# Si number density = 18.535672 Si / 1000 Ang^3
#
#
#
# Elastic Constant Matrix: (Units=GPa)
#
#
# Indices 1 2 3 4 5 6 
#
# 1 124.5818 48.8342 40.5361 0.0000 0.0000 0.0000
# 2 48.8342 91.8515 31.9457 0.0000 0.0000 0.0000
# 3 40.5361 31.9457 66.9725 0.0000 0.0000 0.0000
# 4 0.0000 0.0000 0.0000 26.7402 0.0000 0.0000
# 5 0.0000 0.0000 0.0000 0.0000 184.3627 0.0000
# 6 0.0000 0.0000 0.0000 0.0000 0.0000 30.5077
#
#
#
# Elastic Compliance Matrix: (Units=1/GPa)
#
#
# Indices 1 2 3 4 5 6 
#
# 1 0.011275 -0.004341 -0.004754 0.000000 0.000000 0.000000
# 2 -0.004341 0.014724 -0.004396 0.000000 0.000000 0.000000
# 3 -0.004754 -0.004396 0.019905 0.000000 0.000000 0.000000
# 4 0.000000 0.000000 0.000000 0.037397 0.000000 0.000000
# 5 0.000000 0.000000 0.000000 0.000000 0.005424 0.000000
# 6 0.000000 0.000000 0.000000 0.000000 0.000000 0.032779
#
#
# Mechanical properties :
#
#
# Convention : Reuss Voigt Hill
#
# Bulk Modulus (GPa) = 52.84474 58.44865 55.64670
# Shear Modulus (GPa) = 32.30100 59.12810 45.71455
#
# Velocity S-wave (km/s) = 4.17902 5.65410 4.97157
# Velocity P-wave (km/s) = 7.20120 8.61549 7.93990
#
# Compressibility (1/GPa) = 0.01892336
#
# Stress axis : x y z
#
# Youngs Moduli (GPa) = 88.68887 67.91587 50.23739
#
# Poissons Ratio (x) = 0.29485 0.23882
# Poissons Ratio (y) = 0.38503 0.22083
# Poissons Ratio (z) = 0.42160 0.29854
#
# Static dielectric constant tensor:
#      x y z
#    x 3.501630 0.000000 0.000000 
#    y 0.000000 3.393030 0.000000 
#    z 0.000000 0.000000 3.446420 
# 
# 
# High freq. dielectric constant tensor:
#      x y z
#    x 1.713750 0.000000 0.000000 
#    y 0.000000 1.717040 0.000000 
#    z 0.000000 0.000000 1.712580 
# 
# From -- ./inp_files/4660.got.cif
#   From: 2010.03.12/outbox.cif.g09.slc.cpg/sg47_3_cif.got.tgz:4660.got - 2010.04.14 03:12:58.
