data_PCOD8196933
_publ_section_title
;
Structure prediction by ZEFSAII (Michael W. Deem and Ramdas Pophale) SiO2 
 PCOD8196933
Probable space group: P M M M
;
_chemical_formula_sum "Si O2"
_cell_formula_units_Z 56
_cell_length_a 9.106902
_cell_length_b 14.532690
_cell_length_c 23.519143
_cell_angle_alpha 90.000000
_cell_angle_beta 90.000000
_cell_angle_gamma 90.000000
_cell_volume 3112.706449
_symmetry_space_group_name_H-M "P M M M"
_symmetry_group_IT_number 47
_symmetry_cell_setting 'orthorhombic'
loop_
_space_group_symop_operation_xyz
x,y,z
-x,-y,z
x,-y,-z
-x,y,-z
-x,-y,-z
x,y,-z
-x,y,z
x,-y,z
loop_
_atom_site_type_symbol
_atom_site_label
_atom_site_fract_x
_atom_site_fract_y
_atom_site_fract_z
Si Si1 0.332742 0.603001 0.127800
Si Si2 0.674381 0.602816 0.563318
Si Si3 0.834545 0.892142 0.157334
Si Si4 0.329427 0.779938 0.062581
Si Si5 0.826758 0.895045 0.713981
Si Si6 0.674542 0.726476 0.665776
Si Si7 0.168744 0.393319 0.241898
O O1 0.500000 0.613706 0.150331
O O2 0.305528 0.500000 0.104622
O O3 0.300711 0.672871 0.076613
O O4 0.220738 0.626473 0.178133
O O5 0.729500 0.629728 0.500000
O O6 0.500000 0.601308 0.564888
O O7 0.732160 0.500000 0.579154
O O8 0.733059 0.678540 0.607820
O O9 0.736085 0.843909 0.110796
O O10 0.780521 0.869157 0.221344
O O11 0.000000 0.856732 0.149701
O O12 0.825128 0.000000 0.146803
O O13 0.500000 0.802429 0.061171
O O14 0.261012 0.799707 0.000000
O O15 0.742184 0.828612 0.670310
O O16 0.000000 0.882431 0.706465
O O17 0.781277 0.000000 0.700216
O O18 0.500000 0.733723 0.667099
O O19 0.728332 0.664813 0.717487
O O20 0.188109 0.500000 0.257506
O O21 0.000000 0.361567 0.247918
#
# Coordination Sequence:
#
# PCOD8196933 Si02
#       7
#     8   8   8   8   8   8   8
#     4   9  18  33  51  69  92 124 161 200 240 284
#     4   8  15  29  48  71 102 139 174 205 239 281
#     4   9  19  36  55  72  91 120 158 196 237 288
#     4  10  21  34  48  70  97 123 154 193 239 290
#     4   9  19  36  55  74  99 131 164 200 246 299
#     4  11  20  29  49  79 105 129 163 208 251 291
#     4  10  20  32  47  70 101 133 162 196 243 298
#
# _framework density 17.990774999999999
#
# number of rings (size 3 to 8) (size 9 to 14) (size 15 to 20)
#    0.000    2.571    0.000    3.429    0.000    6.286 
#    0.000    4.286    0.000    2.143    0.000   11.000 
#    0.000    0.000    0.000    0.000    0.000    0.000 
#
# Total GULP energy -694258.011311 kJ/mol
# GULP energy per Si atom -12397.464488 kJ/mol
# Density = 1.794983 g / cm^3
# Si number density = 17.990775 Si / 1000 Ang^3
#
#
#
# Elastic Constant Matrix: (Units=GPa)
#
#
# Indices 1 2 3 4 5 6 
#
# 1 47.0828 37.7401 34.7702 0.0000 0.0000 0.0000
# 2 37.7401 94.5775 76.2943 0.0000 0.0000 0.0000
# 3 34.7702 76.2943 103.7367 0.0000 0.0000 0.0000
# 4 0.0000 0.0000 0.0000 26.0627 0.0000 0.0000
# 5 0.0000 0.0000 0.0000 0.0000 9.3671 0.0000
# 6 0.0000 0.0000 0.0000 0.0000 0.0000 29.5986
#
#
#
# Elastic Compliance Matrix: (Units=1/GPa)
#
#
# Indices 1 2 3 4 5 6 
#
# 1 0.031666 -0.010017 -0.003247 0.000000 0.000000 0.000000
# 2 -0.010017 0.029166 -0.018093 0.000000 0.000000 0.000000
# 3 -0.003247 -0.018093 0.024034 0.000000 0.000000 0.000000
# 4 0.000000 0.000000 0.000000 0.038369 0.000000 0.000000
# 5 0.000000 0.000000 0.000000 0.000000 0.106756 0.000000
# 6 0.000000 0.000000 0.000000 0.000000 0.000000 0.033785
#
#
# Mechanical properties :
#
#
# Convention : Reuss Voigt Hill
#
# Bulk Modulus (GPa) = 45.13959 60.33404 52.73681
# Shear Modulus (GPa) = 14.97571 19.44517 17.21044
#
# Velocity S-wave (km/s) = 2.88828 3.29118 3.09629
# Velocity P-wave (km/s) = 6.02227 6.93191 6.49304
#
# Compressibility (1/GPa) = 0.02215350
#
# Stress axis : x y z
#
# Youngs Moduli (GPa) = 31.57951 34.28694 41.60687
#
# Poissons Ratio (x) = 0.34345 0.13508
# Poissons Ratio (y) = 0.31633 0.75278
# Poissons Ratio (z) = 0.10253 0.62034
#
# Static dielectric constant tensor:
#      x y z
#    x 3.208780 0.000000 0.000000 
#    y 0.000000 3.472420 0.000000 
#    z 0.000000 0.000000 3.393850 
# 
# 
# High freq. dielectric constant tensor:
#      x y z
#    x 1.680490 0.000000 0.000000 
#    y 0.000000 1.703670 0.000000 
#    z 0.000000 0.000000 1.681720 
# 
# From -- ./inp_files/7361.got.cif
#   From: 2010.03.12/outbox.cif.g09.slc.cpg/sg47_4_cif.got.tgz:7361.got - 2010.04.14 03:12:58.
