data_PCOD8196049
_publ_section_title
;
Structure prediction by ZEFSAII (Michael W. Deem and Ramdas Pophale) SiO2 
 PCOD8196049
Probable space group: P M M M
;
_chemical_formula_sum "Si O2"
_cell_formula_units_Z 64
_cell_length_a 14.386913
_cell_length_b 25.401009
_cell_length_c 9.571424
_cell_angle_alpha 90.000000
_cell_angle_beta 90.000000
_cell_angle_gamma 90.000000
_cell_volume 3497.801350
_symmetry_space_group_name_H-M "P M M M"
_symmetry_group_IT_number 47
_symmetry_cell_setting 'orthorhombic'
loop_
_space_group_symop_operation_xyz
x,y,z
-x,-y,z
x,-y,-z
-x,y,-z
-x,-y,-z
x,y,-z
-x,y,z
x,-y,z
loop_
_atom_site_type_symbol
_atom_site_label
_atom_site_fract_x
_atom_site_fract_y
_atom_site_fract_z
Si Si1 0.724817 0.750497 0.835051
Si Si2 0.729141 0.559875 0.163189
Si Si3 0.101902 0.562521 0.655818
Si Si4 0.899740 0.900068 0.335113
Si Si5 0.294431 0.940070 0.336571
Si Si6 0.105188 0.779164 0.661879
Si Si7 0.602575 0.346352 0.834727
Si Si8 0.392494 0.853033 0.161483
O O1 0.823555 0.746806 0.757279
O O2 0.665776 0.701087 0.778614
O O3 0.669104 0.803150 0.793469
O O4 0.742545 0.747407 0.000000
O O5 0.705553 0.500000 0.208990
O O6 0.820691 0.583090 0.237708
O O7 0.643784 0.596826 0.207742
O O8 0.749787 0.563181 0.000000
O O9 0.125950 0.582618 0.500000
O O10 0.100167 0.500000 0.658346
O O11 0.000000 0.583932 0.700743
O O12 0.904886 0.905372 0.500000
O O13 0.811476 0.932912 0.279180
O O14 0.885988 0.839698 0.292090
O O15 0.000000 0.920367 0.274259
O O16 0.299588 0.925174 0.500000
O O17 0.365053 0.903251 0.253498
O O18 0.325046 0.000000 0.310738
O O19 0.132155 0.771986 0.500000
O O20 0.000000 0.758964 0.688424
O O21 0.500000 0.342133 0.767836
O O22 0.595554 0.341365 0.000000
O O23 0.500000 0.838991 0.188734
O O24 0.375502 0.867260 0.000000
#
# Coordination Sequence:
#
# PCOD8196049 Si02
#       8
#     8   8   8   8   8   8   8   8
#     4  10  19  33  55  78  98 126 167 210 247 289
#     4   9  17  29  48  75 102 129 164 205 250 298
#     4   8  14  26  45  68  95 130 168 201 238 288
#     4   8  14  27  48  73 100 129 159 191 233 287
#     4  10  20  33  51  76 103 130 164 206 247 290
#     4   9  17  31  53  78 104 134 163 195 243 299
#     4   9  18  33  52  74 101 131 164 207 255 299
#     4  10  21  36  53  72  94 126 168 209 251 298
#
# _framework density 18.297208000000001
#
# number of rings (size 3 to 8) (size 9 to 14) (size 15 to 20)
#    0.000    2.875    1.250    1.500    0.000    3.250 
#    0.000    6.250    0.000    6.375    0.000    2.625 
#    0.000    0.000    0.000    0.000    0.000    0.000 
#
# Total GULP energy -793302.304579 kJ/mol
# GULP energy per Si atom -12395.348509 kJ/mol
# Density = 1.825556 g / cm^3
# Si number density = 18.297208 Si / 1000 Ang^3
#
#
#
# Elastic Constant Matrix: (Units=GPa)
#
#
# Indices 1 2 3 4 5 6 
#
# 1 133.1330 55.1301 47.3451 0.0000 0.0000 0.0000
# 2 55.1301 86.8374 34.2983 0.0000 0.0000 0.0000
# 3 47.3451 34.2983 43.4931 0.0000 0.0000 0.0000
# 4 0.0000 0.0000 0.0000 15.1958 0.0000 0.0000
# 5 0.0000 0.0000 0.0000 0.0000 24.5903 0.0000
# 6 0.0000 0.0000 0.0000 0.0000 0.0000 29.0152
#
#
#
# Elastic Compliance Matrix: (Units=1/GPa)
#
#
# Indices 1 2 3 4 5 6 
#
# 1 0.013106 -0.003901 -0.011191 0.000000 0.000000 0.000000
# 2 -0.003901 0.017886 -0.009859 0.000000 0.000000 0.000000
# 3 -0.011191 -0.009859 0.042949 0.000000 0.000000 0.000000
# 4 0.000000 0.000000 0.000000 0.065808 0.000000 0.000000
# 5 0.000000 0.000000 0.000000 0.000000 0.040667 0.000000
# 6 0.000000 0.000000 0.000000 0.000000 0.000000 0.034465
#
#
# Mechanical properties :
#
#
# Convention : Reuss Voigt Hill
#
# Bulk Modulus (GPa) = 41.59664 59.66782 50.63223
# Shear Modulus (GPa) = 18.32882 22.20627 20.26755
#
# Velocity S-wave (km/s) = 3.16844 3.48752 3.33180
# Velocity P-wave (km/s) = 6.01403 6.99272 6.52176
#
# Compressibility (1/GPa) = 0.02404041
#
# Stress axis : x y z
#
# Youngs Moduli (GPa) = 76.29915 55.90948 23.28348
#
# Poissons Ratio (x) = 0.21808 0.26057
# Poissons Ratio (y) = 0.29761 0.22955
# Poissons Ratio (z) = 0.85387 0.55120
#
# Static dielectric constant tensor:
#      x y z
#    x 3.538650 0.000000 0.000000 
#    y 0.000000 3.242560 0.000000 
#    z 0.000000 0.000000 3.081180 
# 
# 
# High freq. dielectric constant tensor:
#      x y z
#    x 1.720970 0.000000 0.000000 
#    y 0.000000 1.694520 0.000000 
#    z 0.000000 0.000000 1.672560 
# 
# From -- ./inp_files/7951.got.cif
#   From: 2010.03.12/outbox.cif.g09.slc.cpg/sg47_4_cif.got.tgz:7951.got - 2010.04.14 03:12:58.
