data_PCOD8196203
_publ_section_title
;
Structure prediction by ZEFSAII (Michael W. Deem and Ramdas Pophale) SiO2 
 PCOD8196203
Probable space group: P M M M
;
_chemical_formula_sum "Si O2"
_cell_formula_units_Z 48
_cell_length_a 15.074896
_cell_length_b 9.004387
_cell_length_c 19.014849
_cell_angle_alpha 90.000000
_cell_angle_beta 90.000000
_cell_angle_gamma 90.000000
_cell_volume 2581.079360
_symmetry_space_group_name_H-M "P M M M"
_symmetry_group_IT_number 47
_symmetry_cell_setting 'orthorhombic'
loop_
_space_group_symop_operation_xyz
x,y,z
-x,-y,z
x,-y,-z
-x,y,-z
-x,-y,-z
x,y,-z
-x,y,z
x,-y,z
loop_
_atom_site_type_symbol
_atom_site_label
_atom_site_fract_x
_atom_site_fract_y
_atom_site_fract_z
Si Si1 0.101915 0.825652 0.668270
Si Si2 0.248361 0.674798 0.420420
Si Si3 0.399812 0.329643 0.685438
Si Si4 0.500000 0.329975 0.082927
Si Si5 0.645274 0.175502 0.828524
Si Si6 0.000000 0.177327 0.920907
Si Si7 0.845820 0.824228 0.821295
O O1 0.159582 0.749263 0.608369
O O2 0.128754 0.760255 0.744660
O O3 0.000000 0.787914 0.652825
O O4 0.120311 0.000000 0.665822
O O5 0.263993 0.728759 0.500000
O O6 0.235016 0.500000 0.416666
O O7 0.333866 0.725152 0.375570
O O8 0.500000 0.312582 0.657016
O O9 0.380187 0.500000 0.706889
O O10 0.387343 0.226027 0.752506
O O11 0.500000 0.500000 0.108437
O O12 0.411964 0.251538 0.111114
O O13 0.500000 0.315791 0.000000
O O14 0.746688 0.224883 0.841269
O O15 0.633407 0.000000 0.833846
O O16 0.087002 0.237921 0.880303
O O17 0.000000 0.000000 0.922698
O O18 0.000000 0.241805 0.000000
O O19 0.855128 0.000000 0.817930
#
# Coordination Sequence:
#
# PCOD8196203 Si02
#       7
#     8   8   8   4   8   4   8
#     4  10  19  34  57  80 108 146 189 232 277 335
#     4  10  22  38  55  80 114 147 184 234 284 331
#     4  10  20  35  57  82 109 145 187 226 272 338
#     4  11  25  43  59  79 114 155 190 229 279 334
#     4  11  21  34  58  87 114 144 183 234 281 326
#     4   9  16  28  48  76 112 147 176 214 271 331
#     4   9  17  30  50  80 112 143 179 224 273 324
#
# _framework density 18.596871
#
# number of rings (size 3 to 8) (size 9 to 14) (size 15 to 20)
#    0.000    2.000    3.333    0.750    0.000    2.667 
#    0.000    5.000    0.000    0.000    0.000    2.333 
#    0.000    4.667    0.000    0.000    0.000    0.000 
#
# Total GULP energy -595287.829169 kJ/mol
# GULP energy per Si atom -12401.829774 kJ/mol
# Density = 1.855454 g / cm^3
# Si number density = 18.596871 Si / 1000 Ang^3
#
#
#
# Elastic Constant Matrix: (Units=GPa)
#
#
# Indices 1 2 3 4 5 6 
#
# 1 145.6978 35.9043 65.6903 0.0000 0.0000 0.0000
# 2 35.9043 42.5714 31.8153 0.0000 0.0000 0.0000
# 3 65.6903 31.8153 115.8793 0.0000 0.0000 0.0000
# 4 0.0000 0.0000 0.0000 22.3338 0.0000 0.0000
# 5 0.0000 0.0000 0.0000 0.0000 37.2154 0.0000
# 6 0.0000 0.0000 0.0000 0.0000 0.0000 24.4133
#
#
#
# Elastic Compliance Matrix: (Units=1/GPa)
#
#
# Indices 1 2 3 4 5 6 
#
# 1 0.010099 -0.005333 -0.004261 0.000000 0.000000 0.000000
# 2 -0.005333 0.032370 -0.005864 0.000000 0.000000 0.000000
# 3 -0.004261 -0.005864 0.012655 0.000000 0.000000 0.000000
# 4 0.000000 0.000000 0.000000 0.044775 0.000000 0.000000
# 5 0.000000 0.000000 0.000000 0.000000 0.026871 0.000000
# 6 0.000000 0.000000 0.000000 0.000000 0.000000 0.040961
#
#
# Mechanical properties :
#
#
# Convention : Reuss Voigt Hill
#
# Bulk Modulus (GPa) = 41.30808 63.44093 52.37451
# Shear Modulus (GPa) = 24.18772 28.17506 26.18139
#
# Velocity S-wave (km/s) = 3.61034 3.89658 3.75619
# Velocity P-wave (km/s) = 6.29603 7.37782 6.85829
#
# Compressibility (1/GPa) = 0.02420834
#
# Stress axis : x y z
#
# Youngs Moduli (GPa) = 99.02258 30.89242 79.02013
#
# Poissons Ratio (x) = 0.16475 0.33667
# Poissons Ratio (y) = 0.52809 0.46339
# Poissons Ratio (z) = 0.42190 0.18116
#
# Static dielectric constant tensor:
#      x y z
#    x 3.720890 0.000000 0.000000 
#    y 0.000000 3.167270 0.000000 
#    z 0.000000 0.000000 3.490650 
# 
# 
# High freq. dielectric constant tensor:
#      x y z
#    x 1.739730 0.000000 0.000000 
#    y 0.000000 1.692810 0.000000 
#    z 0.000000 0.000000 1.720380 
# 
# From -- ./inp_files/28010.got.cif
#   From: 2010.03.12/outbox.cif.g09.slc.cpg/sg47_15_cif.got.tgz:28010.got - 2010.04.14 03:12:58.
