data_PCOD8196451
_publ_section_title
;
Structure prediction by ZEFSAII (Michael W. Deem and Ramdas Pophale) SiO2 
 PCOD8196451
Probable space group: P M M M
;
_chemical_formula_sum "Si O2"
_cell_formula_units_Z 48
_cell_length_a 14.721966
_cell_length_b 25.410680
_cell_length_c 9.476859
_cell_angle_alpha 90.000000
_cell_angle_beta 90.000000
_cell_angle_gamma 90.000000
_cell_volume 3545.247150
_symmetry_space_group_name_H-M "P M M M"
_symmetry_group_IT_number 47
_symmetry_cell_setting 'orthorhombic'
loop_
_space_group_symop_operation_xyz
x,y,z
-x,-y,z
x,-y,-z
-x,y,-z
-x,-y,-z
x,y,-z
-x,y,z
x,-y,z
loop_
_atom_site_type_symbol
_atom_site_label
_atom_site_fract_x
_atom_site_fract_y
_atom_site_fract_z
Si Si1 0.391975 0.057691 0.158211
Si Si2 0.392105 0.732104 0.658666
Si Si3 0.100596 0.562501 0.158205
Si Si4 0.392224 0.634450 0.162203
Si Si5 0.391977 0.848204 0.658118
Si Si6 0.731470 0.437558 0.337847
O O1 0.500000 0.061793 0.159603
O O2 0.348462 0.105158 0.248497
O O3 0.362957 0.000000 0.217846
O O4 0.355142 0.064080 0.000000
O O5 0.355745 0.720488 0.500000
O O6 0.500000 0.730689 0.655596
O O7 0.355404 0.688622 0.767979
O O8 0.359814 0.790209 0.709937
O O9 0.100693 0.500000 0.160133
O O10 0.174474 0.583721 0.269636
O O11 0.000000 0.583029 0.201490
O O12 0.125006 0.582197 0.000000
O O13 0.500000 0.630137 0.173038
O O14 0.351993 0.585823 0.249547
O O15 0.359868 0.632544 0.000000
O O16 0.357342 0.857435 0.500000
O O17 0.500000 0.851108 0.664330
O O18 0.727259 0.418846 0.500000
O O19 0.723879 0.500000 0.326529
#
# Coordination Sequence:
#
# PCOD8196451 Si02
#       6
#     8   8   8   8   8   8
#     4   8  13  19  25  35  53  75  96 120 154 195
#     4   8  14  25  38  49  62  80 104 137 175 211
#     4   8  14  26  44  63  81  99 116 136 165 201
#     4  10  20  31  42  55  70  91 120 152 184 217
#     4   8  13  20  30  43  56  72  96 126 161 200
#     4  10  20  31  43  59  77  97 119 143 174 213
#
# _framework density 13.539253
#
# number of rings (size 3 to 8) (size 9 to 14) (size 15 to 20)
#    0.000    3.333    0.000    3.000    0.000    3.667 
#    0.000    8.333    0.000    0.000    0.000    0.000 
#    0.000    0.000    0.000    0.000    0.000    0.000 
#
# Total GULP energy -594740.732934 kJ/mol
# GULP energy per Si atom -12390.431936 kJ/mol
# Density = 1.350844 g / cm^3
# Si number density = 13.539253 Si / 1000 Ang^3
#
#
#
# Elastic Constant Matrix: (Units=GPa)
#
#
# Indices 1 2 3 4 5 6 
#
# 1 24.8858 19.3243 26.3429 0.0000 0.0000 0.0000
# 2 19.3243 65.5373 48.7690 0.0000 0.0000 0.0000
# 3 26.3429 48.7690 99.5430 0.0000 0.0000 0.0000
# 4 0.0000 0.0000 0.0000 25.8840 0.0000 0.0000
# 5 0.0000 0.0000 0.0000 0.0000 14.6706 0.0000
# 6 0.0000 0.0000 0.0000 0.0000 0.0000 0.6441
#
#
#
# Elastic Compliance Matrix: (Units=1/GPa)
#
#
# Indices 1 2 3 4 5 6 
#
# 1 0.059083 -0.009106 -0.011174 0.000000 0.000000 0.000000
# 2 -0.009106 0.025416 -0.010043 0.000000 0.000000 0.000000
# 3 -0.011174 -0.010043 0.017923 0.000000 0.000000 0.000000
# 4 0.000000 0.000000 0.000000 0.038634 0.000000 0.000000
# 5 0.000000 0.000000 0.000000 0.000000 0.068164 0.000000
# 6 0.000000 0.000000 0.000000 0.000000 0.000000 1.552496
#
#
# Mechanical properties :
#
#
# Convention : Reuss Voigt Hill
#
# Bulk Modulus (GPa) = 23.93649 42.09318 33.01484
# Shear Modulus (GPa) = 2.72288 14.60841 8.66565
#
# Velocity S-wave (km/s) = 1.41967 3.28833 2.53264
# Velocity P-wave (km/s) = 4.51719 6.75090 5.74368
#
# Compressibility (1/GPa) = 0.04177721
#
# Stress axis : x y z
#
# Youngs Moduli (GPa) = 16.92532 39.34458 55.79348
#
# Poissons Ratio (x) = 0.35826 0.62346
# Poissons Ratio (y) = 0.15412 0.56031
# Poissons Ratio (z) = 0.18913 0.39512
#
# Static dielectric constant tensor:
#      x y z
#    x 2.304930 0.000000 0.000000 
#    y 0.000000 2.859240 0.000000 
#    z 0.000000 0.000000 2.930110 
# 
# 
# High freq. dielectric constant tensor:
#      x y z
#    x 1.447150 0.000000 0.000000 
#    y 0.000000 1.507500 0.000000 
#    z 0.000000 0.000000 1.526180 
# 
# From -- ./inp_files/4701.got.cif
#   From: 2010.03.12/outbox.cif.g09.slc.cpg/sg47_3_cif.got.tgz:4701.got - 2010.04.14 03:12:58.
