data_PCOD8196901
_publ_section_title
;
Structure prediction by ZEFSAII (Michael W. Deem and Ramdas Pophale) SiO2 
 PCOD8196901
Probable space group: P M M M
;
_chemical_formula_sum "Si O2"
_cell_formula_units_Z 52
_cell_length_a 9.726989
_cell_length_b 35.322459
_cell_length_c 8.375105
_cell_angle_alpha 90.000000
_cell_angle_beta 90.000000
_cell_angle_gamma 90.000000
_cell_volume 2877.528376
_symmetry_space_group_name_H-M "P M M M"
_symmetry_group_IT_number 47
_symmetry_cell_setting 'orthorhombic'
loop_
_space_group_symop_operation_xyz
x,y,z
-x,-y,z
x,-y,-z
-x,y,-z
-x,-y,-z
x,y,-z
-x,y,z
x,-y,z
loop_
_atom_site_type_symbol
_atom_site_label
_atom_site_fract_x
_atom_site_fract_y
_atom_site_fract_z
Si Si1 0.163487 0.085409 0.820557
Si Si2 0.837011 0.043396 0.500000
Si Si3 0.158114 0.683835 0.315073
Si Si4 0.342976 0.456787 0.314465
Si Si5 0.159232 0.760590 0.816012
Si Si6 0.846040 0.393329 0.815147
Si Si7 0.163055 0.162624 0.678846
O O1 0.220668 0.061343 0.667615
O O2 0.212630 0.128809 0.794565
O O3 0.000000 0.082400 0.818695
O O4 0.215466 0.072428 0.000000
O O5 0.000000 0.048527 0.500000
O O6 0.790823 0.000000 0.500000
O O7 0.175730 0.690638 0.500000
O O8 0.229083 0.720452 0.231824
O O9 0.225245 0.643680 0.265523
O O10 0.000000 0.680927 0.259804
O O11 0.321281 0.448195 0.500000
O O12 0.500000 0.448990 0.264880
O O13 0.303575 0.500000 0.275203
O O14 0.244769 0.430141 0.213518
O O15 0.227713 0.796751 0.727992
O O16 0.000000 0.757676 0.765902
O O17 0.179770 0.768351 0.000000
O O18 0.000000 0.400669 0.746291
O O19 0.853384 0.384605 0.000000
O O20 0.209714 0.152456 0.500000
O O21 0.000000 0.165906 0.691386
#
# Coordination Sequence:
#
# PCOD8196901 Si02
#       7
#     8   4   8   8   8   8   8
#     4   9  15  22  30  38  48  63  85 117 159 207
#     4   9  16  24  30  36  46  60  82 116 160 212
#     4   9  16  26  39  55  77 106 137 165 195 235
#     4   9  19  36  55  73  93 118 150 187 224 263
#     4   9  15  21  30  46  67  90 116 146 180 220
#     4  10  20  32  47  69  96 123 149 180 219 263
#     4   9  14  20  29  40  55  75 100 130 165 208
#
# _framework density 18.071064
#
# number of rings (size 3 to 8) (size 9 to 14) (size 15 to 20)
#    0.000    2.846    0.769    2.308    0.000    7.692 
#    0.000    3.846    0.000    0.000    0.000    0.000 
#    0.000    0.000    0.000    0.000    0.000    0.000 
#
# Total GULP energy -644280.588714 kJ/mol
# GULP energy per Si atom -12390.011321 kJ/mol
# Density = 1.802993 g / cm^3
# Si number density = 18.071064 Si / 1000 Ang^3
#
#
#
# Elastic Constant Matrix: (Units=GPa)
#
#
# Indices 1 2 3 4 5 6 
#
# 1 15.5705 19.2961 10.7490 0.0000 0.0000 0.0000
# 2 19.2961 132.5233 56.7160 0.0000 0.0000 0.0000
# 3 10.7490 56.7160 85.5700 0.0000 0.0000 0.0000
# 4 0.0000 0.0000 0.0000 32.8644 0.0000 0.0000
# 5 0.0000 0.0000 0.0000 0.0000 8.9908 0.0000
# 6 0.0000 0.0000 0.0000 0.0000 0.0000 -0.7277
#
#
#
# Elastic Compliance Matrix: (Units=1/GPa)
#
#
# Indices 1 2 3 4 5 6 
#
# 1 0.078991 -0.010128 -0.003210 0.000000 0.000000 0.000000
# 2 -0.010128 0.011832 -0.006570 0.000000 0.000000 0.000000
# 3 -0.003210 -0.006570 0.016444 0.000000 0.000000 0.000000
# 4 0.000000 0.000000 0.000000 0.030428 0.000000 0.000000
# 5 0.000000 0.000000 0.000000 0.000000 0.111224 0.000000
# 6 0.000000 0.000000 0.000000 0.000000 0.000000 -1.374162
#
#
# Mechanical properties :
#
#
# Convention : Reuss Voigt Hill
#
# Bulk Modulus (GPa) = 14.82541 45.24289 30.03415
# Shear Modulus (GPa) = -4.70392 18.01901 6.65754
#
# Velocity S-wave (km/s) = -1.61514 3.16115 1.92148
# Velocity P-wave (km/s) = 2.17797 6.19792 4.64531
#
# Compressibility (1/GPa) = 0.06745178
#
# Stress axis : x y z
#
# Youngs Moduli (GPa) = 12.65969 84.51352 60.81100
#
# Poissons Ratio (x) = 0.85594 0.19519
# Poissons Ratio (y) = 0.12821 0.39955
# Poissons Ratio (z) = 0.04063 0.55528
#
# Static dielectric constant tensor:
#      x y z
#    x 2.533670 0.000000 0.000000 
#    y 0.000000 3.605470 0.000000 
#    z 0.000000 0.000000 3.449260 
# 
# 
# High freq. dielectric constant tensor:
#      x y z
#    x 1.590990 0.000000 0.000000 
#    y 0.000000 1.719710 0.000000 
#    z 0.000000 0.000000 1.714440 
# 
# From -- ./inp_files/4751.got.cif
#   From: 2010.03.12/outbox.cif.g09.slc.cpg/sg47_3_cif.got.tgz:4751.got - 2010.04.14 03:12:58.
