data_PCOD8196577
_publ_section_title
;
Structure prediction by ZEFSAII (Michael W. Deem and Ramdas Pophale) SiO2 
 PCOD8196577
Probable space group: P M M M
;
_chemical_formula_sum "Si O2"
_cell_formula_units_Z 44
_cell_length_a 27.985733
_cell_length_b 9.682856
_cell_length_c 9.478272
_cell_angle_alpha 90.000000
_cell_angle_beta 90.000000
_cell_angle_gamma 90.000000
_cell_volume 2568.439423
_symmetry_space_group_name_H-M "P M M M"
_symmetry_group_IT_number 47
_symmetry_cell_setting 'orthorhombic'
loop_
_space_group_symop_operation_xyz
x,y,z
-x,-y,z
x,-y,-z
-x,y,-z
-x,-y,-z
x,y,-z
-x,y,z
x,-y,z
loop_
_atom_site_type_symbol
_atom_site_label
_atom_site_fract_x
_atom_site_fract_y
_atom_site_fract_z
Si Si1 0.307818 0.162080 0.164642
Si Si2 0.946325 0.158349 0.164431
Si Si3 0.602353 0.835160 0.341728
Si Si4 0.500000 0.849009 0.332723
Si Si5 0.875081 0.656886 0.662341
Si Si6 0.235216 0.660008 0.661834
O O1 0.356967 0.215898 0.234881
O O2 0.264233 0.243421 0.233069
O O3 0.300165 0.000000 0.193070
O O4 0.310159 0.196127 0.000000
O O5 0.907933 0.246269 0.246128
O O6 0.000000 0.207454 0.202574
O O7 0.939748 0.000000 0.208785
O O8 0.936766 0.177834 0.000000
O O9 0.615006 0.783232 0.500000
O O10 0.550278 0.773845 0.291286
O O11 0.598464 0.000000 0.341617
O O12 0.500000 0.866440 0.500000
O O13 0.500000 0.000000 0.260587
O O14 0.888326 0.679223 0.500000
O O15 0.884915 0.500000 0.707773
O O16 0.820036 0.694258 0.689135
O O17 0.248816 0.693714 0.500000
O O18 0.246038 0.500000 0.694778
#
# Coordination Sequence:
#
# PCOD8196577 Si02
#       6
#     8   8   8   4   8   8
#     4  10  20  31  44  68 100 128 156 192 234 282
#     4   9  19  35  52  72 101 134 164 193 227 272
#     4   8  13  23  40  61  87 120 156 193 232 274
#     4   7  10  18  35  59  84 113 152 193 230 270
#     4   9  19  35  53  74  98 122 154 199 244 283
#     4   9  19  36  54  70  91 122 160 199 239 284
#
# _framework density 17.131024
#
# number of rings (size 3 to 8) (size 9 to 14) (size 15 to 20)
#    0.000    3.182    0.000    3.273    0.000    4.364 
#    0.000    8.636    0.000    2.727    0.000    0.636 
#    0.000    5.091    0.000    0.000    0.000    0.000 
#
# Total GULP energy -545295.784959 kJ/mol
# GULP energy per Si atom -12393.086022 kJ/mol
# Density = 1.709203 g / cm^3
# Si number density = 17.131024 Si / 1000 Ang^3
#
#
#
# Elastic Constant Matrix: (Units=GPa)
#
#
# Indices 1 2 3 4 5 6 
#
# 1 123.9443 55.4767 71.2147 0.0000 0.0000 0.0000
# 2 55.4767 47.5886 45.7272 0.0000 0.0000 0.0000
# 3 71.2147 45.7272 90.2755 0.0000 0.0000 0.0000
# 4 0.0000 0.0000 0.0000 17.5692 0.0000 0.0000
# 5 0.0000 0.0000 0.0000 0.0000 -15.0746 0.0000
# 6 0.0000 0.0000 0.0000 0.0000 0.0000 -63.3545
#
#
#
# Elastic Compliance Matrix: (Units=1/GPa)
#
#
# Indices 1 2 3 4 5 6 
#
# 1 0.019102 -0.015174 -0.007382 0.000000 0.000000 0.000000
# 2 -0.015174 0.052994 -0.014872 0.000000 0.000000 0.000000
# 3 -0.007382 -0.014872 0.024434 0.000000 0.000000 0.000000
# 4 0.000000 0.000000 0.000000 0.056918 0.000000 0.000000
# 5 0.000000 0.000000 0.000000 0.000000 -0.066337 0.000000
# 6 0.000000 0.000000 0.000000 0.000000 0.000000 -0.015784
#
#
# Mechanical properties :
#
#
# Convention : Reuss Voigt Hill
#
# Bulk Modulus (GPa) = 46.14384 67.40504 56.77444
# Shear Modulus (GPa) = 32.59266 -6.21266 13.19000
#
# Velocity S-wave (km/s) = 4.36656 -1.90642 2.77780
# Velocity P-wave (km/s) = 7.23994 5.88101 6.59557
#
# Compressibility (1/GPa) = 0.02167137
#
# Stress axis : x y z
#
# Youngs Moduli (GPa) = 52.35114 18.87013 40.92639
#
# Poissons Ratio (x) = 0.28634 0.30213
# Poissons Ratio (y) = 0.79440 0.60867
# Poissons Ratio (z) = 0.38647 0.28064
#
# Static dielectric constant tensor:
#      x y z
#    x 3.437390 0.000000 0.000000 
#    y 0.000000 2.868410 0.000000 
#    z 0.000000 0.000000 3.070310 
# 
# 
# High freq. dielectric constant tensor:
#      x y z
#    x 1.678230 0.000000 0.000000 
#    y 0.000000 1.625080 0.000000 
#    z 0.000000 0.000000 1.650020 
# 
# From -- ./inp_files/1988.got.cif
#   From: 2010.03.12/outbox.cif.g09.slc.cpg/sg47_1_cif.got.tgz:1988.got - 2010.04.14 03:12:58.
