data_PCOD8196190
_publ_section_title
;
Structure prediction by ZEFSAII (Michael W. Deem and Ramdas Pophale) SiO2 
 PCOD8196190
Probable space group: P M M M
;
_chemical_formula_sum "Si O2"
_cell_formula_units_Z 52
_cell_length_a 15.571939
_cell_length_b 9.390759
_cell_length_c 19.128039
_cell_angle_alpha 90.000000
_cell_angle_beta 90.000000
_cell_angle_gamma 90.000000
_cell_volume 2797.137641
_symmetry_space_group_name_H-M "P M M M"
_symmetry_group_IT_number 47
_symmetry_cell_setting 'orthorhombic'
loop_
_space_group_symop_operation_xyz
x,y,z
-x,-y,z
x,-y,-z
-x,y,-z
-x,-y,-z
x,y,-z
-x,y,z
x,-y,z
loop_
_atom_site_type_symbol
_atom_site_label
_atom_site_fract_x
_atom_site_fract_y
_atom_site_fract_z
Si Si1 0.399144 0.342612 0.078086
Si Si2 0.141352 0.662717 0.812045
Si Si3 0.242671 0.168720 0.579922
Si Si4 0.095255 0.661113 0.343685
Si Si5 0.685709 0.167912 0.192963
Si Si6 0.000000 0.668997 0.079614
Si Si7 0.595772 0.831221 0.666230
O O1 0.500000 0.323485 0.077349
O O2 0.374573 0.500000 0.107354
O O3 0.359845 0.216420 0.122673
O O4 0.362213 0.327052 0.000000
O O5 0.170496 0.500000 0.825897
O O6 0.089461 0.674302 0.739975
O O7 0.221837 0.763515 0.803333
O O8 0.083939 0.719033 0.877107
O O9 0.235827 0.217966 0.500000
O O10 0.164960 0.234419 0.623500
O O11 0.335093 0.222320 0.608934
O O12 0.235201 0.000000 0.588205
O O13 0.120021 0.500000 0.365065
O O14 0.000000 0.699604 0.372427
O O15 0.628009 0.220217 0.257985
O O16 0.696922 0.000000 0.193191
O O17 0.000000 0.500000 0.077104
O O18 0.000000 0.731382 0.000000
O O19 0.500000 0.767777 0.651482
O O20 0.590160 0.000000 0.664130
#
# Coordination Sequence:
#
# PCOD8196190 Si02
#       7
#     8   8   8   8   8   4   8
#     4   9  19  36  55  75 103 140 181 225 272 321
#     4  10  19  34  56  80 106 141 184 226 270 326
#     4  10  21  37  57  83 114 146 184 231 280 334
#     4  10  20  36  59  83 110 146 186 228 275 332
#     4  11  21  33  53  81 112 144 180 225 276 330
#     4   9  18  34  57  83 108 137 180 232 279 327
#     4   9  18  33  53  79 111 146 185 228 275 329
#
# _framework density 18.590433000000001
#
# number of rings (size 3 to 8) (size 9 to 14) (size 15 to 20)
#    0.000    2.231    2.308    1.385    0.000    3.077 
#    0.000    5.769    0.000    1.846    0.000    1.077 
#    0.000    0.000    0.000    0.000    0.000    0.000 
#
# Total GULP energy -644617.866382 kJ/mol
# GULP energy per Si atom -12396.497430 kJ/mol
# Density = 1.854812 g / cm^3
# Si number density = 18.590433 Si / 1000 Ang^3
#
#
#
# Elastic Constant Matrix: (Units=GPa)
#
#
# Indices 1 2 3 4 5 6 
#
# 1 128.8309 34.9028 64.3094 0.0000 0.0000 0.0000
# 2 34.9028 48.7369 35.1852 0.0000 0.0000 0.0000
# 3 64.3094 35.1852 87.6388 0.0000 0.0000 0.0000
# 4 0.0000 0.0000 0.0000 24.7718 0.0000 0.0000
# 5 0.0000 0.0000 0.0000 0.0000 30.9008 0.0000
# 6 0.0000 0.0000 0.0000 0.0000 0.0000 29.5987
#
#
#
# Elastic Compliance Matrix: (Units=1/GPa)
#
#
# Indices 1 2 3 4 5 6 
#
# 1 0.012617 -0.003312 -0.007929 0.000000 0.000000 0.000000
# 2 -0.003312 0.029762 -0.009519 0.000000 0.000000 0.000000
# 3 -0.007929 -0.009519 0.021050 0.000000 0.000000 0.000000
# 4 0.000000 0.000000 0.000000 0.040368 0.000000 0.000000
# 5 0.000000 0.000000 0.000000 0.000000 0.032362 0.000000
# 6 0.000000 0.000000 0.000000 0.000000 0.000000 0.033785
#
#
# Mechanical properties :
#
#
# Convention : Reuss Voigt Hill
#
# Bulk Modulus (GPa) = 45.63952 59.33348 52.48650
# Shear Modulus (GPa) = 22.85535 25.77489 24.31512
#
# Velocity S-wave (km/s) = 3.51011 3.72756 3.62047
# Velocity P-wave (km/s) = 6.40555 7.10716 6.76546
#
# Compressibility (1/GPa) = 0.02191084
#
# Stress axis : x y z
#
# Youngs Moduli (GPa) = 79.25653 33.60003 47.50501
#
# Poissons Ratio (x) = 0.11127 0.37667
# Poissons Ratio (y) = 0.26246 0.45219
# Poissons Ratio (z) = 0.62843 0.31983
#
# Static dielectric constant tensor:
#      x y z
#    x 3.844230 0.000000 0.000000 
#    y 0.000000 3.114410 0.000000 
#    z 0.000000 0.000000 3.978830 
# 
# 
# High freq. dielectric constant tensor:
#      x y z
#    x 1.731570 0.000000 0.000000 
#    y 0.000000 1.691170 0.000000 
#    z 0.000000 0.000000 1.723840 
# 
# From -- ./inp_files/25028.got.cif
#   From: 2010.03.12/outbox.cif.g09.slc.cpg/sg47_13_cif.got.tgz:25028.got - 2010.04.14 03:12:58.
