data_PCOD8196292
_publ_section_title
;
Structure prediction by ZEFSAII (Michael W. Deem and Ramdas Pophale) SiO2 
 PCOD8196292
Probable space group: P M M M
;
_chemical_formula_sum "Si O2"
_cell_formula_units_Z 44
_cell_length_a 14.447821
_cell_length_b 17.465999
_cell_length_c 9.264025
_cell_angle_alpha 90.000000
_cell_angle_beta 90.000000
_cell_angle_gamma 90.000000
_cell_volume 2337.736198
_symmetry_space_group_name_H-M "P M M M"
_symmetry_group_IT_number 47
_symmetry_cell_setting 'orthorhombic'
loop_
_space_group_symop_operation_xyz
x,y,z
-x,-y,z
x,-y,-z
-x,y,-z
-x,-y,-z
x,y,-z
-x,y,z
x,-y,z
loop_
_atom_site_type_symbol
_atom_site_label
_atom_site_fract_x
_atom_site_fract_y
_atom_site_fract_z
Si Si1 0.898335 0.090940 0.838334
Si Si2 0.390672 0.500000 0.332235
Si Si3 0.606559 0.794391 0.833268
Si Si4 0.277642 0.089578 0.667556
Si Si5 0.704624 0.361229 0.170661
Si Si6 0.899701 0.413969 0.829141
O O1 0.818964 0.121620 0.732355
O O2 0.000000 0.120583 0.788001
O O3 0.898772 0.000000 0.837654
O O4 0.877407 0.121152 0.000000
O O5 0.500000 0.500000 0.312249
O O6 0.362216 0.500000 0.500000
O O7 0.351258 0.575049 0.256228
O O8 0.500000 0.776589 0.800936
O O9 0.636844 0.867514 0.740749
O O10 0.665409 0.721010 0.784968
O O11 0.623314 0.814216 0.000000
O O12 0.276905 0.108109 0.500000
O O13 0.290381 0.000000 0.699351
O O14 0.812820 0.362175 0.219525
O O15 0.692836 0.376958 0.000000
O O16 0.883848 0.500000 0.769820
O O17 0.000000 0.382528 0.772127
O O18 0.902892 0.416575 0.000000
#
# Coordination Sequence:
#
# PCOD8196292 Si02
#       6
#     8   4   8   8   8   8
#     4   8  14  27  50  79 108 137 170 211 260 314
#     4  11  23  35  50  77 110 142 177 219 268 319
#     4  10  22  38  55  77 105 138 179 231 287 335
#     4  10  21  36  55  79 106 140 182 226 276 337
#     4  10  19  35  58  81 106 140 181 223 264 313
#     4   8  13  24  48  82 112 137 170 211 254 302
#
# _framework density 18.821628
#
# number of rings (size 3 to 8) (size 9 to 14) (size 15 to 20)
#    0.000    2.636    0.909    2.455    0.000    4.364 
#    0.000    4.545    0.000    4.364    0.000    0.000 
#    0.000    0.000    0.000    0.000    0.000    0.000 
#
# Total GULP energy -545412.855686 kJ/mol
# GULP energy per Si atom -12395.746720 kJ/mol
# Density = 1.877879 g / cm^3
# Si number density = 18.821628 Si / 1000 Ang^3
#
#
#
# Elastic Constant Matrix: (Units=GPa)
#
#
# Indices 1 2 3 4 5 6 
#
# 1 155.4422 63.3572 52.9702 0.0000 0.0000 0.0000
# 2 63.3572 73.2485 48.2734 0.0000 0.0000 0.0000
# 3 52.9702 48.2734 73.4824 0.0000 0.0000 0.0000
# 4 0.0000 0.0000 0.0000 17.6056 0.0000 0.0000
# 5 0.0000 0.0000 0.0000 0.0000 21.9912 0.0000
# 6 0.0000 0.0000 0.0000 0.0000 0.0000 31.5730
#
#
#
# Elastic Compliance Matrix: (Units=1/GPa)
#
#
# Indices 1 2 3 4 5 6 
#
# 1 0.010244 -0.007043 -0.002757 0.000000 0.000000 0.000000
# 2 -0.007043 0.028918 -0.013920 0.000000 0.000000 0.000000
# 3 -0.002757 -0.013920 0.024741 0.000000 0.000000 0.000000
# 4 0.000000 0.000000 0.000000 0.056800 0.000000 0.000000
# 5 0.000000 0.000000 0.000000 0.000000 0.045473 0.000000
# 6 0.000000 0.000000 0.000000 0.000000 0.000000 0.031673
#
#
# Mechanical properties :
#
#
# Convention : Reuss Voigt Hill
#
# Bulk Modulus (GPa) = 60.74832 70.15275 65.45053
# Shear Modulus (GPa) = 19.93800 23.40545 21.67172
#
# Velocity S-wave (km/s) = 3.25824 3.53021 3.39695
# Velocity P-wave (km/s) = 6.81914 7.34642 7.08769
#
# Compressibility (1/GPa) = 0.01646136
#
# Stress axis : x y z
#
# Youngs Moduli (GPa) = 97.62184 34.58007 40.41855
#
# Poissons Ratio (x) = 0.24356 0.11144
# Poissons Ratio (y) = 0.68758 0.56264
# Poissons Ratio (z) = 0.26916 0.48137
#
# Static dielectric constant tensor:
#      x y z
#    x 3.949150 0.000000 0.000000 
#    y 0.000000 3.239510 0.000000 
#    z 0.000000 0.000000 3.251290 
# 
# 
# High freq. dielectric constant tensor:
#      x y z
#    x 1.751520 0.000000 0.000000 
#    y 0.000000 1.706120 0.000000 
#    z 0.000000 0.000000 1.702410 
# 
# From -- ./inp_files/6208.got.cif
#   From: 2010.03.12/outbox.cif.g09.slc.cpg/sg47_4_cif.got.tgz:6208.got - 2010.04.14 03:12:58.
