data_PCOD8196517
_publ_section_title
;
Structure prediction by ZEFSAII (Michael W. Deem and Ramdas Pophale) SiO2 
 PCOD8196517
Probable space group: P M M M
;
_chemical_formula_sum "Si O2"
_cell_formula_units_Z 64
_cell_length_a 8.988427
_cell_length_b 31.416385
_cell_length_c 14.160050
_cell_angle_alpha 90.000000
_cell_angle_beta 90.000000
_cell_angle_gamma 90.000000
_cell_volume 3998.569905
_symmetry_space_group_name_H-M "P M M M"
_symmetry_group_IT_number 47
_symmetry_cell_setting 'orthorhombic'
loop_
_space_group_symop_operation_xyz
x,y,z
-x,-y,z
x,-y,-z
-x,y,-z
-x,-y,-z
x,y,-z
-x,y,z
x,-y,z
loop_
_atom_site_type_symbol
_atom_site_label
_atom_site_fract_x
_atom_site_fract_y
_atom_site_fract_z
Si Si1 0.323192 0.454935 0.894201
Si Si2 0.675282 0.205436 0.781205
Si Si3 0.326278 0.120644 0.891492
Si Si4 0.828676 0.048014 0.221638
Si Si5 0.826706 0.825855 0.393275
Si Si6 0.169870 0.719541 0.888232
Si Si7 0.332521 0.636029 0.887200
Si Si8 0.673090 0.084148 0.606594
O O1 0.500000 0.452718 0.898270
O O2 0.274102 0.500000 0.843074
O O3 0.271798 0.409971 0.846710
O O4 0.258844 0.456860 0.000000
O O5 0.500000 0.208211 0.767440
O O6 0.723738 0.162108 0.833556
O O7 0.754463 0.207712 0.678996
O O8 0.727447 0.244853 0.842905
O O9 0.500000 0.111702 0.878244
O O10 0.239062 0.079537 0.855440
O O11 0.284384 0.128646 0.000000
O O12 0.745049 0.050680 0.322066
O O13 0.000000 0.059766 0.237706
O O14 0.809949 0.000000 0.183428
O O15 0.799401 0.809487 0.500000
O O16 0.748200 0.870659 0.376330
O O17 0.000000 0.831288 0.371692
O O18 0.224657 0.673443 0.851586
O O19 0.000000 0.725891 0.856600
O O20 0.188559 0.723025 0.000000
O O21 0.500000 0.645523 0.851015
O O22 0.332654 0.633254 0.000000
O O23 0.699089 0.067689 0.500000
O O24 0.500000 0.089458 0.629779
#
# Coordination Sequence:
#
# PCOD8196517 Si02
#       8
#     8   8   8   8   8   8   8   8
#     4   7   9  14  27  48  71  97 136 187 237 279
#     4  11  21  34  54  76  96 120 153 189 225 269
#     4  10  22  39  57  76  96 121 154 191 229 267
#     4  11  24  39  55  76 101 128 156 186 224 270
#     4  10  20  34  54  79 104 126 147 175 215 264
#     4  10  20  31  43  62  90 124 159 195 237 280
#     4   8  13  22  36  53  76 108 147 192 237 278
#     4  10  20  35  56  80 103 127 154 182 216 260
#
# _framework density 16.005721999999999
#
# number of rings (size 3 to 8) (size 9 to 14) (size 15 to 20)
#    0.000    2.375    1.250    3.375    0.000    5.000 
#    0.000    2.500    0.000    0.375    0.000    2.625 
#    0.000    0.000    0.000    0.000    0.000    0.625 
#
# Total GULP energy -793223.641612 kJ/mol
# GULP energy per Si atom -12394.119400 kJ/mol
# Density = 1.596929 g / cm^3
# Si number density = 16.005722 Si / 1000 Ang^3
#
#
#
# Elastic Constant Matrix: (Units=GPa)
#
#
# Indices 1 2 3 4 5 6 
#
# 1 73.4836 43.3341 35.0639 0.0000 0.0000 0.0000
# 2 43.3341 109.4026 33.0828 0.0000 0.0000 0.0000
# 3 35.0639 33.0828 62.4833 0.0000 0.0000 0.0000
# 4 0.0000 0.0000 0.0000 3.9266 0.0000 0.0000
# 5 0.0000 0.0000 0.0000 0.0000 21.9999 0.0000
# 6 0.0000 0.0000 0.0000 0.0000 0.0000 12.6229
#
#
#
# Elastic Compliance Matrix: (Units=1/GPa)
#
#
# Indices 1 2 3 4 5 6 
#
# 1 0.021218 -0.005720 -0.008879 0.000000 0.000000 0.000000
# 2 -0.005720 0.012425 -0.003369 0.000000 0.000000 0.000000
# 3 -0.008879 -0.003369 0.022770 0.000000 0.000000 0.000000
# 4 0.000000 0.000000 0.000000 0.254672 0.000000 0.000000
# 5 0.000000 0.000000 0.000000 0.000000 0.045455 0.000000
# 6 0.000000 0.000000 0.000000 0.000000 0.000000 0.079221
#
#
# Mechanical properties :
#
#
# Convention : Reuss Voigt Hill
#
# Bulk Modulus (GPa) = 48.83027 52.03679 50.43353
# Shear Modulus (GPa) = 10.44885 16.63581 13.54233
#
# Velocity S-wave (km/s) = 2.55781 3.22742 2.91192
# Velocity P-wave (km/s) = 6.26876 6.81691 6.54857
#
# Compressibility (1/GPa) = 0.02047910
#
# Stress axis : x y z
#
# Youngs Moduli (GPa) = 47.12991 80.48443 43.91664
#
# Poissons Ratio (x) = 0.46033 0.38992
# Poissons Ratio (y) = 0.26956 0.14795
# Poissons Ratio (z) = 0.41845 0.27114
#
# Static dielectric constant tensor:
#      x y z
#    x 3.053470 0.000000 0.000000 
#    y 0.000000 3.267960 0.000000 
#    z 0.000000 0.000000 2.841790 
# 
# 
# High freq. dielectric constant tensor:
#      x y z
#    x 1.616290 0.000000 0.000000 
#    y 0.000000 1.613660 0.000000 
#    z 0.000000 0.000000 1.574290 
# 
# From -- ./inp_files/14321.got.cif
#   From: 2010.03.12/outbox.cif.g09.slc.cpg/sg47_8_cif.got.tgz:14321.got - 2010.04.14 03:12:58.
