data_PCOD8196010
_publ_section_title
;
Structure prediction by ZEFSAII (Michael W. Deem and Ramdas Pophale) SiO2 
 PCOD8196010
Probable space group: P M M M
;
_chemical_formula_sum "Si O2"
_cell_formula_units_Z 52
_cell_length_a 9.018349
_cell_length_b 27.902935
_cell_length_c 11.833244
_cell_angle_alpha 90.000000
_cell_angle_beta 90.000000
_cell_angle_gamma 90.000000
_cell_volume 2977.698657
_symmetry_space_group_name_H-M "P M M M"
_symmetry_group_IT_number 47
_symmetry_cell_setting 'orthorhombic'
loop_
_space_group_symop_operation_xyz
x,y,z
-x,-y,z
x,-y,-z
-x,y,-z
-x,-y,-z
x,y,-z
-x,y,z
x,-y,z
loop_
_atom_site_type_symbol
_atom_site_label
_atom_site_fract_x
_atom_site_fract_y
_atom_site_fract_z
Si Si1 0.825181 0.143286 0.790745
Si Si2 0.674104 0.192802 0.000000
Si Si3 0.167250 0.710696 0.000000
Si Si4 0.673906 0.404837 0.369674
Si Si5 0.167225 0.500000 0.365701
Si Si6 0.174874 0.775631 0.625257
Si Si7 0.327201 0.945567 0.130713
Si Si8 0.829307 0.319086 0.247235
O O1 0.744095 0.169366 0.891381
O O2 0.781456 0.172815 0.678119
O O3 0.766256 0.088674 0.785687
O O4 0.000000 0.143495 0.811436
O O5 0.500000 0.183673 0.000000
O O6 0.709051 0.248751 0.000000
O O7 0.188940 0.678798 0.111849
O O8 0.000000 0.733097 0.000000
O O9 0.717755 0.396148 0.500000
O O10 0.500000 0.411388 0.354904
O O11 0.750769 0.452609 0.320690
O O12 0.727718 0.360015 0.298136
O O13 0.172187 0.500000 0.500000
O O14 0.000000 0.500000 0.319205
O O15 0.246533 0.771775 0.500000
O O16 0.229547 0.731913 0.704416
O O17 0.000000 0.772246 0.615880
O O18 0.500000 0.938063 0.154691
O O19 0.280132 0.000000 0.157294
O O20 0.291605 0.933166 0.000000
O O21 0.000000 0.327767 0.282613
#
# Coordination Sequence:
#
# PCOD8196010 Si02
#       8
#     8   4   4   8   4   8   8   8
#     4  11  20  32  52  76 103 132 169 211 249 297
#     4  12  22  32  49  73 103 137 170 203 253 308
#     4  10  20  36  54  76 102 132 174 218 254 291
#     4  10  20  33  50  76 110 141 171 212 259 303
#     4   9  17  31  53  78 101 132 177 219 259 307
#     4   9  18  32  51  75 102 133 168 209 254 296
#     4   9  18  32  49  72 102 132 162 202 255 307
#     4  10  19  33  54  76 103 135 172 212 253 304
#
# _framework density 17.463149000000001
#
# number of rings (size 3 to 8) (size 9 to 14) (size 15 to 20)
#    0.000    2.077    2.308    2.769    0.000    3.385 
#    0.000    0.769    0.000    3.692    0.000    6.462 
#    0.000    0.000    0.000    0.000    0.000    0.000 
#
# Total GULP energy -644742.607838 kJ/mol
# GULP energy per Si atom -12398.896305 kJ/mol
# Density = 1.742340 g / cm^3
# Si number density = 17.463149 Si / 1000 Ang^3
#
#
#
# Elastic Constant Matrix: (Units=GPa)
#
#
# Indices 1 2 3 4 5 6 
#
# 1 73.0520 50.3770 34.3671 0.0000 0.0000 0.0000
# 2 50.3770 133.4265 51.7895 0.0000 0.0000 0.0000
# 3 34.3671 51.7895 98.9555 0.0000 0.0000 0.0000
# 4 0.0000 0.0000 0.0000 29.8159 0.0000 0.0000
# 5 0.0000 0.0000 0.0000 0.0000 21.4527 0.0000
# 6 0.0000 0.0000 0.0000 0.0000 0.0000 32.7897
#
#
#
# Elastic Compliance Matrix: (Units=1/GPa)
#
#
# Indices 1 2 3 4 5 6 
#
# 1 0.019513 -0.005944 -0.003666 0.000000 0.000000 0.000000
# 2 -0.005944 0.011216 -0.003806 0.000000 0.000000 0.000000
# 3 -0.003666 -0.003806 0.013370 0.000000 0.000000 0.000000
# 4 0.000000 0.000000 0.000000 0.033539 0.000000 0.000000
# 5 0.000000 0.000000 0.000000 0.000000 0.046614 0.000000
# 6 0.000000 0.000000 0.000000 0.000000 0.000000 0.030497
#
#
# Mechanical properties :
#
#
# Convention : Reuss Voigt Hill
#
# Bulk Modulus (GPa) = 57.91112 64.27791 61.09452
# Shear Modulus (GPa) = 26.68977 28.07168 27.38073
#
# Velocity S-wave (km/s) = 3.91365 4.01369 3.96399
# Velocity P-wave (km/s) = 7.32503 7.63985 7.48410
#
# Compressibility (1/GPa) = 0.01726784
#
# Stress axis : x y z
#
# Youngs Moduli (GPa) = 51.24867 89.15543 74.79219
#
# Poissons Ratio (x) = 0.52998 0.27416
# Poissons Ratio (y) = 0.30465 0.28464
# Poissons Ratio (z) = 0.18786 0.33930
#
# Static dielectric constant tensor:
#      x y z
#    x 3.209010 0.000000 0.000000 
#    y 0.000000 3.409860 0.000000 
#    z 0.000000 0.000000 3.082060 
# 
# 
# High freq. dielectric constant tensor:
#      x y z
#    x 1.665480 0.000000 0.000000 
#    y 0.000000 1.680060 0.000000 
#    z 0.000000 0.000000 1.648250 
# 
# From -- ./inp_files/15546.got.cif
#   From: 2010.03.12/outbox.cif.g09.slc.cpg/sg47_8_cif.got.tgz:15546.got - 2010.04.14 03:12:58.
