data_PCOD8196278
_publ_section_title
;
Structure prediction by ZEFSAII (Michael W. Deem and Ramdas Pophale) SiO2 
 PCOD8196278
Probable space group: P M M M
;
_chemical_formula_sum "Si O2"
_cell_formula_units_Z 44
_cell_length_a 8.680136
_cell_length_b 19.140749
_cell_length_c 14.644291
_cell_angle_alpha 90.000000
_cell_angle_beta 90.000000
_cell_angle_gamma 90.000000
_cell_volume 2433.065543
_symmetry_space_group_name_H-M "P M M M"
_symmetry_group_IT_number 47
_symmetry_cell_setting 'orthorhombic'
loop_
_space_group_symop_operation_xyz
x,y,z
-x,-y,z
x,-y,-z
-x,y,-z
-x,-y,-z
x,y,-z
-x,y,z
x,-y,z
loop_
_atom_site_type_symbol
_atom_site_label
_atom_site_fract_x
_atom_site_fract_y
_atom_site_fract_z
Si Si1 0.677491 0.234766 0.763650
Si Si2 0.180743 0.847851 0.601680
Si Si3 0.682924 0.355958 0.895322
Si Si4 0.318818 0.000000 0.869539
Si Si5 0.826069 0.859689 0.901200
Si Si6 0.828297 0.500000 0.107892
Si Si7 0.818819 0.000000 0.675733
O O1 0.500000 0.247767 0.743481
O O2 0.753856 0.212726 0.668079
O O3 0.748574 0.301318 0.819374
O O4 0.702192 0.171139 0.832164
O O5 0.242551 0.831352 0.500000
O O6 0.000000 0.839923 0.606802
O O7 0.225167 0.928632 0.622577
O O8 0.500000 0.353346 0.895739
O O9 0.738244 0.431230 0.859499
O O10 0.741996 0.340733 0.000000
O O11 0.231600 0.062963 0.917492
O O12 0.290956 0.000000 0.762061
O O13 0.500000 0.000000 0.891600
O O14 0.000000 0.856976 0.859812
O O15 0.823614 0.821447 0.000000
O O16 0.000000 0.500000 0.149972
O O17 0.836204 0.500000 0.000000
O O18 0.000000 0.000000 0.701512
#
# Coordination Sequence:
#
# PCOD8196278 Si02
#       7
#     8   8   8   4   8   4   4
#     4  11  22  35  53  78 107 137 172 216 262 308
#     4  10  21  37  57  78 101 134 174 218 272 328
#     4   9  18  33  52  75 108 148 180 206 246 301
#     4  12  23  34  51  73  97 128 169 217 265 309
#     4  11  23  37  52  70  97 136 176 213 257 310
#     4   9  17  29  49  79 110 139 176 217 249 284
#     4  10  19  35  57  75  97 129 169 217 271 328
#
# _framework density 18.084181000000001
#
# number of rings (size 3 to 8) (size 9 to 14) (size 15 to 20)
#    0.000    1.727    1.818    3.273    0.000    7.273 
#    0.000    1.818    0.000    1.636    0.000    0.636 
#    0.000    5.091    0.000    0.000    0.000    0.000 
#
# Total GULP energy -545160.947151 kJ/mol
# GULP energy per Si atom -12390.021526 kJ/mol
# Density = 1.804302 g / cm^3
# Si number density = 18.084181 Si / 1000 Ang^3
#
#
#
# Elastic Constant Matrix: (Units=GPa)
#
#
# Indices 1 2 3 4 5 6 
#
# 1 36.5190 17.0765 24.9239 0.0000 0.0000 0.0000
# 2 17.0765 115.2717 56.8452 0.0000 0.0000 0.0000
# 3 24.9239 56.8452 130.4232 0.0000 0.0000 0.0000
# 4 0.0000 0.0000 0.0000 19.7408 0.0000 0.0000
# 5 0.0000 0.0000 0.0000 0.0000 9.6487 0.0000
# 6 0.0000 0.0000 0.0000 0.0000 0.0000 23.6553
#
#
#
# Elastic Compliance Matrix: (Units=1/GPa)
#
#
# Indices 1 2 3 4 5 6 
#
# 1 0.031919 -0.002192 -0.005145 0.000000 0.000000 0.000000
# 2 -0.002192 0.011201 -0.004463 0.000000 0.000000 0.000000
# 3 -0.005145 -0.004463 0.010596 0.000000 0.000000 0.000000
# 4 0.000000 0.000000 0.000000 0.050656 0.000000 0.000000
# 5 0.000000 0.000000 0.000000 0.000000 0.103641 0.000000
# 6 0.000000 0.000000 0.000000 0.000000 0.000000 0.042274
#
#
# Mechanical properties :
#
#
# Convention : Reuss Voigt Hill
#
# Bulk Modulus (GPa) = 33.20374 53.32279 43.26326
# Shear Modulus (GPa) = 17.61037 22.83352 20.22195
#
# Velocity S-wave (km/s) = 3.12396 3.55720 3.34760
# Velocity P-wave (km/s) = 5.60470 6.81333 6.23835
#
# Compressibility (1/GPa) = 0.03011709
#
# Stress axis : x y z
#
# Youngs Moduli (GPa) = 31.32942 89.27990 94.37787
#
# Poissons Ratio (x) = 0.19566 0.48553
# Poissons Ratio (y) = 0.06866 0.42121
# Poissons Ratio (z) = 0.16118 0.39846
#
# Static dielectric constant tensor:
#      x y z
#    x 3.238280 0.000000 0.000000 
#    y 0.000000 3.478290 0.000000 
#    z 0.000000 0.000000 3.394230 
# 
# 
# High freq. dielectric constant tensor:
#      x y z
#    x 1.695830 0.000000 0.000000 
#    y 0.000000 1.686880 0.000000 
#    z 0.000000 0.000000 1.684690 
# 
# From -- ./inp_files/9044.got.cif
#   From: 2010.03.12/outbox.cif.g09.slc.cpg/sg47_5_cif.got.tgz:9044.got - 2010.04.14 03:12:58.
