data_PCOD8196860
_publ_section_title
;
Structure prediction by ZEFSAII (Michael W. Deem and Ramdas Pophale) SiO2 
 PCOD8196860
Probable space group: P M M M
;
_chemical_formula_sum "Si O2"
_cell_formula_units_Z 44
_cell_length_a 9.179693
_cell_length_b 18.875795
_cell_length_c 14.211649
_cell_angle_alpha 90.000000
_cell_angle_beta 90.000000
_cell_angle_gamma 90.000000
_cell_volume 2462.509315
_symmetry_space_group_name_H-M "P M M M"
_symmetry_group_IT_number 47
_symmetry_cell_setting 'orthorhombic'
loop_
_space_group_symop_operation_xyz
x,y,z
-x,-y,z
x,-y,-z
-x,y,-z
-x,-y,-z
x,y,-z
-x,y,z
x,-y,z
loop_
_atom_site_type_symbol
_atom_site_label
_atom_site_fract_x
_atom_site_fract_y
_atom_site_fract_z
Si Si1 0.168660 0.816436 0.607582
Si Si2 0.161856 0.416618 0.500000
Si Si3 0.329403 0.581267 0.686325
Si Si4 0.833278 0.297056 0.237526
Si Si5 0.330603 0.082809 0.740041
Si Si6 0.829744 0.169881 0.892353
O O1 0.213498 0.801726 0.500000
O O2 0.201400 0.746056 0.667152
O O3 0.262002 0.881397 0.647744
O O4 0.000000 0.837757 0.617199
O O5 0.144976 0.500000 0.500000
O O6 0.249811 0.393096 0.408371
O O7 0.000000 0.381227 0.500000
O O8 0.500000 0.591699 0.672326
O O9 0.292437 0.500000 0.712447
O O10 0.268575 0.633089 0.767649
O O11 0.796018 0.248038 0.148116
O O12 0.000000 0.322491 0.235068
O O13 0.500000 0.101540 0.743754
O O14 0.257817 0.110619 0.835800
O O15 0.301388 0.000000 0.732313
O O16 0.000000 0.152849 0.880751
O O17 0.778870 0.167718 0.000000
#
# Coordination Sequence:
#
# PCOD8196860 Si02
#       6
#     8   4   8   8   8   8
#     4   9  19  35  53  74 101 136 177 217 254 294
#     4   9  17  29  45  65  91 127 168 205 244 289
#     4  10  20  32  46  69 102 135 169 209 251 298
#     4   9  18  32  52  76 100 129 167 211 256 304
#     4  10  21  35  51  76 109 139 169 207 250 300
#     4   9  19  37  59  80 101 128 165 210 259 308
#
# _framework density 17.867951999999999
#
# number of rings (size 3 to 8) (size 9 to 14) (size 15 to 20)
#    0.000    2.636    0.000    2.455    1.273    8.000 
#    0.000    3.636    0.000    0.545    0.000    3.818 
#    0.000    0.000    0.000    0.000    0.000    0.000 
#
# Total GULP energy -545611.607123 kJ/mol
# GULP energy per Si atom -12400.263798 kJ/mol
# Density = 1.782728 g / cm^3
# Si number density = 17.867952 Si / 1000 Ang^3
#
#
#
# Elastic Constant Matrix: (Units=GPa)
#
#
# Indices 1 2 3 4 5 6 
#
# 1 84.0351 51.2999 25.4228 0.0000 0.0000 0.0000
# 2 51.2999 83.9468 24.2896 0.0000 0.0000 0.0000
# 3 25.4228 24.2896 89.6859 0.0000 0.0000 0.0000
# 4 0.0000 0.0000 0.0000 16.5721 0.0000 0.0000
# 5 0.0000 0.0000 0.0000 0.0000 15.5434 0.0000
# 6 0.0000 0.0000 0.0000 0.0000 0.0000 33.9770
#
#
#
# Elastic Compliance Matrix: (Units=1/GPa)
#
#
# Indices 1 2 3 4 5 6 
#
# 1 0.019481 -0.011183 -0.002493 0.000000 0.000000 0.000000
# 2 -0.011183 0.019345 -0.002069 0.000000 0.000000 0.000000
# 3 -0.002493 -0.002069 0.012417 0.000000 0.000000 0.000000
# 4 0.000000 0.000000 0.000000 0.060342 0.000000 0.000000
# 5 0.000000 0.000000 0.000000 0.000000 0.064336 0.000000
# 6 0.000000 0.000000 0.000000 0.000000 0.000000 0.029432
#
#
# Mechanical properties :
#
#
# Convention : Reuss Voigt Hill
#
# Bulk Modulus (GPa) = 50.62896 51.07692 50.85294
# Shear Modulus (GPa) = 20.53984 23.66222 22.10103
#
# Velocity S-wave (km/s) = 3.39416 3.64302 3.52079
# Velocity P-wave (km/s) = 6.61491 6.80759 6.71194
#
# Compressibility (1/GPa) = 0.01975154
#
# Stress axis : x y z
#
# Youngs Moduli (GPa) = 51.33165 51.69234 80.53348
#
# Poissons Ratio (x) = 0.57810 0.20080
# Poissons Ratio (y) = 0.57407 0.16663
# Poissons Ratio (z) = 0.12799 0.10696
#
# Static dielectric constant tensor:
#      x y z
#    x 3.321300 0.000000 0.000000 
#    y 0.000000 3.222230 0.000000 
#    z 0.000000 0.000000 3.338410 
# 
# 
# High freq. dielectric constant tensor:
#      x y z
#    x 1.694390 0.000000 0.000000 
#    y 0.000000 1.690000 0.000000 
#    z 0.000000 0.000000 1.672000 
# 
# From -- ./inp_files/8961.got.cif
#   From: 2010.03.12/outbox.cif.g09.slc.cpg/sg47_5_cif.got.tgz:8961.got - 2010.04.14 03:12:58.
