data_PCOD8196895
_publ_section_title
;
Structure prediction by ZEFSAII (Michael W. Deem and Ramdas Pophale) SiO2 
 PCOD8196895
Probable space group: P M M M
;
_chemical_formula_sum "Si O2"
_cell_formula_units_Z 64
_cell_length_a 18.034469
_cell_length_b 19.953442
_cell_length_c 9.380320
_cell_angle_alpha 90.000000
_cell_angle_beta 90.000000
_cell_angle_gamma 90.000000
_cell_volume 3375.505630
_symmetry_space_group_name_H-M "P M M M"
_symmetry_group_IT_number 47
_symmetry_cell_setting 'orthorhombic'
loop_
_space_group_symop_operation_xyz
x,y,z
-x,-y,z
x,-y,-z
-x,y,-z
-x,-y,-z
x,y,-z
-x,y,z
x,-y,z
loop_
_atom_site_type_symbol
_atom_site_label
_atom_site_fract_x
_atom_site_fract_y
_atom_site_fract_z
Si Si1 0.716067 0.424763 0.844857
Si Si2 0.083077 0.694732 0.835941
Si Si3 0.416305 0.609883 0.339214
Si Si4 0.276642 0.072875 0.835380
Si Si5 0.583197 0.106817 0.665676
Si Si6 0.782851 0.786668 0.167879
Si Si7 0.146429 0.421276 0.667536
Si Si8 0.645356 0.752125 0.340357
O O1 0.740848 0.500000 0.872918
O O2 0.635475 0.426225 0.774275
O O3 0.776100 0.394656 0.735418
O O4 0.716049 0.387481 0.000000
O O5 0.139357 0.753362 0.782819
O O6 0.086139 0.626739 0.741572
O O7 0.000000 0.723867 0.820275
O O8 0.100191 0.675218 0.000000
O O9 0.395448 0.587108 0.500000
O O10 0.500000 0.589087 0.303704
O O11 0.407955 0.689189 0.322467
O O12 0.354688 0.067721 0.753518
O O13 0.224422 0.134744 0.781783
O O14 0.236802 0.000000 0.813006
O O15 0.295736 0.084687 0.000000
O O16 0.594066 0.089504 0.500000
O O17 0.500000 0.086209 0.714283
O O18 0.593604 0.185367 0.696681
O O19 0.715319 0.744802 0.235349
O O20 0.775317 0.781822 0.000000
O O21 0.149257 0.407278 0.500000
O O22 0.128975 0.500000 0.696654
O O23 0.677674 0.758059 0.500000
#
# Coordination Sequence:
#
# PCOD8196895 Si02
#       8
#     8   8   8   8   8   8   8   8
#     4  10  21  36  52  69  92 125 165 207 250 298
#     4  10  21  36  55  80 109 138 165 198 244 296
#     4  10  20  32  47  68  94 125 163 210 261 307
#     4   9  18  32  49  69  95 130 170 210 252 296
#     4   9  17  29  45  66  95 129 162 200 247 296
#     4   9  18  33  52  73  98 129 166 206 247 295
#     4  10  21  37  57  80 106 136 169 204 242 290
#     4   9  17  30  48  69  93 123 161 202 246 296
#
# _framework density 18.960122999999999
#
# number of rings (size 3 to 8) (size 9 to 14) (size 15 to 20)
#    0.000    2.500    0.000    1.875    0.000    7.750 
#    0.000    3.750    0.000    2.625    0.000    2.625 
#    0.000    0.000    0.000    7.375    0.000    7.750 
#
# Total GULP energy -793182.722625 kJ/mol
# GULP energy per Si atom -12393.480041 kJ/mol
# Density = 1.891697 g / cm^3
# Si number density = 18.960123 Si / 1000 Ang^3
#
#
#
# Elastic Constant Matrix: (Units=GPa)
#
#
# Indices 1 2 3 4 5 6 
#
# 1 100.3395 34.3003 37.7634 0.0000 0.0000 0.0000
# 2 34.3003 77.9449 28.6181 0.0000 0.0000 0.0000
# 3 37.7634 28.6181 69.6386 0.0000 0.0000 0.0000
# 4 0.0000 0.0000 0.0000 20.4744 0.0000 0.0000
# 5 0.0000 0.0000 0.0000 0.0000 24.4569 0.0000
# 6 0.0000 0.0000 0.0000 0.0000 0.0000 14.0372
#
#
#
# Elastic Compliance Matrix: (Units=1/GPa)
#
#
# Indices 1 2 3 4 5 6 
#
# 1 0.013417 -0.003807 -0.005711 0.000000 0.000000 0.000000
# 2 -0.003807 0.016190 -0.004589 0.000000 0.000000 0.000000
# 3 -0.005711 -0.004589 0.019343 0.000000 0.000000 0.000000
# 4 0.000000 0.000000 0.000000 0.048842 0.000000 0.000000
# 5 0.000000 0.000000 0.000000 0.000000 0.040888 0.000000
# 6 0.000000 0.000000 0.000000 0.000000 0.000000 0.071239
#
#
# Mechanical properties :
#
#
# Convention : Reuss Voigt Hill
#
# Bulk Modulus (GPa) = 48.22706 49.92075 49.07390
# Shear Modulus (GPa) = 20.40444 21.60976 21.00710
#
# Velocity S-wave (km/s) = 3.28407 3.37968 3.33222
# Velocity P-wave (km/s) = 6.31438 6.45106 6.38309
#
# Compressibility (1/GPa) = 0.02073525
#
# Stress axis : x y z
#
# Youngs Moduli (GPa) = 74.53164 61.76728 51.69949
#
# Poissons Ratio (x) = 0.23518 0.29526
# Poissons Ratio (y) = 0.28377 0.23723
# Poissons Ratio (z) = 0.42566 0.28342
#
# Static dielectric constant tensor:
#      x y z
#    x 3.328130 0.000000 0.000000 
#    y 0.000000 3.596190 0.000000 
#    z 0.000000 0.000000 3.527460 
# 
# 
# High freq. dielectric constant tensor:
#      x y z
#    x 1.712090 0.000000 0.000000 
#    y 0.000000 1.737420 0.000000 
#    z 0.000000 0.000000 1.734130 
# 
# From -- ./inp_files/9981.got.cif
#   From: 2010.03.12/outbox.cif.g09.slc.cpg/sg47_5_cif.got.tgz:9981.got - 2010.04.14 03:12:58.
