data_PCOD8196777
_publ_section_title
;
Structure prediction by ZEFSAII (Michael W. Deem and Ramdas Pophale) SiO2 
 PCOD8196777
Probable space group: P M M M
;
_chemical_formula_sum "Si O2"
_cell_formula_units_Z 64
_cell_length_a 27.097676
_cell_length_b 9.256974
_cell_length_c 18.332746
_cell_angle_alpha 90.000000
_cell_angle_beta 90.000000
_cell_angle_gamma 90.000000
_cell_volume 4598.631512
_symmetry_space_group_name_H-M "P M M M"
_symmetry_group_IT_number 47
_symmetry_cell_setting 'orthorhombic'
loop_
_space_group_symop_operation_xyz
x,y,z
-x,-y,z
x,-y,-z
-x,y,-z
-x,-y,-z
x,y,-z
-x,y,z
x,-y,z
loop_
_atom_site_type_symbol
_atom_site_label
_atom_site_fract_x
_atom_site_fract_y
_atom_site_fract_z
Si Si1 0.651363 0.831862 0.916010
Si Si2 0.749375 0.168517 0.171254
Si Si3 0.158032 0.173262 0.082303
Si Si4 0.701323 0.340564 0.710651
Si Si5 0.399685 0.662356 0.798751
Si Si6 0.052230 0.161886 0.086644
Si Si7 0.443512 0.166154 0.672757
Si Si8 0.364081 0.669410 0.416396
O O1 0.704868 0.794185 0.883288
O O2 0.608429 0.741028 0.876249
O O3 0.639375 0.000000 0.905512
O O4 0.651795 0.786124 0.000000
O O5 0.799256 0.232372 0.135432
O O6 0.741351 0.237611 0.251214
O O7 0.754356 0.000000 0.184436
O O8 0.104444 0.233336 0.111738
O O9 0.157335 0.000000 0.082063
O O10 0.168614 0.228429 0.000000
O O11 0.724763 0.500000 0.706914
O O12 0.651823 0.341541 0.757393
O O13 0.685057 0.287202 0.629786
O O14 0.419900 0.500000 0.811558
O O15 0.438029 0.753184 0.750287
O O16 0.000000 0.240209 0.110732
O O17 0.050092 0.000000 0.117997
O O18 0.054697 0.155869 0.000000
O O19 0.500000 0.176313 0.647471
O O20 0.411287 0.240406 0.609728
O O21 0.426663 0.000000 0.682169
O O22 0.352986 0.706279 0.500000
O O23 0.375856 0.500000 0.404030
#
# Coordination Sequence:
#
# PCOD8196777 Si02
#       8
#     8   8   8   8   8   8   8   8
#     4   9  16  25  38  56  77  99 122 151 189 229
#     4   9  15  22  34  52  73  97 124 151 181 219
#     4   8  12  17  26  42  65  92 123 159 193 221
#     4   8  15  27  40  54  73  96 120 145 173 206
#     4   9  17  29  44  59  75  98 127 154 179 212
#     4   7   9  13  21  34  55  85 119 154 192 227
#     4  10  20  32  46  64  84 103 121 143 174 210
#     4   9  18  32  48  64  81 101 124 147 170 200
#
# _framework density 13.917185
#
# number of rings (size 3 to 8) (size 9 to 14) (size 15 to 20)
#    0.000    3.375    0.000    3.000    0.000    6.250 
#    0.000    1.250    0.000    1.500    0.000    2.625 
#    0.000    0.500    0.000    3.125    0.000    3.125 
#
# Total GULP energy -792869.487259 kJ/mol
# GULP energy per Si atom -12388.585738 kJ/mol
# Density = 1.388551 g / cm^3
# Si number density = 13.917185 Si / 1000 Ang^3
#
#
#
# Elastic Constant Matrix: (Units=GPa)
#
#
# Indices 1 2 3 4 5 6 
#
# 1 72.3942 27.6525 46.6682 0.0000 0.0000 0.0000
# 2 27.6525 47.4101 36.0614 0.0000 0.0000 0.0000
# 3 46.6682 36.0614 95.2793 0.0000 0.0000 0.0000
# 4 0.0000 0.0000 0.0000 19.3004 0.0000 0.0000
# 5 0.0000 0.0000 0.0000 0.0000 11.4942 0.0000
# 6 0.0000 0.0000 0.0000 0.0000 0.0000 6.5115
#
#
#
# Elastic Compliance Matrix: (Units=1/GPa)
#
#
# Indices 1 2 3 4 5 6 
#
# 1 0.021468 -0.006352 -0.008111 0.000000 0.000000 0.000000
# 2 -0.006352 0.031499 -0.008810 0.000000 0.000000 0.000000
# 3 -0.008111 -0.008810 0.017803 0.000000 0.000000 0.000000
# 4 0.000000 0.000000 0.000000 0.051812 0.000000 0.000000
# 5 0.000000 0.000000 0.000000 0.000000 0.087000 0.000000
# 6 0.000000 0.000000 0.000000 0.000000 0.000000 0.153575
#
#
# Mechanical properties :
#
#
# Convention : Reuss Voigt Hill
#
# Bulk Modulus (GPa) = 41.28342 48.42753 44.85548
# Shear Modulus (GPa) = 11.96803 14.44131 13.20467
#
# Velocity S-wave (km/s) = 2.93567 3.22477 3.08361
# Velocity P-wave (km/s) = 6.42019 6.98126 6.70660
#
# Compressibility (1/GPa) = 0.02422280
#
# Stress axis : x y z
#
# Youngs Moduli (GPa) = 46.58018 31.74706 56.17057
#
# Poissons Ratio (x) = 0.20166 0.45561
# Poissons Ratio (y) = 0.29588 0.49489
# Poissons Ratio (z) = 0.37782 0.27971
#
# Static dielectric constant tensor:
#      x y z
#    x 2.891160 0.000000 0.000000 
#    y 0.000000 2.663830 0.000000 
#    z 0.000000 0.000000 2.717470 
# 
# 
# High freq. dielectric constant tensor:
#      x y z
#    x 1.510930 0.000000 0.000000 
#    y 0.000000 1.513680 0.000000 
#    z 0.000000 0.000000 1.503400 
# 
# From -- ./inp_files/28967.got.cif
#   From: 2010.03.12/outbox.cif.g09.slc.cpg/sg47_15_cif.got.tgz:28967.got - 2010.04.14 03:12:58.
