data_PCOD8196004
_publ_section_title
;
Structure prediction by ZEFSAII (Michael W. Deem and Ramdas Pophale) SiO2 
 PCOD8196004
Probable space group: P M M M
;
_chemical_formula_sum "Si O2"
_cell_formula_units_Z 40
_cell_length_a 9.299897
_cell_length_b 22.431417
_cell_length_c 10.979538
_cell_angle_alpha 90.000000
_cell_angle_beta 90.000000
_cell_angle_gamma 90.000000
_cell_volume 2290.439969
_symmetry_space_group_name_H-M "P M M M"
_symmetry_group_IT_number 47
_symmetry_cell_setting 'orthorhombic'
loop_
_space_group_symop_operation_xyz
x,y,z
-x,-y,z
x,-y,-z
-x,y,-z
-x,-y,-z
x,y,-z
-x,y,z
x,-y,z
loop_
_atom_site_type_symbol
_atom_site_label
_atom_site_fract_x
_atom_site_fract_y
_atom_site_fract_z
Si Si1 0.662549 0.766308 0.639277
Si Si2 0.331029 0.885939 0.777083
Si Si3 0.829751 0.931403 0.000000
Si Si4 0.829533 0.647541 0.639035
Si Si5 0.330213 0.000000 0.369213
Si Si6 0.829325 0.432598 0.136119
O O1 0.675980 0.786330 0.500000
O O2 0.500000 0.746010 0.669220
O O3 0.707725 0.823026 0.717746
O O4 0.767847 0.712248 0.669913
O O5 0.500000 0.890745 0.809247
O O6 0.278257 0.940010 0.693803
O O7 0.231178 0.892238 0.892005
O O8 0.000000 0.931192 0.000000
O O9 0.771845 0.000000 0.000000
O O10 0.783010 0.627491 0.500000
O O11 0.769400 0.604556 0.747172
O O12 0.000000 0.651081 0.645235
O O13 0.500000 0.000000 0.379854
O O14 0.255832 0.000000 0.500000
O O15 0.772944 0.500000 0.152613
O O16 0.000000 0.431321 0.140693
O O17 0.780200 0.409120 0.000000
#
# Coordination Sequence:
#
# PCOD8196004 Si02
#       6
#     8   8   4   8   4   8
#     4   9  18  33  52  74 100 128 158 197 245 292
#     4  10  19  33  54  74  94 124 163 202 239 285
#     4  11  23  37  51  69  99 131 158 195 246 297
#     4   9  17  29  47  72 100 129 162 200 243 292
#     4   9  16  27  49  78  96 111 150 205 248 283
#     4   8  14  26  45  69  97 128 163 204 246 286
#
# _framework density 17.463894
#
# number of rings (size 3 to 8) (size 9 to 14) (size 15 to 20)
#    0.000    2.800    1.000    1.500    0.000    4.000 
#    1.800    2.000    0.000    3.000    0.000    4.200 
#    0.000    0.000    0.000    0.000    0.000    0.000 
#
# Total GULP energy -495602.038953 kJ/mol
# GULP energy per Si atom -12390.050974 kJ/mol
# Density = 1.742415 g / cm^3
# Si number density = 17.463894 Si / 1000 Ang^3
#
#
#
# Elastic Constant Matrix: (Units=GPa)
#
#
# Indices 1 2 3 4 5 6 
#
# 1 23.4293 26.4501 33.0205 0.0000 0.0000 0.0000
# 2 26.4501 113.8559 85.6276 0.0000 0.0000 0.0000
# 3 33.0205 85.6276 157.4042 0.0000 0.0000 0.0000
# 4 0.0000 0.0000 0.0000 34.2789 0.0000 0.0000
# 5 0.0000 0.0000 0.0000 0.0000 0.6026 0.0000
# 6 0.0000 0.0000 0.0000 0.0000 0.0000 19.3539
#
#
#
# Elastic Compliance Matrix: (Units=1/GPa)
#
#
# Indices 1 2 3 4 5 6 
#
# 1 0.064802 -0.008175 -0.009147 0.000000 0.000000 0.000000
# 2 -0.008175 0.015896 -0.006932 0.000000 0.000000 0.000000
# 3 -0.009147 -0.006932 0.012043 0.000000 0.000000 0.000000
# 4 0.000000 0.000000 0.000000 0.029172 0.000000 0.000000
# 5 0.000000 0.000000 0.000000 0.000000 1.659574 0.000000
# 6 0.000000 0.000000 0.000000 0.000000 0.000000 0.051669
#
#
# Mechanical properties :
#
#
# Convention : Reuss Voigt Hill
#
# Bulk Modulus (GPa) = 22.60792 64.98732 43.79762
# Shear Modulus (GPa) = 2.63656 20.81981 11.72819
#
# Velocity S-wave (km/s) = 1.23004 3.45652 2.59427
# Velocity P-wave (km/s) = 3.87182 7.29542 5.84013
#
# Compressibility (1/GPa) = 0.04423228
#
# Stress axis : x y z
#
# Youngs Moduli (GPa) = 15.43152 62.90980 83.03502
#
# Poissons Ratio (x) = 0.51430 0.75953
# Poissons Ratio (y) = 0.12615 0.57562
# Poissons Ratio (z) = 0.14115 0.43611
#
# Static dielectric constant tensor:
#      x y z
#    x 2.888580 0.000000 0.000000 
#    y 0.000000 3.268730 0.000000 
#    z 0.000000 0.000000 3.454070 
# 
# 
# High freq. dielectric constant tensor:
#      x y z
#    x 1.636500 0.000000 0.000000 
#    y 0.000000 1.670810 0.000000 
#    z 0.000000 0.000000 1.688120 
# 
# From -- ./inp_files/10674.got.cif
#   From: 2010.03.12/outbox.cif.g09.slc.cpg/sg47_6_cif.got.tgz:10674.got - 2010.04.14 03:12:58.
