data_PCOD8196660
_publ_section_title
;
Structure prediction by ZEFSAII (Michael W. Deem and Ramdas Pophale) SiO2 
 PCOD8196660
Probable space group: P M M M
;
_chemical_formula_sum "Si O2"
_cell_formula_units_Z 44
_cell_length_a 27.833777
_cell_length_b 9.172260
_cell_length_c 9.517276
_cell_angle_alpha 90.000000
_cell_angle_beta 90.000000
_cell_angle_gamma 90.000000
_cell_volume 2429.747614
_symmetry_space_group_name_H-M "P M M M"
_symmetry_group_IT_number 47
_symmetry_cell_setting 'orthorhombic'
loop_
_space_group_symop_operation_xyz
x,y,z
-x,-y,z
x,-y,-z
-x,y,-z
-x,-y,-z
x,y,-z
-x,y,z
x,-y,z
loop_
_atom_site_type_symbol
_atom_site_label
_atom_site_fract_x
_atom_site_fract_y
_atom_site_fract_z
Si Si1 0.140814 0.326813 0.840148
Si Si2 0.782052 0.168437 0.339943
Si Si3 0.329181 0.166123 0.337635
Si Si4 0.946832 0.673313 0.657607
Si Si5 0.500000 0.164717 0.167109
Si Si6 0.406162 0.330463 0.836231
O O1 0.142523 0.500000 0.831744
O O2 0.188023 0.266756 0.765783
O O3 0.093165 0.264149 0.763456
O O4 0.139577 0.271686 0.000000
O O5 0.794125 0.213028 0.500000
O O6 0.726441 0.197941 0.307759
O O7 0.794758 0.000000 0.315077
O O8 0.341348 0.193787 0.500000
O O9 0.359187 0.276652 0.243779
O O10 0.341807 0.000000 0.296299
O O11 0.935328 0.729014 0.500000
O O12 0.945886 0.500000 0.659959
O O13 0.000000 0.727885 0.703948
O O14 0.547311 0.246238 0.223566
O O15 0.500000 0.000000 0.225017
O O16 0.500000 0.168717 0.000000
O O17 0.414183 0.500000 0.807088
O O18 0.398500 0.297909 0.000000
#
# Coordination Sequence:
#
# PCOD8196660 Si02
#       6
#     8   8   8   8   4   8
#     4  10  20  31  46  73 105 132 160 199 248 299
#     4   9  19  36  55  72  93 127 169 208 247 294
#     4   9  19  36  55  74  97 127 166 209 250 295
#     4   8  14  26  45  68  94 127 167 206 243 288
#     4   9  17  31  52  75 100 135 176 210 242 287
#     4  10  20  33  51  77 107 135 164 203 250 297
#
# _framework density 18.108877
#
# number of rings (size 3 to 8) (size 9 to 14) (size 15 to 20)
#    0.000    2.818    0.000    3.000    0.000    5.818 
#    0.000    7.727    0.000    3.273    0.000    3.818 
#    0.000    0.000    0.000    0.000    0.000    0.000 
#
# Total GULP energy -545576.149851 kJ/mol
# GULP energy per Si atom -12399.457951 kJ/mol
# Density = 1.806766 g / cm^3
# Si number density = 18.108877 Si / 1000 Ang^3
#
#
#
# Elastic Constant Matrix: (Units=GPa)
#
#
# Indices 1 2 3 4 5 6 
#
# 1 119.9747 48.4641 71.3939 0.0000 0.0000 0.0000
# 2 48.4641 60.6819 42.2565 0.0000 0.0000 0.0000
# 3 71.3939 42.2565 99.1425 0.0000 0.0000 0.0000
# 4 0.0000 0.0000 0.0000 26.2413 0.0000 0.0000
# 5 0.0000 0.0000 0.0000 0.0000 31.9214 0.0000
# 6 0.0000 0.0000 0.0000 0.0000 0.0000 16.4683
#
#
#
# Elastic Compliance Matrix: (Units=1/GPa)
#
#
# Indices 1 2 3 4 5 6 
#
# 1 0.016409 -0.006935 -0.008861 0.000000 0.000000 0.000000
# 2 -0.006935 0.026366 -0.006244 0.000000 0.000000 0.000000
# 3 -0.008861 -0.006244 0.019128 0.000000 0.000000 0.000000
# 4 0.000000 0.000000 0.000000 0.038108 0.000000 0.000000
# 5 0.000000 0.000000 0.000000 0.000000 0.031327 0.000000
# 6 0.000000 0.000000 0.000000 0.000000 0.000000 0.060723
#
#
# Mechanical properties :
#
#
# Convention : Reuss Voigt Hill
#
# Bulk Modulus (GPa) = 56.10176 67.11425 61.60801
# Shear Modulus (GPa) = 20.65418 22.77184 21.71301
#
# Velocity S-wave (km/s) = 3.38088 3.54997 3.46645
# Velocity P-wave (km/s) = 6.80352 7.34473 7.07930
#
# Compressibility (1/GPa) = 0.01782475
#
# Stress axis : x y z
#
# Youngs Moduli (GPa) = 60.94073 37.92760 52.27846
#
# Poissons Ratio (x) = 0.26304 0.46322
# Poissons Ratio (y) = 0.42264 0.32640
# Poissons Ratio (z) = 0.53998 0.23680
#
# Static dielectric constant tensor:
#      x y z
#    x 3.470540 0.000000 0.000000 
#    y 0.000000 3.107290 0.000000 
#    z 0.000000 0.000000 3.282970 
# 
# 
# High freq. dielectric constant tensor:
#      x y z
#    x 1.713510 0.000000 0.000000 
#    y 0.000000 1.680130 0.000000 
#    z 0.000000 0.000000 1.689410 
# 
# From -- ./inp_files/1962.got.cif
#   From: 2010.03.12/outbox.cif.g09.slc.cpg/sg47_1_cif.got.tgz:1962.got - 2010.04.14 03:12:58.
