data_PCOD8196028
_publ_section_title
;
Structure prediction by ZEFSAII (Michael W. Deem and Ramdas Pophale) SiO2 
 PCOD8196028
Probable space group: P M M M
;
_chemical_formula_sum "Si O2"
_cell_formula_units_Z 52
_cell_length_a 27.835862
_cell_length_b 12.043039
_cell_length_c 8.771418
_cell_angle_alpha 90.000000
_cell_angle_beta 90.000000
_cell_angle_gamma 90.000000
_cell_volume 2940.428173
_symmetry_space_group_name_H-M "P M M M"
_symmetry_group_IT_number 47
_symmetry_cell_setting 'orthorhombic'
loop_
_space_group_symop_operation_xyz
x,y,z
-x,-y,z
x,-y,-z
-x,y,-z
-x,-y,-z
x,y,-z
-x,y,z
x,-y,z
loop_
_atom_site_type_symbol
_atom_site_label
_atom_site_fract_x
_atom_site_fract_y
_atom_site_fract_z
Si Si1 0.325600 0.627980 0.320522
Si Si2 0.849434 0.215702 0.680401
Si Si3 0.443586 0.000000 0.676582
Si Si4 0.378009 0.178330 0.819408
Si Si5 0.196872 0.000000 0.181804
Si Si6 0.052576 0.124611 0.680606
Si Si7 0.303276 0.000000 0.179382
Si Si8 0.225318 0.630629 0.827008
O O1 0.324357 0.644363 0.500000
O O2 0.334949 0.500000 0.275149
O O3 0.369731 0.699025 0.250306
O O4 0.274343 0.668903 0.254698
O O5 0.843431 0.215417 0.500000
O O6 0.827160 0.107280 0.751525
O O7 0.905939 0.212164 0.729783
O O8 0.822326 0.322033 0.747177
O O9 0.424002 0.886502 0.752984
O O10 0.500000 0.000000 0.701943
O O11 0.429137 0.000000 0.500000
O O12 0.331329 0.109344 0.767054
O O13 0.384435 0.187162 0.000000
O O14 0.250644 0.000000 0.249022
O O15 0.194514 0.000000 0.000000
O O16 0.051620 0.117387 0.500000
O O17 0.000000 0.164696 0.740765
O O18 0.063578 0.000000 0.743930
O O19 0.300306 0.000000 0.000000
O O20 0.219532 0.500000 0.818806
O O21 0.228092 0.674504 0.000000
#
# Coordination Sequence:
#
# PCOD8196028 Si02
#       8
#     8   8   4   8   4   8   4   8
#     4  10  20  34  53  78 107 139 177 217 254 297
#     4  11  20  31  49  73  98 124 163 209 254 301
#     4  10  21  37  57  81 111 146 182 221 266 311
#     4  10  19  33  54  78 106 140 178 217 260 309
#     4  11  20  30  45  68 103 138 162 191 243 306
#     4   8  14  27  47  69  94 123 156 198 250 306
#     4   8  17  30  43  64  95 131 165 197 237 292
#     4  10  21  36  52  71 100 139 176 207 248 303
#
# _framework density 17.684498000000001
#
# number of rings (size 3 to 8) (size 9 to 14) (size 15 to 20)
#    0.000    2.231    0.769    4.154    0.000    3.692 
#    0.000    3.846    0.000    3.231    0.000    6.462 
#    0.000    0.000    0.000    0.000    0.000    0.000 
#
# Total GULP energy -644549.065856 kJ/mol
# GULP energy per Si atom -12395.174343 kJ/mol
# Density = 1.764425 g / cm^3
# Si number density = 17.684498 Si / 1000 Ang^3
#
#
#
# Elastic Constant Matrix: (Units=GPa)
#
#
# Indices 1 2 3 4 5 6 
#
# 1 114.7476 48.1208 48.1663 0.0000 0.0000 0.0000
# 2 48.1208 72.5744 40.6542 0.0000 0.0000 0.0000
# 3 48.1663 40.6542 92.7211 0.0000 0.0000 0.0000
# 4 0.0000 0.0000 0.0000 30.2709 0.0000 0.0000
# 5 0.0000 0.0000 0.0000 0.0000 15.7399 0.0000
# 6 0.0000 0.0000 0.0000 0.0000 0.0000 34.5653
#
#
#
# Elastic Compliance Matrix: (Units=1/GPa)
#
#
# Indices 1 2 3 4 5 6 
#
# 1 0.013087 -0.006455 -0.003969 0.000000 0.000000 0.000000
# 2 -0.006455 0.021448 -0.006051 0.000000 0.000000 0.000000
# 3 -0.003969 -0.006051 0.015500 0.000000 0.000000 0.000000
# 4 0.000000 0.000000 0.000000 0.033035 0.000000 0.000000
# 5 0.000000 0.000000 0.000000 0.000000 0.063533 0.000000
# 6 0.000000 0.000000 0.000000 0.000000 0.000000 0.028931
#
#
# Mechanical properties :
#
#
# Convention : Reuss Voigt Hill
#
# Bulk Modulus (GPa) = 58.52417 61.54730 60.03573
# Shear Modulus (GPa) = 23.34501 25.65535 24.50018
#
# Velocity S-wave (km/s) = 3.63724 3.81297 3.72614
# Velocity P-wave (km/s) = 7.12774 7.36638 7.24804
#
# Compressibility (1/GPa) = 0.01708696
#
# Stress axis : x y z
#
# Youngs Moduli (GPa) = 76.40924 46.62344 64.51715
#
# Poissons Ratio (x) = 0.30094 0.25604
# Poissons Ratio (y) = 0.49319 0.39041
# Poissons Ratio (z) = 0.30323 0.28213
#
# Static dielectric constant tensor:
#      x y z
#    x 3.533010 0.000000 0.000000 
#    y 0.000000 3.107810 0.000000 
#    z 0.000000 0.000000 3.250700 
# 
# 
# High freq. dielectric constant tensor:
#      x y z
#    x 1.677780 0.000000 0.000000 
#    y 0.000000 1.671190 0.000000 
#    z 0.000000 0.000000 1.680700 
# 
# From -- ./inp_files/13312.got.cif
#   From: 2010.03.12/outbox.cif.g09.slc.cpg/sg47_7_cif.got.tgz:13312.got - 2010.04.14 03:12:58.
