data_PCOD8196554
_publ_section_title
;
Structure prediction by ZEFSAII (Michael W. Deem and Ramdas Pophale) SiO2 
 PCOD8196554
Probable space group: P M M M
;
_chemical_formula_sum "Si O2"
_cell_formula_units_Z 64
_cell_length_a 20.214966
_cell_length_b 18.010729
_cell_length_c 8.930712
_cell_angle_alpha 90.000000
_cell_angle_beta 90.000000
_cell_angle_gamma 90.000000
_cell_volume 3251.549660
_symmetry_space_group_name_H-M "P M M M"
_symmetry_group_IT_number 47
_symmetry_cell_setting 'orthorhombic'
loop_
_space_group_symop_operation_xyz
x,y,z
-x,-y,z
x,-y,-z
-x,y,-z
-x,-y,-z
x,y,-z
-x,y,z
x,-y,z
loop_
_atom_site_type_symbol
_atom_site_label
_atom_site_fract_x
_atom_site_fract_y
_atom_site_fract_z
Si Si1 0.923616 0.625561 0.324220
Si Si2 0.743308 0.871333 0.327513
Si Si3 0.924197 0.229285 0.164350
Si Si4 0.382985 0.081835 0.829706
Si Si5 0.129037 0.079429 0.176816
Si Si6 0.572999 0.758022 0.827076
Si Si7 0.205342 0.417188 0.828170
Si Si8 0.703988 0.293315 0.675307
O O1 0.917074 0.613955 0.500000
O O2 0.900926 0.709160 0.282229
O O3 0.868699 0.576189 0.242235
O O4 0.000000 0.607277 0.274432
O O5 0.760891 0.884448 0.500000
O O6 0.675378 0.911749 0.289778
O O7 0.795707 0.911074 0.223001
O O8 0.741396 0.783651 0.289054
O O9 0.912194 0.148972 0.240378
O O10 0.000000 0.240693 0.134499
O O11 0.888621 0.237283 0.000000
O O12 0.429893 0.152556 0.798652
O O13 0.417272 0.000000 0.806480
O O14 0.355850 0.087257 0.000000
O O15 0.102241 0.000000 0.238837
O O16 0.122967 0.078989 0.000000
O O17 0.500000 0.728222 0.781372
O O18 0.628692 0.713698 0.734805
O O19 0.587846 0.741449 0.000000
O O20 0.235887 0.500000 0.814831
O O21 0.255213 0.360361 0.748549
O O22 0.197946 0.392603 0.000000
O O23 0.699910 0.309058 0.500000
#
# Coordination Sequence:
#
# PCOD8196554 Si02
#       8
#     8   8   8   8   8   8   8   8
#     4  10  21  37  58  84 114 147 181 217 258 310
#     4  10  20  32  47  69  96 129 172 216 259 312
#     4   9  18  33  52  71  93 127 171 217 264 314
#     4   9  17  29  46  70 102 139 178 221 268 315
#     4  10  20  31  44  65  93 126 167 218 273 321
#     4   9  18  33  54  80 110 146 187 230 276 324
#     4  11  24  40  60  87 116 144 175 214 261 315
#     4  10  21  37  58  82 109 143 181 223 269 320
#
# _framework density 19.682922999999999
#
# number of rings (size 3 to 8) (size 9 to 14) (size 15 to 20)
#    0.000    2.250    0.000    2.625    0.000    8.750 
#    0.000    3.750    0.000    0.375    0.000    8.750 
#    0.000    0.000    0.000    0.000    0.000    0.000 
#
# Total GULP energy -792952.080806 kJ/mol
# GULP energy per Si atom -12389.876263 kJ/mol
# Density = 1.963812 g / cm^3
# Si number density = 19.682923 Si / 1000 Ang^3
#
#
#
# Elastic Constant Matrix: (Units=GPa)
#
#
# Indices 1 2 3 4 5 6 
#
# 1 66.0238 38.8049 35.0190 0.0000 0.0000 0.0000
# 2 38.8049 101.0322 34.7165 0.0000 0.0000 0.0000
# 3 35.0190 34.7165 64.0157 0.0000 0.0000 0.0000
# 4 0.0000 0.0000 0.0000 19.6423 0.0000 0.0000
# 5 0.0000 0.0000 0.0000 0.0000 23.9064 0.0000
# 6 0.0000 0.0000 0.0000 0.0000 0.0000 8.1862
#
#
#
# Elastic Compliance Matrix: (Units=1/GPa)
#
#
# Indices 1 2 3 4 5 6 
#
# 1 0.023758 -0.005726 -0.009891 0.000000 0.000000 0.000000
# 2 -0.005726 0.013545 -0.004213 0.000000 0.000000 0.000000
# 3 -0.009891 -0.004213 0.023317 0.000000 0.000000 0.000000
# 4 0.000000 0.000000 0.000000 0.050910 0.000000 0.000000
# 5 0.000000 0.000000 0.000000 0.000000 0.041830 0.000000
# 6 0.000000 0.000000 0.000000 0.000000 0.000000 0.122157
#
#
# Mechanical properties :
#
#
# Convention : Reuss Voigt Hill
#
# Bulk Modulus (GPa) = 47.71280 49.79472 48.75376
# Shear Modulus (GPa) = 15.52007 18.51574 17.01790
#
# Velocity S-wave (km/s) = 2.81108 3.07041 2.94360
# Velocity P-wave (km/s) = 5.90166 6.15819 6.03129
#
# Compressibility (1/GPa) = 0.02095874
#
# Stress axis : x y z
#
# Youngs Moduli (GPa) = 42.09147 73.82853 42.88773
#
# Poissons Ratio (x) = 0.42276 0.42420
# Poissons Ratio (y) = 0.24103 0.18069
# Poissons Ratio (z) = 0.41633 0.31105
#
# Static dielectric constant tensor:
#      x y z
#    x 3.440020 0.000000 0.000000 
#    y 0.000000 3.821190 0.000000 
#    z 0.000000 0.000000 3.427160 
# 
# 
# High freq. dielectric constant tensor:
#      x y z
#    x 1.748150 0.000000 0.000000 
#    y 0.000000 1.764330 0.000000 
#    z 0.000000 0.000000 1.760790 
# 
# From -- ./inp_files/10026.got.cif
#   From: 2010.03.12/outbox.cif.g09.slc.cpg/sg47_6_cif.got.tgz:10026.got - 2010.04.14 03:12:58.
