data_PCOD8196463
_publ_section_title
;
Structure prediction by ZEFSAII (Michael W. Deem and Ramdas Pophale) SiO2 
 PCOD8196463
Probable space group: P M M M
;
_chemical_formula_sum "Si O2"
_cell_formula_units_Z 64
_cell_length_a 9.363723
_cell_length_b 28.480430
_cell_length_c 14.608566
_cell_angle_alpha 90.000000
_cell_angle_beta 90.000000
_cell_angle_gamma 90.000000
_cell_volume 3895.854124
_symmetry_space_group_name_H-M "P M M M"
_symmetry_group_IT_number 47
_symmetry_cell_setting 'orthorhombic'
loop_
_space_group_symop_operation_xyz
x,y,z
-x,-y,z
x,-y,-z
-x,y,-z
-x,-y,-z
x,y,-z
-x,y,z
x,-y,z
loop_
_atom_site_type_symbol
_atom_site_label
_atom_site_fract_x
_atom_site_fract_y
_atom_site_fract_z
Si Si1 0.666685 0.139782 0.104812
Si Si2 0.336571 0.594874 0.101055
Si Si3 0.843938 0.644329 0.350265
Si Si4 0.166190 0.447443 0.738392
Si Si5 0.840288 0.681747 0.146955
Si Si6 0.839491 0.051434 0.108692
Si Si7 0.331798 0.233304 0.792232
Si Si8 0.335664 0.728268 0.400602
O O1 0.500000 0.130239 0.107878
O O2 0.740282 0.093145 0.145855
O O3 0.710560 0.181847 0.172528
O O4 0.714905 0.150831 0.000000
O O5 0.500000 0.603659 0.133313
O O6 0.259849 0.559540 0.170679
O O7 0.253809 0.644263 0.092360
O O8 0.334117 0.571810 0.000000
O O9 0.789736 0.590108 0.340806
O O10 0.854442 0.664455 0.249380
O O11 0.738243 0.677229 0.406448
O O12 0.000000 0.645630 0.397535
O O13 0.192144 0.500000 0.700735
O O14 0.000000 0.439269 0.764578
O O15 0.756745 0.731071 0.144491
O O16 0.000000 0.687440 0.104367
O O17 0.000000 0.060495 0.143642
O O18 0.786572 0.000000 0.143806
O O19 0.834930 0.051595 0.000000
O O20 0.500000 0.242793 0.805796
O O21 0.285832 0.239061 0.684571
O O22 0.307597 0.753131 0.500000
O O23 0.500000 0.716654 0.386765
#
# Coordination Sequence:
#
# PCOD8196463 Si02
#       8
#     8   8   8   8   8   8   8   8
#     4   9  17  27  39  58  85 117 149 178 213 257
#     4  10  20  31  42  58  81 108 139 175 211 248
#     4   8  15  28  45  64  83 102 127 161 201 245
#     4   9  18  32  48  64  82 105 133 166 206 252
#     4   9  17  29  44  60  78 104 139 174 208 249
#     4   8  14  25  40  57  79 110 148 187 222 253
#     4   9  17  29  43  61  89 118 142 175 217 257
#     4   9  17  29  46  66  86 111 142 172 205 249
#
# _framework density 16.427719
#
# number of rings (size 3 to 8) (size 9 to 14) (size 15 to 20)
#    0.000    3.125    0.000    1.875    0.000    6.000 
#    0.000    3.750    0.000    0.375    0.000    2.625 
#    0.000    0.500    0.000    6.250    0.000    1.250 
#
# Total GULP energy -792955.616034 kJ/mol
# GULP energy per Si atom -12389.931501 kJ/mol
# Density = 1.639033 g / cm^3
# Si number density = 16.427719 Si / 1000 Ang^3
#
#
#
# Elastic Constant Matrix: (Units=GPa)
#
#
# Indices 1 2 3 4 5 6 
#
# 1 58.6107 40.7724 17.2162 0.0000 0.0000 0.0000
# 2 40.7724 130.5238 30.8004 0.0000 0.0000 0.0000
# 3 17.2162 30.8004 52.6620 0.0000 0.0000 0.0000
# 4 0.0000 0.0000 0.0000 12.6219 0.0000 0.0000
# 5 0.0000 0.0000 0.0000 0.0000 8.6798 0.0000
# 6 0.0000 0.0000 0.0000 0.0000 0.0000 28.5584
#
#
#
# Elastic Compliance Matrix: (Units=1/GPa)
#
#
# Indices 1 2 3 4 5 6 
#
# 1 0.022420 -0.006118 -0.003751 0.000000 0.000000 0.000000
# 2 -0.006118 0.010558 -0.004175 0.000000 0.000000 0.000000
# 3 -0.003751 -0.004175 0.022657 0.000000 0.000000 0.000000
# 4 0.000000 0.000000 0.000000 0.079228 0.000000 0.000000
# 5 0.000000 0.000000 0.000000 0.000000 0.115210 0.000000
# 6 0.000000 0.000000 0.000000 0.000000 0.000000 0.035016
#
#
# Mechanical properties :
#
#
# Convention : Reuss Voigt Hill
#
# Bulk Modulus (GPa) = 36.30241 46.59717 41.44979
# Shear Modulus (GPa) = 15.51069 20.17252 17.84160
#
# Velocity S-wave (km/s) = 3.07608 3.50802 3.29913
# Velocity P-wave (km/s) = 5.89598 6.69588 6.30862
#
# Compressibility (1/GPa) = 0.02754638
#
# Stress axis : x y z
#
# Youngs Moduli (GPa) = 44.60372 94.71717 44.13651
#
# Poissons Ratio (x) = 0.57950 0.16556
# Poissons Ratio (y) = 0.27289 0.18426
# Poissons Ratio (z) = 0.16731 0.39542
#
# Static dielectric constant tensor:
#      x y z
#    x 3.275780 0.000000 0.000000 
#    y 0.000000 3.272710 0.000000 
#    z 0.000000 0.000000 2.924600 
# 
# 
# High freq. dielectric constant tensor:
#      x y z
#    x 1.636280 0.000000 0.000000 
#    y 0.000000 1.617720 0.000000 
#    z 0.000000 0.000000 1.595930 
# 
# From -- ./inp_files/22146.got.cif
#   From: 2010.03.12/outbox.cif.g09.slc.cpg/sg47_12_cif.got.tgz:22146.got - 2010.04.14 03:12:58.
