data_PCOD8196870
_publ_section_title
;
Structure prediction by ZEFSAII (Michael W. Deem and Ramdas Pophale) SiO2 
 PCOD8196870
Probable space group: P M M M
;
_chemical_formula_sum "Si O2"
_cell_formula_units_Z 56
_cell_length_a 9.113529
_cell_length_b 21.289803
_cell_length_c 18.477932
_cell_angle_alpha 90.000000
_cell_angle_beta 90.000000
_cell_angle_gamma 90.000000
_cell_volume 3585.185136
_symmetry_space_group_name_H-M "P M M M"
_symmetry_group_IT_number 47
_symmetry_cell_setting 'orthorhombic'
loop_
_space_group_symop_operation_xyz
x,y,z
-x,-y,z
x,-y,-z
-x,y,-z
-x,-y,-z
x,y,-z
-x,y,z
x,-y,z
loop_
_atom_site_type_symbol
_atom_site_label
_atom_site_fract_x
_atom_site_fract_y
_atom_site_fract_z
Si Si1 0.327078 0.188028 0.294669
Si Si2 0.331540 0.930379 0.200477
Si Si3 0.664960 0.500000 0.085925
Si Si4 0.828745 0.873779 0.584498
Si Si5 0.664721 0.000000 0.414554
Si Si6 0.827781 0.376331 0.916930
Si Si7 0.172110 0.865954 0.080896
Si Si8 0.171879 0.254803 0.827751
O O1 0.500000 0.197822 0.305054
O O2 0.283539 0.121841 0.257893
O O3 0.246655 0.184307 0.372579
O O4 0.262066 0.245048 0.246777
O O5 0.500000 0.921267 0.179941
O O6 0.242067 0.922480 0.126297
O O7 0.300651 0.000000 0.232710
O O8 0.500000 0.500000 0.116475
O O9 0.747017 0.562150 0.113857
O O10 0.667754 0.500000 0.000000
O O11 0.803483 0.860848 0.500000
O O12 0.000000 0.878386 0.603403
O O13 0.751773 0.938253 0.610154
O O14 0.500000 0.000000 0.379708
O O15 0.650298 0.000000 0.500000
O O16 0.779497 0.319515 0.865143
O O17 0.000000 0.388685 0.912478
O O18 0.782520 0.361163 0.000000
O O19 0.214458 0.799387 0.115912
O O20 0.000000 0.876172 0.080162
O O21 0.236399 0.867090 0.000000
O O22 0.000000 0.254103 0.809225
#
# Coordination Sequence:
#
# PCOD8196870 Si02
#       8
#     8   8   4   8   4   8   8   8
#     4  10  20  32  47  64  84 111 143 178 217 264
#     4   9  19  33  44  56  76 103 134 169 213 262
#     4   9  17  27  39  61  93 123 150 185 226 261
#     4  10  20  33  48  67  89 111 138 174 216 263
#     4   9  17  29  45  65  87 109 134 165 206 259
#     4   9  16  27  45  66  88 119 157 191 223 262
#     4   9  17  29  44  61  79  99 131 176 219 259
#     4   9  17  30  46  63  85 113 145 181 221 260
#
# _framework density 15.619834000000001
#
# number of rings (size 3 to 8) (size 9 to 14) (size 15 to 20)
#    0.000    2.714    0.000    1.714    1.000    6.286 
#    0.000    1.429    0.000    2.571    0.000    0.000 
#    0.000    0.000    0.000    0.643    0.000   12.429 
#
# Total GULP energy -694345.040670 kJ/mol
# GULP energy per Si atom -12399.018583 kJ/mol
# Density = 1.558428 g / cm^3
# Si number density = 15.619834 Si / 1000 Ang^3
#
#
#
# Elastic Constant Matrix: (Units=GPa)
#
#
# Indices 1 2 3 4 5 6 
#
# 1 69.5812 35.7628 37.3343 0.0000 0.0000 0.0000
# 2 35.7628 85.6154 30.0877 0.0000 0.0000 0.0000
# 3 37.3343 30.0877 64.9858 0.0000 0.0000 0.0000
# 4 0.0000 0.0000 0.0000 18.8585 0.0000 0.0000
# 5 0.0000 0.0000 0.0000 0.0000 22.3438 0.0000
# 6 0.0000 0.0000 0.0000 0.0000 0.0000 20.7030
#
#
#
# Elastic Compliance Matrix: (Units=1/GPa)
#
#
# Indices 1 2 3 4 5 6 
#
# 1 0.023057 -0.005943 -0.010495 0.000000 0.000000 0.000000
# 2 -0.005943 0.015482 -0.003754 0.000000 0.000000 0.000000
# 3 -0.010495 -0.003754 0.023155 0.000000 0.000000 0.000000
# 4 0.000000 0.000000 0.000000 0.053026 0.000000 0.000000
# 5 0.000000 0.000000 0.000000 0.000000 0.044755 0.000000
# 6 0.000000 0.000000 0.000000 0.000000 0.000000 0.048302
#
#
# Mechanical properties :
#
#
# Convention : Reuss Voigt Hill
#
# Bulk Modulus (GPa) = 46.92376 47.39466 47.15921
# Shear Modulus (GPa) = 19.58749 20.18091 19.88420
#
# Velocity S-wave (km/s) = 3.54505 3.59835 3.57180
# Velocity P-wave (km/s) = 6.84564 6.90454 6.87515
#
# Compressibility (1/GPa) = 0.02131117
#
# Stress axis : x y z
#
# Youngs Moduli (GPa) = 43.36995 64.59192 43.18707
#
# Poissons Ratio (x) = 0.38389 0.45324
# Poissons Ratio (y) = 0.25776 0.16210
# Poissons Ratio (z) = 0.45516 0.24245
#
# Static dielectric constant tensor:
#      x y z
#    x 3.020470 0.000000 0.000000 
#    y 0.000000 2.857580 0.000000 
#    z 0.000000 0.000000 2.940010 
# 
# 
# High freq. dielectric constant tensor:
#      x y z
#    x 1.606180 0.000000 0.000000 
#    y 0.000000 1.567670 0.000000 
#    z 0.000000 0.000000 1.582940 
# 
# From -- ./inp_files/30109.got.cif
#   From: 2010.03.12/outbox.cif.g09.slc.cpg/sg47_16_cif.got.tgz:30109.got - 2010.04.14 03:12:58.
