data_PCOD8196785
_publ_section_title
;
Structure prediction by ZEFSAII (Michael W. Deem and Ramdas Pophale) SiO2 
 PCOD8196785
Probable space group: P M M M
;
_chemical_formula_sum "Si O2"
_cell_formula_units_Z 64
_cell_length_a 26.652070
_cell_length_b 9.345313
_cell_length_c 17.938136
_cell_angle_alpha 90.000000
_cell_angle_beta 90.000000
_cell_angle_gamma 90.000000
_cell_volume 4467.886266
_symmetry_space_group_name_H-M "P M M M"
_symmetry_group_IT_number 47
_symmetry_cell_setting 'orthorhombic'
loop_
_space_group_symop_operation_xyz
x,y,z
-x,-y,z
x,-y,-z
-x,y,-z
-x,-y,-z
x,y,-z
-x,y,z
x,-y,z
loop_
_atom_site_type_symbol
_atom_site_label
_atom_site_fract_x
_atom_site_fract_y
_atom_site_fract_z
Si Si1 0.647324 0.164738 0.586535
Si Si2 0.556845 0.332835 0.349583
Si Si3 0.752615 0.832611 0.174168
Si Si4 0.945009 0.338725 0.911441
Si Si5 0.604134 0.342529 0.201897
Si Si6 0.295378 0.338671 0.296904
Si Si7 0.653236 0.833257 0.083885
Si Si8 0.149387 0.832171 0.914694
O O1 0.660362 0.173552 0.500000
O O2 0.593120 0.236498 0.600267
O O3 0.691638 0.249001 0.628949
O O4 0.645435 0.000000 0.614088
O O5 0.500000 0.302750 0.374977
O O6 0.571349 0.500000 0.360551
O O7 0.562211 0.292536 0.261655
O O8 0.747980 0.742725 0.250572
O O9 0.707417 0.796985 0.117829
O O10 0.803359 0.782768 0.133942
O O11 0.753176 0.000000 0.194308
O O12 0.935155 0.500000 0.884049
O O13 0.900565 0.239502 0.880040
O O14 0.000000 0.286675 0.882571
O O15 0.944853 0.331466 0.000000
O O16 0.591474 0.500000 0.170770
O O17 0.655885 0.343928 0.246242
O O18 0.608311 0.237526 0.131539
O O19 0.277856 0.500000 0.317680
O O20 0.642559 0.000000 0.084746
O O21 0.651885 0.772426 0.000000
O O22 0.141375 0.000000 0.910124
O O23 0.158831 0.783729 0.000000
#
# Coordination Sequence:
#
# PCOD8196785 Si02
#       8
#     8   8   8   8   8   8   8   8
#     4  10  20  32  46  65  87 107 127 152 181 216
#     4   9  18  32  48  64  82 104 128 154 185 221
#     4   9  16  26  39  55  78 104 128 159 199 238
#     4   8  14  24  35  46  64  94 132 173 215 253
#     4   8  15  27  41  57  75  95 122 154 185 220
#     4   9  17  29  44  60  78 102 131 158 184 221
#     4   9  16  25  38  55  74  97 124 154 190 231
#     4   9  16  24  35  53  76 102 134 172 211 247
#
# _framework density 14.324448
#
# number of rings (size 3 to 8) (size 9 to 14) (size 15 to 20)
#    0.000    3.125    0.000    2.250    0.000    7.000 
#    0.000    2.500    0.000    2.625    0.000    2.625 
#    0.000    0.000    0.000    0.000    0.000    0.625 
#
# Total GULP energy -793269.535778 kJ/mol
# GULP energy per Si atom -12394.836497 kJ/mol
# Density = 1.429184 g / cm^3
# Si number density = 14.324448 Si / 1000 Ang^3
#
#
#
# Elastic Constant Matrix: (Units=GPa)
#
#
# Indices 1 2 3 4 5 6 
#
# 1 58.0655 32.1551 28.4430 0.0000 0.0000 0.0000
# 2 32.1551 67.4163 40.5532 0.0000 0.0000 0.0000
# 3 28.4430 40.5532 67.1324 0.0000 0.0000 0.0000
# 4 0.0000 0.0000 0.0000 19.1301 0.0000 0.0000
# 5 0.0000 0.0000 0.0000 0.0000 11.2564 0.0000
# 6 0.0000 0.0000 0.0000 0.0000 0.0000 21.9842
#
#
#
# Elastic Compliance Matrix: (Units=1/GPa)
#
#
# Indices 1 2 3 4 5 6 
#
# 1 0.024515 -0.008553 -0.005220 0.000000 0.000000 0.000000
# 2 -0.008553 0.026284 -0.012254 0.000000 0.000000 0.000000
# 3 -0.005220 -0.012254 0.024510 0.000000 0.000000 0.000000
# 4 0.000000 0.000000 0.000000 0.052274 0.000000 0.000000
# 5 0.000000 0.000000 0.000000 0.000000 0.088838 0.000000
# 6 0.000000 0.000000 0.000000 0.000000 0.000000 0.045487
#
#
# Mechanical properties :
#
#
# Convention : Reuss Voigt Hill
#
# Bulk Modulus (GPa) = 43.00071 43.87963 43.44017
# Shear Modulus (GPa) = 15.54181 16.57167 16.05674
#
# Velocity S-wave (km/s) = 3.29748 3.40498 3.35167
# Velocity P-wave (km/s) = 6.67699 6.79395 6.73572
#
# Compressibility (1/GPa) = 0.02325543
#
# Stress axis : x y z
#
# Youngs Moduli (GPa) = 40.79081 38.04665 40.80000
#
# Poissons Ratio (x) = 0.32540 0.21299
# Poissons Ratio (y) = 0.34887 0.49995
# Poissons Ratio (z) = 0.21294 0.46621
#
# Static dielectric constant tensor:
#      x y z
#    x 2.817660 0.000000 0.000000 
#    y 0.000000 2.931820 0.000000 
#    z 0.000000 0.000000 2.673750 
# 
# 
# High freq. dielectric constant tensor:
#      x y z
#    x 1.520310 0.000000 0.000000 
#    y 0.000000 1.553310 0.000000 
#    z 0.000000 0.000000 1.517170 
# 
# From -- ./inp_files/10257.got.cif
#   From: 2010.03.12/outbox.cif.g09.slc.cpg/sg47_6_cif.got.tgz:10257.got - 2010.04.14 03:12:58.
