data_PCOD8196987
_publ_section_title
;
Structure prediction by ZEFSAII (Michael W. Deem and Ramdas Pophale) SiO2 
 PCOD8196987
Probable space group: P M M M
;
_chemical_formula_sum "Si O2"
_cell_formula_units_Z 52
_cell_length_a 11.621103
_cell_length_b 9.427333
_cell_length_c 27.789281
_cell_angle_alpha 90.000000
_cell_angle_beta 90.000000
_cell_angle_gamma 90.000000
_cell_volume 3044.482686
_symmetry_space_group_name_H-M "P M M M"
_symmetry_group_IT_number 47
_symmetry_cell_setting 'orthorhombic'
loop_
_space_group_symop_operation_xyz
x,y,z
-x,-y,z
x,-y,-z
-x,y,-z
-x,-y,-z
x,y,-z
-x,y,z
x,-y,z
loop_
_atom_site_type_symbol
_atom_site_label
_atom_site_fract_x
_atom_site_fract_y
_atom_site_fract_z
Si Si1 0.134369 0.663802 0.285925
Si Si2 0.137200 0.839975 0.896579
Si Si3 0.500000 0.334869 0.211000
Si Si4 0.125751 0.168091 0.000000
Si Si5 0.367626 0.663338 0.555458
Si Si6 0.500000 0.158223 0.694748
Si Si7 0.268038 0.164504 0.362488
Si Si8 0.749518 0.666141 0.812971
O O1 0.164582 0.500000 0.296993
O O2 0.169601 0.759282 0.331288
O O3 0.202152 0.717788 0.238545
O O4 0.000000 0.684372 0.275900
O O5 0.187377 0.789942 0.949318
O O6 0.183692 0.738522 0.855902
O O7 0.000000 0.831697 0.898017
O O8 0.177463 0.000000 0.885062
O O9 0.500000 0.500000 0.221616
O O10 0.500000 0.268008 0.262883
O O11 0.614917 0.291407 0.182111
O O12 0.000000 0.240073 0.000000
O O13 0.110567 0.000000 0.000000
O O14 0.334099 0.684331 0.500000
O O15 0.500000 0.709508 0.563878
O O16 0.351409 0.500000 0.570912
O O17 0.280006 0.761008 0.585658
O O18 0.610646 0.185796 0.662852
O O19 0.500000 0.000000 0.716333
O O20 0.234839 0.000000 0.369210
O O21 0.770408 0.500000 0.818322
#
# Coordination Sequence:
#
# PCOD8196987 Si02
#       8
#     8   8   4   4   8   4   8   8
#     4  10  21  36  53  73  98 132 172 208 244 292
#     4   9  17  30  50  74  99 129 163 201 247 295
#     4  10  20  34  52  70  94 132 171 203 241 290
#     4   7  12  26  47  70  95 124 162 203 242 289
#     4   9  18  32  51  76 104 134 168 204 244 293
#     4  10  20  32  47  73 103 130 164 204 244 288
#     4  11  21  33  51  76 106 135 163 203 252 297
#     4  10  20  33  50  73 100 129 163 204 247 292
#
# _framework density 17.080078
#
# number of rings (size 3 to 8) (size 9 to 14) (size 15 to 20)
#    0.000    2.385    2.308    2.308    0.000    3.385 
#    0.000    1.154    0.000    2.308    0.000    6.462 
#    0.000    0.000    0.000    0.000    0.000    0.000 
#
# Total GULP energy -644586.015047 kJ/mol
# GULP energy per Si atom -12395.884905 kJ/mol
# Density = 1.704120 g / cm^3
# Si number density = 17.080078 Si / 1000 Ang^3
#
#
#
# Elastic Constant Matrix: (Units=GPa)
#
#
# Indices 1 2 3 4 5 6 
#
# 1 57.9264 28.4660 29.4062 0.0000 0.0000 0.0000
# 2 28.4660 58.4322 51.7977 0.0000 0.0000 0.0000
# 3 29.4062 51.7977 117.1355 0.0000 0.0000 0.0000
# 4 0.0000 0.0000 0.0000 26.1449 0.0000 0.0000
# 5 0.0000 0.0000 0.0000 0.0000 27.0562 0.0000
# 6 0.0000 0.0000 0.0000 0.0000 0.0000 23.4020
#
#
#
# Elastic Compliance Matrix: (Units=1/GPa)
#
#
# Indices 1 2 3 4 5 6 
#
# 1 0.022824 -0.009934 -0.001337 0.000000 0.000000 0.000000
# 2 -0.009934 0.032471 -0.011865 0.000000 0.000000 0.000000
# 3 -0.001337 -0.011865 0.014120 0.000000 0.000000 0.000000
# 4 0.000000 0.000000 0.000000 0.038248 0.000000 0.000000
# 5 0.000000 0.000000 0.000000 0.000000 0.036960 0.000000
# 6 0.000000 0.000000 0.000000 0.000000 0.000000 0.042731
#
#
# Mechanical properties :
#
#
# Convention : Reuss Voigt Hill
#
# Bulk Modulus (GPa) = 43.21000 50.31489 46.76245
# Shear Modulus (GPa) = 20.71773 23.57558 22.14666
#
# Velocity S-wave (km/s) = 3.48656 3.71927 3.60479
# Velocity P-wave (km/s) = 6.44682 6.92576 6.69058
#
# Compressibility (1/GPa) = 0.02314279
#
# Stress axis : x y z
#
# Youngs Moduli (GPa) = 43.81439 30.79681 70.82395
#
# Poissons Ratio (x) = 0.30592 0.09470
# Poissons Ratio (y) = 0.43523 0.84032
# Poissons Ratio (z) = 0.05858 0.36540
#
# Static dielectric constant tensor:
#      x y z
#    x 3.080750 0.000000 0.000000 
#    y 0.000000 3.137120 0.000000 
#    z 0.000000 0.000000 3.276620 
# 
# 
# High freq. dielectric constant tensor:
#      x y z
#    x 1.634790 0.000000 0.000000 
#    y 0.000000 1.651930 0.000000 
#    z 0.000000 0.000000 1.661760 
# 
# From -- ./inp_files/33618.got.cif
#   From: 2010.03.12/outbox.cif.g09.slc.cpg/sg47_17_cif.got.tgz:33618.got - 2010.04.14 03:12:58.
