data_PCOD8196584
_publ_section_title
;
Structure prediction by ZEFSAII (Michael W. Deem and Ramdas Pophale) SiO2 
 PCOD8196584
Probable space group: P M M M
;
_chemical_formula_sum "Si O2"
_cell_formula_units_Z 64
_cell_length_a 15.774051
_cell_length_b 22.977238
_cell_length_c 9.537354
_cell_angle_alpha 90.000000
_cell_angle_beta 90.000000
_cell_angle_gamma 90.000000
_cell_volume 3456.757916
_symmetry_space_group_name_H-M "P M M M"
_symmetry_group_IT_number 47
_symmetry_cell_setting 'orthorhombic'
loop_
_space_group_symop_operation_xyz
x,y,z
-x,-y,z
x,-y,-z
-x,y,-z
-x,-y,-z
x,y,-z
-x,y,z
x,-y,z
loop_
_atom_site_type_symbol
_atom_site_label
_atom_site_fract_x
_atom_site_fract_y
_atom_site_fract_z
Si Si1 0.096770 0.622531 0.163948
Si Si2 0.402804 0.340681 0.164671
Si Si3 0.814422 0.163814 0.659347
Si Si4 0.731905 0.564203 0.834114
Si Si5 0.903092 0.727342 0.347118
Si Si6 0.359320 0.771772 0.341630
Si Si7 0.592886 0.102294 0.659321
Si Si8 0.253826 0.065779 0.838606
O O1 0.169252 0.576277 0.207225
O O2 0.131286 0.681949 0.233794
O O3 0.000000 0.603642 0.209953
O O4 0.097033 0.634313 0.000000
O O5 0.500000 0.360241 0.195600
O O6 0.336958 0.389330 0.224588
O O7 0.384201 0.279371 0.237321
O O8 0.388599 0.331363 0.000000
O O9 0.818393 0.140167 0.500000
O O10 0.893368 0.205104 0.699602
O O11 0.736823 0.208118 0.681859
O O12 0.812286 0.108600 0.762147
O O13 0.709788 0.500000 0.774255
O O14 0.723708 0.564220 0.000000
O O15 0.857960 0.718708 0.500000
O O16 0.000000 0.712948 0.364868
O O17 0.375158 0.749709 0.500000
O O18 0.415101 0.828954 0.308702
O O19 0.627474 0.093838 0.500000
O O20 0.500000 0.074243 0.676236
O O21 0.654709 0.069845 0.765685
O O22 0.219640 0.000000 0.825595
O O23 0.263004 0.084479 0.000000
#
# Coordination Sequence:
#
# PCOD8196584 Si02
#       8
#     8   8   8   8   8   8   8   8
#     4   9  17  29  48  75 101 123 151 188 232 286
#     4  10  20  31  45  67  91 118 157 201 241 281
#     4   9  18  32  50  71  94 123 158 192 228 278
#     4   9  18  32  48  66  91 124 161 200 237 273
#     4   9  17  30  50  76 103 126 148 181 230 285
#     4   9  17  30  48  69  93 120 150 186 232 283
#     4   9  18  32  49  69  93 122 156 192 233 286
#     4  10  21  34  47  66  92 123 160 199 237 275
#
# _framework density 18.514457
#
# number of rings (size 3 to 8) (size 9 to 14) (size 15 to 20)
#    0.000    2.750    0.000    2.250    0.000    5.250 
#    0.000    3.750    0.000    1.875    0.000    5.250 
#    0.000    0.000    0.000    0.000    0.000    0.000 
#
# Total GULP energy -792966.179836 kJ/mol
# GULP energy per Si atom -12390.096560 kJ/mol
# Density = 1.847232 g / cm^3
# Si number density = 18.514457 Si / 1000 Ang^3
#
#
#
# Elastic Constant Matrix: (Units=GPa)
#
#
# Indices 1 2 3 4 5 6 
#
# 1 50.6011 29.3098 21.0562 0.0000 0.0000 0.0000
# 2 29.3098 100.9154 45.6446 0.0000 0.0000 0.0000
# 3 21.0562 45.6446 65.1456 0.0000 0.0000 0.0000
# 4 0.0000 0.0000 0.0000 11.2723 0.0000 0.0000
# 5 0.0000 0.0000 0.0000 0.0000 15.4539 0.0000
# 6 0.0000 0.0000 0.0000 0.0000 0.0000 8.9218
#
#
#
# Elastic Compliance Matrix: (Units=1/GPa)
#
#
# Indices 1 2 3 4 5 6 
#
# 1 0.024557 -0.005186 -0.004304 0.000000 0.000000 0.000000
# 2 -0.005186 0.015602 -0.009255 0.000000 0.000000 0.000000
# 3 -0.004304 -0.009255 0.023226 0.000000 0.000000 0.000000
# 4 0.000000 0.000000 0.000000 0.088713 0.000000 0.000000
# 5 0.000000 0.000000 0.000000 0.000000 0.064709 0.000000
# 6 0.000000 0.000000 0.000000 0.000000 0.000000 0.112085
#
#
# Mechanical properties :
#
#
# Convention : Reuss Voigt Hill
#
# Bulk Modulus (GPa) = 38.61733 45.40922 42.01327
# Shear Modulus (GPa) = 13.33289 15.17304 14.25297
#
# Velocity S-wave (km/s) = 2.68644 2.86584 2.77759
# Velocity P-wave (km/s) = 5.52502 5.96073 5.74701
#
# Compressibility (1/GPa) = 0.02589511
#
# Stress axis : x y z
#
# Youngs Moduli (GPa) = 40.72154 64.09595 43.05504
#
# Poissons Ratio (x) = 0.33238 0.18530
# Poissons Ratio (y) = 0.21117 0.39849
# Poissons Ratio (z) = 0.17526 0.59322
#
# Static dielectric constant tensor:
#      x y z
#    x 3.611760 0.000000 0.000000 
#    y 0.000000 3.400100 0.000000 
#    z 0.000000 0.000000 3.426720 
# 
# 
# High freq. dielectric constant tensor:
#      x y z
#    x 1.711760 0.000000 0.000000 
#    y 0.000000 1.710060 0.000000 
#    z 0.000000 0.000000 1.698720 
# 
# From -- ./inp_files/10016.got.cif
#   From: 2010.03.12/outbox.cif.g09.slc.cpg/sg47_6_cif.got.tgz:10016.got - 2010.04.14 03:12:58.
