data_PCOD8196600
_publ_section_title
;
Structure prediction by ZEFSAII (Michael W. Deem and Ramdas Pophale) SiO2 
 PCOD8196600
Probable space group: P M M M
;
_chemical_formula_sum "Si O2"
_cell_formula_units_Z 56
_cell_length_a 9.293629
_cell_length_b 23.177726
_cell_length_c 14.729307
_cell_angle_alpha 90.000000
_cell_angle_beta 90.000000
_cell_angle_gamma 90.000000
_cell_volume 3172.769121
_symmetry_space_group_name_H-M "P M M M"
_symmetry_group_IT_number 47
_symmetry_cell_setting 'orthorhombic'
loop_
_space_group_symop_operation_xyz
x,y,z
-x,-y,z
x,-y,-z
-x,y,-z
-x,-y,-z
x,y,-z
-x,y,z
x,-y,z
loop_
_atom_site_type_symbol
_atom_site_label
_atom_site_fract_x
_atom_site_fract_y
_atom_site_fract_z
Si Si1 0.833508 0.067038 0.103295
Si Si2 0.836707 0.746474 0.893732
Si Si3 0.833065 0.385473 0.102813
Si Si4 0.670956 0.658893 0.600928
Si Si5 0.667570 0.435330 0.261317
Si Si6 0.329376 0.787770 0.399535
Si Si7 0.329362 0.159710 0.214823
O O1 0.739577 0.101585 0.175864
O O2 0.000000 0.082714 0.117846
O O3 0.805502 0.000000 0.121450
O O4 0.788612 0.083033 0.000000
O O5 0.800968 0.680561 0.869912
O O6 0.723298 0.785374 0.841203
O O7 0.000000 0.761976 0.864545
O O8 0.818374 0.758149 0.000000
O O9 0.743036 0.428494 0.164643
O O10 0.000000 0.399418 0.114886
O O11 0.784343 0.396662 0.000000
O O12 0.723488 0.642723 0.500000
O O13 0.500000 0.656993 0.605743
O O14 0.735830 0.611004 0.668753
O O15 0.727034 0.723328 0.625303
O O16 0.500000 0.423624 0.247016
O O17 0.695151 0.500000 0.298222
O O18 0.271270 0.806761 0.500000
O O19 0.500000 0.785187 0.403698
O O20 0.281094 0.832160 0.320509
O O21 0.500000 0.155269 0.205694
#
# Coordination Sequence:
#
# PCOD8196600 Si02
#       7
#     8   8   8   8   8   8   8
#     4   9  19  36  54  70  95 136 176 201 228 272
#     4   9  18  32  48  67  94 126 156 188 233 289
#     4   9  19  35  51  65  85 120 163 198 229 275
#     4   8  14  27  47  68  92 123 155 187 228 282
#     4  10  20  31  45  69  96 118 147 193 245 290
#     4   8  15  28  45  67  96 127 156 188 232 286
#     4  11  20  28  47  78 104 126 156 197 241 279
#
# _framework density 17.650198
#
# number of rings (size 3 to 8) (size 9 to 14) (size 15 to 20)
#    0.000    2.857    0.000    3.857    0.000    5.429 
#    0.000    5.000    0.000    2.571    0.000   10.000 
#    0.000    0.000    0.000    0.000    0.000    0.000 
#
# Total GULP energy -694154.374630 kJ/mol
# GULP energy per Si atom -12395.613833 kJ/mol
# Density = 1.761002 g / cm^3
# Si number density = 17.650198 Si / 1000 Ang^3
#
#
#
# Elastic Constant Matrix: (Units=GPa)
#
#
# Indices 1 2 3 4 5 6 
#
# 1 44.1656 36.2034 40.4569 0.0000 0.0000 0.0000
# 2 36.2034 85.2413 69.2532 0.0000 0.0000 0.0000
# 3 40.4569 69.2532 118.6492 0.0000 0.0000 0.0000
# 4 0.0000 0.0000 0.0000 28.3090 0.0000 0.0000
# 5 0.0000 0.0000 0.0000 0.0000 -0.7750 0.0000
# 6 0.0000 0.0000 0.0000 0.0000 0.0000 27.2328
#
#
#
# Elastic Compliance Matrix: (Units=1/GPa)
#
#
# Indices 1 2 3 4 5 6 
#
# 1 0.037266 -0.010468 -0.006597 0.000000 0.000000 0.000000
# 2 -0.010468 0.025252 -0.011170 0.000000 0.000000 0.000000
# 3 -0.006597 -0.011170 0.017197 0.000000 0.000000 0.000000
# 4 0.000000 0.000000 0.000000 0.035324 0.000000 0.000000
# 5 0.000000 0.000000 0.000000 0.000000 -1.290256 0.000000
# 6 0.000000 0.000000 0.000000 0.000000 0.000000 0.036720
#
#
# Mechanical properties :
#
#
# Convention : Reuss Voigt Hill
#
# Bulk Modulus (GPa) = 43.01844 59.98701 51.50272
# Shear Modulus (GPa) = -4.65428 17.76286 6.55429
#
# Velocity S-wave (km/s) = -1.62563 3.17580 1.92912
# Velocity P-wave (km/s) = 4.57188 6.89260 5.84851
#
# Compressibility (1/GPa) = 0.02324585
#
# Stress axis : x y z
#
# Youngs Moduli (GPa) = 26.83438 39.60082 58.14877
#
# Poissons Ratio (x) = 0.41453 0.38361
# Poissons Ratio (y) = 0.28089 0.64951
# Poissons Ratio (z) = 0.17703 0.44234
#
# Static dielectric constant tensor:
#      x y z
#    x 2.942830 0.000000 0.000000 
#    y 0.000000 3.252630 0.000000 
#    z 0.000000 0.000000 3.522110 
# 
# 
# High freq. dielectric constant tensor:
#      x y z
#    x 1.650530 0.000000 0.000000 
#    y 0.000000 1.675310 0.000000 
#    z 0.000000 0.000000 1.684720 
# 
# From -- ./inp_files/21578.got.cif
#   From: 2010.03.12/outbox.cif.g09.slc.cpg/sg47_11_cif.got.tgz:21578.got - 2010.04.14 03:12:58.
