data_PCOD8196319
_publ_section_title
;
Structure prediction by ZEFSAII (Michael W. Deem and Ramdas Pophale) SiO2 
 PCOD8196319
Probable space group: P M M M
;
_chemical_formula_sum "Si O2"
_cell_formula_units_Z 48
_cell_length_a 15.471778
_cell_length_b 8.919784
_cell_length_c 17.793946
_cell_angle_alpha 90.000000
_cell_angle_beta 90.000000
_cell_angle_gamma 90.000000
_cell_volume 2455.652056
_symmetry_space_group_name_H-M "P M M M"
_symmetry_group_IT_number 47
_symmetry_cell_setting 'orthorhombic'
loop_
_space_group_symop_operation_xyz
x,y,z
-x,-y,z
x,-y,-z
-x,y,-z
-x,-y,-z
x,y,-z
-x,y,z
x,-y,z
loop_
_atom_site_type_symbol
_atom_site_label
_atom_site_fract_x
_atom_site_fract_y
_atom_site_fract_z
Si Si1 0.097219 0.822351 0.646331
Si Si2 0.261396 0.674172 0.415680
Si Si3 0.403269 0.326116 0.702674
Si Si4 0.397949 0.329259 0.000000
Si Si5 0.661329 0.178027 0.847388
Si Si6 0.000000 0.179096 0.916644
Si Si7 0.852292 0.822117 0.809963
O O1 0.168878 0.754501 0.591438
O O2 0.116262 0.760202 0.729799
O O3 0.000000 0.773348 0.622167
O O4 0.105614 0.000000 0.643519
O O5 0.295923 0.703185 0.500000
O O6 0.246484 0.500000 0.400552
O O7 0.333598 0.737244 0.357644
O O8 0.500000 0.304224 0.669581
O O9 0.385196 0.500000 0.719742
O O10 0.399552 0.235994 0.780682
O O11 0.364216 0.245639 0.926762
O O12 0.364495 0.500000 0.000000
O O13 0.500000 0.323013 0.000000
O O14 0.757025 0.235877 0.827839
O O15 0.654598 0.000000 0.852756
O O16 0.084566 0.240238 0.874265
O O17 0.000000 0.000000 0.918618
O O18 0.000000 0.246898 0.000000
O O19 0.855570 0.000000 0.808577
#
# Coordination Sequence:
#
# PCOD8196319 Si02
#       7
#     8   8   8   4   8   4   8
#     4  10  19  35  59  84 113 150 191 233 280 339
#     4  10  22  39  58  83 116 151 190 240 293 345
#     4  10  21  38  60  84 112 150 194 236 286 350
#     4  11  25  43  59  78 111 152 190 231 281 339
#     4  11  22  36  59  88 116 145 186 238 288 337
#     4   9  16  26  46  76 111 144 175 217 270 324
#     4   9  17  30  49  79 112 142 178 224 273 324
#
# _framework density 19.546741999999998
#
# number of rings (size 3 to 8) (size 9 to 14) (size 15 to 20)
#    0.000    2.000    2.500    1.250    1.167    4.333 
#    0.000    3.333    0.000    0.000    0.000    2.917 
#    0.000    0.000    0.000    0.000    0.000    0.000 
#
# Total GULP energy -595188.045173 kJ/mol
# GULP energy per Si atom -12399.750941 kJ/mol
# Density = 1.950225 g / cm^3
# Si number density = 19.546742 Si / 1000 Ang^3
#
#
#
# Elastic Constant Matrix: (Units=GPa)
#
#
# Indices 1 2 3 4 5 6 
#
# 1 130.7728 35.5592 49.8279 0.0000 0.0000 0.0000
# 2 35.5592 52.1197 34.5133 0.0000 0.0000 0.0000
# 3 49.8279 34.5133 123.5151 0.0000 0.0000 0.0000
# 4 0.0000 0.0000 0.0000 42.7329 0.0000 0.0000
# 5 0.0000 0.0000 0.0000 0.0000 26.2737 0.0000
# 6 0.0000 0.0000 0.0000 0.0000 0.0000 25.4559
#
#
#
# Elastic Compliance Matrix: (Units=1/GPa)
#
#
# Indices 1 2 3 4 5 6 
#
# 1 0.010035 -0.005112 -0.002620 0.000000 0.000000 0.000000
# 2 -0.005112 0.026147 -0.005244 0.000000 0.000000 0.000000
# 3 -0.002620 -0.005244 0.010618 0.000000 0.000000 0.000000
# 4 0.000000 0.000000 0.000000 0.023401 0.000000 0.000000
# 5 0.000000 0.000000 0.000000 0.000000 0.038061 0.000000
# 6 0.000000 0.000000 0.000000 0.000000 0.000000 0.039284
#
#
# Mechanical properties :
#
#
# Convention : Reuss Voigt Hill
#
# Bulk Modulus (GPa) = 47.96396 60.68985 54.32690
# Shear Modulus (GPa) = 27.70907 31.32631 29.51769
#
# Velocity S-wave (km/s) = 3.76916 4.00764 3.89023
# Velocity P-wave (km/s) = 6.59799 7.24782 6.93052
#
# Compressibility (1/GPa) = 0.02084899
#
# Stress axis : x y z
#
# Youngs Moduli (GPa) = 99.65061 38.24603 94.17606
#
# Poissons Ratio (x) = 0.19550 0.24674
# Poissons Ratio (y) = 0.50937 0.49385
# Poissons Ratio (z) = 0.26108 0.20056
#
# Static dielectric constant tensor:
#      x y z
#    x 3.793510 0.000000 0.000000 
#    y 0.000000 3.246750 0.000000 
#    z 0.000000 0.000000 3.635130 
# 
# 
# High freq. dielectric constant tensor:
#      x y z
#    x 1.775010 0.000000 0.000000 
#    y 0.000000 1.728020 0.000000 
#    z 0.000000 0.000000 1.766940 
# 
# From -- ./inp_files/28011.got.cif
#   From: 2010.03.12/outbox.cif.g09.slc.cpg/sg47_15_cif.got.tgz:28011.got - 2010.04.14 03:12:58.
