data_PCOD8196807
_publ_section_title
;
Structure prediction by ZEFSAII (Michael W. Deem and Ramdas Pophale) SiO2 
 PCOD8196807
Probable space group: P M M M
;
_chemical_formula_sum "Si O2"
_cell_formula_units_Z 64
_cell_length_a 14.135263
_cell_length_b 31.057422
_cell_length_c 8.902121
_cell_angle_alpha 90.000000
_cell_angle_beta 90.000000
_cell_angle_gamma 90.000000
_cell_volume 3908.074099
_symmetry_space_group_name_H-M "P M M M"
_symmetry_group_IT_number 47
_symmetry_cell_setting 'orthorhombic'
loop_
_space_group_symop_operation_xyz
x,y,z
-x,-y,z
x,-y,-z
-x,y,-z
-x,-y,-z
x,y,-z
-x,y,z
x,-y,z
loop_
_atom_site_type_symbol
_atom_site_label
_atom_site_fract_x
_atom_site_fract_y
_atom_site_fract_z
Si Si1 0.711287 0.289794 0.676578
Si Si2 0.612221 0.452767 0.331573
Si Si3 0.892733 0.262180 0.826181
Si Si4 0.893287 0.837945 0.826527
Si Si5 0.285318 0.129965 0.677568
Si Si6 0.388341 0.632018 0.827425
Si Si7 0.388964 0.209287 0.174532
Si Si8 0.393965 0.047392 0.321571
O O1 0.703214 0.282983 0.500000
O O2 0.821327 0.289912 0.725343
O O3 0.665474 0.334830 0.721521
O O4 0.655996 0.252053 0.759181
O O5 0.649338 0.442969 0.500000
O O6 0.500000 0.453461 0.332759
O O7 0.649419 0.500000 0.278459
O O8 0.647386 0.415733 0.218331
O O9 0.870424 0.212041 0.799517
O O10 0.000000 0.272818 0.776485
O O11 0.878170 0.274041 0.000000
O O12 0.823605 0.866549 0.726570
O O13 0.000000 0.848528 0.775816
O O14 0.878664 0.849689 0.000000
O O15 0.293015 0.133400 0.500000
O O16 0.348253 0.167347 0.747104
O O17 0.323971 0.084260 0.739281
O O18 0.500000 0.637330 0.800754
O O19 0.361525 0.640389 0.000000
O O20 0.500000 0.211138 0.203234
O O21 0.362839 0.207207 0.000000
O O22 0.394873 0.048168 0.500000
O O23 0.500000 0.056633 0.261690
O O24 0.360175 0.000000 0.265494
#
# Coordination Sequence:
#
# PCOD8196807 Si02
#       8
#     8   8   8   8   8   8   8   8
#     4  12  23  33  48  70  96 126 160 201 242 282
#     4   8  14  26  44  65  90 121 159 205 252 291
#     4   9  18  34  54  71  91 123 159 194 235 285
#     4   9  18  33  52  71  94 126 158 189 232 286
#     4  11  20  30  50  78  99 118 153 200 241 278
#     4  10  20  32  46  65  93 132 172 205 240 287
#     4  11  23  36  48  64  93 132 165 192 228 278
#     4   8  15  29  48  70  98 129 156 186 230 282
#
# _framework density 16.376352000000001
#
# number of rings (size 3 to 8) (size 9 to 14) (size 15 to 20)
#    0.000    2.250    1.250    4.500    0.000    4.500 
#    0.000    2.500    0.000    1.875    0.000    7.000 
#    0.000    0.500    0.000    5.250    0.000    2.500 
#
# Total GULP energy -793498.917991 kJ/mol
# GULP energy per Si atom -12398.420594 kJ/mol
# Density = 1.633908 g / cm^3
# Si number density = 16.376352 Si / 1000 Ang^3
#
#
#
# Elastic Constant Matrix: (Units=GPa)
#
#
# Indices 1 2 3 4 5 6 
#
# 1 78.2467 46.1080 39.3197 0.0000 0.0000 0.0000
# 2 46.1080 101.7709 27.9370 0.0000 0.0000 0.0000
# 3 39.3197 27.9370 57.8696 0.0000 0.0000 0.0000
# 4 0.0000 0.0000 0.0000 0.4017 0.0000 0.0000
# 5 0.0000 0.0000 0.0000 0.0000 23.3616 0.0000
# 6 0.0000 0.0000 0.0000 0.0000 0.0000 7.8106
#
#
#
# Elastic Compliance Matrix: (Units=1/GPa)
#
#
# Indices 1 2 3 4 5 6 
#
# 1 0.023150 -0.007113 -0.012296 0.000000 0.000000 0.000000
# 2 -0.007113 0.013513 -0.001690 0.000000 0.000000 0.000000
# 3 -0.012296 -0.001690 0.026451 0.000000 0.000000 0.000000
# 4 0.000000 0.000000 0.000000 2.489643 0.000000 0.000000
# 5 0.000000 0.000000 0.000000 0.000000 0.042805 0.000000
# 6 0.000000 0.000000 0.000000 0.000000 0.000000 0.128032
#
#
# Mechanical properties :
#
#
# Convention : Reuss Voigt Hill
#
# Bulk Modulus (GPa) = 47.81175 51.62408 49.71791
# Shear Modulus (GPa) = 1.80326 14.61626 8.20976
#
# Velocity S-wave (km/s) = 1.05049 2.99075 2.24144
# Velocity P-wave (km/s) = 5.54350 6.59683 6.09297
#
# Compressibility (1/GPa) = 0.02091536
#
# Stress axis : x y z
#
# Youngs Moduli (GPa) = 43.19604 74.00475 37.80644
#
# Poissons Ratio (x) = 0.52641 0.46485
# Poissons Ratio (y) = 0.30726 0.06390
# Poissons Ratio (z) = 0.53112 0.12509
#
# Static dielectric constant tensor:
#      x y z
#    x 3.065940 0.000000 0.000000 
#    y 0.000000 3.307570 0.000000 
#    z 0.000000 0.000000 3.034300 
# 
# 
# High freq. dielectric constant tensor:
#      x y z
#    x 1.612710 0.000000 0.000000 
#    y 0.000000 1.622100 0.000000 
#    z 0.000000 0.000000 1.626340 
# 
# From -- ./inp_files/8258.got.cif
#   From: 2010.03.12/outbox.cif.g09.slc.cpg/sg47_5_cif.got.tgz:8258.got - 2010.04.14 03:12:58.
