data_PCOD8196731
_publ_section_title
;
Structure prediction by ZEFSAII (Michael W. Deem and Ramdas Pophale) SiO2 
 PCOD8196731
Probable space group: P M M M
;
_chemical_formula_sum "Si O2"
_cell_formula_units_Z 36
_cell_length_a 11.572141
_cell_length_b 8.943032
_cell_length_c 20.867959
_cell_angle_alpha 90.000000
_cell_angle_beta 90.000000
_cell_angle_gamma 90.000000
_cell_volume 2159.625646
_symmetry_space_group_name_H-M "P M M M"
_symmetry_group_IT_number 47
_symmetry_cell_setting 'orthorhombic'
loop_
_space_group_symop_operation_xyz
x,y,z
-x,-y,z
x,-y,-z
-x,y,-z
-x,-y,-z
x,y,-z
-x,y,z
x,-y,z
loop_
_atom_site_type_symbol
_atom_site_label
_atom_site_fract_x
_atom_site_fract_y
_atom_site_fract_z
Si Si1 0.365288 0.326060 0.736141
Si Si2 0.626640 0.822288 0.000000
Si Si3 0.000000 0.823139 0.571835
Si Si4 0.363549 0.331084 0.500000
Si Si5 0.246030 0.177173 0.381500
Si Si6 0.362355 0.167355 0.863096
O O1 0.500000 0.286738 0.726233
O O2 0.341748 0.500000 0.725816
O O3 0.289838 0.232938 0.686644
O O4 0.323215 0.279616 0.807166
O O5 0.689413 0.777094 0.067451
O O6 0.500000 0.747066 0.000000
O O7 0.613945 0.000000 0.000000
O O8 0.886416 0.769305 0.609754
O O9 0.000000 0.754279 0.500000
O O10 0.000000 0.000000 0.565945
O O11 0.314881 0.500000 0.500000
O O12 0.500000 0.332474 0.500000
O O13 0.323019 0.246483 0.437024
O O14 0.257766 0.000000 0.385373
O O15 0.500000 0.165234 0.869666
O O16 0.318003 0.000000 0.846526
#
# Coordination Sequence:
#
# PCOD8196731 Si02
#       6
#     8   4   4   4   8   8
#     4  10  20  32  44  64  98 131 156 190 233 271
#     4   7  10  18  35  59  85 114 153 198 229 255
#     4   9  18  36  56  74  92 109 140 195 246 274
#     4  11  23  36  49  70 100 125 146 181 226 269
#     4  11  21  35  55  72  89 117 154 191 230 279
#     4   8  13  23  40  61  86 120 160 194 226 268
#
# _framework density 16.669554999999999
#
# number of rings (size 3 to 8) (size 9 to 14) (size 15 to 20)
#    0.000    2.556    1.111    3.667    0.000    4.889 
#    0.000    3.333    0.000    3.333    0.000    0.000 
#    0.000    0.889    0.000   10.222    0.000    7.111 
#
# Total GULP energy -446130.035098 kJ/mol
# GULP energy per Si atom -12392.500975 kJ/mol
# Density = 1.663161 g / cm^3
# Si number density = 16.669555 Si / 1000 Ang^3
#
#
#
# Elastic Constant Matrix: (Units=GPa)
#
#
# Indices 1 2 3 4 5 6 
#
# 1 61.7292 31.6670 45.5327 0.0000 0.0000 0.0000
# 2 31.6670 69.3169 44.5138 0.0000 0.0000 0.0000
# 3 45.5327 44.5138 150.2496 0.0000 0.0000 0.0000
# 4 0.0000 0.0000 0.0000 -8.0682 0.0000 0.0000
# 5 0.0000 0.0000 0.0000 0.0000 -3.2846 0.0000
# 6 0.0000 0.0000 0.0000 0.0000 0.0000 9.9498
#
#
#
# Elastic Compliance Matrix: (Units=1/GPa)
#
#
# Indices 1 2 3 4 5 6 
#
# 1 0.023785 -0.007703 -0.004926 0.000000 0.000000 0.000000
# 2 -0.007703 0.020311 -0.003683 0.000000 0.000000 0.000000
# 3 -0.004926 -0.003683 0.009240 0.000000 0.000000 0.000000
# 4 0.000000 0.000000 0.000000 -0.123943 0.000000 0.000000
# 5 0.000000 0.000000 0.000000 0.000000 -0.304455 0.000000
# 6 0.000000 0.000000 0.000000 0.000000 0.000000 0.100504
#
#
# Mechanical properties :
#
#
# Convention : Reuss Voigt Hill
#
# Bulk Modulus (GPa) = 48.28189 58.30252 53.29221
# Shear Modulus (GPa) = -21.27361 10.35822 -5.45770
#
# Velocity S-wave (km/s) = -3.57626 2.49547 -1.81140
# Velocity P-wave (km/s) = 3.46036 6.58441 5.25969
#
# Compressibility (1/GPa) = 0.02071170
#
# Stress axis : x y z
#
# Youngs Moduli (GPa) = 42.04399 49.23543 108.23057
#
# Poissons Ratio (x) = 0.37924 0.53313
# Poissons Ratio (y) = 0.32385 0.39862
# Poissons Ratio (z) = 0.20710 0.18134
#
# Static dielectric constant tensor:
#      x y z
#    x 2.858400 0.000000 0.000000 
#    y 0.000000 3.067300 0.000000 
#    z 0.000000 0.000000 3.649950 
# 
# 
# High freq. dielectric constant tensor:
#      x y z
#    x 1.587590 0.000000 0.000000 
#    y 0.000000 1.632300 0.000000 
#    z 0.000000 0.000000 1.662010 
# 
# From -- ./inp_files/30300.got.cif
#   From: 2010.03.12/outbox.cif.g09.slc.cpg/sg47_16_cif.got.tgz:30300.got - 2010.04.14 03:12:58.
