data_PCOD8196315
_publ_section_title
;
Structure prediction by ZEFSAII (Michael W. Deem and Ramdas Pophale) SiO2 
 PCOD8196315
Probable space group: P M M M
;
_chemical_formula_sum "Si O2"
_cell_formula_units_Z 44
_cell_length_a 9.003142
_cell_length_b 16.920620
_cell_length_c 15.406778
_cell_angle_alpha 90.000000
_cell_angle_beta 90.000000
_cell_angle_gamma 90.000000
_cell_volume 2347.049219
_symmetry_space_group_name_H-M "P M M M"
_symmetry_group_IT_number 47
_symmetry_cell_setting 'orthorhombic'
loop_
_space_group_symop_operation_xyz
x,y,z
-x,-y,z
x,-y,-z
-x,y,-z
-x,-y,-z
x,y,-z
-x,y,z
x,-y,z
loop_
_atom_site_type_symbol
_atom_site_label
_atom_site_fract_x
_atom_site_fract_y
_atom_site_fract_z
Si Si1 0.671802 0.253357 0.751448
Si Si2 0.828563 0.831724 0.598553
Si Si3 0.670541 0.412277 0.830054
Si Si4 0.676226 0.000000 0.855339
Si Si5 0.827987 0.841191 0.902809
Si Si6 0.164314 0.406157 0.000000
Si Si7 0.169897 0.000000 0.674666
O O1 0.500000 0.229634 0.761243
O O2 0.730462 0.223456 0.659701
O O3 0.693704 0.348748 0.753100
O O4 0.759930 0.216489 0.831603
O O5 0.782348 0.813343 0.500000
O O6 0.000000 0.811239 0.615227
O O7 0.797726 0.923694 0.616370
O O8 0.500000 0.418106 0.857298
O O9 0.728265 0.500000 0.801596
O O10 0.754613 0.377333 0.913478
O O11 0.743319 0.075974 0.902015
O O12 0.717614 0.000000 0.754250
O O13 0.500000 0.000000 0.865575
O O14 0.000000 0.855376 0.879256
O O15 0.811114 0.804789 0.000000
O O16 0.160532 0.500000 0.000000
O O17 0.000000 0.369099 0.000000
O O18 0.000000 0.000000 0.708887
#
# Coordination Sequence:
#
# PCOD8196315 Si02
#       7
#     8   8   8   4   8   4   4
#     4  11  23  37  57  85 114 145 185 238 286 329
#     4  10  21  38  61  86 113 147 184 225 279 340
#     4   9  19  36  55  76 108 150 189 226 278 338
#     4  12  23  36  57  83 113 148 191 239 281 321
#     4  11  24  40  57  78 110 156 198 232 276 332
#     4   9  17  29  49  79 109 138 179 228 273 321
#     4  10  19  35  59  83 111 147 183 221 271 336
#
# _framework density 18.746942000000001
#
# number of rings (size 3 to 8) (size 9 to 14) (size 15 to 20)
#    0.000    1.727    1.818    2.727    1.273    6.545 
#    0.000    0.000    0.000    2.182    0.000    3.818 
#    0.000    0.000    0.000    0.000    0.000    0.000 
#
# Total GULP energy -545601.197677 kJ/mol
# GULP energy per Si atom -12400.027220 kJ/mol
# Density = 1.870427 g / cm^3
# Si number density = 18.746942 Si / 1000 Ang^3
#
#
#
# Elastic Constant Matrix: (Units=GPa)
#
#
# Indices 1 2 3 4 5 6 
#
# 1 115.3158 48.5764 58.0851 0.0000 0.0000 0.0000
# 2 48.5764 102.5344 55.5314 0.0000 0.0000 0.0000
# 3 58.0851 55.5314 123.9340 0.0000 0.0000 0.0000
# 4 0.0000 0.0000 0.0000 61.4706 0.0000 0.0000
# 5 0.0000 0.0000 0.0000 0.0000 21.6093 0.0000
# 6 0.0000 0.0000 0.0000 0.0000 0.0000 18.7634
#
#
#
# Elastic Compliance Matrix: (Units=1/GPa)
#
#
# Indices 1 2 3 4 5 6 
#
# 1 0.012263 -0.003561 -0.004152 0.000000 0.000000 0.000000
# 2 -0.003561 0.013912 -0.004565 0.000000 0.000000 0.000000
# 3 -0.004152 -0.004565 0.012060 0.000000 0.000000 0.000000
# 4 0.000000 0.000000 0.000000 0.016268 0.000000 0.000000
# 5 0.000000 0.000000 0.000000 0.000000 0.046276 0.000000
# 6 0.000000 0.000000 0.000000 0.000000 0.000000 0.053295
#
#
# Mechanical properties :
#
#
# Convention : Reuss Voigt Hill
#
# Bulk Modulus (GPa) = 73.09907 74.01890 73.55899
# Shear Modulus (GPa) = 27.29403 32.34141 29.81772
#
# Velocity S-wave (km/s) = 3.81979 4.15801 3.99248
# Velocity P-wave (km/s) = 7.65059 7.91334 7.78307
#
# Compressibility (1/GPa) = 0.01368006
#
# Stress axis : x y z
#
# Youngs Moduli (GPa) = 81.54411 71.87987 82.91914
#
# Poissons Ratio (x) = 0.25598 0.34427
# Poissons Ratio (y) = 0.29040 0.37849
# Poissons Ratio (z) = 0.33856 0.32810
#
# Static dielectric constant tensor:
#      x y z
#    x 3.538390 0.000000 0.000000 
#    y 0.000000 3.577780 0.000000 
#    z 0.000000 0.000000 3.323780 
# 
# 
# High freq. dielectric constant tensor:
#      x y z
#    x 1.733340 0.000000 0.000000 
#    y 0.000000 1.728690 0.000000 
#    z 0.000000 0.000000 1.710960 
# 
# From -- ./inp_files/20971.got.cif
#   From: 2010.03.12/outbox.cif.g09.slc.cpg/sg47_11_cif.got.tgz:20971.got - 2010.04.14 03:12:58.
