data_PCOD8196839
_publ_section_title
;
Structure prediction by ZEFSAII (Michael W. Deem and Ramdas Pophale) SiO2 
 PCOD8196839
Probable space group: P M M M
;
_chemical_formula_sum "Si O2"
_cell_formula_units_Z 48
_cell_length_a 9.548486
_cell_length_b 32.682081
_cell_length_c 7.902916
_cell_angle_alpha 90.000000
_cell_angle_beta 90.000000
_cell_angle_gamma 90.000000
_cell_volume 2466.218684
_symmetry_space_group_name_H-M "P M M M"
_symmetry_group_IT_number 47
_symmetry_cell_setting 'orthorhombic'
loop_
_space_group_symop_operation_xyz
x,y,z
-x,-y,z
x,-y,-z
-x,y,-z
-x,-y,-z
x,y,-z
-x,y,z
x,-y,z
loop_
_atom_site_type_symbol
_atom_site_label
_atom_site_fract_x
_atom_site_fract_y
_atom_site_fract_z
Si Si1 0.342570 0.587819 0.796739
Si Si2 0.658227 0.819464 0.803053
Si Si3 0.666190 0.500000 0.185038
Si Si4 0.845663 0.339889 0.194748
Si Si5 0.342197 0.731404 0.693050
Si Si6 0.164657 0.897714 0.193952
Si Si7 0.834045 0.954373 0.500000
O O1 0.500000 0.597723 0.734019
O O2 0.291870 0.543063 0.724455
O O3 0.241826 0.622950 0.720792
O O4 0.340539 0.586661 0.000000
O O5 0.500000 0.831640 0.751228
O O6 0.706853 0.778462 0.707595
O O7 0.759900 0.856108 0.750184
O O8 0.669508 0.810050 0.000000
O O9 0.500000 0.500000 0.164862
O O10 0.736948 0.500000 0.000000
O O11 0.764160 0.297194 0.206878
O O12 0.000000 0.336523 0.280018
O O13 0.864484 0.350474 0.000000
O O14 0.338853 0.717564 0.500000
O O15 0.500000 0.726950 0.767806
O O16 0.215828 0.932108 0.327036
O O17 0.000000 0.890042 0.209363
O O18 0.204424 0.910438 0.000000
O O19 0.000000 0.956643 0.500000
O O20 0.769355 0.000000 0.500000
#
# Coordination Sequence:
#
# PCOD8196839 Si02
#       7
#     8   8   4   8   8   8   4
#     4   8  13  23  41  63  88 120 156 195 239 286
#     4   9  18  33  53  76 101 129 160 199 249 300
#     4   7  10  18  35  61  88 113 148 193 238 284
#     4  10  20  32  46  67  96 129 163 197 238 291
#     4  10  21  35  51  72  95 123 163 205 245 294
#     4   9  18  32  51  76 104 135 173 214 256 305
#     4   9  18  32  51  77 107 139 177 219 261 302
#
# _framework density 19.462994999999999
#
# number of rings (size 3 to 8) (size 9 to 14) (size 15 to 20)
#    0.000    3.000    0.000    2.000    1.167    3.000 
#    0.000    3.750    0.000    3.500    0.000    2.917 
#    0.000    4.667    0.000    0.000    0.000    0.000 
#
# Total GULP energy -594824.180346 kJ/mol
# GULP energy per Si atom -12392.170424 kJ/mol
# Density = 1.941870 g / cm^3
# Si number density = 19.462995 Si / 1000 Ang^3
#
#
#
# Elastic Constant Matrix: (Units=GPa)
#
#
# Indices 1 2 3 4 5 6 
#
# 1 90.2702 76.8090 21.8219 0.0000 0.0000 0.0000
# 2 76.8090 166.5568 38.1898 0.0000 0.0000 0.0000
# 3 21.8219 38.1898 47.4366 0.0000 0.0000 0.0000
# 4 0.0000 0.0000 0.0000 -8.3386 0.0000 0.0000
# 5 0.0000 0.0000 0.0000 0.0000 10.7609 0.0000
# 6 0.0000 0.0000 0.0000 0.0000 0.0000 26.0657
#
#
#
# Elastic Compliance Matrix: (Units=1/GPa)
#
#
# Indices 1 2 3 4 5 6 
#
# 1 0.018385 -0.008020 -0.002001 0.000000 0.000000 0.000000
# 2 -0.008020 0.010861 -0.005055 0.000000 0.000000 0.000000
# 3 -0.002001 -0.005055 0.026071 0.000000 0.000000 0.000000
# 4 0.000000 0.000000 0.000000 -0.119924 0.000000 0.000000
# 5 0.000000 0.000000 0.000000 0.000000 0.092929 0.000000
# 6 0.000000 0.000000 0.000000 0.000000 0.000000 0.038365
#
#
# Mechanical properties :
#
#
# Convention : Reuss Voigt Hill
#
# Bulk Modulus (GPa) = 39.73626 64.21170 51.97398
# Shear Modulus (GPa) = 47.51602 16.86047 32.18824
#
# Velocity S-wave (km/s) = 4.94636 2.94646 4.07113
# Velocity P-wave (km/s) = 7.28578 6.68123 6.99005
#
# Compressibility (1/GPa) = 0.02516593
#
# Stress axis : x y z
#
# Youngs Moduli (GPa) = 54.39082 92.06956 38.35688
#
# Poissons Ratio (x) = 0.73837 0.07676
# Poissons Ratio (y) = 0.43620 0.19389
# Poissons Ratio (z) = 0.10885 0.46540
#
# Static dielectric constant tensor:
#      x y z
#    x 3.516490 0.000000 0.000000 
#    y 0.000000 3.771750 0.000000 
#    z 0.000000 0.000000 3.286880 
# 
# 
# High freq. dielectric constant tensor:
#      x y z
#    x 1.729810 0.000000 0.000000 
#    y 0.000000 1.764090 0.000000 
#    z 0.000000 0.000000 1.732420 
# 
# From -- ./inp_files/2705.got.cif
#   From: 2010.03.12/outbox.cif.g09.slc.cpg/sg47_2_cif.got.tgz:2705.got - 2010.04.14 03:12:58.
