data_PCOD8196651
_publ_section_title
;
Structure prediction by ZEFSAII (Michael W. Deem and Ramdas Pophale) SiO2 
 PCOD8196651
Probable space group: P M M M
;
_chemical_formula_sum "Si O2"
_cell_formula_units_Z 44
_cell_length_a 19.476148
_cell_length_b 9.201732
_cell_length_c 13.147555
_cell_angle_alpha 90.000000
_cell_angle_beta 90.000000
_cell_angle_gamma 90.000000
_cell_volume 2356.229791
_symmetry_space_group_name_H-M "P M M M"
_symmetry_group_IT_number 47
_symmetry_cell_setting 'orthorhombic'
loop_
_space_group_symop_operation_xyz
x,y,z
-x,-y,z
x,-y,-z
-x,y,-z
-x,-y,-z
x,y,-z
-x,y,z
x,-y,z
loop_
_atom_site_type_symbol
_atom_site_label
_atom_site_fract_x
_atom_site_fract_y
_atom_site_fract_z
Si Si1 0.422426 0.670537 0.801910
Si Si2 0.581314 0.161372 0.389893
Si Si3 0.845381 0.172134 0.882000
Si Si4 0.081701 0.166504 0.500000
Si Si5 0.304866 0.156063 0.884365
Si Si6 0.918563 0.333577 0.701769
O O1 0.500000 0.728487 0.823969
O O2 0.422030 0.500000 0.806687
O O3 0.393662 0.723061 0.692862
O O4 0.368199 0.732174 0.881464
O O5 0.611276 0.207214 0.500000
O O6 0.500000 0.162624 0.395202
O O7 0.607213 0.000000 0.361000
O O8 0.768077 0.213024 0.841700
O O9 0.895309 0.258397 0.806803
O O10 0.857968 0.000000 0.870960
O O11 0.858390 0.220050 0.000000
O O12 0.109284 0.248043 0.398280
O O13 0.000000 0.168615 0.500000
O O14 0.108871 0.000000 0.500000
O O15 0.325790 0.000000 0.834121
O O16 0.287495 0.126180 0.000000
O O17 0.891848 0.500000 0.697578
O O18 0.000000 0.329998 0.701510
#
# Coordination Sequence:
#
# PCOD8196651 Si02
#       6
#     8   8   8   4   8   8
#     4  10  20  31  46  72 102 129 159 201 254 308
#     4   8  14  26  45  67  90 119 155 193 235 286
#     4   9  19  36  56  77 102 136 179 223 266 313
#     4   9  17  31  53  79 107 143 184 219 256 303
#     4   9  19  36  55  72  93 127 170 212 254 302
#     4  10  20  33  52  81 115 146 176 214 260 310
#
# _framework density 18.673901999999998
#
# number of rings (size 3 to 8) (size 9 to 14) (size 15 to 20)
#    0.000    2.818    0.000    3.000    0.000    5.818 
#    0.000    7.273    2.000    0.000    0.000    0.000 
#    0.000    0.000    0.000    0.000    0.000    0.000 
#
# Total GULP energy -545112.865657 kJ/mol
# GULP energy per Si atom -12388.928765 kJ/mol
# Density = 1.863140 g / cm^3
# Si number density = 18.673902 Si / 1000 Ang^3
#
#
#
# Elastic Constant Matrix: (Units=GPa)
#
#
# Indices 1 2 3 4 5 6 
#
# 1 36.3312 27.6289 22.7415 0.0000 0.0000 0.0000
# 2 27.6289 93.9818 44.3948 0.0000 0.0000 0.0000
# 3 22.7415 44.3948 95.3578 0.0000 0.0000 0.0000
# 4 0.0000 0.0000 0.0000 61.6578 0.0000 0.0000
# 5 0.0000 0.0000 0.0000 0.0000 9.2469 0.0000
# 6 0.0000 0.0000 0.0000 0.0000 0.0000 22.6887
#
#
#
# Elastic Compliance Matrix: (Units=1/GPa)
#
#
# Indices 1 2 3 4 5 6 
#
# 1 0.037111 -0.008626 -0.004834 0.000000 0.000000 0.000000
# 2 -0.008626 0.015645 -0.005227 0.000000 0.000000 0.000000
# 3 -0.004834 -0.005227 0.014073 0.000000 0.000000 0.000000
# 4 0.000000 0.000000 0.000000 0.016219 0.000000 0.000000
# 5 0.000000 0.000000 0.000000 0.000000 0.108144 0.000000
# 6 0.000000 0.000000 0.000000 0.000000 0.000000 0.044075
#
#
# Mechanical properties :
#
#
# Convention : Reuss Voigt Hill
#
# Bulk Modulus (GPa) = 33.95053 46.13347 40.04200
# Shear Modulus (GPa) = 17.70171 27.44571 22.57371
#
# Velocity S-wave (km/s) = 3.08220 3.83787 3.48061
# Velocity P-wave (km/s) = 5.55759 6.66314 6.13532
#
# Compressibility (1/GPa) = 0.02945462
#
# Stress axis : x y z
#
# Youngs Moduli (GPa) = 26.94648 63.91733 71.05787
#
# Poissons Ratio (x) = 0.55136 0.34352
# Poissons Ratio (y) = 0.23245 0.37139
# Poissons Ratio (z) = 0.13027 0.33407
#
# Static dielectric constant tensor:
#      x y z
#    x 3.177140 0.000000 0.000000 
#    y 0.000000 3.436640 0.000000 
#    z 0.000000 0.000000 3.718490 
# 
# 
# High freq. dielectric constant tensor:
#      x y z
#    x 1.692160 0.000000 0.000000 
#    y 0.000000 1.722510 0.000000 
#    z 0.000000 0.000000 1.726800 
# 
# From -- ./inp_files/24332.got.cif
#   From: 2010.03.12/outbox.cif.g09.slc.cpg/sg47_13_cif.got.tgz:24332.got - 2010.04.14 03:12:58.
