data_PCOD8196472
_publ_section_title
;
Structure prediction by ZEFSAII (Michael W. Deem and Ramdas Pophale) SiO2 
 PCOD8196472
Probable space group: P M M M
;
_chemical_formula_sum "Si O2"
_cell_formula_units_Z 64
_cell_length_a 9.123736
_cell_length_b 19.676770
_cell_length_c 19.584758
_cell_angle_alpha 90.000000
_cell_angle_beta 90.000000
_cell_angle_gamma 90.000000
_cell_volume 3515.966504
_symmetry_space_group_name_H-M "P M M M"
_symmetry_group_IT_number 47
_symmetry_cell_setting 'orthorhombic'
loop_
_space_group_symop_operation_xyz
x,y,z
-x,-y,z
x,-y,-z
-x,y,-z
-x,-y,-z
x,y,-z
-x,y,z
x,-y,z
loop_
_atom_site_type_symbol
_atom_site_label
_atom_site_fract_x
_atom_site_fract_y
_atom_site_fract_z
Si Si1 0.158619 0.925685 0.855627
Si Si2 0.168856 0.693240 0.577951
Si Si3 0.327154 0.667278 0.214107
Si Si4 0.338659 0.819137 0.075654
Si Si5 0.832119 0.422455 0.320482
Si Si6 0.672984 0.785048 0.683941
Si Si7 0.163074 0.925006 0.695674
Si Si8 0.828201 0.684263 0.923499
O O1 0.294668 0.878914 0.874314
O O2 0.151365 0.931021 0.775626
O O3 0.000000 0.898407 0.882689
O O4 0.187533 0.000000 0.887219
O O5 0.221610 0.690793 0.500000
O O6 0.191817 0.618278 0.609244
O O7 0.266401 0.747548 0.617528
O O8 0.000000 0.715858 0.584121
O O9 0.500000 0.662023 0.207114
O O10 0.271706 0.607153 0.262079
O O11 0.281859 0.741249 0.247463
O O12 0.258496 0.650942 0.139510
O O13 0.500000 0.790930 0.097908
O O14 0.214726 0.762663 0.079208
O O15 0.347159 0.849551 0.000000
O O16 0.787877 0.500000 0.334611
O O17 0.000000 0.415936 0.295482
O O18 0.500000 0.788025 0.678901
O O19 0.730876 0.862066 0.679751
O O20 0.000000 0.910417 0.665554
O O21 0.218592 0.000000 0.668199
O O22 0.000000 0.675650 0.910610
O O23 0.786728 0.655335 0.000000
#
# Coordination Sequence:
#
# PCOD8196472 Si02
#       8
#     8   8   8   8   8   8   8   8
#     4   9  18  31  45  61  82 112 152 197 246 301
#     4   9  18  33  54  80 109 142 177 209 244 288
#     4  10  20  33  51  76 105 137 173 212 255 305
#     4  10  20  31  42  59  85 116 151 194 246 303
#     4   9  18  33  54  81 112 144 176 209 245 287
#     4  10  20  32  49  75 104 135 171 210 254 304
#     4   9  18  32  49  69  93 122 159 206 258 307
#     4  10  20  33  50  71  94 123 162 209 260 309
#
# _framework density 18.202676
#
# number of rings (size 3 to 8) (size 9 to 14) (size 15 to 20)
#    0.000    2.500    0.000    3.000    0.000    7.000 
#    0.000    3.750    0.000    0.750    0.000    8.750 
#    0.000    0.000    0.000    0.000    0.000    0.000 
#
# Total GULP energy -792965.985031 kJ/mol
# GULP energy per Si atom -12390.093516 kJ/mol
# Density = 1.816125 g / cm^3
# Si number density = 18.202676 Si / 1000 Ang^3
#
#
#
# Elastic Constant Matrix: (Units=GPa)
#
#
# Indices 1 2 3 4 5 6 
#
# 1 79.5428 38.9232 44.8836 0.0000 0.0000 0.0000
# 2 38.9232 96.6966 32.7910 0.0000 0.0000 0.0000
# 3 44.8836 32.7910 101.4627 0.0000 0.0000 0.0000
# 4 0.0000 0.0000 0.0000 11.7804 0.0000 0.0000
# 5 0.0000 0.0000 0.0000 0.0000 20.4351 0.0000
# 6 0.0000 0.0000 0.0000 0.0000 0.0000 20.9972
#
#
#
# Elastic Compliance Matrix: (Units=1/GPa)
#
#
# Indices 1 2 3 4 5 6 
#
# 1 0.018953 -0.005375 -0.006647 0.000000 0.000000 0.000000
# 2 -0.005375 0.013139 -0.001869 0.000000 0.000000 0.000000
# 3 -0.006647 -0.001869 0.013400 0.000000 0.000000 0.000000
# 4 0.000000 0.000000 0.000000 0.084887 0.000000 0.000000
# 5 0.000000 0.000000 0.000000 0.000000 0.048935 0.000000
# 6 0.000000 0.000000 0.000000 0.000000 0.000000 0.047625
#
#
# Mechanical properties :
#
#
# Convention : Reuss Voigt Hill
#
# Bulk Modulus (GPa) = 56.46287 56.76643 56.61465
# Shear Modulus (GPa) = 19.18474 21.38282 20.28378
#
# Velocity S-wave (km/s) = 3.24998 3.43112 3.34178
# Velocity P-wave (km/s) = 6.72083 6.85202 6.78674
#
# Compressibility (1/GPa) = 0.01771075
#
# Stress axis : x y z
#
# Youngs Moduli (GPa) = 52.76305 76.11015 74.62634
#
# Poissons Ratio (x) = 0.40909 0.49603
# Poissons Ratio (y) = 0.28360 0.13944
# Poissons Ratio (z) = 0.35071 0.14222
#
# Static dielectric constant tensor:
#      x y z
#    x 3.512140 0.000000 0.000000 
#    y 0.000000 3.317820 0.000000 
#    z 0.000000 0.000000 3.340420 
# 
# 
# High freq. dielectric constant tensor:
#      x y z
#    x 1.708480 0.000000 0.000000 
#    y 0.000000 1.687650 0.000000 
#    z 0.000000 0.000000 1.690420 
# 
# From -- ./inp_files/29946.got.cif
#   From: 2010.03.12/outbox.cif.g09.slc.cpg/sg47_15_cif.got.tgz:29946.got - 2010.04.14 03:12:58.
