data_PCOD8196366
_publ_section_title
;
Structure prediction by ZEFSAII (Michael W. Deem and Ramdas Pophale) SiO2 
 PCOD8196366
Probable space group: P M M M
;
_chemical_formula_sum "Si O2"
_cell_formula_units_Z 48
_cell_length_a 18.709405
_cell_length_b 8.454133
_cell_length_c 23.680755
_cell_angle_alpha 90.000000
_cell_angle_beta 90.000000
_cell_angle_gamma 90.000000
_cell_volume 3745.627602
_symmetry_space_group_name_H-M "P M M M"
_symmetry_group_IT_number 47
_symmetry_cell_setting 'orthorhombic'
loop_
_space_group_symop_operation_xyz
x,y,z
-x,-y,z
x,-y,-z
-x,y,-z
-x,-y,-z
x,y,-z
-x,y,z
x,-y,z
loop_
_atom_site_type_symbol
_atom_site_label
_atom_site_fract_x
_atom_site_fract_y
_atom_site_fract_z
Si Si1 0.820765 0.181383 0.064082
Si Si2 0.581991 0.500000 0.933048
Si Si3 0.918594 0.684664 0.613989
Si Si4 0.081390 0.184941 0.500000
Si Si5 0.082296 0.183696 0.271984
Si Si6 0.657280 0.822311 0.933118
Si Si7 0.080212 0.683554 0.157040
O O1 0.739411 0.201670 0.084506
O O2 0.871854 0.285052 0.102720
O O3 0.844693 0.000000 0.068583
O O4 0.829063 0.242776 0.000000
O O5 0.500000 0.500000 0.914313
O O6 0.615465 0.666493 0.909016
O O7 0.591597 0.500000 0.000000
O O8 0.914953 0.500000 0.609419
O O9 0.880481 0.753689 0.557541
O O10 0.880691 0.738896 0.672466
O O11 0.000000 0.749544 0.615712
O O12 0.000000 0.250250 0.500000
O O13 0.084857 0.000000 0.500000
O O14 0.116833 0.238507 0.212704
O O15 0.000000 0.238685 0.269262
O O16 0.092241 0.000000 0.278926
O O17 0.631423 0.000000 0.911321
O O18 0.649301 0.825574 0.000000
O O19 0.076675 0.500000 0.168878
O O20 0.000000 0.751267 0.146359
#
# Coordination Sequence:
#
# PCOD8196366 Si02
#       7
#     8   4   8   4   8   8   8
#     4   9  18  31  44  55  67  88 115 141 175 216
#     4   9  16  24  38  60  79  97 117 133 158 195
#     4   9  15  22  32  45  61  79  98 123 156 193
#     4   9  15  21  29  43  61  79 101 123 145 185
#     4   9  16  26  38  48  60  80 103 129 165 207
#     4   8  15  27  40  55  75  96 117 139 164 200
#     4  10  20  30  39  53  69  84 108 144 183 221
#
# _framework density 12.814942
#
# number of rings (size 3 to 8) (size 9 to 14) (size 15 to 20)
#    0.000    3.000    0.000    2.750    1.167    7.000 
#    0.000    3.333    0.000    0.000    0.000    0.000 
#    0.000    0.000    0.000    0.000    0.000    0.000 
#
# Total GULP energy -594655.208411 kJ/mol
# GULP energy per Si atom -12388.650175 kJ/mol
# Density = 1.278577 g / cm^3
# Si number density = 12.814942 Si / 1000 Ang^3
#
#
#
# Elastic Constant Matrix: (Units=GPa)
#
#
# Indices 1 2 3 4 5 6 
#
# 1 33.4612 23.8831 20.2714 0.0000 0.0000 0.0000
# 2 23.8831 70.6338 26.9065 0.0000 0.0000 0.0000
# 3 20.2714 26.9065 74.6344 0.0000 0.0000 0.0000
# 4 0.0000 0.0000 0.0000 22.3169 0.0000 0.0000
# 5 0.0000 0.0000 0.0000 0.0000 -0.0578 0.0000
# 6 0.0000 0.0000 0.0000 0.0000 0.0000 14.4375
#
#
#
# Elastic Compliance Matrix: (Units=1/GPa)
#
#
# Indices 1 2 3 4 5 6 
#
# 1 0.042650 -0.011602 -0.007402 0.000000 0.000000 0.000000
# 2 -0.011602 0.019567 -0.003903 0.000000 0.000000 0.000000
# 3 -0.007402 -0.003903 0.016816 0.000000 0.000000 0.000000
# 4 0.000000 0.000000 0.000000 0.044809 0.000000 0.000000
# 5 0.000000 0.000000 0.000000 0.000000-17.290792 0.000000
# 6 0.000000 0.000000 0.000000 0.000000 0.000000 0.069264
#
#
# Mechanical properties :
#
#
# Convention : Reuss Voigt Hill
#
# Bulk Modulus (GPa) = 30.10172 35.65016 32.87594
# Shear Modulus (GPa) = -0.29341 14.51719 7.11189
#
# Velocity S-wave (km/s) = -0.47902 3.36941 2.35833
# Velocity P-wave (km/s) = 4.82023 6.55872 5.75549
#
# Compressibility (1/GPa) = 0.03322069
#
# Stress axis : x y z
#
# Youngs Moduli (GPa) = 23.44660 51.10609 59.46683
#
# Poissons Ratio (x) = 0.59291 0.44015
# Poissons Ratio (y) = 0.27202 0.23210
# Poissons Ratio (z) = 0.17354 0.19947
#
# Static dielectric constant tensor:
#      x y z
#    x 2.207450 0.000000 0.000000 
#    y 0.000000 2.774470 0.000000 
#    z 0.000000 0.000000 2.645420 
# 
# 
# High freq. dielectric constant tensor:
#      x y z
#    x 1.415870 0.000000 0.000000 
#    y 0.000000 1.507960 0.000000 
#    z 0.000000 0.000000 1.472030 
# 
# From -- ./inp_files/11441.got.cif
#   From: 2010.03.12/outbox.cif.g09.slc.cpg/sg47_6_cif.got.tgz:11441.got - 2010.04.14 03:12:58.
