data_PCOD8196571
_publ_section_title
;
Structure prediction by ZEFSAII (Michael W. Deem and Ramdas Pophale) SiO2 
 PCOD8196571
Probable space group: P M M M
;
_chemical_formula_sum "Si O2"
_cell_formula_units_Z 52
_cell_length_a 12.325436
_cell_length_b 9.038433
_cell_length_c 27.477847
_cell_angle_alpha 90.000000
_cell_angle_beta 90.000000
_cell_angle_gamma 90.000000
_cell_volume 3061.104353
_symmetry_space_group_name_H-M "P M M M"
_symmetry_group_IT_number 47
_symmetry_cell_setting 'orthorhombic'
loop_
_space_group_symop_operation_xyz
x,y,z
-x,-y,z
x,-y,-z
-x,y,-z
-x,-y,-z
x,y,-z
-x,y,z
x,-y,z
loop_
_atom_site_type_symbol
_atom_site_label
_atom_site_fract_x
_atom_site_fract_y
_atom_site_fract_z
Si Si1 0.128861 0.333697 0.946558
Si Si2 0.716300 0.672621 0.331845
Si Si3 0.128142 0.169649 0.147888
Si Si4 0.500000 0.166694 0.216878
Si Si5 0.500000 0.167585 0.332584
Si Si6 0.871052 0.667286 0.500000
Si Si7 0.715005 0.328216 0.217807
Si Si8 0.127991 0.828677 0.596854
O O1 0.170403 0.500000 0.936076
O O2 0.172766 0.226079 0.904378
O O3 0.000000 0.331543 0.946554
O O4 0.170581 0.280806 0.000000
O O5 0.712421 0.500000 0.344461
O O6 0.606090 0.747148 0.351798
O O7 0.730949 0.700966 0.274773
O O8 0.818351 0.748455 0.357382
O O9 0.180606 0.262640 0.191175
O O10 0.000000 0.192767 0.152054
O O11 0.161910 0.000000 0.153501
O O12 0.500000 0.169169 0.274745
O O13 0.606793 0.249619 0.197547
O O14 0.500000 0.000000 0.196573
O O15 0.500000 0.000000 0.352728
O O16 0.825324 0.500000 0.500000
O O17 0.828419 0.753012 0.452507
O O18 0.000000 0.666594 0.500000
O O19 0.704234 0.500000 0.205982
O O20 0.000000 0.808166 0.602531
O O21 0.161103 0.000000 0.595747
#
# Coordination Sequence:
#
# PCOD8196571 Si02
#       8
#     8   8   8   4   4   4   8   8
#     4   8  14  26  44  64  87 118 156 195 234 279
#     4  10  20  33  50  72  97 126 161 199 237 280
#     4  10  20  31  44  66  97 130 161 195 238 285
#     4   9  17  31  51  71  91 117 155 201 241 278
#     4   9  17  31  51  72  94 122 156 195 239 282
#     4   9  17  31  51  72  95 124 159 199 238 277
#     4  10  20  33  49  69  95 127 162 198 236 281
#     4  10  20  33  50  73 100 129 161 197 238 283
#
# _framework density 16.987331999999999
#
# number of rings (size 3 to 8) (size 9 to 14) (size 15 to 20)
#    0.000    2.538    0.000    3.000    0.000    7.385 
#    0.000    4.615    0.000    0.462    0.000    3.769 
#    0.000    4.308    0.000    0.000    0.000    0.000 
#
# Total GULP energy -644789.775859 kJ/mol
# GULP energy per Si atom -12399.803382 kJ/mol
# Density = 1.694867 g / cm^3
# Si number density = 16.987332 Si / 1000 Ang^3
#
#
#
# Elastic Constant Matrix: (Units=GPa)
#
#
# Indices 1 2 3 4 5 6 
#
# 1 52.2001 49.0867 40.2054 0.0000 0.0000 0.0000
# 2 49.0867 146.2115 65.8660 0.0000 0.0000 0.0000
# 3 40.2054 65.8660 76.2734 0.0000 0.0000 0.0000
# 4 0.0000 0.0000 0.0000 30.5052 0.0000 0.0000
# 5 0.0000 0.0000 0.0000 0.0000 3.6065 0.0000
# 6 0.0000 0.0000 0.0000 0.0000 0.0000 30.6691
#
#
#
# Elastic Compliance Matrix: (Units=1/GPa)
#
#
# Indices 1 2 3 4 5 6 
#
# 1 0.034848 -0.005604 -0.013529 0.000000 0.000000 0.000000
# 2 -0.005604 0.012095 -0.007491 0.000000 0.000000 0.000000
# 3 -0.013529 -0.007491 0.026711 0.000000 0.000000 0.000000
# 4 0.000000 0.000000 0.000000 0.032781 0.000000 0.000000
# 5 0.000000 0.000000 0.000000 0.000000 0.277274 0.000000
# 6 0.000000 0.000000 0.000000 0.000000 0.000000 0.032606
#
#
# Mechanical properties :
#
#
# Convention : Reuss Voigt Hill
#
# Bulk Modulus (GPa) = 49.00735 65.00014 57.00374
# Shear Modulus (GPa) = 10.49611 20.92461 15.71036
#
# Velocity S-wave (km/s) = 2.48841 3.51348 3.04440
# Velocity P-wave (km/s) = 6.09658 7.40313 6.78139
#
# Compressibility (1/GPa) = 0.02040510
#
# Stress axis : x y z
#
# Youngs Moduli (GPa) = 28.69621 82.67560 37.43770
#
# Poissons Ratio (x) = 0.46336 0.50651
# Poissons Ratio (y) = 0.16083 0.28044
# Poissons Ratio (z) = 0.38824 0.61931
#
# Static dielectric constant tensor:
#      x y z
#    x 2.955690 0.000000 0.000000 
#    y 0.000000 3.400680 0.000000 
#    z 0.000000 0.000000 3.174940 
# 
# 
# High freq. dielectric constant tensor:
#      x y z
#    x 1.625390 0.000000 0.000000 
#    y 0.000000 1.673680 0.000000 
#    z 0.000000 0.000000 1.641280 
# 
# From -- ./inp_files/33669.got.cif
#   From: 2010.03.12/outbox.cif.g09.slc.cpg/sg47_17_cif.got.tgz:33669.got - 2010.04.14 03:12:58.
