data_PCOD8196418
_publ_section_title
;
Structure prediction by ZEFSAII (Michael W. Deem and Ramdas Pophale) SiO2 
 PCOD8196418
Probable space group: P M M M
;
_chemical_formula_sum "Si O2"
_cell_formula_units_Z 52
_cell_length_a 22.869553
_cell_length_b 20.368216
_cell_length_c 9.234745
_cell_angle_alpha 90.000000
_cell_angle_beta 90.000000
_cell_angle_gamma 90.000000
_cell_volume 4301.654995
_symmetry_space_group_name_H-M "P M M M"
_symmetry_group_IT_number 47
_symmetry_cell_setting 'orthorhombic'
loop_
_space_group_symop_operation_xyz
x,y,z
-x,-y,z
x,-y,-z
-x,y,-z
-x,-y,-z
x,y,-z
-x,y,z
x,-y,z
loop_
_atom_site_type_symbol
_atom_site_label
_atom_site_fract_x
_atom_site_fract_y
_atom_site_fract_z
Si Si1 0.568139 0.837946 0.669069
Si Si2 0.886734 0.078267 0.164554
Si Si3 0.569432 0.308014 0.340209
Si Si4 0.340447 0.922736 0.167626
Si Si5 0.000000 0.078213 0.664536
Si Si6 0.226015 0.921876 0.664224
Si Si7 0.569464 0.571512 0.161976
O O1 0.583364 0.847747 0.500000
O O2 0.500000 0.850922 0.695919
O O3 0.585611 0.764150 0.720284
O O4 0.602432 0.889041 0.767369
O O5 0.829804 0.105353 0.248103
O O6 0.943269 0.104640 0.250471
O O7 0.886453 0.000000 0.162229
O O8 0.887334 0.105268 0.000000
O O9 0.595682 0.315741 0.500000
O O10 0.500000 0.314339 0.345644
O O11 0.597487 0.367294 0.247766
O O12 0.283942 0.896853 0.254412
O O13 0.348548 0.000000 0.187844
O O14 0.332854 0.903907 0.000000
O O15 0.000000 0.105358 0.500000
O O16 0.000000 0.000000 0.661772
O O17 0.225178 0.894487 0.500000
O O18 0.224337 0.000000 0.662542
O O19 0.500000 0.577937 0.161395
O O20 0.586987 0.500000 0.228910
O O21 0.593970 0.575866 0.000000
#
# Coordination Sequence:
#
# PCOD8196418 Si02
#       7
#     8   8   8   8   4   8   8
#     4   9  18  31  43  53  65  81 101 126 159 200
#     4   9  15  22  32  46  64  83 101 122 148 176
#     4   8  14  24  36  49  64  81 101 123 146 176
#     4  10  20  31  41  53  66  78  97 128 164 202
#     4   9  15  21  29  43  63  85 107 125 141 169
#     4   9  16  26  39  51  62  78  99 122 151 188
#     4   8  13  20  30  46  67  87 104 120 138 164
#
# _framework density 12.088369999999999
#
# number of rings (size 3 to 8) (size 9 to 14) (size 15 to 20)
#    0.000    3.154    0.000    3.000    0.000    7.077 
#    0.000    4.615    0.000    0.000    0.000    0.000 
#    0.000    0.000    0.000    0.000    0.000    0.000 
#
# Total GULP energy -644445.745685 kJ/mol
# GULP energy per Si atom -12393.187417 kJ/mol
# Density = 1.206086 g / cm^3
# Si number density = 12.088370 Si / 1000 Ang^3
#
#
#
# Elastic Constant Matrix: (Units=GPa)
#
#
# Indices 1 2 3 4 5 6 
#
# 1 61.0907 24.7819 45.3808 0.0000 0.0000 0.0000
# 2 24.7819 34.4785 30.9791 0.0000 0.0000 0.0000
# 3 45.3808 30.9791 98.4796 0.0000 0.0000 0.0000
# 4 0.0000 0.0000 0.0000 16.3042 0.0000 0.0000
# 5 0.0000 0.0000 0.0000 0.0000 20.7917 0.0000
# 6 0.0000 0.0000 0.0000 0.0000 0.0000 0.1317
#
#
#
# Elastic Compliance Matrix: (Units=1/GPa)
#
#
# Indices 1 2 3 4 5 6 
#
# 1 0.027999 -0.011893 -0.009161 0.000000 0.000000 0.000000
# 2 -0.011893 0.045483 -0.008827 0.000000 0.000000 0.000000
# 3 -0.009161 -0.008827 0.017153 0.000000 0.000000 0.000000
# 4 0.000000 0.000000 0.000000 0.061334 0.000000 0.000000
# 5 0.000000 0.000000 0.000000 0.000000 0.048096 0.000000
# 6 0.000000 0.000000 0.000000 0.000000 0.000000 7.593420
#
#
# Mechanical properties :
#
#
# Convention : Reuss Voigt Hill
#
# Bulk Modulus (GPa) = 32.39202 44.03695 38.21448
# Shear Modulus (GPa) = 0.63585 13.63932 7.13758
#
# Velocity S-wave (km/s) = 0.72604 3.36266 2.43255
# Velocity P-wave (km/s) = 5.24948 7.18227 6.29055
#
# Compressibility (1/GPa) = 0.03087180
#
# Stress axis : x y z
#
# Youngs Moduli (GPa) = 35.71574 21.98602 58.29995
#
# Poissons Ratio (x) = 0.26149 0.53408
# Poissons Ratio (y) = 0.42478 0.51463
# Poissons Ratio (z) = 0.32719 0.19408
#
# Static dielectric constant tensor:
#      x y z
#    x 2.329430 0.000000 0.000000 
#    y 0.000000 2.301910 0.000000 
#    z 0.000000 0.000000 2.720380 
# 
# 
# High freq. dielectric constant tensor:
#      x y z
#    x 1.426940 0.000000 0.000000 
#    y 0.000000 1.411440 0.000000 
#    z 0.000000 0.000000 1.473340 
# 
# From -- ./inp_files/12801.got.cif
#   From: 2010.03.12/outbox.cif.g09.slc.cpg/sg47_7_cif.got.tgz:12801.got - 2010.04.14 03:12:58.
