data_PCOD8196928
_publ_section_title
;
Structure prediction by ZEFSAII (Michael W. Deem and Ramdas Pophale) SiO2 
 PCOD8196928
Probable space group: P M M M
;
_chemical_formula_sum "Si O2"
_cell_formula_units_Z 64
_cell_length_a 9.248327
_cell_length_b 15.306810
_cell_length_c 23.326973
_cell_angle_alpha 90.000000
_cell_angle_beta 90.000000
_cell_angle_gamma 90.000000
_cell_volume 3302.221914
_symmetry_space_group_name_H-M "P M M M"
_symmetry_group_IT_number 47
_symmetry_cell_setting 'orthorhombic'
loop_
_space_group_symop_operation_xyz
x,y,z
-x,-y,z
x,-y,-z
-x,y,-z
-x,-y,-z
x,y,-z
-x,y,z
x,-y,z
loop_
_atom_site_type_symbol
_atom_site_label
_atom_site_fract_x
_atom_site_fract_y
_atom_site_fract_z
Si Si1 0.170180 0.102006 0.620482
Si Si2 0.838984 0.831859 0.822620
Si Si3 0.663138 0.596736 0.880018
Si Si4 0.835463 0.357756 0.228795
Si Si5 0.331972 0.600275 0.655960
Si Si6 0.334214 0.746638 0.565165
Si Si7 0.656822 0.099298 0.729365
Si Si8 0.832948 0.255922 0.063997
O O1 0.238673 0.165733 0.573204
O O2 0.236075 0.136131 0.680863
O O3 0.000000 0.116725 0.623408
O O4 0.205548 0.000000 0.606832
O O5 0.831544 0.744049 0.785704
O O6 0.726983 0.896583 0.792575
O O7 0.790336 0.816668 0.888651
O O8 0.000000 0.872187 0.820982
O O9 0.500000 0.630420 0.868979
O O10 0.661934 0.500000 0.906576
O O11 0.747397 0.592171 0.820067
O O12 0.739007 0.657805 0.926860
O O13 0.762791 0.375188 0.289399
O O14 0.000000 0.392429 0.230070
O O15 0.500000 0.612527 0.671660
O O16 0.301293 0.500000 0.637268
O O17 0.285327 0.665189 0.604629
O O18 0.313878 0.715197 0.500000
O O19 0.500000 0.772280 0.578033
O O20 0.500000 0.147971 0.728128
O O21 0.629132 0.000000 0.714392
O O22 0.000000 0.282125 0.073670
O O23 0.806051 0.218804 0.000000
#
# Coordination Sequence:
#
# PCOD8196928 Si02
#       8
#     8   8   8   8   8   8   8   8
#     4  10  21  37  58  84 113 143 173 209 259 318
#     4   9  18  32  51  75 102 133 168 209 256 304
#     4  10  20  32  47  70 100 131 164 205 253 305
#     4  10  20  33  51  76 103 131 168 213 260 311
#     4  10  21  36  54  77 106 140 178 222 270 316
#     4  10  22  39  58  80 106 140 182 223 262 308
#     4  10  20  33  52  80 110 136 164 201 247 302
#     4   9  19  35  52  70  94 128 171 213 251 295
#
# _framework density 19.380890000000001
#
# number of rings (size 3 to 8) (size 9 to 14) (size 15 to 20)
#    0.000    2.250    0.000    3.375    0.000   10.500 
#    0.000    3.750    0.000    0.375    0.000    4.375 
#    0.000    0.000    0.000    0.000    0.000    0.000 
#
# Total GULP energy -793411.556241 kJ/mol
# GULP energy per Si atom -12397.055566 kJ/mol
# Density = 1.933678 g / cm^3
# Si number density = 19.380890 Si / 1000 Ang^3
#
#
#
# Elastic Constant Matrix: (Units=GPa)
#
#
# Indices 1 2 3 4 5 6 
#
# 1 98.3588 27.3425 43.1089 0.0000 0.0000 0.0000
# 2 27.3425 51.0585 32.8917 0.0000 0.0000 0.0000
# 3 43.1089 32.8917 115.7702 0.0000 0.0000 0.0000
# 4 0.0000 0.0000 0.0000 14.6434 0.0000 0.0000
# 5 0.0000 0.0000 0.0000 0.0000 28.4076 0.0000
# 6 0.0000 0.0000 0.0000 0.0000 0.0000 25.4628
#
#
#
# Elastic Compliance Matrix: (Units=1/GPa)
#
#
# Indices 1 2 3 4 5 6 
#
# 1 0.013013 -0.004709 -0.003508 0.000000 0.000000 0.000000
# 2 -0.004709 0.025677 -0.005542 0.000000 0.000000 0.000000
# 3 -0.003508 -0.005542 0.011518 0.000000 0.000000 0.000000
# 4 0.000000 0.000000 0.000000 0.068290 0.000000 0.000000
# 5 0.000000 0.000000 0.000000 0.000000 0.035202 0.000000
# 6 0.000000 0.000000 0.000000 0.000000 0.000000 0.039273
#
#
# Mechanical properties :
#
#
# Convention : Reuss Voigt Hill
#
# Bulk Modulus (GPa) = 44.06890 52.43039 48.24965
# Shear Modulus (GPa) = 21.92454 24.49239 23.20846
#
# Velocity S-wave (km/s) = 3.36705 3.55877 3.46423
# Velocity P-wave (km/s) = 6.15660 6.63308 6.39928
#
# Compressibility (1/GPa) = 0.02269174
#
# Stress axis : x y z
#
# Youngs Moduli (GPa) = 76.84423 38.94519 86.81722
#
# Poissons Ratio (x) = 0.18340 0.30454
# Poissons Ratio (y) = 0.36187 0.48111
# Poissons Ratio (z) = 0.26956 0.21582
#
# Static dielectric constant tensor:
#      x y z
#    x 3.699950 0.000000 0.000000 
#    y 0.000000 3.380220 0.000000 
#    z 0.000000 0.000000 3.517180 
# 
# 
# High freq. dielectric constant tensor:
#      x y z
#    x 1.761180 0.000000 0.000000 
#    y 0.000000 1.736050 0.000000 
#    z 0.000000 0.000000 1.747750 
# 
# From -- ./inp_files/7801.got.cif
#   From: 2010.03.12/outbox.cif.g09.slc.cpg/sg47_4_cif.got.tgz:7801.got - 2010.04.14 03:12:58.
