data_PCOD8196218
_publ_section_title
;
Structure prediction by ZEFSAII (Michael W. Deem and Ramdas Pophale) SiO2 
 PCOD8196218
Probable space group: P M M M
;
_chemical_formula_sum "Si O2"
_cell_formula_units_Z 48
_cell_length_a 9.195054
_cell_length_b 17.153237
_cell_length_c 15.601709
_cell_angle_alpha 90.000000
_cell_angle_beta 90.000000
_cell_angle_gamma 90.000000
_cell_volume 2460.778624
_symmetry_space_group_name_H-M "P M M M"
_symmetry_group_IT_number 47
_symmetry_cell_setting 'orthorhombic'
loop_
_space_group_symop_operation_xyz
x,y,z
-x,-y,z
x,-y,-z
-x,y,-z
-x,-y,-z
x,y,-z
-x,y,z
x,-y,z
loop_
_atom_site_type_symbol
_atom_site_label
_atom_site_fract_x
_atom_site_fract_y
_atom_site_fract_z
Si Si1 0.665597 0.092583 0.739579
Si Si2 0.835682 0.907343 0.095014
Si Si3 0.161281 0.592709 0.000000
Si Si4 0.828717 0.188288 0.599562
Si Si5 0.331409 0.340227 0.661858
Si Si6 0.335658 0.411476 0.838698
Si Si7 0.340967 0.500000 0.401072
O O1 0.500000 0.123178 0.734291
O O2 0.733243 0.125197 0.828832
O O3 0.754014 0.122533 0.657517
O O4 0.672282 0.000000 0.737010
O O5 0.000000 0.877960 0.111586
O O6 0.831925 0.000000 0.096996
O O7 0.782798 0.878985 0.000000
O O8 0.239184 0.623112 0.085076
O O9 0.164905 0.500000 0.000000
O O10 0.000000 0.627091 0.000000
O O11 0.794227 0.170728 0.500000
O O12 0.765298 0.271512 0.625530
O O13 0.000000 0.187821 0.616951
O O14 0.500000 0.328737 0.633265
O O15 0.317626 0.348053 0.763828
O O16 0.261180 0.420219 0.624691
O O17 0.500000 0.414295 0.871894
O O18 0.288642 0.500000 0.810406
O O19 0.500000 0.500000 0.353055
O O20 0.367064 0.500000 0.500000
#
# Coordination Sequence:
#
# PCOD8196218 Si02
#       7
#     8   8   4   8   8   8   4
#     4  10  21  37  60  89 116 145 186 235 282 329
#     4   8  14  27  51  84 120 155 186 217 262 324
#     4   9  17  27  43  71 105 141 182 221 266 321
#     4  11  25  42  58  79 111 151 190 230 283 342
#     4  10  19  34  57  83 109 141 182 228 278 329
#     4   9  16  29  50  77 107 139 178 223 271 323
#     4   9  16  28  51  82 109 134 172 221 271 327
#
# _framework density 19.506022000000002
#
# number of rings (size 3 to 8) (size 9 to 14) (size 15 to 20)
#    0.000    2.500    0.833    2.250    0.000    5.333 
#    0.000    3.750    1.833    1.500    0.000    0.000 
#    0.000    0.000    0.000    0.000    0.000    0.000 
#
# Total GULP energy -594959.395892 kJ/mol
# GULP energy per Si atom -12394.987414 kJ/mol
# Density = 1.946163 g / cm^3
# Si number density = 19.506022 Si / 1000 Ang^3
#
#
#
# Elastic Constant Matrix: (Units=GPa)
#
#
# Indices 1 2 3 4 5 6 
#
# 1 120.7853 27.7206 81.4830 0.0000 0.0000 0.0000
# 2 27.7206 40.4218 30.7805 0.0000 0.0000 0.0000
# 3 81.4830 30.7805 148.4304 0.0000 0.0000 0.0000
# 4 0.0000 0.0000 0.0000 22.0302 0.0000 0.0000
# 5 0.0000 0.0000 0.0000 0.0000 30.9810 0.0000
# 6 0.0000 0.0000 0.0000 0.0000 0.0000 24.9972
#
#
#
# Elastic Compliance Matrix: (Units=1/GPa)
#
#
# Indices 1 2 3 4 5 6 
#
# 1 0.013772 -0.004379 -0.006652 0.000000 0.000000 0.000000
# 2 -0.004379 0.030771 -0.003977 0.000000 0.000000 0.000000
# 3 -0.006652 -0.003977 0.011214 0.000000 0.000000 0.000000
# 4 0.000000 0.000000 0.000000 0.045392 0.000000 0.000000
# 5 0.000000 0.000000 0.000000 0.000000 0.032278 0.000000
# 6 0.000000 0.000000 0.000000 0.000000 0.000000 0.040004
#
#
# Mechanical properties :
#
#
# Convention : Reuss Voigt Hill
#
# Bulk Modulus (GPa) = 38.85052 65.51174 52.18113
# Shear Modulus (GPa) = 23.58193 26.91192 25.24692
#
# Velocity S-wave (km/s) = 3.48078 3.71842 3.60156
# Velocity P-wave (km/s) = 6.00956 7.21761 6.64111
#
# Compressibility (1/GPa) = 0.02573968
#
# Stress axis : x y z
#
# Youngs Moduli (GPa) = 72.61263 32.49855 89.17678
#
# Poissons Ratio (x) = 0.14231 0.59321
# Poissons Ratio (y) = 0.31797 0.35467
# Poissons Ratio (z) = 0.48303 0.12925
#
# Static dielectric constant tensor:
#      x y z
#    x 3.568600 0.000000 0.000000 
#    y 0.000000 3.226520 0.000000 
#    z 0.000000 0.000000 3.787920 
# 
# 
# High freq. dielectric constant tensor:
#      x y z
#    x 1.745080 0.000000 0.000000 
#    y 0.000000 1.729270 0.000000 
#    z 0.000000 0.000000 1.775160 
# 
# From -- ./inp_files/21125.got.cif
#   From: 2010.03.12/outbox.cif.g09.slc.cpg/sg47_11_cif.got.tgz:21125.got - 2010.04.14 03:12:58.
