data_PCOD8196944
_publ_section_title
;
Structure prediction by ZEFSAII (Michael W. Deem and Ramdas Pophale) SiO2 
 PCOD8196944
Probable space group: P M M M
;
_chemical_formula_sum "Si O2"
_cell_formula_units_Z 52
_cell_length_a 18.004212
_cell_length_b 18.610090
_cell_length_c 9.242889
_cell_angle_alpha 90.000000
_cell_angle_beta 90.000000
_cell_angle_gamma 90.000000
_cell_volume 3096.922441
_symmetry_space_group_name_H-M "P M M M"
_symmetry_group_IT_number 47
_symmetry_cell_setting 'orthorhombic'
loop_
_space_group_symop_operation_xyz
x,y,z
-x,-y,z
x,-y,-z
-x,y,-z
-x,-y,-z
x,y,-z
-x,y,z
x,-y,z
loop_
_atom_site_type_symbol
_atom_site_label
_atom_site_fract_x
_atom_site_fract_y
_atom_site_fract_z
Si Si1 0.204067 0.353947 0.340687
Si Si2 0.352341 0.418924 0.330621
Si Si3 0.083419 0.000000 0.171837
Si Si4 0.585827 0.287019 0.166360
Si Si5 0.831247 0.141052 0.830161
Si Si6 0.083211 0.285747 0.831124
Si Si7 0.294469 0.792516 0.662686
O O1 0.174544 0.373766 0.500000
O O2 0.264939 0.412132 0.287556
O O3 0.132951 0.349420 0.236783
O O4 0.245977 0.278619 0.342270
O O5 0.361674 0.398897 0.500000
O O6 0.378841 0.500000 0.299015
O O7 0.402324 0.365321 0.237181
O O8 0.127017 0.070182 0.226230
O O9 0.000000 0.000000 0.236718
O O10 0.078498 0.000000 0.000000
O O11 0.500000 0.266342 0.177356
O O12 0.630346 0.224422 0.249513
O O13 0.612678 0.290292 0.000000
O O14 0.884733 0.207614 0.793005
O O15 0.753141 0.146623 0.745347
O O16 0.813403 0.137541 0.000000
O O17 0.000000 0.290316 0.767918
O O18 0.083159 0.299412 0.000000
O O19 0.313981 0.818581 0.500000
#
# Coordination Sequence:
#
# PCOD8196944 Si02
#       7
#     8   8   4   8   8   8   8
#     4   8  15  27  42  60  80 105 142 185 222 258
#     4   9  18  32  48  65  88 120 153 181 214 264
#     4   9  16  26  43  69 100 133 166 195 225 266
#     4  10  20  32  47  70  97 119 143 181 225 267
#     4   9  16  27  44  65  91 123 157 191 224 262
#     4   9  16  25  39  60  84 110 143 185 229 266
#     4   9  17  30  47  65  87 117 153 189 224 266
#
# _framework density 16.790862000000001
#
# number of rings (size 3 to 8) (size 9 to 14) (size 15 to 20)
#    0.000    3.000    0.000    2.308    0.000    7.692 
#    0.000    1.923    0.000    2.308    0.000    3.769 
#    0.000    4.308    0.000    0.000    0.000    0.000 
#
# Total GULP energy -644603.989209 kJ/mol
# GULP energy per Si atom -12396.230562 kJ/mol
# Density = 1.675265 g / cm^3
# Si number density = 16.790862 Si / 1000 Ang^3
#
#
#
# Elastic Constant Matrix: (Units=GPa)
#
#
# Indices 1 2 3 4 5 6 
#
# 1 104.0898 32.3885 51.8911 0.0000 0.0000 0.0000
# 2 32.3885 46.1245 23.8315 0.0000 0.0000 0.0000
# 3 51.8911 23.8315 75.0263 0.0000 0.0000 0.0000
# 4 0.0000 0.0000 0.0000 17.0988 0.0000 0.0000
# 5 0.0000 0.0000 0.0000 0.0000 22.1151 0.0000
# 6 0.0000 0.0000 0.0000 0.0000 0.0000 20.9812
#
#
#
# Elastic Compliance Matrix: (Units=1/GPa)
#
#
# Indices 1 2 3 4 5 6 
#
# 1 0.016224 -0.006693 -0.009095 0.000000 0.000000 0.000000
# 2 -0.006693 0.028698 -0.004487 0.000000 0.000000 0.000000
# 3 -0.009095 -0.004487 0.021044 0.000000 0.000000 0.000000
# 4 0.000000 0.000000 0.000000 0.058484 0.000000 0.000000
# 5 0.000000 0.000000 0.000000 0.000000 0.045218 0.000000
# 6 0.000000 0.000000 0.000000 0.000000 0.000000 0.047662
#
#
# Mechanical properties :
#
#
# Convention : Reuss Voigt Hill
#
# Bulk Modulus (GPa) = 39.34364 49.05142 44.19753
# Shear Modulus (GPa) = 18.77219 19.84766 19.30993
#
# Velocity S-wave (km/s) = 3.34728 3.44183 3.39488
# Velocity P-wave (km/s) = 6.19851 6.71353 6.46115
#
# Compressibility (1/GPa) = 0.02541707
#
# Stress axis : x y z
#
# Youngs Moduli (GPa) = 61.63795 34.84504 47.51896
#
# Poissons Ratio (x) = 0.23322 0.43218
# Poissons Ratio (y) = 0.41255 0.21320
# Poissons Ratio (z) = 0.56060 0.15634
#
# Static dielectric constant tensor:
#      x y z
#    x 3.229770 0.000000 0.000000 
#    y 0.000000 2.989710 0.000000 
#    z 0.000000 0.000000 3.204710 
# 
# 
# High freq. dielectric constant tensor:
#      x y z
#    x 1.643440 0.000000 0.000000 
#    y 0.000000 1.610380 0.000000 
#    z 0.000000 0.000000 1.641920 
# 
# From -- ./inp_files/9524.got.cif
#   From: 2010.03.12/outbox.cif.g09.slc.cpg/sg47_5_cif.got.tgz:9524.got - 2010.04.14 03:12:58.
