data_PCOD8196691
_publ_section_title
;
Structure prediction by ZEFSAII (Michael W. Deem and Ramdas Pophale) SiO2 
 PCOD8196691
Probable space group: P M M M
;
_chemical_formula_sum "Si O2"
_cell_formula_units_Z 60
_cell_length_a 9.066721
_cell_length_b 19.064126
_cell_length_c 27.374866
_cell_angle_alpha 90.000000
_cell_angle_beta 90.000000
_cell_angle_gamma 90.000000
_cell_volume 4731.721267
_symmetry_space_group_name_H-M "P M M M"
_symmetry_group_IT_number 47
_symmetry_cell_setting 'orthorhombic'
loop_
_space_group_symop_operation_xyz
x,y,z
-x,-y,z
x,-y,-z
-x,y,-z
-x,-y,-z
x,y,-z
-x,y,z
x,-y,z
loop_
_atom_site_type_symbol
_atom_site_label
_atom_site_fract_x
_atom_site_fract_y
_atom_site_fract_z
Si Si1 0.333278 0.916439 0.500000
Si Si2 0.174545 0.918887 0.209984
Si Si3 0.160610 0.918381 0.053019
Si Si4 0.674334 0.285921 0.944090
Si Si5 0.833196 0.083712 0.595864
Si Si6 0.834672 0.423382 0.942117
Si Si7 0.665116 0.917332 0.309576
Si Si8 0.328763 0.160788 0.125357
O O1 0.500000 0.887385 0.500000
O O2 0.249314 0.887923 0.547756
O O3 0.334086 0.000000 0.500000
O O4 0.241332 0.898022 0.262008
O O5 0.237835 0.859884 0.173474
O O6 0.000000 0.911482 0.212494
O O7 0.217032 0.000000 0.195677
O O8 0.298042 0.901366 0.087365
O O9 0.000000 0.893508 0.074374
O O10 0.156015 0.000000 0.046248
O O11 0.185676 0.883019 0.000000
O O12 0.500000 0.285432 0.944768
O O13 0.728658 0.361215 0.924080
O O14 0.730507 0.229767 0.903644
O O15 0.731985 0.271004 0.000000
O O16 0.748039 0.113966 0.643135
O O17 0.000000 0.112604 0.596043
O O18 0.834202 0.000000 0.596517
O O19 0.780557 0.500000 0.922540
O O20 0.000000 0.408502 0.923019
O O21 0.833760 0.425480 0.000000
O O22 0.500000 0.885368 0.305786
O O23 0.653785 0.000000 0.315577
O O24 0.500000 0.165803 0.138957
#
# Coordination Sequence:
#
# PCOD8196691 Si02
#       8
#     4   8   8   8   8   8   8   8
#     4   9  15  21  29  43  63  85 107 129 155 191
#     4  10  20  32  43  53  65  83 110 143 177 212
#     4   9  18  31  43  53  65  82 105 132 163 201
#     4   9  18  30  41  55  75  95 112 130 156 193
#     4   9  15  22  32  46  64  84 104 127 158 197
#     4   8  14  25  41  60  78  93 110 130 149 175
#     4   9  16  26  39  52  64  79 102 133 168 204
#     4  11  21  30  40  54  71  88 108 136 167 199
#
# _framework density 12.680375
#
# number of rings (size 3 to 8) (size 9 to 14) (size 15 to 20)
#    0.000    2.733    0.000    3.400    0.000    8.800 
#    0.000    3.333    0.000    0.000    0.000    0.000 
#    0.000    0.000    0.000    0.000    0.000    0.000 
#
# Total GULP energy -743349.802233 kJ/mol
# GULP energy per Si atom -12389.163371 kJ/mol
# Density = 1.265151 g / cm^3
# Si number density = 12.680375 Si / 1000 Ang^3
#
#
#
# Elastic Constant Matrix: (Units=GPa)
#
#
# Indices 1 2 3 4 5 6 
#
# 1 69.1444 22.5947 42.7433 0.0000 0.0000 0.0000
# 2 22.5947 42.2796 32.2072 0.0000 0.0000 0.0000
# 3 42.7433 32.2072 90.2068 0.0000 0.0000 0.0000
# 4 0.0000 0.0000 0.0000 4.7009 0.0000 0.0000
# 5 0.0000 0.0000 0.0000 0.0000 21.2670 0.0000
# 6 0.0000 0.0000 0.0000 0.0000 0.0000 14.8617
#
#
#
# Elastic Compliance Matrix: (Units=1/GPa)
#
#
# Indices 1 2 3 4 5 6 
#
# 1 0.021212 -0.005054 -0.008246 0.000000 0.000000 0.000000
# 2 -0.005054 0.033692 -0.009635 0.000000 0.000000 0.000000
# 3 -0.008246 -0.009635 0.018433 0.000000 0.000000 0.000000
# 4 0.000000 0.000000 0.000000 0.212725 0.000000 0.000000
# 5 0.000000 0.000000 0.000000 0.000000 0.047021 0.000000
# 6 0.000000 0.000000 0.000000 0.000000 0.000000 0.067287
#
#
# Mechanical properties :
#
#
# Convention : Reuss Voigt Hill
#
# Bulk Modulus (GPa) = 36.40735 44.08014 40.24375
# Shear Modulus (GPa) = 10.97944 15.10496 13.04220
#
# Velocity S-wave (km/s) = 2.94574 3.45513 3.21056
# Velocity P-wave (km/s) = 6.35167 7.12427 6.74904
#
# Compressibility (1/GPa) = 0.02746698
#
# Stress axis : x y z
#
# Youngs Moduli (GPa) = 47.14368 29.68036 54.25027
#
# Poissons Ratio (x) = 0.15000 0.44737
# Poissons Ratio (y) = 0.23826 0.52269
# Poissons Ratio (z) = 0.38877 0.28596
#
# Static dielectric constant tensor:
#      x y z
#    x 2.736500 0.000000 0.000000 
#    y 0.000000 2.383660 0.000000 
#    z 0.000000 0.000000 2.577900 
# 
# 
# High freq. dielectric constant tensor:
#      x y z
#    x 1.496510 0.000000 0.000000 
#    y 0.000000 1.423110 0.000000 
#    z 0.000000 0.000000 1.465550 
# 
# From -- ./inp_files/33518.got.cif
#   From: 2010.03.12/outbox.cif.g09.slc.cpg/sg47_17_cif.got.tgz:33518.got - 2010.04.14 03:12:58.
