data_PCOD8196425
_publ_section_title
;
Structure prediction by ZEFSAII (Michael W. Deem and Ramdas Pophale) SiO2 
 PCOD8196425
Probable space group: P M M M
;
_chemical_formula_sum "Si O2"
_cell_formula_units_Z 52
_cell_length_a 9.186233
_cell_length_b 25.387646
_cell_length_c 17.809462
_cell_angle_alpha 90.000000
_cell_angle_beta 90.000000
_cell_angle_gamma 90.000000
_cell_volume 4153.466298
_symmetry_space_group_name_H-M "P M M M"
_symmetry_group_IT_number 47
_symmetry_cell_setting 'orthorhombic'
loop_
_space_group_symop_operation_xyz
x,y,z
-x,-y,z
x,-y,-z
-x,y,-z
-x,-y,-z
x,y,-z
-x,y,z
x,-y,z
loop_
_atom_site_type_symbol
_atom_site_label
_atom_site_fract_x
_atom_site_fract_y
_atom_site_fract_z
Si Si1 0.327198 0.057670 0.000000
Si Si2 0.336236 0.657612 0.410347
Si Si3 0.832668 0.937765 0.305428
Si Si4 0.835614 0.241147 0.589333
Si Si5 0.663467 0.062920 0.839220
Si Si6 0.669001 0.862418 0.411751
Si Si7 0.163568 0.441921 0.410730
O O1 0.283546 0.086159 0.079027
O O2 0.500000 0.051395 0.000000
O O3 0.253591 0.000000 0.000000
O O4 0.334892 0.657524 0.500000
O O5 0.500000 0.662728 0.379727
O O6 0.242753 0.706579 0.379258
O O7 0.268629 0.603298 0.378190
O O8 0.771781 0.917174 0.225502
O O9 0.741336 0.912505 0.372546
O O10 0.000000 0.920660 0.311911
O O11 0.812855 0.000000 0.312852
O O12 0.836439 0.242544 0.500000
O O13 0.747127 0.190415 0.617817
O O14 0.000000 0.238914 0.620799
O O15 0.500000 0.082515 0.820031
O O16 0.664496 0.000000 0.844850
O O17 0.691912 0.869906 0.500000
O O18 0.500000 0.858768 0.390558
O O19 0.163907 0.439435 0.500000
O O20 0.217541 0.500000 0.384373
O O21 0.000000 0.431656 0.381318
#
# Coordination Sequence:
#
# PCOD8196425 Si02
#       7
#     4   8   8   8   8   8   8
#     4   7  10  18  35  57  75  91 111 131 149 173
#     4   9  15  21  30  44  60  76  95 120 149 182
#     4  10  20  31  41  54  72  91 109 130 160 199
#     4   9  16  26  39  51  62  76  95 122 158 197
#     4   8  13  23  39  56  73  92 112 131 151 179
#     4  10  20  32  44  55  65  79 104 138 172 205
#     4   8  13  20  28  38  54  76  99 120 144 178
#
# _framework density 12.519663
#
# number of rings (size 3 to 8) (size 9 to 14) (size 15 to 20)
#    0.000    3.154    0.000    3.231    0.000    6.154 
#    0.000    3.462    0.000    2.308    0.000    0.000 
#    0.000    0.000    0.000    0.000    0.000    0.000 
#
# Total GULP energy -644371.041731 kJ/mol
# GULP energy per Si atom -12391.750803 kJ/mol
# Density = 1.249117 g / cm^3
# Si number density = 12.519663 Si / 1000 Ang^3
#
#
#
# Elastic Constant Matrix: (Units=GPa)
#
#
# Indices 1 2 3 4 5 6 
#
# 1 101.9784 43.9617 30.7121 0.0000 0.0000 0.0000
# 2 43.9617 57.1789 23.8722 0.0000 0.0000 0.0000
# 3 30.7121 23.8722 34.7196 0.0000 0.0000 0.0000
# 4 0.0000 0.0000 0.0000 0.3798 0.0000 0.0000
# 5 0.0000 0.0000 0.0000 0.0000 9.9570 0.0000
# 6 0.0000 0.0000 0.0000 0.0000 0.0000 22.0173
#
#
#
# Elastic Compliance Matrix: (Units=1/GPa)
#
#
# Indices 1 2 3 4 5 6 
#
# 1 0.016127 -0.009038 -0.008051 0.000000 0.000000 0.000000
# 2 -0.009038 0.029596 -0.012355 0.000000 0.000000 0.000000
# 3 -0.008051 -0.012355 0.044419 0.000000 0.000000 0.000000
# 4 0.000000 0.000000 0.000000 2.632706 0.000000 0.000000
# 5 0.000000 0.000000 0.000000 0.000000 0.100432 0.000000
# 6 0.000000 0.000000 0.000000 0.000000 0.000000 0.045419
#
#
# Mechanical properties :
#
#
# Convention : Reuss Voigt Hill
#
# Bulk Modulus (GPa) = 31.99587 43.44100 37.71843
# Shear Modulus (GPa) = 1.70184 12.82622 7.26403
#
# Velocity S-wave (km/s) = 1.16717 3.20423 2.41137
# Velocity P-wave (km/s) = 5.23721 6.96154 6.16001
#
# Compressibility (1/GPa) = 0.03125404
#
# Stress axis : x y z
#
# Youngs Moduli (GPa) = 62.00885 33.78892 22.51294
#
# Poissons Ratio (x) = 0.30537 0.18126
# Poissons Ratio (y) = 0.56041 0.27814
# Poissons Ratio (z) = 0.49926 0.41745
#
# Static dielectric constant tensor:
#      x y z
#    x 2.698430 0.000000 0.000000 
#    y 0.000000 2.523710 0.000000 
#    z 0.000000 0.000000 2.320600 
# 
# 
# High freq. dielectric constant tensor:
#      x y z
#    x 1.485980 0.000000 0.000000 
#    y 0.000000 1.455490 0.000000 
#    z 0.000000 0.000000 1.417360 
# 
# From -- ./inp_files/21980.got.cif
#   From: 2010.03.12/outbox.cif.g09.slc.cpg/sg47_11_cif.got.tgz:21980.got - 2010.04.14 03:12:58.
