data_PCOD8196312
_publ_section_title
;
Structure prediction by ZEFSAII (Michael W. Deem and Ramdas Pophale) SiO2 
 PCOD8196312
Probable space group: P M M M
;
_chemical_formula_sum "Si O2"
_cell_formula_units_Z 48
_cell_length_a 9.104286
_cell_length_b 15.520988
_cell_length_c 18.033275
_cell_angle_alpha 90.000000
_cell_angle_beta 90.000000
_cell_angle_gamma 90.000000
_cell_volume 2548.237255
_symmetry_space_group_name_H-M "P M M M"
_symmetry_group_IT_number 47
_symmetry_cell_setting 'orthorhombic'
loop_
_space_group_symop_operation_xyz
x,y,z
-x,-y,z
x,-y,-z
-x,y,-z
-x,-y,-z
x,y,-z
-x,y,z
x,-y,z
loop_
_atom_site_type_symbol
_atom_site_label
_atom_site_fract_x
_atom_site_fract_y
_atom_site_fract_z
Si Si1 0.665877 0.500000 0.327497
Si Si2 0.168874 0.151261 0.086895
Si Si3 0.172354 0.668907 0.673955
Si Si4 0.825459 0.000000 0.671499
Si Si5 0.334513 0.500000 0.151081
Si Si6 0.174430 0.832520 0.416863
Si Si7 0.829308 0.331393 0.845101
Si Si8 0.674532 0.000000 0.170582
O O1 0.500000 0.500000 0.356972
O O2 0.747285 0.584583 0.357859
O O3 0.673836 0.500000 0.239273
O O4 0.217256 0.247708 0.108375
O O5 0.273406 0.084844 0.127984
O O6 0.000000 0.135081 0.111263
O O7 0.188486 0.137833 0.000000
O O8 0.232740 0.749493 0.627303
O O9 0.211845 0.686010 0.759602
O O10 0.000000 0.655033 0.663050
O O11 0.772125 0.917427 0.625432
O O12 0.742779 0.000000 0.748580
O O13 0.000000 0.000000 0.685548
O O14 0.500000 0.500000 0.121247
O O15 0.255888 0.413665 0.121532
O O16 0.239647 0.832126 0.500000
O O17 0.000000 0.831467 0.419720
O O18 0.000000 0.352216 0.853924
O O19 0.500000 0.000000 0.175331
#
# Coordination Sequence:
#
# PCOD8196312 Si02
#       8
#     4   8   8   4   4   8   8   4
#     4   9  17  29  46  69  96 128 172 219 256 295
#     4  10  21  38  59  81 106 138 176 218 265 316
#     4   9  16  28  48  73 101 132 167 209 257 306
#     4  10  19  35  59  82 105 135 173 214 254 304
#     4   9  17  29  48  75 104 136 174 217 262 305
#     4   9  17  30  52  82 109 133 167 213 262 309
#     4   9  17  31  52  77 103 134 174 218 262 308
#     4  12  25  38  55  80 109 140 175 216 262 314
#
# _framework density 18.836551
#
# number of rings (size 3 to 8) (size 9 to 14) (size 15 to 20)
#    0.000    2.500    0.000    2.750    0.000    7.667 
#    0.000    5.000    0.000    7.500    0.000    0.000 
#    0.000    0.000    0.000    0.000    0.000    0.000 
#
# Total GULP energy -595265.902699 kJ/mol
# GULP energy per Si atom -12401.372973 kJ/mol
# Density = 1.879368 g / cm^3
# Si number density = 18.836551 Si / 1000 Ang^3
#
#
#
# Elastic Constant Matrix: (Units=GPa)
#
#
# Indices 1 2 3 4 5 6 
#
# 1 69.4398 50.2253 28.7080 0.0000 0.0000 0.0000
# 2 50.2253 144.0271 36.1625 0.0000 0.0000 0.0000
# 3 28.7080 36.1625 67.0093 0.0000 0.0000 0.0000
# 4 0.0000 0.0000 0.0000 7.0587 0.0000 0.0000
# 5 0.0000 0.0000 0.0000 0.0000 8.6198 0.0000
# 6 0.0000 0.0000 0.0000 0.0000 0.0000 11.2465
#
#
#
# Elastic Compliance Matrix: (Units=1/GPa)
#
#
# Indices 1 2 3 4 5 6 
#
# 1 0.021074 -0.005879 -0.005856 0.000000 0.000000 0.000000
# 2 -0.005879 0.009671 -0.002701 0.000000 0.000000 0.000000
# 3 -0.005856 -0.002701 0.018890 0.000000 0.000000 0.000000
# 4 0.000000 0.000000 0.000000 0.141670 0.000000 0.000000
# 5 0.000000 0.000000 0.000000 0.000000 0.116012 0.000000
# 6 0.000000 0.000000 0.000000 0.000000 0.000000 0.088916
#
#
# Mechanical properties :
#
#
# Convention : Reuss Voigt Hill
#
# Bulk Modulus (GPa) = 48.15995 56.74088 52.45041
# Shear Modulus (GPa) = 11.57341 16.41035 13.99188
#
# Velocity S-wave (km/s) = 2.48142 2.95481 2.72840
# Velocity P-wave (km/s) = 5.81659 6.46756 6.15069
#
# Compressibility (1/GPa) = 0.02076414
#
# Stress axis : x y z
#
# Youngs Moduli (GPa) = 47.45200 103.39940 52.93924
#
# Poissons Ratio (x) = 0.60784 0.31001
# Poissons Ratio (y) = 0.27895 0.14297
# Poissons Ratio (z) = 0.27788 0.27925
#
# Static dielectric constant tensor:
#      x y z
#    x 3.224160 0.000000 0.000000 
#    y 0.000000 3.705560 0.000000 
#    z 0.000000 0.000000 3.364120 
# 
# 
# High freq. dielectric constant tensor:
#      x y z
#    x 1.702310 0.000000 0.000000 
#    y 0.000000 1.751200 0.000000 
#    z 0.000000 0.000000 1.716020 
# 
# From -- ./inp_files/26610.got.cif
#   From: 2010.03.12/outbox.cif.g09.slc.cpg/sg47_14_cif.got.tgz:26610.got - 2010.04.14 03:12:58.
