data_PCOD8196883
_publ_section_title
;
Structure prediction by ZEFSAII (Michael W. Deem and Ramdas Pophale) SiO2 
 PCOD8196883
Probable space group: P M M M
;
_chemical_formula_sum "Si O2"
_cell_formula_units_Z 64
_cell_length_a 17.057236
_cell_length_b 9.380964
_cell_length_c 20.953106
_cell_angle_alpha 90.000000
_cell_angle_beta 90.000000
_cell_angle_gamma 90.000000
_cell_volume 3352.775989
_symmetry_space_group_name_H-M "P M M M"
_symmetry_group_IT_number 47
_symmetry_cell_setting 'orthorhombic'
loop_
_space_group_symop_operation_xyz
x,y,z
-x,-y,z
x,-y,-z
-x,y,-z
-x,-y,-z
x,y,-z
-x,y,z
x,-y,z
loop_
_atom_site_type_symbol
_atom_site_label
_atom_site_fract_x
_atom_site_fract_y
_atom_site_fract_z
Si Si1 0.911873 0.655633 0.926460
Si Si2 0.407370 0.663165 0.072676
Si Si3 0.339264 0.161151 0.191025
Si Si4 0.876947 0.341860 0.276735
Si Si5 0.084710 0.838192 0.392843
Si Si6 0.157952 0.156214 0.833265
Si Si7 0.304469 0.661729 0.690867
Si Si8 0.743365 0.165239 0.429015
O O1 0.897890 0.500000 0.894777
O O2 0.849161 0.769969 0.901826
O O3 0.000000 0.708949 0.912897
O O4 0.895419 0.640706 0.000000
O O5 0.500000 0.675636 0.079270
O O6 0.380466 0.500000 0.084948
O O7 0.370210 0.763896 0.126707
O O8 0.382598 0.708714 0.000000
O O9 0.246923 0.147273 0.187361
O O10 0.356652 0.253369 0.255754
O O11 0.375057 0.000000 0.196722
O O12 0.911126 0.500000 0.269437
O O13 0.921910 0.266530 0.333614
O O14 0.894728 0.252552 0.213440
O O15 0.784314 0.345047 0.286975
O O16 0.162870 0.798902 0.432575
O O17 0.000000 0.822647 0.430070
O O18 0.093959 0.000000 0.368055
O O19 0.120582 0.000000 0.835040
O O20 0.337815 0.500000 0.683451
O O21 0.305345 0.741686 0.622125
O O22 0.710443 0.197956 0.500000
O O23 0.730972 0.000000 0.410784
#
# Coordination Sequence:
#
# PCOD8196883 Si02
#       8
#     8   8   8   8   8   8   8   8
#     4   9  19  35  50  62  79 106 142 186 237 292
#     4   9  19  36  56  79 110 147 182 211 240 281
#     4  10  20  33  51  76 105 135 168 208 251 294
#     4   9  17  29  44  60  79 106 141 183 233 284
#     4   9  17  28  41  58  82 113 150 192 239 295
#     4  10  20  32  47  68  91 115 148 192 241 293
#     4   9  17  30  48  68  91 121 159 202 245 290
#     4   9  17  29  45  65  91 123 158 201 255 310
#
# _framework density 19.088660000000001
#
# number of rings (size 3 to 8) (size 9 to 14) (size 15 to 20)
#    0.000    2.750    0.000    2.250    0.000    7.250 
#    0.000    5.000    0.000    0.000    0.000    3.500 
#    0.000    0.500    0.000    5.250    0.000    2.250 
#
# Total GULP energy -792872.999910 kJ/mol
# GULP energy per Si atom -12388.640624 kJ/mol
# Density = 1.904521 g / cm^3
# Si number density = 19.088660 Si / 1000 Ang^3
#
#
#
# Elastic Constant Matrix: (Units=GPa)
#
#
# Indices 1 2 3 4 5 6 
#
# 1 9.3499 17.3309 20.7346 0.0000 0.0000 0.0000
# 2 17.3309 148.5772 79.5735 0.0000 0.0000 0.0000
# 3 20.7346 79.5735 121.6281 0.0000 0.0000 0.0000
# 4 0.0000 0.0000 0.0000 30.4040 0.0000 0.0000
# 5 0.0000 0.0000 0.0000 0.0000 9.6380 0.0000
# 6 0.0000 0.0000 0.0000 0.0000 0.0000 26.1857
#
#
#
# Elastic Compliance Matrix: (Units=1/GPa)
#
#
# Indices 1 2 3 4 5 6 
#
# 1 0.176421 -0.006883 -0.025572 0.000000 0.000000 0.000000
# 2 -0.006883 0.010629 -0.005781 0.000000 0.000000 0.000000
# 3 -0.025572 -0.005781 0.016363 0.000000 0.000000 0.000000
# 4 0.000000 0.000000 0.000000 0.032890 0.000000 0.000000
# 5 0.000000 0.000000 0.000000 0.000000 0.103756 0.000000
# 6 0.000000 0.000000 0.000000 0.000000 0.000000 0.038189
#
#
# Mechanical properties :
#
#
# Convention : Reuss Voigt Hill
#
# Bulk Modulus (GPa) = 7.87764 57.20371 32.54067
# Shear Modulus (GPa) = 10.05964 24.03994 17.04979
#
# Velocity S-wave (km/s) = 2.29813 3.55263 2.99187
# Velocity P-wave (km/s) = 3.34331 6.84549 5.38695
#
# Compressibility (1/GPa) = 0.12694157
#
# Stress axis : x y z
#
# Youngs Moduli (GPa) = 5.66825 94.07895 61.11256
#
# Poissons Ratio (x) = 0.64754 1.56280
# Poissons Ratio (y) = 0.03901 0.35328
# Poissons Ratio (z) = 0.14495 0.54385
#
# Static dielectric constant tensor:
#      x y z
#    x 2.999750 0.000000 0.000000 
#    y 0.000000 4.398310 0.000000 
#    z 0.000000 0.000000 3.526680 
# 
# 
# High freq. dielectric constant tensor:
#      x y z
#    x 1.689350 0.000000 0.000000 
#    y 0.000000 1.751360 0.000000 
#    z 0.000000 0.000000 1.739590 
# 
# From -- ./inp_files/27043.got.cif
#   From: 2010.03.12/outbox.cif.g09.slc.cpg/sg47_14_cif.got.tgz:27043.got - 2010.04.14 03:12:58.
