data_PCOD8196232
_publ_section_title
;
Structure prediction by ZEFSAII (Michael W. Deem and Ramdas Pophale) SiO2 
 PCOD8196232
Probable space group: P M M M
;
_chemical_formula_sum "Si O2"
_cell_formula_units_Z 64
_cell_length_a 25.027244
_cell_length_b 14.285192
_cell_length_c 9.530860
_cell_angle_alpha 90.000000
_cell_angle_beta 90.000000
_cell_angle_gamma 90.000000
_cell_volume 3407.463401
_symmetry_space_group_name_H-M "P M M M"
_symmetry_group_IT_number 47
_symmetry_cell_setting 'orthorhombic'
loop_
_space_group_symop_operation_xyz
x,y,z
-x,-y,z
x,-y,-z
-x,y,-z
-x,-y,-z
x,y,-z
-x,y,z
x,-y,z
loop_
_atom_site_type_symbol
_atom_site_label
_atom_site_fract_x
_atom_site_fract_y
_atom_site_fract_z
Si Si1 0.726149 0.606012 0.837239
Si Si2 0.343740 0.895370 0.666614
Si Si3 0.936793 0.775284 0.161382
Si Si4 0.560018 0.769063 0.661954
Si Si5 0.861665 0.107907 0.660689
Si Si6 0.397462 0.393707 0.161275
Si Si7 0.936529 0.603483 0.343095
Si Si8 0.756838 0.775982 0.664421
O O1 0.744569 0.500000 0.803580
O O2 0.664275 0.618461 0.797129
O O3 0.760682 0.677019 0.743872
O O4 0.735567 0.628798 0.000000
O O5 0.341710 0.901795 0.500000
O O6 0.398601 0.846948 0.718343
O O7 0.293579 0.835287 0.721555
O O8 0.341189 0.000000 0.730787
O O9 0.910374 0.863263 0.238862
O O10 0.914975 0.679992 0.233659
O O11 0.000000 0.785808 0.177512
O O12 0.919201 0.772974 0.000000
O O13 0.571851 0.747001 0.500000
O O14 0.500000 0.807746 0.683592
O O15 0.566210 0.672388 0.744356
O O16 0.878849 0.125753 0.500000
O O17 0.809556 0.166344 0.701003
O O18 0.847993 0.000000 0.686631
O O19 0.415813 0.500000 0.188240
O O20 0.406259 0.366281 0.000000
O O21 0.915958 0.628376 0.500000
O O22 0.915834 0.500000 0.299013
O O23 0.000000 0.603561 0.342249
O O24 0.751353 0.755870 0.500000
#
# Coordination Sequence:
#
# PCOD8196232 Si02
#       8
#     8   8   8   8   8   8   8   8
#     4   9  18  33  54  80 109 140 173 211 259 316
#     4   9  17  31  52  76 102 133 169 213 265 316
#     4  10  21  36  55  81 113 148 184 222 267 321
#     4  10  20  32  48  75 107 137 174 220 267 314
#     4  10  22  39  58  81 108 139 179 227 274 320
#     4   9  18  33  52  73 100 138 179 214 256 315
#     4   8  14  27  50  79 109 142 180 220 261 307
#     4  10  19  34  58  84 106 132 172 220 266 313
#
# _framework density 18.782301
#
# number of rings (size 3 to 8) (size 9 to 14) (size 15 to 20)
#    0.000    2.625    1.250    1.875    0.000    4.750 
#    0.000    6.875    0.000    3.000    0.000    0.875 
#    0.000    0.000    0.000    0.000    0.000    0.000 
#
# Total GULP energy -793606.261567 kJ/mol
# GULP energy per Si atom -12400.097837 kJ/mol
# Density = 1.873955 g / cm^3
# Si number density = 18.782301 Si / 1000 Ang^3
#
#
#
# Elastic Constant Matrix: (Units=GPa)
#
#
# Indices 1 2 3 4 5 6 
#
# 1 63.8440 47.0296 42.2519 0.0000 0.0000 0.0000
# 2 47.0296 128.9603 57.8153 0.0000 0.0000 0.0000
# 3 42.2519 57.8153 76.3983 0.0000 0.0000 0.0000
# 4 0.0000 0.0000 0.0000 12.0234 0.0000 0.0000
# 5 0.0000 0.0000 0.0000 0.0000 21.3150 0.0000
# 6 0.0000 0.0000 0.0000 0.0000 0.0000 27.8273
#
#
#
# Elastic Compliance Matrix: (Units=1/GPa)
#
#
# Indices 1 2 3 4 5 6 
#
# 1 0.026443 -0.004672 -0.011089 0.000000 0.000000 0.000000
# 2 -0.004672 0.012561 -0.006922 0.000000 0.000000 0.000000
# 3 -0.011089 -0.006922 0.024460 0.000000 0.000000 0.000000
# 4 0.000000 0.000000 0.000000 0.083171 0.000000 0.000000
# 5 0.000000 0.000000 0.000000 0.000000 0.046915 0.000000
# 6 0.000000 0.000000 0.000000 0.000000 0.000000 0.035936
#
#
# Mechanical properties :
#
#
# Convention : Reuss Voigt Hill
#
# Bulk Modulus (GPa) = 55.25132 62.59955 58.92543
# Shear Modulus (GPa) = 17.80077 20.37352 19.08714
#
# Velocity S-wave (km/s) = 3.08188 3.29708 3.19130
# Velocity P-wave (km/s) = 6.49188 6.92067 6.70970
#
# Compressibility (1/GPa) = 0.01809912
#
# Stress axis : x y z
#
# Youngs Moduli (GPa) = 37.81675 79.60836 40.88256
#
# Poissons Ratio (x) = 0.37194 0.45334
# Poissons Ratio (y) = 0.17668 0.28299
# Poissons Ratio (z) = 0.41934 0.55106
#
# Static dielectric constant tensor:
#      x y z
#    x 3.274290 0.000000 0.000000 
#    y 0.000000 3.589450 0.000000 
#    z 0.000000 0.000000 3.265700 
# 
# 
# High freq. dielectric constant tensor:
#      x y z
#    x 1.716100 0.000000 0.000000 
#    y 0.000000 1.735490 0.000000 
#    z 0.000000 0.000000 1.708860 
# 
# From -- ./inp_files/12753.got.cif
#   From: 2010.03.12/outbox.cif.g09.slc.cpg/sg47_7_cif.got.tgz:12753.got - 2010.04.14 03:12:58.
