data_PCOD8196545
_publ_section_title
;
Structure prediction by ZEFSAII (Michael W. Deem and Ramdas Pophale) SiO2 
 PCOD8196545
Probable space group: P M M M
;
_chemical_formula_sum "Si O2"
_cell_formula_units_Z 64
_cell_length_a 20.924633
_cell_length_b 9.476758
_cell_length_c 18.483855
_cell_angle_alpha 90.000000
_cell_angle_beta 90.000000
_cell_angle_gamma 90.000000
_cell_volume 3665.305623
_symmetry_space_group_name_H-M "P M M M"
_symmetry_group_IT_number 47
_symmetry_cell_setting 'orthorhombic'
loop_
_space_group_symop_operation_xyz
x,y,z
-x,-y,z
x,-y,-z
-x,y,-z
-x,-y,-z
x,y,-z
-x,y,z
x,-y,z
loop_
_atom_site_type_symbol
_atom_site_label
_atom_site_fract_x
_atom_site_fract_y
_atom_site_fract_z
Si Si1 0.204691 0.158584 0.658953
Si Si2 0.311713 0.337556 0.585402
Si Si3 0.811527 0.837425 0.170491
Si Si4 0.070409 0.335728 0.184445
Si Si5 0.429492 0.841652 0.585976
Si Si6 0.068044 0.840725 0.673293
Si Si7 0.570282 0.341181 0.085969
Si Si8 0.688569 0.164142 0.084091
O O1 0.250059 0.270879 0.622098
O O2 0.201616 0.184876 0.744702
O O3 0.132564 0.181694 0.626092
O O4 0.229176 0.000000 0.641874
O O5 0.305594 0.316026 0.500000
O O6 0.315487 0.500000 0.607322
O O7 0.375674 0.263529 0.616478
O O8 0.873231 0.748396 0.143075
O O9 0.750302 0.780402 0.126983
O O10 0.824410 0.000000 0.151307
O O11 0.088625 0.500000 0.187591
O O12 0.066703 0.275730 0.264992
O O13 0.000000 0.315085 0.147627
O O14 0.428927 0.838056 0.500000
O O15 0.500000 0.794397 0.613591
O O16 0.414338 0.000000 0.613202
O O17 0.000000 0.828362 0.629552
O O18 0.073265 0.000000 0.707219
O O19 0.500000 0.291083 0.113653
O O20 0.583551 0.500000 0.112791
O O21 0.625993 0.241193 0.116626
O O22 0.570788 0.334995 0.000000
O O23 0.677315 0.000000 0.097757
O O24 0.698973 0.199307 0.000000
#
# Coordination Sequence:
#
# PCOD8196545 Si02
#       8
#     8   8   8   8   8   8   8   8
#     4   9  17  29  46  66  88 116 148 181 216 258
#     4  10  20  31  44  65  92 119 146 179 219 261
#     4   9  18  31  46  66  91 118 148 181 219 262
#     4   9  16  25  40  64  89 112 144 184 221 258
#     4   8  14  26  45  67  88 111 142 179 217 258
#     4   8  14  26  44  65  88 113 143 181 223 261
#     4   8  14  25  41  62  88 116 146 180 217 258
#     4   9  17  29  46  68  92 116 144 181 222 262
#
# _framework density 17.461027999999999
#
# number of rings (size 3 to 8) (size 9 to 14) (size 15 to 20)
#    0.000    3.250    0.000    2.250    0.000    4.500 
#    0.000    2.500    0.000    1.500    0.000    7.000 
#    0.000    0.000    0.000    0.000    0.000    0.000 
#
# Total GULP energy -792881.247315 kJ/mol
# GULP energy per Si atom -12388.769489 kJ/mol
# Density = 1.742129 g / cm^3
# Si number density = 17.461028 Si / 1000 Ang^3
#
#
#
# Elastic Constant Matrix: (Units=GPa)
#
#
# Indices 1 2 3 4 5 6 
#
# 1 198.4034 95.4233 29.7942 0.0000 0.0000 0.0000
# 2 95.4233 103.6934 22.0396 0.0000 0.0000 0.0000
# 3 29.7942 22.0396 15.7939 0.0000 0.0000 0.0000
# 4 0.0000 0.0000 0.0000 13.9991 0.0000 0.0000
# 5 0.0000 0.0000 0.0000 0.0000 23.0239 0.0000
# 6 0.0000 0.0000 0.0000 0.0000 0.0000 32.7351
#
#
#
# Elastic Compliance Matrix: (Units=1/GPa)
#
#
# Indices 1 2 3 4 5 6 
#
# 1 0.009761 -0.007206 -0.008358 0.000000 0.000000 0.000000
# 2 -0.007206 0.019030 -0.012962 0.000000 0.000000 0.000000
# 3 -0.008358 -0.012962 0.097170 0.000000 0.000000 0.000000
# 4 0.000000 0.000000 0.000000 0.071433 0.000000 0.000000
# 5 0.000000 0.000000 0.000000 0.000000 0.043433 0.000000
# 6 0.000000 0.000000 0.000000 0.000000 0.000000 0.030548
#
#
# Mechanical properties :
#
#
# Convention : Reuss Voigt Hill
#
# Bulk Modulus (GPa) = 14.51177 68.04499 41.27838
# Shear Modulus (GPa) = 14.22889 25.32718 19.77803
#
# Velocity S-wave (km/s) = 2.85773 3.81267 3.36921
# Velocity P-wave (km/s) = 4.38381 7.64436 6.23113
#
# Compressibility (1/GPa) = 0.06890958
#
# Stress axis : x y z
#
# Youngs Moduli (GPa) = 102.44565 52.54773 10.29125
#
# Poissons Ratio (x) = 0.37867 0.08601
# Poissons Ratio (y) = 0.73825 0.13339
# Poissons Ratio (z) = 0.85624 0.68110
#
# Static dielectric constant tensor:
#      x y z
#    x 3.899990 0.000000 0.000000 
#    y 0.000000 3.299020 0.000000 
#    z 0.000000 0.000000 2.639200 
# 
# 
# High freq. dielectric constant tensor:
#      x y z
#    x 1.702450 0.000000 0.000000 
#    y 0.000000 1.675480 0.000000 
#    z 0.000000 0.000000 1.599280 
# 
# From -- ./inp_files/10183.got.cif
#   From: 2010.03.12/outbox.cif.g09.slc.cpg/sg47_6_cif.got.tgz:10183.got - 2010.04.14 03:12:58.
