data_PCOD8196499
_publ_section_title
;
Structure prediction by ZEFSAII (Michael W. Deem and Ramdas Pophale) SiO2 
 PCOD8196499
Probable space group: P M M M
;
_chemical_formula_sum "Si O2"
_cell_formula_units_Z 48
_cell_length_a 24.347892
_cell_length_b 9.339548
_cell_length_c 13.682017
_cell_angle_alpha 90.000000
_cell_angle_beta 90.000000
_cell_angle_gamma 90.000000
_cell_volume 3111.267489
_symmetry_space_group_name_H-M "P M M M"
_symmetry_group_IT_number 47
_symmetry_cell_setting 'orthorhombic'
loop_
_space_group_symop_operation_xyz
x,y,z
-x,-y,z
x,-y,-z
-x,y,-z
-x,-y,-z
x,y,-z
-x,y,z
x,-y,z
loop_
_atom_site_type_symbol
_atom_site_label
_atom_site_fract_x
_atom_site_fract_y
_atom_site_fract_z
Si Si1 0.374492 0.164626 0.387146
Si Si2 0.562189 0.333515 0.766123
Si Si3 0.060134 0.838576 0.616128
Si Si4 0.836696 0.332935 0.387811
Si Si5 0.663043 0.331883 0.106793
Si Si6 0.277091 0.669230 0.297189
O O1 0.390124 0.175240 0.500000
O O2 0.423961 0.239607 0.328773
O O3 0.317373 0.246538 0.369183
O O4 0.368315 0.000000 0.353677
O O5 0.500000 0.303321 0.799804
O O6 0.571204 0.500000 0.739182
O O7 0.602838 0.287111 0.853752
O O8 0.060904 0.831222 0.500000
O O9 0.109316 0.741689 0.657767
O O10 0.000000 0.784687 0.653187
O O11 0.069976 0.000000 0.652333
O O12 0.825817 0.286442 0.500000
O O13 0.847502 0.500000 0.380783
O O14 0.784898 0.285799 0.322516
O O15 0.665387 0.500000 0.093468
O O16 0.709608 0.285239 0.185070
O O17 0.673088 0.259514 0.000000
O O18 0.286453 0.500000 0.313707
#
# Coordination Sequence:
#
# PCOD8196499 Si02
#       6
#     8   8   8   8   8   8
#     4  10  20  31  43  60  82 109 138 167 200 236
#     4   9  18  31  46  64  83 104 132 164 199 242
#     4   8  14  24  36  51  75 108 142 171 197 227
#     4   9  16  24  36  56  81 109 138 166 196 230
#     4   8  14  26  45  66  84 102 127 163 205 245
#     4   9  17  29  44  62  84 108 136 169 203 242
#
# _framework density 15.427795
#
# number of rings (size 3 to 8) (size 9 to 14) (size 15 to 20)
#    0.000    3.167    0.000    2.500    0.000    4.000 
#    0.000    6.667    0.000    8.000    0.000    4.667 
#    0.000    0.667    0.000    8.333    0.000    1.667 
#
# Total GULP energy -594889.320113 kJ/mol
# GULP energy per Si atom -12393.527502 kJ/mol
# Density = 1.539268 g / cm^3
# Si number density = 15.427795 Si / 1000 Ang^3
#
#
#
# Elastic Constant Matrix: (Units=GPa)
#
#
# Indices 1 2 3 4 5 6 
#
# 1 141.0693 36.3606 47.4641 0.0000 0.0000 0.0000
# 2 36.3606 43.2974 24.7657 0.0000 0.0000 0.0000
# 3 47.4641 24.7657 81.7325 0.0000 0.0000 0.0000
# 4 0.0000 0.0000 0.0000 8.3740 0.0000 0.0000
# 5 0.0000 0.0000 0.0000 0.0000 -1.8302 0.0000
# 6 0.0000 0.0000 0.0000 0.0000 0.0000 17.4511
#
#
#
# Elastic Compliance Matrix: (Units=1/GPa)
#
#
# Indices 1 2 3 4 5 6 
#
# 1 0.009999 -0.006140 -0.003946 0.000000 0.000000 0.000000
# 2 -0.006140 0.031708 -0.006042 0.000000 0.000000 0.000000
# 3 -0.003946 -0.006042 0.016358 0.000000 0.000000 0.000000
# 4 0.000000 0.000000 0.000000 0.119417 0.000000 0.000000
# 5 0.000000 0.000000 0.000000 0.000000 -0.546394 0.000000
# 6 0.000000 0.000000 0.000000 0.000000 0.000000 0.057303
#
#
# Mechanical properties :
#
#
# Convention : Reuss Voigt Hill
#
# Bulk Modulus (GPa) = 38.74752 53.69775 46.22264
# Shear Modulus (GPa) = -18.46729 15.29957 -1.58386
#
# Velocity S-wave (km/s) = -3.46354 3.15253 -1.01433
# Velocity P-wave (km/s) = 3.02904 6.93777 5.35293
#
# Compressibility (1/GPa) = 0.02580811
#
# Stress axis : x y z
#
# Youngs Moduli (GPa) = 100.01002 31.53743 61.13356
#
# Poissons Ratio (x) = 0.19363 0.24125
# Poissons Ratio (y) = 0.61404 0.36939
# Poissons Ratio (z) = 0.39466 0.19056
#
# Static dielectric constant tensor:
#      x y z
#    x 3.165190 0.000000 0.000000 
#    y 0.000000 2.877620 0.000000 
#    z 0.000000 0.000000 2.931010 
# 
# 
# High freq. dielectric constant tensor:
#      x y z
#    x 1.592750 0.000000 0.000000 
#    y 0.000000 1.577470 0.000000 
#    z 0.000000 0.000000 1.556490 
# 
# From -- ./inp_files/7529.got.cif
#   From: 2010.03.12/outbox.cif.g09.slc.cpg/sg47_4_cif.got.tgz:7529.got - 2010.04.14 03:12:58.
