data_PCOD8196411
_publ_section_title
;
Structure prediction by ZEFSAII (Michael W. Deem and Ramdas Pophale) SiO2 
 PCOD8196411
Probable space group: P M M M
;
_chemical_formula_sum "Si O2"
_cell_formula_units_Z 56
_cell_length_a 25.224949
_cell_length_b 9.418654
_cell_length_c 20.222301
_cell_angle_alpha 90.000000
_cell_angle_beta 90.000000
_cell_angle_gamma 90.000000
_cell_volume 4804.516734
_symmetry_space_group_name_H-M "P M M M"
_symmetry_group_IT_number 47
_symmetry_cell_setting 'orthorhombic'
loop_
_space_group_symop_operation_xyz
x,y,z
-x,-y,z
x,-y,-z
-x,y,-z
-x,-y,-z
x,y,-z
-x,y,z
x,-y,z
loop_
_atom_site_type_symbol
_atom_site_label
_atom_site_fract_x
_atom_site_fract_y
_atom_site_fract_z
Si Si1 0.247440 0.342714 0.578560
Si Si2 0.655851 0.159230 0.420967
Si Si3 0.441415 0.659344 0.578609
Si Si4 0.936951 0.159372 0.073348
Si Si5 0.937392 0.836122 0.321104
Si Si6 0.936853 0.339807 0.194675
Si Si7 0.128573 0.335612 0.422678
O O1 0.249983 0.346494 0.500000
O O2 0.260288 0.500000 0.605943
O O3 0.291255 0.234841 0.606964
O O4 0.188395 0.296459 0.600128
O O5 0.655668 0.161558 0.500000
O O6 0.603651 0.237373 0.392420
O O7 0.655431 0.000000 0.393416
O O8 0.438792 0.660066 0.500000
O O9 0.500000 0.710757 0.601718
O O10 0.430614 0.500000 0.604485
O O11 0.913959 0.267750 0.127848
O O12 0.000000 0.159737 0.076410
O O13 0.916522 0.000000 0.088707
O O14 0.918062 0.207145 0.000000
O O15 0.916766 0.751669 0.256829
O O16 0.911527 0.767390 0.385545
O O17 0.000000 0.821381 0.329057
O O18 0.920372 0.000000 0.314380
O O19 0.914556 0.500000 0.199885
O O20 0.000000 0.341247 0.192875
O O21 0.121009 0.306833 0.500000
O O22 0.116195 0.500000 0.406164
#
# Coordination Sequence:
#
# PCOD8196411 Si02
#       7
#     8   8   8   8   8   8   8
#     4   8  14  25  38  48  58  72  89 110 139 176
#     4   9  15  20  28  43  59  73  89 110 136 164
#     4   8  13  20  28  37  51  73  97 115 131 155
#     4   8  13  21  33  49  69  90 107 122 141 164
#     4  10  20  31  41  52  66  83 100 119 148 188
#     4   9  16  25  37  51  66  84 105 126 144 166
#     4   9  18  31  44  55  64  75  94 122 155 189
#
# _framework density 11.655697999999999
#
# number of rings (size 3 to 8) (size 9 to 14) (size 15 to 20)
#    0.000    3.286    0.000    3.000    0.000    6.000 
#    0.000    5.714    0.000    0.000    0.000    0.000 
#    0.000    0.000    0.000    0.000    0.000    0.000 
#
# Total GULP energy -694026.415564 kJ/mol
# GULP energy per Si atom -12393.328849 kJ/mol
# Density = 1.162917 g / cm^3
# Si number density = 11.655698 Si / 1000 Ang^3
#
#
#
# Elastic Constant Matrix: (Units=GPa)
#
#
# Indices 1 2 3 4 5 6 
#
# 1 38.6416 37.5856 20.7001 0.0000 0.0000 0.0000
# 2 37.5856 99.9164 39.1207 0.0000 0.0000 0.0000
# 3 20.7001 39.1207 44.3258 0.0000 0.0000 0.0000
# 4 0.0000 0.0000 0.0000 16.0329 0.0000 0.0000
# 5 0.0000 0.0000 0.0000 0.0000 0.1302 0.0000
# 6 0.0000 0.0000 0.0000 0.0000 0.0000 13.7987
#
#
#
# Elastic Compliance Matrix: (Units=1/GPa)
#
#
# Indices 1 2 3 4 5 6 
#
# 1 0.042976 -0.012695 -0.008865 0.000000 0.000000 0.000000
# 2 -0.012695 0.019043 -0.010878 0.000000 0.000000 0.000000
# 3 -0.008865 -0.010878 0.036301 0.000000 0.000000 0.000000
# 4 0.000000 0.000000 0.000000 0.062372 0.000000 0.000000
# 5 0.000000 0.000000 0.000000 0.000000 7.679390 0.000000
# 6 0.000000 0.000000 0.000000 0.000000 0.000000 0.072471
#
#
# Mechanical properties :
#
#
# Convention : Reuss Voigt Hill
#
# Bulk Modulus (GPa) = 29.90179 41.96627 35.93403
# Shear Modulus (GPa) = 0.62589 11.69085 6.15837
#
# Velocity S-wave (km/s) = 0.73359 3.17048 2.30110
# Velocity P-wave (km/s) = 5.14076 7.03461 6.16089
#
# Compressibility (1/GPa) = 0.03344281
#
# Stress axis : x y z
#
# Youngs Moduli (GPa) = 23.26857 52.51217 27.54727
#
# Poissons Ratio (x) = 0.66666 0.24422
# Poissons Ratio (y) = 0.29540 0.29967
# Poissons Ratio (z) = 0.20629 0.57124
#
# Static dielectric constant tensor:
#      x y z
#    x 2.360280 0.000000 0.000000 
#    y 0.000000 2.646780 0.000000 
#    z 0.000000 0.000000 2.165430 
# 
# 
# High freq. dielectric constant tensor:
#      x y z
#    x 1.412130 0.000000 0.000000 
#    y 0.000000 1.454880 0.000000 
#    z 0.000000 0.000000 1.389930 
# 
# From -- ./inp_files/27079.got.cif
#   From: 2010.03.12/outbox.cif.g09.slc.cpg/sg47_14_cif.got.tgz:27079.got - 2010.04.14 03:12:58.
