data_PCOD8196427
_publ_section_title
;
Structure prediction by ZEFSAII (Michael W. Deem and Ramdas Pophale) SiO2 
 PCOD8196427
Probable space group: P M M M
;
_chemical_formula_sum "Si O2"
_cell_formula_units_Z 48
_cell_length_a 17.893817
_cell_length_b 22.785281
_cell_length_c 9.082517
_cell_angle_alpha 90.000000
_cell_angle_beta 90.000000
_cell_angle_gamma 90.000000
_cell_volume 3703.084309
_symmetry_space_group_name_H-M "P M M M"
_symmetry_group_IT_number 47
_symmetry_cell_setting 'orthorhombic'
loop_
_space_group_symop_operation_xyz
x,y,z
-x,-y,z
x,-y,-z
-x,y,-z
-x,-y,-z
x,y,-z
-x,y,z
x,-y,z
loop_
_atom_site_type_symbol
_atom_site_label
_atom_site_fract_x
_atom_site_fract_y
_atom_site_fract_z
Si Si1 0.589131 0.385142 0.666525
Si Si2 0.000000 0.064312 0.325088
Si Si3 0.587284 0.154131 0.671581
Si Si4 0.159927 0.070091 0.665258
Si Si5 0.588939 0.729244 0.833681
Si Si6 0.589072 0.500000 0.833534
Si Si7 0.305333 0.069230 0.169224
O O1 0.619720 0.385392 0.500000
O O2 0.500000 0.384855 0.666608
O O3 0.620491 0.327776 0.749562
O O4 0.619646 0.442577 0.750077
O O5 0.921336 0.096002 0.280527
O O6 0.000000 0.057594 0.500000
O O7 0.000000 0.000000 0.251082
O O8 0.604807 0.159957 0.500000
O O9 0.500000 0.144751 0.701839
O O10 0.617402 0.212802 0.750394
O O11 0.628763 0.098096 0.737634
O O12 0.178694 0.092003 0.500000
O O13 0.224955 0.092170 0.773521
O O14 0.154109 0.000000 0.666363
O O15 0.500000 0.727439 0.833276
O O16 0.619993 0.729491 0.000000
O O17 0.500000 0.500000 0.833854
O O18 0.619832 0.500000 0.000000
O O19 0.312775 0.000000 0.192431
O O20 0.313469 0.087453 0.000000
#
# Coordination Sequence:
#
# PCOD8196427 Si02
#       7
#     8   4   8   8   8   4   8
#     4   9  15  22  32  46  64  84 105 129 158 194
#     4   7  10  18  35  57  75  91 111 131 151 182
#     4  10  20  32  44  55  65  81 110 146 181 217
#     4   8  13  23  39  56  73  92 112 132 156 191
#     4   9  16  26  39  52  65  81 102 131 168 207
#     4   9  15  21  29  43  63  85 107 129 157 194
#     4  10  20  31  41  54  72  91 110 136 174 216
#
# _framework density 12.962168
#
# number of rings (size 3 to 8) (size 9 to 14) (size 15 to 20)
#    0.000    3.000    0.000    3.250    0.000    7.333 
#    0.000    2.083    0.000    2.500    0.000    0.000 
#    0.000    0.000    0.000    0.000    0.000    0.000 
#
# Total GULP energy -594890.329741 kJ/mol
# GULP energy per Si atom -12393.548536 kJ/mol
# Density = 1.293267 g / cm^3
# Si number density = 12.962168 Si / 1000 Ang^3
#
#
#
# Elastic Constant Matrix: (Units=GPa)
#
#
# Indices 1 2 3 4 5 6 
#
# 1 44.1999 27.1799 34.3538 0.0000 0.0000 0.0000
# 2 27.1799 55.7996 41.2436 0.0000 0.0000 0.0000
# 3 34.3538 41.2436 104.6466 0.0000 0.0000 0.0000
# 4 0.0000 0.0000 0.0000 24.1975 0.0000 0.0000
# 5 0.0000 0.0000 0.0000 0.0000 10.9156 0.0000
# 6 0.0000 0.0000 0.0000 0.0000 0.0000 0.4108
#
#
#
# Elastic Compliance Matrix: (Units=1/GPa)
#
#
# Indices 1 2 3 4 5 6 
#
# 1 0.035439 -0.012224 -0.006816 0.000000 0.000000 0.000000
# 2 -0.012224 0.029505 -0.007615 0.000000 0.000000 0.000000
# 3 -0.006816 -0.007615 0.014795 0.000000 0.000000 0.000000
# 4 0.000000 0.000000 0.000000 0.041327 0.000000 0.000000
# 5 0.000000 0.000000 0.000000 0.000000 0.091612 0.000000
# 6 0.000000 0.000000 0.000000 0.000000 0.000000 2.434473
#
#
# Mechanical properties :
#
#
# Convention : Reuss Voigt Hill
#
# Bulk Modulus (GPa) = 37.84000 45.57787 41.70893
# Shear Modulus (GPa) = 1.84551 13.89603 7.87077
#
# Velocity S-wave (km/s) = 1.19451 3.27776 2.46684
# Velocity P-wave (km/s) = 5.58198 7.04014 6.35303
#
# Compressibility (1/GPa) = 0.02642706
#
# Stress axis : x y z
#
# Youngs Moduli (GPa) = 28.21712 33.89310 67.59006
#
# Poissons Ratio (x) = 0.41432 0.46072
# Poissons Ratio (y) = 0.34493 0.51472
# Poissons Ratio (z) = 0.19234 0.25811
#
# Static dielectric constant tensor:
#      x y z
#    x 2.436150 0.000000 0.000000 
#    y 0.000000 2.501790 0.000000 
#    z 0.000000 0.000000 2.756130 
# 
# 
# High freq. dielectric constant tensor:
#      x y z
#    x 1.441380 0.000000 0.000000 
#    y 0.000000 1.468060 0.000000 
#    z 0.000000 0.000000 1.506040 
# 
# From -- ./inp_files/9741.got.cif
#   From: 2010.03.12/outbox.cif.g09.slc.cpg/sg47_5_cif.got.tgz:9741.got - 2010.04.14 03:12:58.
