data_PCOD8196139
_publ_section_title
;
Structure prediction by ZEFSAII (Michael W. Deem and Ramdas Pophale) SiO2 
 PCOD8196139
Probable space group: P M M M
;
_chemical_formula_sum "Si O2"
_cell_formula_units_Z 52
_cell_length_a 20.322652
_cell_length_b 15.985815
_cell_length_c 8.805263
_cell_angle_alpha 90.000000
_cell_angle_beta 90.000000
_cell_angle_gamma 90.000000
_cell_volume 2860.602378
_symmetry_space_group_name_H-M "P M M M"
_symmetry_group_IT_number 47
_symmetry_cell_setting 'orthorhombic'
loop_
_space_group_symop_operation_xyz
x,y,z
-x,-y,z
x,-y,-z
-x,y,-z
-x,-y,-z
x,y,-z
-x,y,z
x,-y,z
loop_
_atom_site_type_symbol
_atom_site_label
_atom_site_fract_x
_atom_site_fract_y
_atom_site_fract_z
Si Si1 0.426138 0.406589 0.680487
Si Si2 0.301098 0.909622 0.673987
Si Si3 0.923308 0.000000 0.168679
Si Si4 0.072807 0.598636 0.329989
Si Si5 0.153388 0.138094 0.673774
Si Si6 0.816060 0.695429 0.823836
Si Si7 0.679386 0.274188 0.681389
O O1 0.424355 0.404324 0.500000
O O2 0.500000 0.387696 0.738709
O O3 0.404407 0.500000 0.735306
O O4 0.378409 0.334132 0.745324
O O5 0.323241 0.911304 0.500000
O O6 0.222698 0.908797 0.688953
O O7 0.329575 0.822115 0.745340
O O8 0.324780 0.000000 0.747598
O O9 0.904014 0.919882 0.265979
O O10 0.000000 0.000000 0.148548
O O11 0.890325 0.000000 0.000000
O O12 0.087038 0.632878 0.500000
O O13 0.072257 0.500000 0.332036
O O14 0.131078 0.624942 0.217622
O O15 0.000000 0.630486 0.276504
O O16 0.140106 0.164050 0.500000
O O17 0.150219 0.217927 0.780990
O O18 0.747788 0.684938 0.733252
O O19 0.799149 0.690768 0.000000
O O20 0.680423 0.270826 0.500000
#
# Coordination Sequence:
#
# PCOD8196139 Si02
#       7
#     8   8   4   8   8   8   8
#     4   8  14  26  46  73 103 134 170 212 255 299
#     4   8  13  24  44  67  88 115 155 202 246 288
#     4  11  23  35  47  69 101 131 162 207 262 313
#     4   9  19  37  58  75  92 122 167 211 249 301
#     4  10  19  34  53  69  89 125 170 209 247 298
#     4  11  22  34  50  75 106 133 160 206 265 314
#     4   9  17  29  48  73  98 129 171 213 253 304
#
# _framework density 18.177990000000001
#
# number of rings (size 3 to 8) (size 9 to 14) (size 15 to 20)
#    0.000    2.692    0.769    3.923    0.000    2.462 
#    0.000    2.308    0.000    0.923    0.000    4.308 
#    0.000    0.000    0.000    4.000    0.000    5.231 
#
# Total GULP energy -644249.600451 kJ/mol
# GULP energy per Si atom -12389.415393 kJ/mol
# Density = 1.813662 g / cm^3
# Si number density = 18.177990 Si / 1000 Ang^3
#
#
#
# Elastic Constant Matrix: (Units=GPa)
#
#
# Indices 1 2 3 4 5 6 
#
# 1 93.2019 67.9715 16.9747 0.0000 0.0000 0.0000
# 2 67.9715 116.0994 18.8771 0.0000 0.0000 0.0000
# 3 16.9747 18.8771 38.1080 0.0000 0.0000 0.0000
# 4 0.0000 0.0000 0.0000 13.5514 0.0000 0.0000
# 5 0.0000 0.0000 0.0000 0.0000 7.8305 0.0000
# 6 0.0000 0.0000 0.0000 0.0000 0.0000 18.2665
#
#
#
# Elastic Compliance Matrix: (Units=1/GPa)
#
#
# Indices 1 2 3 4 5 6 
#
# 1 0.019082 -0.010647 -0.003226 0.000000 0.000000 0.000000
# 2 -0.010647 0.015309 -0.002841 0.000000 0.000000 0.000000
# 3 -0.003226 -0.002841 0.029085 0.000000 0.000000 0.000000
# 4 0.000000 0.000000 0.000000 0.073793 0.000000 0.000000
# 5 0.000000 0.000000 0.000000 0.000000 0.127706 0.000000
# 6 0.000000 0.000000 0.000000 0.000000 0.000000 0.054745
#
#
# Mechanical properties :
#
#
# Convention : Reuss Voigt Hill
#
# Bulk Modulus (GPa) = 33.27914 50.56175 41.92044
# Shear Modulus (GPa) = 13.76796 17.50209 15.63503
#
# Velocity S-wave (km/s) = 2.75507 3.10630 2.93594
# Velocity P-wave (km/s) = 5.33551 6.38284 5.88253
#
# Compressibility (1/GPa) = 0.03004886
#
# Stress axis : x y z
#
# Youngs Moduli (GPa) = 52.40607 65.32254 34.38183
#
# Poissons Ratio (x) = 0.69550 0.11090
# Poissons Ratio (y) = 0.55797 0.09767
# Poissons Ratio (z) = 0.16904 0.18556
#
# Static dielectric constant tensor:
#      x y z
#    x 3.306950 0.000000 0.000000 
#    y 0.000000 3.403530 0.000000 
#    z 0.000000 0.000000 3.083600 
# 
# 
# High freq. dielectric constant tensor:
#      x y z
#    x 1.679770 0.000000 0.000000 
#    y 0.000000 1.715960 0.000000 
#    z 0.000000 0.000000 1.668530 
# 
# From -- ./inp_files/10994.got.cif
#   From: 2010.03.12/outbox.cif.g09.slc.cpg/sg47_6_cif.got.tgz:10994.got - 2010.04.14 03:12:58.
