data_PCOD8196989
_publ_section_title
;
Structure prediction by ZEFSAII (Michael W. Deem and Ramdas Pophale) SiO2 
 PCOD8196989
Probable space group: P M M M
;
_chemical_formula_sum "Si O2"
_cell_formula_units_Z 52
_cell_length_a 14.868160
_cell_length_b 22.435326
_cell_length_c 9.296325
_cell_angle_alpha 90.000000
_cell_angle_beta 90.000000
_cell_angle_gamma 90.000000
_cell_volume 3100.993877
_symmetry_space_group_name_H-M "P M M M"
_symmetry_group_IT_number 47
_symmetry_cell_setting 'orthorhombic'
loop_
_space_group_symop_operation_xyz
x,y,z
-x,-y,z
x,-y,-z
-x,y,-z
-x,-y,-z
x,y,-z
-x,y,z
x,-y,z
loop_
_atom_site_type_symbol
_atom_site_label
_atom_site_fract_x
_atom_site_fract_y
_atom_site_fract_z
Si Si1 0.395720 0.115399 0.832085
Si Si2 0.606739 0.000000 0.337961
Si Si3 0.098256 0.273142 0.165140
Si Si4 0.651951 0.655697 0.660583
Si Si5 0.500000 0.432521 0.670981
Si Si6 0.894788 0.500000 0.159515
Si Si7 0.708412 0.232265 0.831753
Si Si8 0.146926 0.615001 0.661186
O O1 0.500000 0.129470 0.797503
O O2 0.334442 0.170329 0.779825
O O3 0.359144 0.058593 0.744742
O O4 0.382690 0.101762 0.000000
O O5 0.500000 0.000000 0.338138
O O6 0.645295 0.000000 0.500000
O O7 0.184359 0.232195 0.208089
O O8 0.094610 0.331201 0.263823
O O9 0.000000 0.240646 0.184898
O O10 0.110131 0.293605 0.000000
O O11 0.620461 0.674232 0.500000
O O12 0.586180 0.605143 0.725260
O O13 0.653171 0.714791 0.757147
O O14 0.748480 0.626779 0.655183
O O15 0.500000 0.500000 0.736559
O O16 0.500000 0.438161 0.500000
O O17 0.864216 0.556758 0.246530
O O18 0.000000 0.500000 0.143037
O O19 0.850694 0.500000 0.000000
O O20 0.693324 0.240753 0.000000
O O21 0.108099 0.606496 0.500000
#
# Coordination Sequence:
#
# PCOD8196989 Si02
#       8
#     8   4   8   8   4   4   8   8
#     4   9  17  29  46  68  97 132 161 187 226 273
#     4   9  17  29  45  69  98 129 162 196 227 261
#     4   9  17  31  49  67  91 122 152 185 228 276
#     4   9  19  33  49  69  90 117 152 192 232 274
#     4   9  18  32  51  67  85 118 157 190 229 281
#     4  11  23  35  47  64  85 110 140 175 225 289
#     4   9  18  31  48  71  97 125 156 191 231 275
#     4  10  20  32  48  68  89 111 142 185 230 275
#
# _framework density 16.768816999999999
#
# number of rings (size 3 to 8) (size 9 to 14) (size 15 to 20)
#    0.000    2.692    0.000    1.385    2.154    4.923 
#    0.000    0.000    0.000    0.462    0.000    0.538 
#    0.000    4.308    0.000    0.000    0.000    0.000 
#
# Total GULP energy -644531.807930 kJ/mol
# GULP energy per Si atom -12394.842460 kJ/mol
# Density = 1.673065 g / cm^3
# Si number density = 16.768817 Si / 1000 Ang^3
#
#
#
# Elastic Constant Matrix: (Units=GPa)
#
#
# Indices 1 2 3 4 5 6 
#
# 1 77.8094 57.0399 23.1331 0.0000 0.0000 0.0000
# 2 57.0399 143.0460 58.4882 0.0000 0.0000 0.0000
# 3 23.1331 58.4882 78.4041 0.0000 0.0000 0.0000
# 4 0.0000 0.0000 0.0000 11.6248 0.0000 0.0000
# 5 0.0000 0.0000 0.0000 0.0000 15.5294 0.0000
# 6 0.0000 0.0000 0.0000 0.0000 0.0000 -7.1186
#
#
#
# Elastic Compliance Matrix: (Units=1/GPa)
#
#
# Indices 1 2 3 4 5 6 
#
# 1 0.018161 -0.007267 0.000063 0.000000 0.000000 0.000000
# 2 -0.007267 0.012967 -0.007529 0.000000 0.000000 0.000000
# 3 0.000063 -0.007529 0.018352 0.000000 0.000000 0.000000
# 4 0.000000 0.000000 0.000000 0.086023 0.000000 0.000000
# 5 0.000000 0.000000 0.000000 0.000000 0.064394 0.000000
# 6 0.000000 0.000000 0.000000 0.000000 0.000000 -0.140477
#
#
# Mechanical properties :
#
#
# Convention : Reuss Voigt Hill
#
# Bulk Modulus (GPa) = 49.96640 64.06467 57.01554
# Shear Modulus (GPa) = 52.32396 14.71366 33.51881
#
# Velocity S-wave (km/s) = 5.59204 2.96538 4.47573
# Velocity P-wave (km/s) = 8.45910 7.07193 7.79643
#
# Compressibility (1/GPa) = 0.02001345
#
# Stress axis : x y z
#
# Youngs Moduli (GPa) = 55.06397 77.11831 54.48893
#
# Poissons Ratio (x) = 0.56045 -0.00344
# Poissons Ratio (y) = 0.40017 0.41025
# Poissons Ratio (z) = -0.00347 0.58062
#
# Static dielectric constant tensor:
#      x y z
#    x 3.153320 0.000000 0.000000 
#    y 0.000000 3.178060 0.000000 
#    z 0.000000 0.000000 3.363560 
# 
# 
# High freq. dielectric constant tensor:
#      x y z
#    x 1.641060 0.000000 0.000000 
#    y 0.000000 1.627770 0.000000 
#    z 0.000000 0.000000 1.645040 
# 
# From -- ./inp_files/7710.got.cif
#   From: 2010.03.12/outbox.cif.g09.slc.cpg/sg47_4_cif.got.tgz:7710.got - 2010.04.14 03:12:58.
