data_PCOD8196217
_publ_section_title
;
Structure prediction by ZEFSAII (Michael W. Deem and Ramdas Pophale) SiO2 
 PCOD8196217
Probable space group: P M M M
;
_chemical_formula_sum "Si O2"
_cell_formula_units_Z 48
_cell_length_a 8.412336
_cell_length_b 17.865830
_cell_length_c 15.699139
_cell_angle_alpha 90.000000
_cell_angle_beta 90.000000
_cell_angle_gamma 90.000000
_cell_volume 2359.476426
_symmetry_space_group_name_H-M "P M M M"
_symmetry_group_IT_number 47
_symmetry_cell_setting 'orthorhombic'
loop_
_space_group_symop_operation_xyz
x,y,z
-x,-y,z
x,-y,-z
-x,y,-z
-x,-y,-z
x,y,-z
-x,y,z
x,-y,z
loop_
_atom_site_type_symbol
_atom_site_label
_atom_site_fract_x
_atom_site_fract_y
_atom_site_fract_z
Si Si1 0.685514 0.838990 0.093821
Si Si2 0.689695 0.915728 0.261836
Si Si3 0.817592 0.317192 0.143108
Si Si4 0.180218 0.500000 0.600523
Si Si5 0.320637 0.411994 0.000000
Si Si6 0.687860 0.195840 0.405728
Si Si7 0.685611 0.350330 0.677086
O O1 0.500000 0.854701 0.088339
O O2 0.758391 0.890346 0.169396
O O3 0.710469 0.753065 0.118010
O O4 0.760954 0.856926 0.000000
O O5 0.500000 0.909973 0.260535
O O6 0.759627 0.861871 0.335969
O O7 0.747101 0.000000 0.280409
O O8 0.772348 0.385972 0.083362
O O9 0.787983 0.343989 0.238270
O O10 0.000000 0.294618 0.130644
O O11 0.180222 0.500000 0.500000
O O12 0.273735 0.572864 0.630909
O O13 0.000000 0.500000 0.636066
O O14 0.321727 0.500000 0.000000
O O15 0.500000 0.380030 0.000000
O O16 0.757014 0.177715 0.500000
O O17 0.500000 0.186238 0.406972
O O18 0.733697 0.280881 0.383018
O O19 0.500000 0.347910 0.700343
#
# Coordination Sequence:
#
# PCOD8196217 Si02
#       7
#     8   8   8   4   4   8   8
#     4  10  19  34  57  82 113 154 198 242 289 351
#     4   9  17  30  50  82 121 155 192 244 302 354
#     4  12  24  38  59  87 118 153 196 245 296 350
#     4  11  25  43  61  88 125 156 191 247 307 359
#     4  11  25  43  63  87 118 155 196 239 292 355
#     4   9  17  30  52  83 115 150 194 244 295 349
#     4  11  22  39  62  85 116 157 203 248 294 354
#
# _framework density 20.343496999999999
#
# number of rings (size 3 to 8) (size 9 to 14) (size 15 to 20)
#    0.000    1.667    2.500    3.000    1.167    2.667 
#    0.000    3.333    0.000    0.500    0.000    1.167 
#    0.000    1.333    0.000    0.000    0.000    0.000 
#
# Total GULP energy -595188.004505 kJ/mol
# GULP energy per Si atom -12399.750094 kJ/mol
# Density = 2.029719 g / cm^3
# Si number density = 20.343497 Si / 1000 Ang^3
#
#
#
# Elastic Constant Matrix: (Units=GPa)
#
#
# Indices 1 2 3 4 5 6 
#
# 1 35.8030 9.2171 15.8223 0.0000 0.0000 0.0000
# 2 9.2171 147.0420 72.1668 0.0000 0.0000 0.0000
# 3 15.8223 72.1668 174.5055 0.0000 0.0000 0.0000
# 4 0.0000 0.0000 0.0000 37.8227 0.0000 0.0000
# 5 0.0000 0.0000 0.0000 0.0000 9.3017 0.0000
# 6 0.0000 0.0000 0.0000 0.0000 0.0000 2.9926
#
#
#
# Elastic Compliance Matrix: (Units=1/GPa)
#
#
# Indices 1 2 3 4 5 6 
#
# 1 0.029148 -0.000665 -0.002368 0.000000 0.000000 0.000000
# 2 -0.000665 0.008548 -0.003475 0.000000 0.000000 0.000000
# 3 -0.002368 -0.003475 0.007382 0.000000 0.000000 0.000000
# 4 0.000000 0.000000 0.000000 0.026439 0.000000 0.000000
# 5 0.000000 0.000000 0.000000 0.000000 0.107508 0.000000
# 6 0.000000 0.000000 0.000000 0.000000 0.000000 0.334157
#
#
# Mechanical properties :
#
#
# Convention : Reuss Voigt Hill
#
# Bulk Modulus (GPa) = 31.18846 61.30700 46.24773
# Shear Modulus (GPa) = 9.31299 27.36634 18.33967
#
# Velocity S-wave (km/s) = 2.14192 3.67169 3.00576
# Velocity P-wave (km/s) = 4.63479 6.94093 5.90160
#
# Compressibility (1/GPa) = 0.03206314
#
# Stress axis : x y z
#
# Youngs Moduli (GPa) = 34.30741 116.98938 135.46262
#
# Poissons Ratio (x) = 0.07780 0.32075
# Poissons Ratio (y) = 0.02281 0.47068
# Poissons Ratio (z) = 0.08123 0.40650
#
# Static dielectric constant tensor:
#      x y z
#    x 3.356670 0.000000 0.000000 
#    y 0.000000 3.586040 0.000000 
#    z 0.000000 0.000000 4.147920 
# 
# 
# High freq. dielectric constant tensor:
#      x y z
#    x 1.755910 0.000000 0.000000 
#    y 0.000000 1.795040 0.000000 
#    z 0.000000 0.000000 1.814220 
# 
# From -- ./inp_files/21073.got.cif
#   From: 2010.03.12/outbox.cif.g09.slc.cpg/sg47_11_cif.got.tgz:21073.got - 2010.04.14 03:12:58.
