data_PCOD8196265
_publ_section_title
;
Structure prediction by ZEFSAII (Michael W. Deem and Ramdas Pophale) SiO2 
 PCOD8196265
Probable space group: P M M M
;
_chemical_formula_sum "Si O2"
_cell_formula_units_Z 44
_cell_length_a 28.911636
_cell_length_b 10.136370
_cell_length_c 7.732746
_cell_angle_alpha 90.000000
_cell_angle_beta 90.000000
_cell_angle_gamma 90.000000
_cell_volume 2266.151118
_symmetry_space_group_name_H-M "P M M M"
_symmetry_group_IT_number 47
_symmetry_cell_setting 'orthorhombic'
loop_
_space_group_symop_operation_xyz
x,y,z
-x,-y,z
x,-y,-z
-x,y,-z
-x,-y,-z
x,y,-z
-x,y,z
x,-y,z
loop_
_atom_site_type_symbol
_atom_site_label
_atom_site_fract_x
_atom_site_fract_y
_atom_site_fract_z
Si Si1 0.800778 0.147997 0.701887
Si Si2 0.392888 0.745111 0.802244
Si Si3 0.553755 0.000000 0.702473
Si Si4 0.880125 0.653677 0.298379
Si Si5 0.948987 0.345050 0.000000
Si Si6 0.447838 0.500000 0.207533
Si Si7 0.299316 0.147057 0.203753
O O1 0.806003 0.134176 0.500000
O O2 0.838147 0.254009 0.767476
O O3 0.750501 0.207993 0.748893
O O4 0.807513 0.000000 0.784598
O O5 0.420653 0.625691 0.713621
O O6 0.341846 0.767485 0.717299
O O7 0.423689 0.874330 0.790201
O O8 0.385414 0.706183 0.000000
O O9 0.500000 0.000000 0.747119
O O10 0.563611 0.000000 0.500000
O O11 0.893018 0.678614 0.500000
O O12 0.866623 0.500000 0.269654
O O13 0.922795 0.696389 0.176532
O O14 0.954787 0.500000 0.000000
O O15 0.000000 0.278376 0.000000
O O16 0.500000 0.500000 0.281110
O O17 0.449601 0.500000 0.000000
O O18 0.302054 0.000000 0.284020
O O19 0.305621 0.139295 0.000000
#
# Coordination Sequence:
#
# PCOD8196265 Si02
#       7
#     8   8   4   8   4   4   8
#     4   9  18  32  51  74 100 137 177 210 255 312
#     4  10  19  35  55  75 101 129 165 210 257 310
#     4  11  23  35  51  77 101 127 167 211 257 308
#     4   9  18  33  52  76 108 140 177 226 268 311
#     4   9  18  32  53  81 111 143 183 225 266 315
#     4   9  18  32  53  77  99 127 165 207 253 310
#     4   9  17  30  48  73 100 128 164 209 254 303
#
# _framework density 19.416180000000001
#
# number of rings (size 3 to 8) (size 9 to 14) (size 15 to 20)
#    0.000    2.636    0.909    0.818    1.273    2.545 
#    1.636    2.273    0.000    2.727    0.000    2.545 
#    0.000    0.000    0.000    0.000    0.000    0.000 
#
# Total GULP energy -545293.025719 kJ/mol
# GULP energy per Si atom -12393.023312 kJ/mol
# Density = 1.937199 g / cm^3
# Si number density = 19.416180 Si / 1000 Ang^3
#
#
#
# Elastic Constant Matrix: (Units=GPa)
#
#
# Indices 1 2 3 4 5 6 
#
# 1 201.3456 79.9385 37.2120 0.0000 0.0000 0.0000
# 2 79.9385 109.3890 14.0895 0.0000 0.0000 0.0000
# 3 37.2120 14.0895 40.8636 0.0000 0.0000 0.0000
# 4 0.0000 0.0000 0.0000 1.7254 0.0000 0.0000
# 5 0.0000 0.0000 0.0000 0.0000 13.2231 0.0000
# 6 0.0000 0.0000 0.0000 0.0000 0.0000 -5.6850
#
#
#
# Elastic Compliance Matrix: (Units=1/GPa)
#
#
# Indices 1 2 3 4 5 6 
#
# 1 0.008040 -0.005162 -0.005542 0.000000 0.000000 0.000000
# 2 -0.005162 0.012880 0.000259 0.000000 0.000000 0.000000
# 3 -0.005542 0.000259 0.029429 0.000000 0.000000 0.000000
# 4 0.000000 0.000000 0.000000 0.579563 0.000000 0.000000
# 5 0.000000 0.000000 0.000000 0.000000 0.075625 0.000000
# 6 0.000000 0.000000 0.000000 0.000000 0.000000 -0.175902
#
#
# Mechanical properties :
#
#
# Convention : Reuss Voigt Hill
#
# Bulk Modulus (GPa) = 33.94329 68.23090 51.08709
# Shear Modulus (GPa) = 8.92308 16.54325 12.73317
#
# Velocity S-wave (km/s) = 2.14608 2.92213 2.56364
# Velocity P-wave (km/s) = 4.86424 6.82661 5.92720
#
# Compressibility (1/GPa) = 0.02946090
#
# Stress axis : x y z
#
# Youngs Moduli (GPa) = 124.37614 77.63796 33.98014
#
# Poissons Ratio (x) = 0.40074 0.18832
# Poissons Ratio (y) = 0.64199 -0.00881
# Poissons Ratio (z) = 0.68928 -0.02014
#
# Static dielectric constant tensor:
#      x y z
#    x 3.903590 0.000000 0.000000 
#    y 0.000000 4.418560 0.000000 
#    z 0.000000 0.000000 3.317290 
# 
# 
# High freq. dielectric constant tensor:
#      x y z
#    x 1.759350 0.000000 0.000000 
#    y 0.000000 1.734650 0.000000 
#    z 0.000000 0.000000 1.741690 
# 
# From -- ./inp_files/13709.got.cif
#   From: 2010.03.12/outbox.cif.g09.slc.cpg/sg47_7_cif.got.tgz:13709.got - 2010.04.14 03:12:58.
