data_PCOD8196473
_publ_section_title
;
Structure prediction by ZEFSAII (Michael W. Deem and Ramdas Pophale) SiO2 
 PCOD8196473
Probable space group: P M M M
;
_chemical_formula_sum "Si O2"
_cell_formula_units_Z 64
_cell_length_a 31.553853
_cell_length_b 14.258154
_cell_length_c 9.162476
_cell_angle_alpha 90.000000
_cell_angle_beta 90.000000
_cell_angle_gamma 90.000000
_cell_volume 4122.195161
_symmetry_space_group_name_H-M "P M M M"
_symmetry_group_IT_number 47
_symmetry_cell_setting 'orthorhombic'
loop_
_space_group_symop_operation_xyz
x,y,z
-x,-y,z
x,-y,-z
-x,y,-z
-x,-y,-z
x,y,-z
-x,y,z
x,-y,z
loop_
_atom_site_type_symbol
_atom_site_label
_atom_site_fract_x
_atom_site_fract_y
_atom_site_fract_z
Si Si1 0.717742 0.610744 0.831614
Si Si2 0.364521 0.611909 0.664213
Si Si3 0.792267 0.282860 0.673361
Si Si4 0.082465 0.894246 0.168953
Si Si5 0.874778 0.604778 0.326571
Si Si6 0.179872 0.893708 0.829992
Si Si7 0.952756 0.724253 0.329537
Si Si8 0.455139 0.395039 0.326631
O O1 0.723036 0.500000 0.809243
O O2 0.672137 0.645804 0.773376
O O3 0.752999 0.661072 0.736646
O O4 0.721990 0.639649 0.000000
O O5 0.354454 0.648042 0.500000
O O6 0.367656 0.500000 0.662540
O O7 0.410361 0.652518 0.722659
O O8 0.788729 0.280486 0.500000
O O9 0.834914 0.334712 0.727644
O O10 0.791933 0.177060 0.734657
O O11 0.131117 0.881749 0.217300
O O12 0.052477 0.825903 0.258833
O O13 0.067435 0.000000 0.200895
O O14 0.077507 0.869919 0.000000
O O15 0.875460 0.600078 0.500000
O O16 0.871376 0.500000 0.261075
O O17 0.918161 0.651347 0.266527
O O18 0.194926 0.000000 0.797571
O O19 0.185707 0.870236 0.000000
O O20 0.945430 0.737659 0.500000
O O21 0.000000 0.685936 0.295656
O O22 0.453144 0.399568 0.500000
O O23 0.500000 0.344250 0.278345
O O24 0.456927 0.500000 0.262797
#
# Coordination Sequence:
#
# PCOD8196473 Si02
#       8
#     8   8   8   8   8   8   8   8
#     4  10  20  31  42  59  86 119 152 186 226 268
#     4   8  13  22  36  53  75 105 143 186 227 265
#     4  11  20  31  50  71  90 112 141 180 219 258
#     4   9  18  33  52  71  92 118 142 165 199 247
#     4   9  18  32  48  67  89 112 140 175 213 250
#     4   9  18  33  52  72  93 115 138 167 206 254
#     4  10  20  33  49  70  93 115 142 176 212 249
#     4   7   9  14  27  48  71  96 132 180 228 267
#
# _framework density 15.525707000000001
#
# number of rings (size 3 to 8) (size 9 to 14) (size 15 to 20)
#    0.000    2.875    1.250    3.000    0.000    2.500 
#    0.000    3.750    0.000    1.500    0.000    3.500 
#    0.000    0.000    0.000    0.000    0.000    0.625 
#
# Total GULP energy -793063.215858 kJ/mol
# GULP energy per Si atom -12391.612748 kJ/mol
# Density = 1.549037 g / cm^3
# Si number density = 15.525707 Si / 1000 Ang^3
#
#
#
# Elastic Constant Matrix: (Units=GPa)
#
#
# Indices 1 2 3 4 5 6 
#
# 1 125.8408 41.0988 39.8947 0.0000 0.0000 0.0000
# 2 41.0988 65.9531 28.3651 0.0000 0.0000 0.0000
# 3 39.8947 28.3651 48.8289 0.0000 0.0000 0.0000
# 4 0.0000 0.0000 0.0000 19.1500 0.0000 0.0000
# 5 0.0000 0.0000 0.0000 0.0000 14.4204 0.0000
# 6 0.0000 0.0000 0.0000 0.0000 0.0000 5.0767
#
#
#
# Elastic Compliance Matrix: (Units=1/GPa)
#
#
# Indices 1 2 3 4 5 6 
#
# 1 0.011527 -0.004176 -0.006992 0.000000 0.000000 0.000000
# 2 -0.004176 0.021725 -0.009208 0.000000 0.000000 0.000000
# 3 -0.006992 -0.009208 0.031542 0.000000 0.000000 0.000000
# 4 0.000000 0.000000 0.000000 0.052219 0.000000 0.000000
# 5 0.000000 0.000000 0.000000 0.000000 0.069346 0.000000
# 6 0.000000 0.000000 0.000000 0.000000 0.000000 0.196977
#
#
# Mechanical properties :
#
#
# Convention : Reuss Voigt Hill
#
# Bulk Modulus (GPa) = 41.59584 51.03776 46.31680
# Shear Modulus (GPa) = 11.57134 16.48037 14.02586
#
# Velocity S-wave (km/s) = 2.73298 3.26159 3.00891
# Velocity P-wave (km/s) = 6.06702 6.86501 6.47831
#
# Compressibility (1/GPa) = 0.02404086
#
# Stress axis : x y z
#
# Youngs Moduli (GPa) = 86.75227 46.03034 31.70417
#
# Poissons Ratio (x) = 0.19222 0.22168
# Poissons Ratio (y) = 0.36227 0.29194
# Poissons Ratio (z) = 0.60658 0.42386
#
# Static dielectric constant tensor:
#      x y z
#    x 3.283880 0.000000 0.000000 
#    y 0.000000 2.746720 0.000000 
#    z 0.000000 0.000000 2.765560 
# 
# 
# High freq. dielectric constant tensor:
#      x y z
#    x 1.599150 0.000000 0.000000 
#    y 0.000000 1.554330 0.000000 
#    z 0.000000 0.000000 1.577020 
# 
# From -- ./inp_files/8268.got.cif
#   From: 2010.03.12/outbox.cif.g09.slc.cpg/sg47_5_cif.got.tgz:8268.got - 2010.04.14 03:12:58.
