data_PCOD8196834
_publ_section_title
;
Structure prediction by ZEFSAII (Michael W. Deem and Ramdas Pophale) SiO2 
 PCOD8196834
Probable space group: P M M M
;
_chemical_formula_sum "Si O2"
_cell_formula_units_Z 40
_cell_length_a 9.265259
_cell_length_b 9.026130
_cell_length_c 26.188490
_cell_angle_alpha 90.000000
_cell_angle_beta 90.000000
_cell_angle_gamma 90.000000
_cell_volume 2190.128549
_symmetry_space_group_name_H-M "P M M M"
_symmetry_group_IT_number 47
_symmetry_cell_setting 'orthorhombic'
loop_
_space_group_symop_operation_xyz
x,y,z
-x,-y,z
x,-y,-z
-x,y,-z
-x,-y,-z
x,y,-z
-x,y,z
x,-y,z
loop_
_atom_site_type_symbol
_atom_site_label
_atom_site_fract_x
_atom_site_fract_y
_atom_site_fract_z
Si Si1 0.171410 0.162266 0.500000
Si Si2 0.827698 0.667327 0.000000
Si Si3 0.838317 0.823228 0.390766
Si Si4 0.833463 0.325948 0.201979
Si Si5 0.669106 0.827814 0.707469
Si Si6 0.171672 0.833096 0.900166
O O1 0.214522 0.242675 0.446257
O O2 0.000000 0.145031 0.500000
O O3 0.244333 0.000000 0.500000
O O4 0.766763 0.749910 0.949943
O O5 0.769047 0.500000 0.000000
O O6 0.000000 0.668803 0.000000
O O7 0.731254 0.769500 0.346457
O O8 0.000000 0.766978 0.377631
O O9 0.838362 0.000000 0.395245
O O10 0.813003 0.500000 0.195911
O O11 0.739305 0.267922 0.248345
O O12 0.774588 0.250594 0.150394
O O13 0.000000 0.283546 0.211866
O O14 0.500000 0.799629 0.707299
O O15 0.707785 0.000000 0.716062
O O16 0.000000 0.832896 0.902204
O O17 0.232415 0.000000 0.899487
#
# Coordination Sequence:
#
# PCOD8196834 Si02
#       6
#     4   4   8   8   8   8
#     4   7  10  18  35  61  90 119 152 189 230 276
#     4   9  15  23  37  61  96 131 158 189 232 281
#     4   8  13  23  41  64  91 123 157 193 233 278
#     4  10  20  33  49  69  92 121 160 203 245 289
#     4  10  20  32  46  67  95 126 160 197 239 288
#     4   9  16  26  42  65  93 124 157 194 238 286
#
# _framework density 18.263769
#
# number of rings (size 3 to 8) (size 9 to 14) (size 15 to 20)
#    0.000    3.000    0.000    3.300    0.000    6.000 
#    0.000    0.500    0.000    3.000    0.000    1.400 
#    0.000   11.200    0.000    0.000    0.000    0.000 
#
# Total GULP energy -495736.690992 kJ/mol
# GULP energy per Si atom -12393.417275 kJ/mol
# Density = 1.822220 g / cm^3
# Si number density = 18.263769 Si / 1000 Ang^3
#
#
#
# Elastic Constant Matrix: (Units=GPa)
#
#
# Indices 1 2 3 4 5 6 
#
# 1 46.5016 29.0476 48.2821 0.0000 0.0000 0.0000
# 2 29.0476 83.8984 65.3557 0.0000 0.0000 0.0000
# 3 48.2821 65.3557 196.1612 0.0000 0.0000 0.0000
# 4 0.0000 0.0000 0.0000 3.8963 0.0000 0.0000
# 5 0.0000 0.0000 0.0000 0.0000 -1.0509 0.0000
# 6 0.0000 0.0000 0.0000 0.0000 0.0000 13.6307
#
#
#
# Elastic Compliance Matrix: (Units=1/GPa)
#
#
# Indices 1 2 3 4 5 6 
#
# 1 0.031335 -0.006538 -0.005534 0.000000 0.000000 0.000000
# 2 -0.006538 0.017461 -0.004208 0.000000 0.000000 0.000000
# 3 -0.005534 -0.004208 0.007862 0.000000 0.000000 0.000000
# 4 0.000000 0.000000 0.000000 0.256651 0.000000 0.000000
# 5 0.000000 0.000000 0.000000 0.000000 -0.951590 0.000000
# 6 0.000000 0.000000 0.000000 0.000000 0.000000 0.073364
#
#
# Mechanical properties :
#
#
# Convention : Reuss Voigt Hill
#
# Bulk Modulus (GPa) = 41.49886 67.99242 54.74564
# Shear Modulus (GPa) = -9.53608 15.55362 3.00877
#
# Velocity S-wave (km/s) = -2.28750 2.92140 1.28490
# Velocity P-wave (km/s) = 3.97422 6.97770 5.67815
#
# Compressibility (1/GPa) = 0.02409705
#
# Stress axis : x y z
#
# Youngs Moduli (GPa) = 31.91349 57.27079 127.19116
#
# Poissons Ratio (x) = 0.37441 0.70393
# Poissons Ratio (y) = 0.20864 0.53527
# Poissons Ratio (z) = 0.17662 0.24102
#
# Static dielectric constant tensor:
#      x y z
#    x 2.909300 0.000000 0.000000 
#    y 0.000000 3.124890 0.000000 
#    z 0.000000 0.000000 3.845510 
# 
# 
# High freq. dielectric constant tensor:
#      x y z
#    x 1.653260 0.000000 0.000000 
#    y 0.000000 1.677030 0.000000 
#    z 0.000000 0.000000 1.735270 
# 
# From -- ./inp_files/33104.got.cif
#   From: 2010.03.12/outbox.cif.g09.slc.cpg/sg47_17_cif.got.tgz:33104.got - 2010.04.14 03:12:58.
