data_PCOD8196230
_publ_section_title
;
Structure prediction by ZEFSAII (Michael W. Deem and Ramdas Pophale) SiO2 
 PCOD8196230
Probable space group: P M M M
;
_chemical_formula_sum "Si O2"
_cell_formula_units_Z 48
_cell_length_a 29.481241
_cell_length_b 9.979636
_cell_length_c 8.982436
_cell_angle_alpha 90.000000
_cell_angle_beta 90.000000
_cell_angle_gamma 90.000000
_cell_volume 2642.740946
_symmetry_space_group_name_H-M "P M M M"
_symmetry_group_IT_number 47
_symmetry_cell_setting 'orthorhombic'
loop_
_space_group_symop_operation_xyz
x,y,z
-x,-y,z
x,-y,-z
-x,y,-z
-x,-y,-z
x,y,-z
-x,y,z
x,-y,z
loop_
_atom_site_type_symbol
_atom_site_label
_atom_site_fract_x
_atom_site_fract_y
_atom_site_fract_z
Si Si1 0.449616 0.349841 0.176916
Si Si2 0.103256 0.243095 0.676161
Si Si3 0.200174 0.347483 0.323302
Si Si4 0.947665 0.000000 0.176382
Si Si5 0.627195 0.153051 0.174851
Si Si6 0.950310 0.500000 0.323716
Si Si7 0.720887 0.152607 0.676014
O O1 0.500000 0.312226 0.236013
O O2 0.436672 0.500000 0.229437
O O3 0.413037 0.245179 0.241017
O O4 0.449749 0.342680 0.000000
O O5 0.099537 0.216317 0.500000
O O6 0.155028 0.268224 0.725928
O O7 0.076090 0.371393 0.731545
O O8 0.080438 0.124255 0.764200
O O9 0.200985 0.357607 0.500000
O O10 0.202202 0.500000 0.258272
O O11 0.241772 0.257444 0.263510
O O12 0.000000 0.000000 0.235025
O O13 0.947397 0.000000 0.000000
O O14 0.673523 0.196819 0.253035
O O15 0.614716 0.000000 0.212758
O O16 0.633554 0.174940 0.000000
O O17 0.953269 0.500000 0.500000
O O18 0.000000 0.500000 0.251039
O O19 0.716404 0.162577 0.500000
O O20 0.733776 0.000000 0.723291
#
# Coordination Sequence:
#
# PCOD8196230 Si02
#       7
#     8   8   8   4   8   4   8
#     4   8  14  25  42  65  92 121 154 194 240 288
#     4  10  19  34  58  83 104 129 167 213 253 295
#     4   9  17  31  52  79 104 125 157 205 253 294
#     4  11  25  41  53  73 109 145 173 203 244 297
#     4   9  17  29  45  67  94 121 155 200 243 280
#     4   9  16  28  51  83 109 125 153 205 260 297
#     4   9  18  31  48  69  96 131 165 194 234 292
#
# _framework density 18.162960000000002
#
# number of rings (size 3 to 8) (size 9 to 14) (size 15 to 20)
#    0.000    2.833    0.833    1.250    1.167    2.333 
#    0.000    2.917    0.000    3.000    0.000    3.500 
#    0.000    0.000    0.000    0.000    0.000    0.000 
#
# Total GULP energy -594978.010375 kJ/mol
# GULP energy per Si atom -12395.375216 kJ/mol
# Density = 1.812162 g / cm^3
# Si number density = 18.162960 Si / 1000 Ang^3
#
#
#
# Elastic Constant Matrix: (Units=GPa)
#
#
# Indices 1 2 3 4 5 6 
#
# 1 186.6993 111.0758 27.1170 0.0000 0.0000 0.0000
# 2 111.0758 151.5247 27.0670 0.0000 0.0000 0.0000
# 3 27.1170 27.0670 19.1815 0.0000 0.0000 0.0000
# 4 0.0000 0.0000 0.0000 11.5434 0.0000 0.0000
# 5 0.0000 0.0000 0.0000 0.0000 24.7246 0.0000
# 6 0.0000 0.0000 0.0000 0.0000 0.0000 42.8375
#
#
#
# Elastic Compliance Matrix: (Units=1/GPa)
#
#
# Indices 1 2 3 4 5 6 
#
# 1 0.009844 -0.006324 -0.004992 0.000000 0.000000 0.000000
# 2 -0.006324 0.012887 -0.009244 0.000000 0.000000 0.000000
# 3 -0.004992 -0.009244 0.072235 0.000000 0.000000 0.000000
# 4 0.000000 0.000000 0.000000 0.086630 0.000000 0.000000
# 5 0.000000 0.000000 0.000000 0.000000 0.040446 0.000000
# 6 0.000000 0.000000 0.000000 0.000000 0.000000 0.023344
#
#
# Mechanical properties :
#
#
# Convention : Reuss Voigt Hill
#
# Bulk Modulus (GPa) = 18.57176 76.43612 47.50394
# Shear Modulus (GPa) = 16.42280 28.63081 22.52680
#
# Velocity S-wave (km/s) = 3.01024 3.97461 3.52555
# Velocity P-wave (km/s) = 4.72539 7.95225 6.54093
#
# Compressibility (1/GPa) = 0.05384521
#
# Stress axis : x y z
#
# Youngs Moduli (GPa) = 101.58521 77.59778 13.84366
#
# Poissons Ratio (x) = 0.49076 0.06911
# Poissons Ratio (y) = 0.64247 0.12797
# Poissons Ratio (z) = 0.50713 0.71731
#
# Static dielectric constant tensor:
#      x y z
#    x 3.686910 0.000000 0.000000 
#    y 0.000000 3.528550 0.000000 
#    z 0.000000 0.000000 2.854610 
# 
# 
# High freq. dielectric constant tensor:
#      x y z
#    x 1.717130 0.000000 0.000000 
#    y 0.000000 1.714440 0.000000 
#    z 0.000000 0.000000 1.649990 
# 
# From -- ./inp_files/14001.got.cif
#   From: 2010.03.12/outbox.cif.g09.slc.cpg/sg47_8_cif.got.tgz:14001.got - 2010.04.14 03:12:58.
