data_PCOD8196497
_publ_section_title
;
Structure prediction by ZEFSAII (Michael W. Deem and Ramdas Pophale) SiO2 
 PCOD8196497
Probable space group: P M M M
;
_chemical_formula_sum "Si O2"
_cell_formula_units_Z 56
_cell_length_a 13.694789
_cell_length_b 29.459891
_cell_length_c 9.315400
_cell_angle_alpha 90.000000
_cell_angle_beta 90.000000
_cell_angle_gamma 90.000000
_cell_volume 3758.270102
_symmetry_space_group_name_H-M "P M M M"
_symmetry_group_IT_number 47
_symmetry_cell_setting 'orthorhombic'
loop_
_space_group_symop_operation_xyz
x,y,z
-x,-y,z
x,-y,-z
-x,y,-z
-x,-y,-z
x,y,-z
-x,y,z
x,-y,z
loop_
_atom_site_type_symbol
_atom_site_label
_atom_site_fract_x
_atom_site_fract_y
_atom_site_fract_z
Si Si1 0.116360 0.634225 0.161195
Si Si2 0.112545 0.278617 0.333543
Si Si3 0.606698 0.134773 0.331401
Si Si4 0.733386 0.948632 0.332921
Si Si5 0.112715 0.896169 0.834983
Si Si6 0.116119 0.550108 0.338790
Si Si7 0.203053 0.815845 0.669093
O O1 0.153001 0.678736 0.244601
O O2 0.159795 0.588950 0.235695
O O3 0.000000 0.632650 0.163931
O O4 0.157033 0.636090 0.000000
O O5 0.123755 0.290895 0.500000
O O6 0.178390 0.235708 0.289742
O O7 0.000000 0.267660 0.296086
O O8 0.593467 0.136662 0.500000
O O9 0.500000 0.143156 0.258966
O O10 0.645941 0.084998 0.286251
O O11 0.685019 0.173198 0.284527
O O12 0.759650 0.941512 0.500000
O O13 0.828754 0.936898 0.240463
O O14 0.700095 0.000000 0.301149
O O15 0.130764 0.848615 0.754873
O O16 0.000000 0.909081 0.823390
O O17 0.145965 0.891409 0.000000
O O18 0.154703 0.558653 0.500000
O O19 0.149564 0.500000 0.285139
O O20 0.000000 0.552698 0.338412
O O21 0.186755 0.824588 0.500000
#
# Coordination Sequence:
#
# PCOD8196497 Si02
#       7
#     8   8   8   8   8   8   8
#     4   9  16  23  31  46  68  93 123 160 198 232
#     4   9  16  25  37  52  72  99 128 158 190 223
#     4   8  14  26  45  67  86 100 119 154 195 230
#     4   9  18  31  46  64  83 104 131 158 184 220
#     4  10  20  31  43  60  82 107 131 157 191 227
#     4   8  13  21  32  44  60  87 124 163 199 232
#     4   9  17  29  45  63  80 101 131 161 190 229
#
# _framework density 14.900473
#
# number of rings (size 3 to 8) (size 9 to 14) (size 15 to 20)
#    0.000    3.143    0.000    2.571    0.000    5.143 
#    0.000    5.714    0.000    6.857    0.000    4.000 
#    0.000    0.000    0.000    0.000    0.000    0.714 
#
# Total GULP energy -694100.731198 kJ/mol
# GULP energy per Si atom -12394.655914 kJ/mol
# Density = 1.486656 g / cm^3
# Si number density = 14.900473 Si / 1000 Ang^3
#
#
#
# Elastic Constant Matrix: (Units=GPa)
#
#
# Indices 1 2 3 4 5 6 
#
# 1 64.5883 38.9028 23.9310 0.0000 0.0000 0.0000
# 2 38.9028 137.8140 50.1017 0.0000 0.0000 0.0000
# 3 23.9310 50.1017 63.1115 0.0000 0.0000 0.0000
# 4 0.0000 0.0000 0.0000 13.0152 0.0000 0.0000
# 5 0.0000 0.0000 0.0000 0.0000 6.7820 0.0000
# 6 0.0000 0.0000 0.0000 0.0000 0.0000 0.9368
#
#
#
# Elastic Compliance Matrix: (Units=1/GPa)
#
#
# Indices 1 2 3 4 5 6 
#
# 1 0.019428 -0.003944 -0.004235 0.000000 0.000000 0.000000
# 2 -0.003944 0.011001 -0.007237 0.000000 0.000000 0.000000
# 3 -0.004235 -0.007237 0.023196 0.000000 0.000000 0.000000
# 4 0.000000 0.000000 0.000000 0.076833 0.000000 0.000000
# 5 0.000000 0.000000 0.000000 0.000000 0.147449 0.000000
# 6 0.000000 0.000000 0.000000 0.000000 0.000000 1.067517
#
#
# Mechanical properties :
#
#
# Convention : Reuss Voigt Hill
#
# Bulk Modulus (GPa) = 43.87788 54.59832 49.23810
# Shear Modulus (GPa) = 3.61309 14.31867 8.96588
#
# Velocity S-wave (km/s) = 1.55887 3.10329 2.45566
# Velocity P-wave (km/s) = 5.72288 7.04003 6.41535
#
# Compressibility (1/GPa) = 0.02279053
#
# Stress axis : x y z
#
# Youngs Moduli (GPa) = 51.47279 90.90311 43.10999
#
# Poissons Ratio (x) = 0.35856 0.18259
# Poissons Ratio (y) = 0.20303 0.31200
# Poissons Ratio (z) = 0.21801 0.65790
#
# Static dielectric constant tensor:
#      x y z
#    x 2.689620 0.000000 0.000000 
#    y 0.000000 3.017940 0.000000 
#    z 0.000000 0.000000 2.876270 
# 
# 
# High freq. dielectric constant tensor:
#      x y z
#    x 1.517540 0.000000 0.000000 
#    y 0.000000 1.574030 0.000000 
#    z 0.000000 0.000000 1.562780 
# 
# From -- ./inp_files/8155.got.cif
#   From: 2010.03.12/outbox.cif.g09.slc.cpg/sg47_5_cif.got.tgz:8155.got - 2010.04.14 03:12:58.
