data_PCOD8196042
_publ_section_title
;
Structure prediction by ZEFSAII (Michael W. Deem and Ramdas Pophale) SiO2 
 PCOD8196042
Probable space group: P M M M
;
_chemical_formula_sum "Si O2"
_cell_formula_units_Z 64
_cell_length_a 9.140015
_cell_length_b 19.357506
_cell_length_c 20.659785
_cell_angle_alpha 90.000000
_cell_angle_beta 90.000000
_cell_angle_gamma 90.000000
_cell_volume 3655.292275
_symmetry_space_group_name_H-M "P M M M"
_symmetry_group_IT_number 47
_symmetry_cell_setting 'orthorhombic'
loop_
_space_group_symop_operation_xyz
x,y,z
-x,-y,z
x,-y,-z
-x,y,-z
-x,-y,-z
x,y,-z
-x,y,z
x,-y,z
loop_
_atom_site_type_symbol
_atom_site_label
_atom_site_fract_x
_atom_site_fract_y
_atom_site_fract_z
Si Si1 0.331764 0.716412 0.819327
Si Si2 0.331749 0.701570 0.427772
Si Si3 0.667077 0.423052 0.758211
Si Si4 0.829358 0.421980 0.373675
Si Si5 0.670399 0.921873 0.874056
Si Si6 0.831600 0.201830 0.927315
Si Si7 0.328855 0.797736 0.688256
Si Si8 0.170025 0.078284 0.260912
O O1 0.500000 0.731164 0.837142
O O2 0.300827 0.634354 0.812787
O O3 0.232067 0.742788 0.877454
O O4 0.290642 0.753805 0.752177
O O5 0.310101 0.732210 0.500000
O O6 0.500000 0.684552 0.413241
O O7 0.244470 0.629927 0.423892
O O8 0.274383 0.756231 0.374928
O O9 0.500000 0.415095 0.733883
O O10 0.694939 0.500000 0.786982
O O11 0.770300 0.408203 0.697959
O O12 0.793800 0.500000 0.396072
O O13 0.000000 0.407352 0.372596
O O14 0.500000 0.904130 0.866860
O O15 0.744711 0.870556 0.924795
O O16 0.744247 0.909025 0.805280
O O17 0.694581 0.000000 0.898605
O O18 0.000000 0.187945 0.909923
O O19 0.814817 0.231257 0.000000
O O20 0.500000 0.815053 0.684034
O O21 0.238069 0.869155 0.687097
O O22 0.000000 0.094322 0.249369
O O23 0.193085 0.000000 0.285872
#
# Coordination Sequence:
#
# PCOD8196042 Si02
#       8
#     8   8   8   8   8   8   8   8
#     4  10  19  33  55  81 105 133 172 218 262 304
#     4  10  21  37  55  75 103 140 179 217 259 310
#     4   9  17  32  55  80 106 135 171 216 262 308
#     4  10  20  32  48  74 108 143 177 213 255 305
#     4  10  20  34  53  77 105 138 174 211 254 304
#     4  11  24  38  52  74 105 141 178 214 255 306
#     4  10  19  33  54  81 106 132 172 217 261 306
#     4  10  20  33  52  79 107 136 172 212 256 306
#
# _framework density 17.508859000000001
#
# number of rings (size 3 to 8) (size 9 to 14) (size 15 to 20)
#    0.000    2.000    2.500    1.500    0.000    5.000 
#    0.000    2.500    0.000    0.750    0.000    5.250 
#    0.000    0.000    0.000    0.000    0.000    0.000 
#
# Total GULP energy -793648.381622 kJ/mol
# GULP energy per Si atom -12400.755963 kJ/mol
# Density = 1.746901 g / cm^3
# Si number density = 17.508859 Si / 1000 Ang^3
#
#
#
# Elastic Constant Matrix: (Units=GPa)
#
#
# Indices 1 2 3 4 5 6 
#
# 1 88.0230 50.5888 47.8859 0.0000 0.0000 0.0000
# 2 50.5888 111.5581 56.7164 0.0000 0.0000 0.0000
# 3 47.8859 56.7164 97.8010 0.0000 0.0000 0.0000
# 4 0.0000 0.0000 0.0000 24.3184 0.0000 0.0000
# 5 0.0000 0.0000 0.0000 0.0000 18.3436 0.0000
# 6 0.0000 0.0000 0.0000 0.0000 0.0000 28.0937
#
#
#
# Elastic Compliance Matrix: (Units=1/GPa)
#
#
# Indices 1 2 3 4 5 6 
#
# 1 0.017254 -0.005005 -0.005546 0.000000 0.000000 0.000000
# 2 -0.005005 0.014164 -0.005763 0.000000 0.000000 0.000000
# 3 -0.005546 -0.005763 0.016282 0.000000 0.000000 0.000000
# 4 0.000000 0.000000 0.000000 0.041121 0.000000 0.000000
# 5 0.000000 0.000000 0.000000 0.000000 0.054515 0.000000
# 6 0.000000 0.000000 0.000000 0.000000 0.000000 0.035595
#
#
# Mechanical properties :
#
#
# Convention : Reuss Voigt Hill
#
# Bulk Modulus (GPa) = 66.34578 67.52936 66.93757
# Shear Modulus (GPa) = 23.08590 23.63053 23.35822
#
# Velocity S-wave (km/s) = 3.63509 3.67772 3.65647
# Velocity P-wave (km/s) = 7.45610 7.52905 7.49267
#
# Compressibility (1/GPa) = 0.01507255
#
# Stress axis : x y z
#
# Youngs Moduli (GPa) = 57.95776 70.60399 61.41655
#
# Poissons Ratio (x) = 0.35336 0.34059
# Poissons Ratio (y) = 0.29007 0.35395
# Poissons Ratio (z) = 0.32141 0.40690
#
# Static dielectric constant tensor:
#      x y z
#    x 3.315860 0.000000 0.000000 
#    y 0.000000 3.466890 0.000000 
#    z 0.000000 0.000000 2.992900 
# 
# 
# High freq. dielectric constant tensor:
#      x y z
#    x 1.683030 0.000000 0.000000 
#    y 0.000000 1.680490 0.000000 
#    z 0.000000 0.000000 1.646230 
# 
# From -- ./inp_files/10042.got.cif
#   From: 2010.03.12/outbox.cif.g09.slc.cpg/sg47_6_cif.got.tgz:10042.got - 2010.04.14 03:12:58.
