data_PCOD8196900
_publ_section_title
;
Structure prediction by ZEFSAII (Michael W. Deem and Ramdas Pophale) SiO2 
 PCOD8196900
Probable space group: P M M M
;
_chemical_formula_sum "Si O2"
_cell_formula_units_Z 44
_cell_length_a 28.585420
_cell_length_b 8.756893
_cell_length_c 9.601396
_cell_angle_alpha 90.000000
_cell_angle_beta 90.000000
_cell_angle_gamma 90.000000
_cell_volume 2403.416303
_symmetry_space_group_name_H-M "P M M M"
_symmetry_group_IT_number 47
_symmetry_cell_setting 'orthorhombic'
loop_
_space_group_symop_operation_xyz
x,y,z
-x,-y,z
x,-y,-z
-x,y,-z
-x,-y,-z
x,y,-z
-x,y,z
x,-y,z
loop_
_atom_site_type_symbol
_atom_site_label
_atom_site_fract_x
_atom_site_fract_y
_atom_site_fract_z
Si Si1 0.051456 0.818305 0.656090
Si Si2 0.595786 0.680270 0.839630
Si Si3 0.500000 0.171068 0.164936
Si Si4 0.762957 0.818515 0.843546
Si Si5 0.678027 0.181565 0.340588
Si Si6 0.866456 0.818310 0.155894
O O1 0.058324 0.756770 0.500000
O O2 0.092875 0.745616 0.748653
O O3 0.000000 0.768419 0.712169
O O4 0.054811 0.000000 0.657649
O O5 0.596808 0.500000 0.825394
O O6 0.545915 0.739847 0.783879
O O7 0.634117 0.752757 0.740497
O O8 0.604693 0.730731 0.000000
O O9 0.500000 0.000000 0.227515
O O10 0.500000 0.165579 0.000000
O O11 0.724865 0.755070 0.734727
O O12 0.814740 0.763774 0.795293
O O13 0.761525 0.000000 0.846027
O O14 0.752006 0.757623 0.000000
O O15 0.678031 0.239352 0.500000
O O16 0.675839 0.000000 0.333958
O O17 0.868761 0.000000 0.161695
O O18 0.875674 0.760206 0.000000
#
# Coordination Sequence:
#
# PCOD8196900 Si02
#       6
#     8   8   4   8   8   8
#     4   8  13  19  25  35  55  86 124 165 210 261
#     4  10  20  34  53  76 101 129 160 193 231 276
#     4   9  17  31  54  81 104 127 158 196 234 271
#     4   8  14  25  40  57  78 105 139 182 230 276
#     4  10  20  32  47  69  95 123 157 195 235 280
#     4   8  13  20  30  45  64  88 123 169 219 266
#
# _framework density 18.307274
#
# number of rings (size 3 to 8) (size 9 to 14) (size 15 to 20)
#    0.000    3.182    0.000    3.000    0.000    4.364 
#    0.000    5.909    0.000    2.727    0.000    0.000 
#    0.000    0.000    0.000    0.000    0.000    0.909 
#
# Total GULP energy -545292.347970 kJ/mol
# GULP energy per Si atom -12393.007908 kJ/mol
# Density = 1.826561 g / cm^3
# Si number density = 18.307274 Si / 1000 Ang^3
#
#
#
# Elastic Constant Matrix: (Units=GPa)
#
#
# Indices 1 2 3 4 5 6 
#
# 1 197.8373 12.5449 105.0837 0.0000 0.0000 0.0000
# 2 12.5449 7.6225 15.7261 0.0000 0.0000 0.0000
# 3 105.0837 15.7261 116.3959 0.0000 0.0000 0.0000
# 4 0.0000 0.0000 0.0000 11.3000 0.0000 0.0000
# 5 0.0000 0.0000 0.0000 0.0000 15.8548 0.0000
# 6 0.0000 0.0000 0.0000 0.0000 0.0000 -2.9559
#
#
#
# Elastic Compliance Matrix: (Units=1/GPa)
#
#
# Indices 1 2 3 4 5 6 
#
# 1 0.009759 0.002934 -0.009207 0.000000 0.000000 0.000000
# 2 0.002934 0.182773 -0.027343 0.000000 0.000000 0.000000
# 3 -0.009207 -0.027343 0.020598 0.000000 0.000000 0.000000
# 4 0.000000 0.000000 0.000000 0.088496 0.000000 0.000000
# 5 0.000000 0.000000 0.000000 0.000000 0.063072 0.000000
# 6 0.000000 0.000000 0.000000 0.000000 0.000000 -0.338306
#
#
# Mechanical properties :
#
#
# Convention : Reuss Voigt Hill
#
# Bulk Modulus (GPa) = 6.85412 65.39613 36.12513
# Shear Modulus (GPa) = 35.14803 17.40652 26.27728
#
# Velocity S-wave (km/s) = 4.38641 3.08685 3.79271
# Velocity P-wave (km/s) = 5.42275 6.96446 6.24139
#
# Compressibility (1/GPa) = 0.14589761
#
# Stress axis : x y z
#
# Youngs Moduli (GPa) = 102.46955 5.47128 48.54903
#
# Poissons Ratio (x) = -0.01605 0.44699
# Poissons Ratio (y) = -0.30063 1.32747
# Poissons Ratio (z) = 0.94343 0.14960
#
# Static dielectric constant tensor:
#      x y z
#    x 3.892150 0.000000 0.000000 
#    y 0.000000 2.805510 0.000000 
#    z 0.000000 0.000000 3.485620 
# 
# 
# High freq. dielectric constant tensor:
#      x y z
#    x 1.730130 0.000000 0.000000 
#    y 0.000000 1.648890 0.000000 
#    z 0.000000 0.000000 1.695430 
# 
# From -- ./inp_files/13627.got.cif
#   From: 2010.03.12/outbox.cif.g09.slc.cpg/sg47_7_cif.got.tgz:13627.got - 2010.04.14 03:12:58.
