data_PCOD8196949
_publ_section_title
;
Structure prediction by ZEFSAII (Michael W. Deem and Ramdas Pophale) SiO2 
 PCOD8196949
Probable space group: P M M M
;
_chemical_formula_sum "Si O2"
_cell_formula_units_Z 40
_cell_length_a 25.677685
_cell_length_b 9.241868
_cell_length_c 9.455296
_cell_angle_alpha 90.000000
_cell_angle_beta 90.000000
_cell_angle_gamma 90.000000
_cell_volume 2243.834169
_symmetry_space_group_name_H-M "P M M M"
_symmetry_group_IT_number 47
_symmetry_cell_setting 'orthorhombic'
loop_
_space_group_symop_operation_xyz
x,y,z
-x,-y,z
x,-y,-z
-x,y,-z
-x,-y,-z
x,y,-z
-x,y,z
x,-y,z
loop_
_atom_site_type_symbol
_atom_site_label
_atom_site_fract_x
_atom_site_fract_y
_atom_site_fract_z
Si Si1 0.643808 0.832348 0.334377
Si Si2 0.560306 0.664786 0.163435
Si Si3 0.057485 0.337475 0.668175
Si Si4 0.844721 0.837101 0.668893
Si Si5 0.254834 0.663472 0.668358
O O1 0.635906 0.806244 0.500000
O O2 0.592682 0.775542 0.257115
O O3 0.693982 0.746086 0.276821
O O4 0.652273 0.000000 0.299144
O O5 0.500000 0.696846 0.192730
O O6 0.573839 0.500000 0.206263
O O7 0.573742 0.690854 0.000000
O O8 0.059819 0.337104 0.500000
O O9 0.068095 0.500000 0.723417
O O10 0.101849 0.231859 0.729326
O O11 0.000000 0.284995 0.718252
O O12 0.844771 0.835938 0.500000
O O13 0.796051 0.745251 0.727498
O O14 0.840238 0.000000 0.726739
O O15 0.253620 0.663796 0.500000
O O16 0.255281 0.500000 0.727385
#
# Coordination Sequence:
#
# PCOD8196949 Si02
#       5
#     8   8   8   8   8
#     4  10  20  32  47  70  98 123 150 188 231 273
#     4   9  19  36  55  73  94 122 156 190 223 265
#     4   8  13  20  28  38  55  83 122 166 208 252
#     4   9  15  21  30  45  66  92 124 166 215 262
#     4   9  16  26  40  56  76 105 140 176 216 263
#
# _framework density 17.826630000000002
#
# number of rings (size 3 to 8) (size 9 to 14) (size 15 to 20)
#    0.000    3.000    0.000    3.000    0.000    7.600 
#    0.000    5.000    0.000    0.000    0.000    0.000 
#    0.000    0.000    0.000    0.000    0.000    1.000 
#
# Total GULP energy -495894.244611 kJ/mol
# GULP energy per Si atom -12397.356115 kJ/mol
# Density = 1.778606 g / cm^3
# Si number density = 17.826630 Si / 1000 Ang^3
#
#
#
# Elastic Constant Matrix: (Units=GPa)
#
#
# Indices 1 2 3 4 5 6 
#
# 1 145.6758 94.4998 28.7138 0.0000 0.0000 0.0000
# 2 94.4998 156.1931 28.0279 0.0000 0.0000 0.0000
# 3 28.7138 28.0279 15.9798 0.0000 0.0000 0.0000
# 4 0.0000 0.0000 0.0000 14.2826 0.0000 0.0000
# 5 0.0000 0.0000 0.0000 0.0000 -0.7495 0.0000
# 6 0.0000 0.0000 0.0000 0.0000 0.0000 34.1946
#
#
#
# Elastic Compliance Matrix: (Units=1/GPa)
#
#
# Indices 1 2 3 4 5 6 
#
# 1 0.013179 -0.005434 -0.014149 0.000000 0.000000 0.000000
# 2 -0.005434 0.011584 -0.010553 0.000000 0.000000 0.000000
# 3 -0.014149 -0.010553 0.106512 0.000000 0.000000 0.000000
# 4 0.000000 0.000000 0.000000 0.070015 0.000000 0.000000
# 5 0.000000 0.000000 0.000000 0.000000 -1.334276 0.000000
# 6 0.000000 0.000000 0.000000 0.000000 0.000000 0.029244
#
#
# Mechanical properties :
#
#
# Convention : Reuss Voigt Hill
#
# Bulk Modulus (GPa) = 14.08399 68.92576 41.50487
# Shear Modulus (GPa) = -4.90291 20.65269 7.87489
#
# Velocity S-wave (km/s) = -1.66021 3.40741 2.10406
# Velocity P-wave (km/s) = 2.05976 7.36404 5.40702
#
# Compressibility (1/GPa) = 0.07100263
#
# Stress axis : x y z
#
# Youngs Moduli (GPa) = 75.87983 86.32686 9.38863
#
# Poissons Ratio (x) = 0.46914 0.13284
# Poissons Ratio (y) = 0.41237 0.09907
# Poissons Ratio (z) = 1.07361 0.91097
#
# Static dielectric constant tensor:
#      x y z
#    x 3.532370 0.000000 0.000000 
#    y 0.000000 3.461500 0.000000 
#    z 0.000000 0.000000 2.563740 
# 
# 
# High freq. dielectric constant tensor:
#      x y z
#    x 1.707560 0.000000 0.000000 
#    y 0.000000 1.700210 0.000000 
#    z 0.000000 0.000000 1.607530 
# 
# From -- ./inp_files/1410.got.cif
#   From: 2010.03.12/outbox.cif.g09.slc.cpg/sg47_1_cif.got.tgz:1410.got - 2010.04.14 03:12:58.
