data_PCOD8196846
_publ_section_title
;
Structure prediction by ZEFSAII (Michael W. Deem and Ramdas Pophale) SiO2 
 PCOD8196846
Probable space group: P M M M
;
_chemical_formula_sum "Si O2"
_cell_formula_units_Z 64
_cell_length_a 9.022518
_cell_length_b 28.738642
_cell_length_c 14.340508
_cell_angle_alpha 90.000000
_cell_angle_beta 90.000000
_cell_angle_gamma 90.000000
_cell_volume 3718.420799
_symmetry_space_group_name_H-M "P M M M"
_symmetry_group_IT_number 47
_symmetry_cell_setting 'orthorhombic'
loop_
_space_group_symop_operation_xyz
x,y,z
-x,-y,z
x,-y,-z
-x,y,-z
-x,-y,-z
x,y,-z
-x,y,z
x,-y,z
loop_
_atom_site_type_symbol
_atom_site_label
_atom_site_fract_x
_atom_site_fract_y
_atom_site_fract_z
Si Si1 0.175604 0.723416 0.221863
Si Si2 0.669212 0.197911 0.108761
Si Si3 0.830706 0.895799 0.104448
Si Si4 0.324762 0.235869 0.393349
Si Si5 0.165794 0.448964 0.110435
Si Si6 0.326768 0.642285 0.891090
Si Si7 0.334657 0.130999 0.609797
Si Si8 0.172122 0.949028 0.283157
O O1 0.223979 0.767743 0.162736
O O2 0.239414 0.728095 0.326704
O O3 0.237822 0.677715 0.172766
O O4 0.000000 0.720176 0.226221
O O5 0.500000 0.204184 0.142956
O O6 0.720679 0.145849 0.131016
O O7 0.683458 0.209285 0.000000
O O8 0.798242 0.937989 0.174443
O O9 0.000000 0.877934 0.113963
O O10 0.799213 0.913932 0.000000
O O11 0.278072 0.246222 0.500000
O O12 0.500000 0.242119 0.381391
O O13 0.278594 0.183015 0.364886
O O14 0.215849 0.500000 0.148545
O O15 0.280282 0.409337 0.143036
O O16 0.000000 0.437265 0.146953
O O17 0.163679 0.450808 0.000000
O O18 0.500000 0.649284 0.873987
O O19 0.286614 0.650347 0.000000
O O20 0.332534 0.124742 0.500000
O O21 0.500000 0.124234 0.648875
O O22 0.233658 0.091453 0.652701
O O23 0.000000 0.951225 0.304963
O O24 0.242975 0.000000 0.304402
#
# Coordination Sequence:
#
# PCOD8196846 Si02
#       8
#     8   8   8   8   8   8   8   8
#     4  12  23  32  47  71 100 131 161 197 241 289
#     4  10  20  33  49  69  94 124 158 195 234 279
#     4   9  18  33  51  69  90 118 153 190 227 270
#     4   9  19  37  58  76  95 121 154 193 237 286
#     4   8  14  26  44  65  92 129 171 213 256 298
#     4  10  20  32  46  67  98 136 177 216 250 287
#     4   9  19  36  56  75  93 116 147 182 224 276
#     4  10  21  34  48  70  97 122 149 182 223 270
#
# _framework density 17.211607999999998
#
# number of rings (size 3 to 8) (size 9 to 14) (size 15 to 20)
#    0.000    2.375    0.000    4.125    0.000    7.500 
#    0.000    5.000    0.000    0.000    0.000    2.625 
#    0.000    0.500    0.000    5.250    0.000    2.500 
#
# Total GULP energy -793426.295209 kJ/mol
# GULP energy per Si atom -12397.285863 kJ/mol
# Density = 1.717243 g / cm^3
# Si number density = 17.211608 Si / 1000 Ang^3
#
#
#
# Elastic Constant Matrix: (Units=GPa)
#
#
# Indices 1 2 3 4 5 6 
#
# 1 85.1306 53.0443 40.3760 0.0000 0.0000 0.0000
# 2 53.0443 100.6192 55.3608 0.0000 0.0000 0.0000
# 3 40.3760 55.3608 52.6087 0.0000 0.0000 0.0000
# 4 0.0000 0.0000 0.0000 14.0703 0.0000 0.0000
# 5 0.0000 0.0000 0.0000 0.0000 24.0974 0.0000
# 6 0.0000 0.0000 0.0000 0.0000 0.0000 25.9771
#
#
#
# Elastic Compliance Matrix: (Units=1/GPa)
#
#
# Indices 1 2 3 4 5 6 
#
# 1 0.019413 -0.004837 -0.009808 0.000000 0.000000 0.000000
# 2 -0.004837 0.024811 -0.022397 0.000000 0.000000 0.000000
# 3 -0.009808 -0.022397 0.050104 0.000000 0.000000 0.000000
# 4 0.000000 0.000000 0.000000 0.071072 0.000000 0.000000
# 5 0.000000 0.000000 0.000000 0.000000 0.041498 0.000000
# 6 0.000000 0.000000 0.000000 0.000000 0.000000 0.038495
#
#
# Mechanical properties :
#
#
# Convention : Reuss Voigt Hill
#
# Bulk Modulus (GPa) = 49.39871 59.54673 54.47272
# Shear Modulus (GPa) = 15.32678 18.80078 17.06378
#
# Velocity S-wave (km/s) = 2.98735 3.30863 3.15208
# Velocity P-wave (km/s) = 6.37668 7.01912 6.70560
#
# Compressibility (1/GPa) = 0.02024344
#
# Stress axis : x y z
#
# Youngs Moduli (GPa) = 51.51251 40.30427 19.95839
#
# Poissons Ratio (x) = 0.19497 0.19576
# Poissons Ratio (y) = 0.24919 0.44700
# Poissons Ratio (z) = 0.50526 0.90268
#
# Static dielectric constant tensor:
#      x y z
#    x 3.303190 0.000000 0.000000 
#    y 0.000000 3.387180 0.000000 
#    z 0.000000 0.000000 3.158520 
# 
# 
# High freq. dielectric constant tensor:
#      x y z
#    x 1.664440 0.000000 0.000000 
#    y 0.000000 1.654750 0.000000 
#    z 0.000000 0.000000 1.647100 
# 
# From -- ./inp_files/22140.got.cif
#   From: 2010.03.12/outbox.cif.g09.slc.cpg/sg47_12_cif.got.tgz:22140.got - 2010.04.14 03:12:58.
