data_PCOD8196703
_publ_section_title
;
Structure prediction by ZEFSAII (Michael W. Deem and Ramdas Pophale) SiO2 
 PCOD8196703
Probable space group: P M M M
;
_chemical_formula_sum "Si O2"
_cell_formula_units_Z 48
_cell_length_a 19.518468
_cell_length_b 9.042113
_cell_length_c 20.642243
_cell_angle_alpha 90.000000
_cell_angle_beta 90.000000
_cell_angle_gamma 90.000000
_cell_volume 3643.112172
_symmetry_space_group_name_H-M "P M M M"
_symmetry_group_IT_number 47
_symmetry_cell_setting 'orthorhombic'
loop_
_space_group_symop_operation_xyz
x,y,z
-x,-y,z
x,-y,-z
-x,y,-z
-x,-y,-z
x,y,-z
-x,y,z
x,-y,z
loop_
_atom_site_type_symbol
_atom_site_label
_atom_site_fract_x
_atom_site_fract_y
_atom_site_fract_z
Si Si1 0.419619 0.827369 0.757102
Si Si2 0.206431 0.672241 0.073186
Si Si3 0.925546 0.167761 0.923041
Si Si4 0.581329 0.333188 0.626896
Si Si5 0.353059 0.674798 0.121570
Si Si6 0.418229 0.167577 0.500000
Si Si7 0.581058 0.168252 0.000000
O O1 0.500000 0.800921 0.768426
O O2 0.394980 0.760465 0.688939
O O3 0.378246 0.741736 0.811576
O O4 0.401477 0.000000 0.758802
O O5 0.193145 0.500000 0.071338
O O6 0.138721 0.742838 0.106075
O O7 0.272639 0.712597 0.115563
O O8 0.218876 0.731782 0.000000
O O9 0.000000 0.229016 0.898934
O O10 0.917588 0.000000 0.900028
O O11 0.923300 0.180128 0.000000
O O12 0.500000 0.338250 0.623382
O O13 0.610816 0.500000 0.630761
O O14 0.610385 0.252312 0.563089
O O15 0.366489 0.500000 0.119686
O O16 0.394041 0.747738 0.063308
O O17 0.500000 0.166656 0.500000
O O18 0.390234 0.000000 0.500000
O O19 0.500000 0.168623 0.000000
O O20 0.608937 0.000000 0.000000
#
# Coordination Sequence:
#
# PCOD8196703 Si02
#       7
#     8   8   8   8   8   4   4
#     4  10  20  32  43  56  74  95 123 159 197 236
#     4   9  17  29  41  55  74  93 117 148 183 224
#     4   8  14  24  38  57  77  94 113 137 169 213
#     4   9  16  26  40  57  75  96 121 148 182 225
#     4  11  21  33  45  57  73  94 122 157 195 235
#     4   9  15  23  37  57  79  99 117 143 180 219
#     4  11  23  35  45  57  70  87 118 159 201 242
#
# _framework density 13.175547999999999
#
# number of rings (size 3 to 8) (size 9 to 14) (size 15 to 20)
#    0.000    2.500    0.833    3.000    0.000    8.333 
#    0.000    1.667    0.000    0.000    0.000    0.000 
#    0.000    0.000    0.000    0.000    0.000    0.000 
#
# Total GULP energy -595037.297768 kJ/mol
# GULP energy per Si atom -12396.610370 kJ/mol
# Density = 1.314556 g / cm^3
# Si number density = 13.175548 Si / 1000 Ang^3
#
#
#
# Elastic Constant Matrix: (Units=GPa)
#
#
# Indices 1 2 3 4 5 6 
#
# 1 68.6604 45.0174 36.8110 0.0000 0.0000 0.0000
# 2 45.0174 90.9374 46.1291 0.0000 0.0000 0.0000
# 3 36.8110 46.1291 90.6218 0.0000 0.0000 0.0000
# 4 0.0000 0.0000 0.0000 23.4046 0.0000 0.0000
# 5 0.0000 0.0000 0.0000 0.0000 2.4307 0.0000
# 6 0.0000 0.0000 0.0000 0.0000 0.0000 19.8966
#
#
#
# Elastic Compliance Matrix: (Units=1/GPa)
#
#
# Indices 1 2 3 4 5 6 
#
# 1 0.023005 -0.008962 -0.004783 0.000000 0.000000 0.000000
# 2 -0.008962 0.018316 -0.005683 0.000000 0.000000 0.000000
# 3 -0.004783 -0.005683 0.015870 0.000000 0.000000 0.000000
# 4 0.000000 0.000000 0.000000 0.042727 0.000000 0.000000
# 5 0.000000 0.000000 0.000000 0.000000 0.411402 0.000000
# 6 0.000000 0.000000 0.000000 0.000000 0.000000 0.050260
#
#
# Mechanical properties :
#
#
# Convention : Reuss Voigt Hill
#
# Bulk Modulus (GPa) = 54.53855 56.23717 55.38786
# Shear Modulus (GPa) = 8.24339 17.29719 12.77029
#
# Velocity S-wave (km/s) = 2.50403 3.62722 3.11664
# Velocity P-wave (km/s) = 7.06002 7.76647 7.42165
#
# Compressibility (1/GPa) = 0.01833565
#
# Stress axis : x y z
#
# Youngs Moduli (GPa) = 43.46960 54.59759 63.01081
#
# Poissons Ratio (x) = 0.48931 0.30136
# Poissons Ratio (y) = 0.38958 0.35808
# Poissons Ratio (z) = 0.20790 0.31027
#
# Static dielectric constant tensor:
#      x y z
#    x 2.645640 0.000000 0.000000 
#    y 0.000000 2.843740 0.000000 
#    z 0.000000 0.000000 2.471000 
# 
# 
# High freq. dielectric constant tensor:
#      x y z
#    x 1.467330 0.000000 0.000000 
#    y 0.000000 1.518980 0.000000 
#    z 0.000000 0.000000 1.473470 
# 
# From -- ./inp_files/11434.got.cif
#   From: 2010.03.12/outbox.cif.g09.slc.cpg/sg47_6_cif.got.tgz:11434.got - 2010.04.14 03:12:58.
