data_PCOD8196771
_publ_section_title
;
Structure prediction by ZEFSAII (Michael W. Deem and Ramdas Pophale) SiO2 
 PCOD8196771
Probable space group: P M M M
;
_chemical_formula_sum "Si O2"
_cell_formula_units_Z 56
_cell_length_a 10.592786
_cell_length_b 25.591171
_cell_length_c 13.165489
_cell_angle_alpha 90.000000
_cell_angle_beta 90.000000
_cell_angle_gamma 90.000000
_cell_volume 3568.924428
_symmetry_space_group_name_H-M "P M M M"
_symmetry_group_IT_number 47
_symmetry_cell_setting 'orthorhombic'
loop_
_space_group_symop_operation_xyz
x,y,z
-x,-y,z
x,-y,-z
-x,y,-z
-x,-y,-z
x,y,-z
-x,y,z
x,-y,z
loop_
_atom_site_type_symbol
_atom_site_label
_atom_site_fract_x
_atom_site_fract_y
_atom_site_fract_z
Si Si1 0.144736 0.287949 0.613226
Si Si2 0.146618 0.781151 0.201542
Si Si3 0.138565 0.000000 0.120886
Si Si4 0.500000 0.438340 0.619388
Si Si5 0.292935 0.627058 0.732336
Si Si6 0.362722 0.288575 0.113861
Si Si7 0.851041 0.558257 0.887574
Si Si8 0.149374 0.111230 0.113281
O O1 0.188426 0.272623 0.500000
O O2 0.166188 0.236484 0.682242
O O3 0.223119 0.337416 0.650070
O O4 0.000000 0.305393 0.616008
O O5 0.242570 0.748422 0.132533
O O6 0.184083 0.842114 0.190562
O O7 0.000000 0.771725 0.166732
O O8 0.207591 0.055056 0.151894
O O9 0.000000 0.000000 0.171515
O O10 0.126776 0.000000 0.000000
O O11 0.500000 0.500000 0.639600
O O12 0.500000 0.425580 0.500000
O O13 0.622288 0.413568 0.671255
O O14 0.371274 0.663399 0.808388
O O15 0.192695 0.596374 0.799573
O O16 0.500000 0.259480 0.124398
O O17 0.347375 0.310556 0.000000
O O18 0.797809 0.500000 0.867436
O O19 0.000000 0.557438 0.884384
O O20 0.806005 0.577051 0.000000
O O21 0.000000 0.103448 0.107610
O O22 0.199777 0.125425 0.000000
#
# Coordination Sequence:
#
# PCOD8196771 Si02
#       8
#     8   8   4   4   8   8   8   8
#     4   9  18  31  47  67  88 110 141 182 227 269
#     4   9  17  28  45  66  89 118 154 189 222 261
#     4   7  10  16  28  50  84 118 144 177 221 257
#     4  11  24  38  51  67  85 109 146 189 225 256
#     4  11  19  34  51  67  85 116 146 175 213 263
#     4  10  20  32  45  65  94 121 144 173 215 265
#     4   9  18  32  50  73  97 116 136 168 212 263
#     4   8  12  19  33  57  87 116 146 182 220 259
#
# _framework density 15.691001999999999
#
# number of rings (size 3 to 8) (size 9 to 14) (size 15 to 20)
#    0.000    2.714    0.714    3.429    0.000    1.429 
#    0.000    0.000    0.000    1.714    0.000    7.000 
#    0.000    6.857    0.000    0.000    0.000    4.857 
#
# Total GULP energy -693732.611952 kJ/mol
# GULP energy per Si atom -12388.082356 kJ/mol
# Density = 1.565529 g / cm^3
# Si number density = 15.691002 Si / 1000 Ang^3
#
#
#
# Elastic Constant Matrix: (Units=GPa)
#
#
# Indices 1 2 3 4 5 6 
#
# 1 53.7800 36.5433 35.1884 0.0000 0.0000 0.0000
# 2 36.5433 125.1063 59.5761 0.0000 0.0000 0.0000
# 3 35.1884 59.5761 102.9565 0.0000 0.0000 0.0000
# 4 0.0000 0.0000 0.0000 19.3282 0.0000 0.0000
# 5 0.0000 0.0000 0.0000 0.0000 17.0005 0.0000
# 6 0.0000 0.0000 0.0000 0.0000 0.0000 172.8279
#
#
#
# Elastic Compliance Matrix: (Units=1/GPa)
#
#
# Indices 1 2 3 4 5 6 
#
# 1 0.025731 -0.004594 -0.006136 0.000000 0.000000 0.000000
# 2 -0.004594 0.011854 -0.005289 0.000000 0.000000 0.000000
# 3 -0.006136 -0.005289 0.014871 0.000000 0.000000 0.000000
# 4 0.000000 0.000000 0.000000 0.051738 0.000000 0.000000
# 5 0.000000 0.000000 0.000000 0.000000 0.058822 0.000000
# 6 0.000000 0.000000 0.000000 0.000000 0.000000 0.005786
#
#
# Mechanical properties :
#
#
# Convention : Reuss Voigt Hill
#
# Bulk Modulus (GPa) = 48.97875 60.49538 54.73707
# Shear Modulus (GPa) = 24.07966 51.86699 37.97332
#
# Velocity S-wave (km/s) = 3.92167 5.75561 4.92476
# Velocity P-wave (km/s) = 7.19641 9.09985 8.20352
#
# Compressibility (1/GPa) = 0.02041702
#
# Stress axis : x y z
#
# Youngs Moduli (GPa) = 38.86425 84.36127 67.24710
#
# Poissons Ratio (x) = 0.38755 0.41262
# Poissons Ratio (y) = 0.17854 0.35568
# Poissons Ratio (z) = 0.23847 0.44620
#
# Static dielectric constant tensor:
#      x y z
#    x 2.804890 0.000000 0.000000 
#    y 0.000000 3.228670 0.000000 
#    z 0.000000 0.000000 2.988620 
# 
# 
# High freq. dielectric constant tensor:
#      x y z
#    x 1.579690 0.000000 0.000000 
#    y 0.000000 1.600160 0.000000 
#    z 0.000000 0.000000 1.590190 
# 
# From -- ./inp_files/16736.got.cif
#   From: 2010.03.12/outbox.cif.g09.slc.cpg/sg47_9_cif.got.tgz:16736.got - 2010.04.14 03:12:58.
