data_PCOD8196047
_publ_section_title
;
Structure prediction by ZEFSAII (Michael W. Deem and Ramdas Pophale) SiO2 
 PCOD8196047
Probable space group: P M M M
;
_chemical_formula_sum "Si O2"
_cell_formula_units_Z 52
_cell_length_a 12.446581
_cell_length_b 25.279285
_cell_length_c 9.344893
_cell_angle_alpha 90.000000
_cell_angle_beta 90.000000
_cell_angle_gamma 90.000000
_cell_volume 2940.283379
_symmetry_space_group_name_H-M "P M M M"
_symmetry_group_IT_number 47
_symmetry_cell_setting 'orthorhombic'
loop_
_space_group_symop_operation_xyz
x,y,z
-x,-y,z
x,-y,-z
-x,y,-z
-x,-y,-z
x,y,-z
-x,y,z
x,-y,z
loop_
_atom_site_type_symbol
_atom_site_label
_atom_site_fract_x
_atom_site_fract_y
_atom_site_fract_z
Si Si1 0.875892 0.102545 0.831470
Si Si2 0.623917 0.257193 0.344396
Si Si3 0.377449 0.353969 0.166274
Si Si4 0.685542 0.141231 0.669083
Si Si5 0.500000 0.938873 0.330439
Si Si6 0.125746 0.000000 0.341112
Si Si7 0.000000 0.562851 0.661362
Si Si8 0.794400 0.439242 0.166538
O O1 0.796091 0.144482 0.760185
O O2 0.838567 0.049655 0.751143
O O3 0.000000 0.117420 0.800022
O O4 0.856622 0.096266 0.000000
O O5 0.679907 0.262571 0.500000
O O6 0.500000 0.270737 0.357588
O O7 0.673287 0.301487 0.239774
O O8 0.633280 0.197167 0.289684
O O9 0.500000 0.365621 0.212220
O O10 0.309384 0.405319 0.210473
O O11 0.369056 0.342245 0.000000
O O12 0.709877 0.136157 0.500000
O O13 0.606188 0.093596 0.720124
O O14 0.500000 0.939955 0.500000
O O15 0.500000 0.000000 0.271330
O O16 0.180947 0.000000 0.500000
O O17 0.000000 0.000000 0.363476
O O18 0.894583 0.583208 0.743556
O O19 0.000000 0.500000 0.662726
O O20 0.000000 0.585251 0.500000
O O21 0.768356 0.500000 0.204882
O O22 0.823299 0.433133 0.000000
#
# Coordination Sequence:
#
# PCOD8196047 Si02
#       8
#     8   8   8   8   4   4   4   8
#     4  10  21  35  50  72 104 135 162 200 251 299
#     4   9  17  32  52  73  99 131 170 211 250 296
#     4   9  18  31  49  75 103 131 167 208 250 299
#     4  10  19  33  55  78 100 131 170 207 247 302
#     4   9  18  32  51  79 109 131 159 204 257 303
#     4   9  17  31  51  72  93 124 167 203 233 283
#     4   9  17  29  47  71  99 133 173 213 248 293
#     4   9  17  30  49  73 103 137 170 206 251 303
#
# _framework density 17.685369999999999
#
# number of rings (size 3 to 8) (size 9 to 14) (size 15 to 20)
#    0.000    2.692    0.769    0.923    1.077    4.308 
#    0.000    1.923    1.692    0.462    0.000    4.308 
#    0.000    0.000    0.000    0.000    0.000    0.000 
#
# Total GULP energy -644431.310585 kJ/mol
# GULP energy per Si atom -12392.909819 kJ/mol
# Density = 1.764512 g / cm^3
# Si number density = 17.685370 Si / 1000 Ang^3
#
#
#
# Elastic Constant Matrix: (Units=GPa)
#
#
# Indices 1 2 3 4 5 6 
#
# 1 96.1595 52.0228 51.7791 0.0000 0.0000 0.0000
# 2 52.0228 110.9558 45.6877 0.0000 0.0000 0.0000
# 3 51.7791 45.6877 77.2078 0.0000 0.0000 0.0000
# 4 0.0000 0.0000 0.0000 25.6886 0.0000 0.0000
# 5 0.0000 0.0000 0.0000 0.0000 22.4935 0.0000
# 6 0.0000 0.0000 0.0000 0.0000 0.0000 16.5468
#
#
#
# Elastic Compliance Matrix: (Units=1/GPa)
#
#
# Indices 1 2 3 4 5 6 
#
# 1 0.017862 -0.004551 -0.009286 0.000000 0.000000 0.000000
# 2 -0.004551 0.013076 -0.004685 0.000000 0.000000 0.000000
# 3 -0.009286 -0.004685 0.021952 0.000000 0.000000 0.000000
# 4 0.000000 0.000000 0.000000 0.038928 0.000000 0.000000
# 5 0.000000 0.000000 0.000000 0.000000 0.044457 0.000000
# 6 0.000000 0.000000 0.000000 0.000000 0.000000 0.060435
#
#
# Mechanical properties :
#
#
# Convention : Reuss Voigt Hill
#
# Bulk Modulus (GPa) = 63.11130 64.81137 63.96134
# Shear Modulus (GPa) = 20.91742 21.93468 21.42605
#
# Velocity S-wave (km/s) = 3.44285 3.52557 3.48446
# Velocity P-wave (km/s) = 7.18104 7.30064 7.24109
#
# Compressibility (1/GPa) = 0.01584502
#
# Stress axis : x y z
#
# Youngs Moduli (GPa) = 55.98584 76.47782 45.55377
#
# Poissons Ratio (x) = 0.34806 0.42300
# Poissons Ratio (y) = 0.25480 0.21344
# Poissons Ratio (z) = 0.51987 0.35833
#
# Static dielectric constant tensor:
#      x y z
#    x 3.231710 0.000000 0.000000 
#    y 0.000000 3.248490 0.000000 
#    z 0.000000 0.000000 3.335290 
# 
# 
# High freq. dielectric constant tensor:
#      x y z
#    x 1.672890 0.000000 0.000000 
#    y 0.000000 1.670180 0.000000 
#    z 0.000000 0.000000 1.675920 
# 
# From -- ./inp_files/4613.got.cif
#   From: 2010.03.12/outbox.cif.g09.slc.cpg/sg47_3_cif.got.tgz:4613.got - 2010.04.14 03:12:58.
