data_PCOD8196879
_publ_section_title
;
Structure prediction by ZEFSAII (Michael W. Deem and Ramdas Pophale) SiO2 
 PCOD8196879
Probable space group: P M M M
;
_chemical_formula_sum "Si O2"
_cell_formula_units_Z 64
_cell_length_a 9.448636
_cell_length_b 17.975634
_cell_length_c 19.950022
_cell_angle_alpha 90.000000
_cell_angle_beta 90.000000
_cell_angle_gamma 90.000000
_cell_volume 3388.415926
_symmetry_space_group_name_H-M "P M M M"
_symmetry_group_IT_number 47
_symmetry_cell_setting 'orthorhombic'
loop_
_space_group_symop_operation_xyz
x,y,z
-x,-y,z
x,-y,-z
-x,y,-z
-x,-y,-z
x,y,-z
-x,y,z
x,-y,z
loop_
_atom_site_type_symbol
_atom_site_label
_atom_site_fract_x
_atom_site_fract_y
_atom_site_fract_z
Si Si1 0.163608 0.583762 0.607461
Si Si2 0.837352 0.151649 0.923759
Si Si3 0.158449 0.650925 0.252326
Si Si4 0.840292 0.584268 0.889080
Si Si5 0.653097 0.714251 0.075201
Si Si6 0.667961 0.211230 0.712728
Si Si7 0.661730 0.277847 0.573144
Si Si8 0.836928 0.915663 0.786217
O O1 0.214599 0.500000 0.589417
O O2 0.189024 0.597026 0.685922
O O3 0.251529 0.645550 0.568032
O O4 0.000000 0.593188 0.587679
O O5 0.752632 0.222331 0.893602
O O6 0.809313 0.089452 0.867017
O O7 0.000000 0.176026 0.925457
O O8 0.792850 0.125967 0.000000
O O9 0.176273 0.597537 0.189555
O O10 0.270555 0.718216 0.246671
O O11 0.000000 0.685300 0.256494
O O12 0.800994 0.500000 0.906226
O O13 0.729464 0.635144 0.927451
O O14 0.000000 0.602367 0.912938
O O15 0.500000 0.710280 0.112460
O O16 0.626090 0.739765 0.000000
O O17 0.500000 0.206094 0.723094
O O18 0.710085 0.223143 0.633750
O O19 0.737754 0.136089 0.740576
O O20 0.679362 0.238033 0.500000
O O21 0.500000 0.300410 0.586404
O O22 0.000000 0.895132 0.771106
O O23 0.802740 0.000000 0.765304
#
# Coordination Sequence:
#
# PCOD8196879 Si02
#       8
#     8   8   8   8   8   8   8   8
#     4   9  17  29  46  70 101 134 167 206 252 301
#     4   9  18  34  56  79 103 134 170 202 233 280
#     4   9  17  31  50  70  95 128 164 202 248 299
#     4  10  20  32  47  67  90 120 162 210 255 298
#     4  10  21  35  49  66  91 124 161 202 249 298
#     4  10  20  34  54  78 102 131 169 210 249 295
#     4   9  19  35  52  71  98 134 175 216 257 300
#     4  10  21  36  55  81 111 138 162 194 241 294
#
# _framework density 18.887882000000001
#
# number of rings (size 3 to 8) (size 9 to 14) (size 15 to 20)
#    0.000    2.500    0.000    1.875    0.000    8.500 
#    0.000    3.750    0.000    2.625    0.000    5.250 
#    0.000    0.000    0.000    0.000    0.000    0.000 
#
# Total GULP energy -793151.761068 kJ/mol
# GULP energy per Si atom -12392.996267 kJ/mol
# Density = 1.884489 g / cm^3
# Si number density = 18.887882 Si / 1000 Ang^3
#
#
#
# Elastic Constant Matrix: (Units=GPa)
#
#
# Indices 1 2 3 4 5 6 
#
# 1 85.7942 47.6066 29.1641 0.0000 0.0000 0.0000
# 2 47.6066 94.7747 30.7137 0.0000 0.0000 0.0000
# 3 29.1641 30.7137 74.7981 0.0000 0.0000 0.0000
# 4 0.0000 0.0000 0.0000 14.5216 0.0000 0.0000
# 5 0.0000 0.0000 0.0000 0.0000 21.7464 0.0000
# 6 0.0000 0.0000 0.0000 0.0000 0.0000 15.2646
#
#
#
# Elastic Compliance Matrix: (Units=1/GPa)
#
#
# Indices 1 2 3 4 5 6 
#
# 1 0.016957 -0.007354 -0.003592 0.000000 0.000000 0.000000
# 2 -0.007354 0.015360 -0.003440 0.000000 0.000000 0.000000
# 3 -0.003592 -0.003440 0.016182 0.000000 0.000000 0.000000
# 4 0.000000 0.000000 0.000000 0.068863 0.000000 0.000000
# 5 0.000000 0.000000 0.000000 0.000000 0.045985 0.000000
# 6 0.000000 0.000000 0.000000 0.000000 0.000000 0.065511
#
#
# Mechanical properties :
#
#
# Convention : Reuss Voigt Hill
#
# Bulk Modulus (GPa) = 50.68887 52.25953 51.47420
# Shear Modulus (GPa) = 18.92460 20.16536 19.54498
#
# Velocity S-wave (km/s) = 3.16878 3.27101 3.22030
# Velocity P-wave (km/s) = 6.34691 6.48031 6.41395
#
# Compressibility (1/GPa) = 0.01972820
#
# Stress axis : x y z
#
# Youngs Moduli (GPa) = 58.97097 65.10396 61.79557
#
# Poissons Ratio (x) = 0.47877 0.22198
# Poissons Ratio (y) = 0.43367 0.21257
# Poissons Ratio (z) = 0.21183 0.22395
#
# Static dielectric constant tensor:
#      x y z
#    x 3.647530 0.000000 0.000000 
#    y 0.000000 3.210520 0.000000 
#    z 0.000000 0.000000 3.559540 
# 
# 
# High freq. dielectric constant tensor:
#      x y z
#    x 1.732330 0.000000 0.000000 
#    y 0.000000 1.706050 0.000000 
#    z 0.000000 0.000000 1.737210 
# 
# From -- ./inp_files/9992.got.cif
#   From: 2010.03.12/outbox.cif.g09.slc.cpg/sg47_5_cif.got.tgz:9992.got - 2010.04.14 03:12:58.
