data_PCOD8196707
_publ_section_title
;
Structure prediction by ZEFSAII (Michael W. Deem and Ramdas Pophale) SiO2 
 PCOD8196707
Probable space group: P M M M
;
_chemical_formula_sum "Si O2"
_cell_formula_units_Z 40
_cell_length_a 20.783053
_cell_length_b 14.332822
_cell_length_c 8.878939
_cell_angle_alpha 90.000000
_cell_angle_beta 90.000000
_cell_angle_gamma 90.000000
_cell_volume 2644.856567
_symmetry_space_group_name_H-M "P M M M"
_symmetry_group_IT_number 47
_symmetry_cell_setting 'orthorhombic'
loop_
_space_group_symop_operation_xyz
x,y,z
-x,-y,z
x,-y,-z
-x,y,-z
-x,-y,-z
x,y,-z
-x,y,z
x,-y,z
loop_
_atom_site_type_symbol
_atom_site_label
_atom_site_fract_x
_atom_site_fract_y
_atom_site_fract_z
Si Si1 0.572224 0.398572 0.178574
Si Si2 0.872483 0.110823 0.169269
Si Si3 0.621726 0.204767 0.821258
Si Si4 0.000000 0.888625 0.329946
Si Si5 0.257924 0.108850 0.324119
Si Si6 0.500000 0.889604 0.327647
O O1 0.500000 0.382452 0.241039
O O2 0.598356 0.500000 0.235884
O O3 0.616640 0.312930 0.232853
O O4 0.569604 0.399141 0.000000
O O5 0.811165 0.143702 0.265379
O O6 0.936922 0.150942 0.246156
O O7 0.876057 0.000000 0.166642
O O8 0.867160 0.150515 0.000000
O O9 0.688852 0.166724 0.763051
O O10 0.563490 0.146308 0.753735
O O11 0.618667 0.195304 0.000000
O O12 0.000000 0.850793 0.500000
O O13 0.000000 0.000000 0.328583
O O14 0.262867 0.129674 0.500000
O O15 0.268255 0.000000 0.288871
O O16 0.500000 0.855414 0.500000
O O17 0.500000 0.000000 0.317859
#
# Coordination Sequence:
#
# PCOD8196707 Si02
#       6
#     8   8   8   4   8   4
#     4   8  14  27  47  68  86 102 126 166 216 265
#     4   9  16  26  40  58  79 106 144 185 215 243
#     4  11  20  31  48  67  82 104 140 179 214 251
#     4   9  15  23  37  57  81 109 140 175 216 257
#     4  10  20  32  43  57  83 118 148 175 214 259
#     4  11  23  35  44  57  82 114 143 173 212 253
#
# _framework density 15.123692999999999
#
# number of rings (size 3 to 8) (size 9 to 14) (size 15 to 20)
#    0.000    2.400    1.000    3.600    0.000    8.000 
#    0.000    0.000    0.000    3.000    0.000    0.000 
#    0.000    0.000    0.000    0.900    0.000   18.700 
#
# Total GULP energy -495854.123117 kJ/mol
# GULP energy per Si atom -12396.353078 kJ/mol
# Density = 1.508927 g / cm^3
# Si number density = 15.123693 Si / 1000 Ang^3
#
#
#
# Elastic Constant Matrix: (Units=GPa)
#
#
# Indices 1 2 3 4 5 6 
#
# 1 120.1435 46.3186 44.6861 0.0000 0.0000 0.0000
# 2 46.3186 66.6224 37.2182 0.0000 0.0000 0.0000
# 3 44.6861 37.2182 85.3208 0.0000 0.0000 0.0000
# 4 0.0000 0.0000 0.0000 5.9500 0.0000 0.0000
# 5 0.0000 0.0000 0.0000 0.0000 33.7555 0.0000
# 6 0.0000 0.0000 0.0000 0.0000 0.0000 1.8675
#
#
#
# Elastic Compliance Matrix: (Units=1/GPa)
#
#
# Indices 1 2 3 4 5 6 
#
# 1 0.012127 -0.006457 -0.003535 0.000000 0.000000 0.000000
# 2 -0.006457 0.023284 -0.006775 0.000000 0.000000 0.000000
# 3 -0.003535 -0.006775 0.016527 0.000000 0.000000 0.000000
# 4 0.000000 0.000000 0.000000 0.168067 0.000000 0.000000
# 5 0.000000 0.000000 0.000000 0.000000 0.029625 0.000000
# 6 0.000000 0.000000 0.000000 0.000000 0.000000 0.535469
#
#
# Mechanical properties :
#
#
# Convention : Reuss Voigt Hill
#
# Bulk Modulus (GPa) = 54.33368 58.72582 56.52975
# Shear Modulus (GPa) = 6.06231 17.90553 11.98392
#
# Velocity S-wave (km/s) = 2.00429 3.44457 2.81800
# Velocity P-wave (km/s) = 6.43121 7.39829 6.93164
#
# Compressibility (1/GPa) = 0.01840479
#
# Stress axis : x y z
#
# Youngs Moduli (GPa) = 82.45763 42.94846 60.50558
#
# Poissons Ratio (x) = 0.27730 0.21390
# Poissons Ratio (y) = 0.53239 0.40993
# Poissons Ratio (z) = 0.29150 0.29098
#
# Static dielectric constant tensor:
#      x y z
#    x 3.008700 0.000000 0.000000 
#    y 0.000000 2.867300 0.000000 
#    z 0.000000 0.000000 2.988110 
# 
# 
# High freq. dielectric constant tensor:
#      x y z
#    x 1.577620 0.000000 0.000000 
#    y 0.000000 1.533970 0.000000 
#    z 0.000000 0.000000 1.584770 
# 
# From -- ./inp_files/10815.got.cif
#   From: 2010.03.12/outbox.cif.g09.slc.cpg/sg47_6_cif.got.tgz:10815.got - 2010.04.14 03:12:58.
