data_PCOD8196376
_publ_section_title
;
Structure prediction by ZEFSAII (Michael W. Deem and Ramdas Pophale) SiO2 
 PCOD8196376
Probable space group: P M M M
;
_chemical_formula_sum "Si O2"
_cell_formula_units_Z 36
_cell_length_a 17.203504
_cell_length_b 15.113570
_cell_length_c 9.507104
_cell_angle_alpha 90.000000
_cell_angle_beta 90.000000
_cell_angle_gamma 90.000000
_cell_volume 2471.907524
_symmetry_space_group_name_H-M "P M M M"
_symmetry_group_IT_number 47
_symmetry_cell_setting 'orthorhombic'
loop_
_space_group_symop_operation_xyz
x,y,z
-x,-y,z
x,-y,-z
-x,y,-z
-x,-y,-z
x,y,-z
-x,y,z
x,-y,z
loop_
_atom_site_type_symbol
_atom_site_label
_atom_site_fract_x
_atom_site_fract_y
_atom_site_fract_z
Si Si1 0.907640 0.097938 0.342251
Si Si2 0.500000 0.605720 0.842108
Si Si3 0.359695 0.605137 0.655924
Si Si4 0.092305 0.260200 0.839217
Si Si5 0.814639 0.602999 0.663304
O O1 0.878303 0.120291 0.500000
O O2 0.875087 0.171050 0.234546
O O3 0.000000 0.098817 0.339779
O O4 0.877946 0.000000 0.297239
O O5 0.500000 0.500000 0.841160
O O6 0.423111 0.642933 0.764675
O O7 0.500000 0.642977 0.000000
O O8 0.379072 0.641685 0.500000
O O9 0.363327 0.500000 0.651766
O O10 0.273036 0.634100 0.701070
O O11 0.125802 0.345279 0.761020
O O12 0.000000 0.265558 0.828469
O O13 0.120518 0.259463 0.000000
O O14 0.832667 0.622350 0.500000
O O15 0.825737 0.500000 0.696742
#
# Coordination Sequence:
#
# PCOD8196376 Si02
#       5
#     8   4   8   8   8
#     4   8  14  26  44  62  77  95 122 157 196 238
#     4   9  15  21  33  55  77  95 118 149 188 235
#     4   8  14  25  39  53  70  94 125 160 196 231
#     4  10  20  30  40  57  80 105 132 164 204 245
#     4   9  18  31  44  56  72 101 141 177 204 230
#
# _framework density 14.563651
#
# number of rings (size 3 to 8) (size 9 to 14) (size 15 to 20)
#    0.000    3.222    0.000    3.000    0.000    4.889 
#    0.000    6.667    0.000    0.000    0.000    0.000 
#    0.000    0.000    0.000    1.000    0.000   19.444 
#
# Total GULP energy -446193.638038 kJ/mol
# GULP energy per Si atom -12394.267723 kJ/mol
# Density = 1.453050 g / cm^3
# Si number density = 14.563651 Si / 1000 Ang^3
#
#
#
# Elastic Constant Matrix: (Units=GPa)
#
#
# Indices 1 2 3 4 5 6 
#
# 1 35.3385 25.0726 37.8606 0.0000 0.0000 0.0000
# 2 25.0726 65.9497 54.1332 0.0000 0.0000 0.0000
# 3 37.8606 54.1332 112.5116 0.0000 0.0000 0.0000
# 4 0.0000 0.0000 0.0000 17.8961 0.0000 0.0000
# 5 0.0000 0.0000 0.0000 0.0000 19.6135 0.0000
# 6 0.0000 0.0000 0.0000 0.0000 0.0000 0.5774
#
#
#
# Elastic Compliance Matrix: (Units=1/GPa)
#
#
# Indices 1 2 3 4 5 6 
#
# 1 0.046685 -0.008022 -0.011850 0.000000 0.000000 0.000000
# 2 -0.008022 0.026438 -0.010021 0.000000 0.000000 0.000000
# 3 -0.011850 -0.010021 0.017697 0.000000 0.000000 0.000000
# 4 0.000000 0.000000 0.000000 0.055878 0.000000 0.000000
# 5 0.000000 0.000000 0.000000 0.000000 0.050985 0.000000
# 6 0.000000 0.000000 0.000000 0.000000 0.000000 1.732021
#
#
# Mechanical properties :
#
#
# Convention : Reuss Voigt Hill
#
# Bulk Modulus (GPa) = 32.22215 49.77031 40.99623
# Shear Modulus (GPa) = 2.50021 14.06630 8.28325
#
# Velocity S-wave (km/s) = 1.31167 3.11118 2.38746
# Velocity P-wave (km/s) = 4.94642 6.86691 5.98421
#
# Compressibility (1/GPa) = 0.03103456
#
# Stress axis : x y z
#
# Youngs Moduli (GPa) = 21.42011 37.82400 56.50653
#
# Poissons Ratio (x) = 0.30341 0.66961
# Poissons Ratio (y) = 0.17183 0.56625
# Poissons Ratio (z) = 0.25383 0.37903
#
# Static dielectric constant tensor:
#      x y z
#    x 2.729090 0.000000 0.000000 
#    y 0.000000 2.639610 0.000000 
#    z 0.000000 0.000000 3.030350 
# 
# 
# High freq. dielectric constant tensor:
#      x y z
#    x 1.530450 0.000000 0.000000 
#    y 0.000000 1.516680 0.000000 
#    z 0.000000 0.000000 1.565300 
# 
# From -- ./inp_files/5538.got.cif
#   From: 2010.03.12/outbox.cif.g09.slc.cpg/sg47_3_cif.got.tgz:5538.got - 2010.04.14 03:12:58.
