data_PCOD8196440
_publ_section_title
;
Structure prediction by ZEFSAII (Michael W. Deem and Ramdas Pophale) SiO2 
 PCOD8196440
Probable space group: P M M M
;
_chemical_formula_sum "Si O2"
_cell_formula_units_Z 40
_cell_length_a 12.658775
_cell_length_b 9.095129
_cell_length_c 22.787998
_cell_angle_alpha 90.000000
_cell_angle_beta 90.000000
_cell_angle_gamma 90.000000
_cell_volume 2623.654940
_symmetry_space_group_name_H-M "P M M M"
_symmetry_group_IT_number 47
_symmetry_cell_setting 'orthorhombic'
loop_
_space_group_symop_operation_xyz
x,y,z
-x,-y,z
x,-y,-z
-x,y,-z
-x,-y,-z
x,y,-z
-x,y,z
x,-y,z
loop_
_atom_site_type_symbol
_atom_site_label
_atom_site_fract_x
_atom_site_fract_y
_atom_site_fract_z
Si Si1 0.625728 0.165955 0.271234
Si Si2 0.377573 0.328522 0.154989
Si Si3 0.625910 0.166223 0.500000
Si Si4 0.771651 0.831354 0.930169
Si Si5 0.374001 0.333750 0.614669
Si Si6 0.000000 0.173561 0.936048
O O1 0.500000 0.167112 0.273078
O O2 0.665922 0.245797 0.212535
O O3 0.670462 0.251950 0.327736
O O4 0.669610 0.000000 0.272149
O O5 0.500000 0.292401 0.143985
O O6 0.358752 0.500000 0.164633
O O7 0.314814 0.273751 0.098303
O O8 0.500000 0.165911 0.500000
O O9 0.669134 0.249494 0.442569
O O10 0.669409 0.000000 0.500000
O O11 0.888633 0.784044 0.904993
O O12 0.746279 0.000000 0.913479
O O13 0.768070 0.810356 0.000000
O O14 0.500000 0.333484 0.614956
O O15 0.330772 0.500000 0.613983
O O16 0.000000 0.000000 0.945018
O O17 0.000000 0.249115 0.000000
#
# Coordination Sequence:
#
# PCOD8196440 Si02
#       6
#     8   8   4   8   8   4
#     4   9  16  26  39  52  67  92 128 165 197 233
#     4  10  20  31  41  56  81 110 137 166 201 240
#     4   9  15  21  29  43  63  87 119 158 195 230
#     4   9  17  30  48  66  82 102 130 164 201 242
#     4   9  15  22  32  46  65  89 118 155 199 239
#     4   7  12  26  47  67  83  99 123 158 199 240
#
# _framework density 15.245907000000001
#
# number of rings (size 3 to 8) (size 9 to 14) (size 15 to 20)
#    0.000    3.000    0.000    3.300    0.000    8.000 
#    0.000    2.500    0.000    1.800    0.000    0.000 
#    0.000    0.000    0.000    0.000    0.000    1.000 
#
# Total GULP energy -495742.560138 kJ/mol
# GULP energy per Si atom -12393.564003 kJ/mol
# Density = 1.521121 g / cm^3
# Si number density = 15.245907 Si / 1000 Ang^3
#
#
#
# Elastic Constant Matrix: (Units=GPa)
#
#
# Indices 1 2 3 4 5 6 
#
# 1 41.1496 31.7785 32.0941 0.0000 0.0000 0.0000
# 2 31.7785 114.1378 53.0390 0.0000 0.0000 0.0000
# 3 32.0941 53.0390 88.4934 0.0000 0.0000 0.0000
# 4 0.0000 0.0000 0.0000 30.8698 0.0000 0.0000
# 5 0.0000 0.0000 0.0000 0.0000 0.7612 0.0000
# 6 0.0000 0.0000 0.0000 0.0000 0.0000 9.2914
#
#
#
# Elastic Compliance Matrix: (Units=1/GPa)
#
#
# Indices 1 2 3 4 5 6 
#
# 1 0.036232 -0.005519 -0.009833 0.000000 0.000000 0.000000
# 2 -0.005519 0.012984 -0.005781 0.000000 0.000000 0.000000
# 3 -0.009833 -0.005781 0.018331 0.000000 0.000000 0.000000
# 4 0.000000 0.000000 0.000000 0.032394 0.000000 0.000000
# 5 0.000000 0.000000 0.000000 0.000000 1.313686 0.000000
# 6 0.000000 0.000000 0.000000 0.000000 0.000000 0.107626
#
#
# Mechanical properties :
#
#
# Convention : Reuss Voigt Hill
#
# Bulk Modulus (GPa) = 39.55186 53.06713 46.30949
# Shear Modulus (GPa) = 3.18077 16.64243 9.91160
#
# Velocity S-wave (km/s) = 1.44597 3.30752 2.55250
# Velocity P-wave (km/s) = 5.36533 7.03344 6.25524
#
# Compressibility (1/GPa) = 0.02528326
#
# Stress axis : x y z
#
# Youngs Moduli (GPa) = 27.59957 77.01755 54.55238
#
# Poissons Ratio (x) = 0.42503 0.53641
# Poissons Ratio (y) = 0.15231 0.31534
# Poissons Ratio (z) = 0.27138 0.44521
#
# Static dielectric constant tensor:
#      x y z
#    x 2.545400 0.000000 0.000000 
#    y 0.000000 3.006190 0.000000 
#    z 0.000000 0.000000 2.949410 
# 
# 
# High freq. dielectric constant tensor:
#      x y z
#    x 1.514410 0.000000 0.000000 
#    y 0.000000 1.592490 0.000000 
#    z 0.000000 0.000000 1.583490 
# 
# From -- ./inp_files/6705.got.cif
#   From: 2010.03.12/outbox.cif.g09.slc.cpg/sg47_4_cif.got.tgz:6705.got - 2010.04.14 03:12:58.
