data_PCOD8196417
_publ_section_title
;
Structure prediction by ZEFSAII (Michael W. Deem and Ramdas Pophale) SiO2 
 PCOD8196417
Probable space group: P M M M
;
_chemical_formula_sum "Si O2"
_cell_formula_units_Z 60
_cell_length_a 9.199000
_cell_length_b 28.110606
_cell_length_c 20.408474
_cell_angle_alpha 90.000000
_cell_angle_beta 90.000000
_cell_angle_gamma 90.000000
_cell_volume 5277.416365
_symmetry_space_group_name_H-M "P M M M"
_symmetry_group_IT_number 47
_symmetry_cell_setting 'orthorhombic'
loop_
_space_group_symop_operation_xyz
x,y,z
-x,-y,z
x,-y,-z
-x,y,-z
-x,-y,-z
x,y,-z
-x,y,z
x,-y,z
loop_
_atom_site_type_symbol
_atom_site_label
_atom_site_fract_x
_atom_site_fract_y
_atom_site_fract_z
Si Si1 0.169935 0.055376 0.837611
Si Si2 0.331570 0.870075 0.922996
Si Si3 0.664995 0.315261 0.078120
Si Si4 0.834994 0.407652 0.078075
Si Si5 0.337392 0.943490 0.571306
Si Si6 0.665036 0.500000 0.078085
Si Si7 0.839611 0.943515 0.307909
Si Si8 0.164689 0.223305 0.922022
O O1 0.267109 0.083567 0.888840
O O2 0.222015 0.069555 0.764015
O O3 0.000000 0.067470 0.846896
O O4 0.197819 0.000000 0.850785
O O5 0.500000 0.863916 0.904925
O O6 0.245882 0.823881 0.896979
O O7 0.309220 0.876867 0.000000
O O8 0.500000 0.315803 0.105054
O O9 0.750739 0.361321 0.104512
O O10 0.748097 0.268839 0.105259
O O11 0.663183 0.315026 0.000000
O O12 0.749793 0.453781 0.104626
O O13 0.000000 0.407780 0.105127
O O14 0.837236 0.407723 0.000000
O O15 0.269643 0.929263 0.500000
O O16 0.500000 0.923565 0.575268
O O17 0.252190 0.920670 0.632625
O O18 0.337875 0.000000 0.577769
O O19 0.500000 0.500000 0.105105
O O20 0.662835 0.500000 0.000000
O O21 0.000000 0.922085 0.315115
O O22 0.845292 0.000000 0.314281
O O23 0.000000 0.223954 0.894723
O O24 0.163602 0.224660 0.000000
#
# Coordination Sequence:
#
# PCOD8196417 Si02
#       8
#     8   8   8   8   8   4   8   8
#     4   9  18  31  43  53  65  81 100 120 143 174
#     4  10  20  31  41  53  66  77  92 117 148 181
#     4   9  15  22  32  45  59  72  86 106 132 161
#     4   9  15  21  28  38  52  70  91 111 130 155
#     4   8  13  20  30  46  67  87 104 120 137 157
#     4   9  15  21  27  35  49  69  91 113 135 155
#     4   8  14  24  36  49  64  81 101 122 140 160
#     4   9  16  26  39  51  61  73  88 107 135 171
#
# _framework density 11.369199999999999
#
# number of rings (size 3 to 8) (size 9 to 14) (size 15 to 20)
#    0.000    3.133    0.000    3.000    0.000    7.733 
#    0.000    4.000    0.000    0.000    0.000    0.000 
#    0.000    0.000    0.000    0.000    0.000    0.000 
#
# Total GULP energy -743614.543088 kJ/mol
# GULP energy per Si atom -12393.575718 kJ/mol
# Density = 1.134332 g / cm^3
# Si number density = 11.369200 Si / 1000 Ang^3
#
#
#
# Elastic Constant Matrix: (Units=GPa)
#
#
# Indices 1 2 3 4 5 6 
#
# 1 97.4752 46.5619 26.2389 0.0000 0.0000 0.0000
# 2 46.5619 66.0457 22.4409 0.0000 0.0000 0.0000
# 3 26.2389 22.4409 28.1766 0.0000 0.0000 0.0000
# 4 0.0000 0.0000 0.0000 0.0863 0.0000 0.0000
# 5 0.0000 0.0000 0.0000 0.0000 13.2013 0.0000
# 6 0.0000 0.0000 0.0000 0.0000 0.0000 20.9317
#
#
#
# Elastic Compliance Matrix: (Units=1/GPa)
#
#
# Indices 1 2 3 4 5 6 
#
# 1 0.016844 -0.008974 -0.008539 0.000000 0.000000 0.000000
# 2 -0.008974 0.025539 -0.011984 0.000000 0.000000 0.000000
# 3 -0.008539 -0.011984 0.052986 0.000000 0.000000 0.000000
# 4 0.000000 0.000000 0.000000 11.588716 0.000000 0.000000
# 5 0.000000 0.000000 0.000000 0.000000 0.075750 0.000000
# 6 0.000000 0.000000 0.000000 0.000000 0.000000 0.047774
#
#
# Mechanical properties :
#
#
# Convention : Reuss Voigt Hill
#
# Bulk Modulus (GPa) = 27.48981 42.46454 34.97717
# Shear Modulus (GPa) = 0.42092 13.27425 6.84758
#
# Velocity S-wave (km/s) = 0.60912 3.42067 2.45683
# Velocity P-wave (km/s) = 4.97256 7.28237 6.23535
#
# Compressibility (1/GPa) = 0.03637711
#
# Stress axis : x y z
#
# Youngs Moduli (GPa) = 59.36812 39.15537 18.87284
#
# Poissons Ratio (x) = 0.35137 0.16115
# Poissons Ratio (y) = 0.53275 0.22617
# Poissons Ratio (z) = 0.50693 0.46923
#
# Static dielectric constant tensor:
#      x y z
#    x 2.620800 0.000000 0.000000 
#    y 0.000000 2.303870 0.000000 
#    z 0.000000 0.000000 2.124290 
# 
# 
# High freq. dielectric constant tensor:
#      x y z
#    x 1.446470 0.000000 0.000000 
#    y 0.000000 1.407550 0.000000 
#    z 0.000000 0.000000 1.371840 
# 
# From -- ./inp_files/30223.got.cif
#   From: 2010.03.12/outbox.cif.g09.slc.cpg/sg47_16_cif.got.tgz:30223.got - 2010.04.14 03:12:58.
