data_PCOD8196969
_publ_section_title
;
Structure prediction by ZEFSAII (Michael W. Deem and Ramdas Pophale) SiO2 
 PCOD8196969
Probable space group: P M M M
;
_chemical_formula_sum "Si O2"
_cell_formula_units_Z 44
_cell_length_a 9.116642
_cell_length_b 28.302539
_cell_length_c 9.467671
_cell_angle_alpha 90.000000
_cell_angle_beta 90.000000
_cell_angle_gamma 90.000000
_cell_volume 2442.887438
_symmetry_space_group_name_H-M "P M M M"
_symmetry_group_IT_number 47
_symmetry_cell_setting 'orthorhombic'
loop_
_space_group_symop_operation_xyz
x,y,z
-x,-y,z
x,-y,-z
-x,y,-z
-x,-y,-z
x,y,-z
-x,y,z
x,-y,z
loop_
_atom_site_type_symbol
_atom_site_label
_atom_site_fract_x
_atom_site_fract_y
_atom_site_fract_z
Si Si1 0.333140 0.554372 0.336144
Si Si2 0.672068 0.726105 0.163448
Si Si3 0.664412 0.101094 0.331442
Si Si4 0.831030 0.807061 0.333368
Si Si5 0.325816 0.000000 0.654681
Si Si6 0.169632 0.631180 0.836402
O O1 0.311655 0.566048 0.500000
O O2 0.500000 0.565378 0.290206
O O3 0.295265 0.500000 0.305351
O O4 0.221331 0.585547 0.247899
O O5 0.500000 0.723604 0.190415
O O6 0.738438 0.767436 0.256264
O O7 0.741191 0.676900 0.215029
O O8 0.710355 0.735567 0.000000
O O9 0.663597 0.097075 0.500000
O O10 0.500000 0.113259 0.277723
O O11 0.774123 0.141910 0.280248
O O12 0.718121 0.049731 0.268764
O O13 0.806945 0.801277 0.500000
O O14 0.000000 0.802279 0.290559
O O15 0.500000 0.000000 0.638323
O O16 0.251705 0.000000 0.500000
O O17 0.000000 0.640679 0.804588
O O18 0.199385 0.621031 0.000000
#
# Coordination Sequence:
#
# PCOD8196969 Si02
#       6
#     8   8   8   8   4   8
#     4   9  19  36  56  78 105 137 172 207 242 283
#     4  10  21  37  56  75  95 125 167 209 248 293
#     4   8  13  23  40  62  90 124 161 200 240 283
#     4  10  20  32  47  71 102 132 162 198 243 295
#     4   7  10  18  35  59  86 119 158 197 238 282
#     4  10  21  36  54  77 104 132 163 202 248 296
#
# _framework density 18.011472000000001
#
# number of rings (size 3 to 8) (size 9 to 14) (size 15 to 20)
#    0.000    2.818    0.000    3.273    0.000    5.091 
#    0.000    3.182    0.000    2.727    0.000    0.636 
#    0.000    5.091    0.000    0.000    0.000    0.000 
#
# Total GULP energy -545413.510515 kJ/mol
# GULP energy per Si atom -12395.761603 kJ/mol
# Density = 1.797048 g / cm^3
# Si number density = 18.011472 Si / 1000 Ang^3
#
#
#
# Elastic Constant Matrix: (Units=GPa)
#
#
# Indices 1 2 3 4 5 6 
#
# 1 95.7188 67.9633 35.1161 0.0000 0.0000 0.0000
# 2 67.9633 146.4280 47.6129 0.0000 0.0000 0.0000
# 3 35.1161 47.6129 35.1209 0.0000 0.0000 0.0000
# 4 0.0000 0.0000 0.0000 -47.8434 0.0000 0.0000
# 5 0.0000 0.0000 0.0000 0.0000 25.2370 0.0000
# 6 0.0000 0.0000 0.0000 0.0000 0.0000 10.5694
#
#
#
# Elastic Compliance Matrix: (Units=1/GPa)
#
#
# Indices 1 2 3 4 5 6 
#
# 1 0.018003 -0.004476 -0.011933 0.000000 0.000000 0.000000
# 2 -0.004476 0.013326 -0.013590 0.000000 0.000000 0.000000
# 3 -0.011933 -0.013590 0.058828 0.000000 0.000000 0.000000
# 4 0.000000 0.000000 0.000000 -0.020902 0.000000 0.000000
# 5 0.000000 0.000000 0.000000 0.000000 0.039624 0.000000
# 6 0.000000 0.000000 0.000000 0.000000 0.000000 0.094613
#
#
# Mechanical properties :
#
#
# Convention : Reuss Voigt Hill
#
# Bulk Modulus (GPa) = 33.15712 64.29469 48.72590
# Shear Modulus (GPa) = 18.27861 6.03096 12.15478
#
# Velocity S-wave (km/s) = 3.18910 1.83185 2.60058
# Velocity P-wave (km/s) = 5.65768 6.34415 6.01072
#
# Compressibility (1/GPa) = 0.03015944
#
# Stress axis : x y z
#
# Youngs Moduli (GPa) = 55.54638 75.04240 16.99858
#
# Poissons Ratio (x) = 0.33588 0.20284
# Poissons Ratio (y) = 0.24862 0.23102
# Poissons Ratio (z) = 0.66282 1.01985
#
# Static dielectric constant tensor:
#      x y z
#    x 3.308160 0.000000 0.000000 
#    y 0.000000 3.665760 0.000000 
#    z 0.000000 0.000000 2.965530 
# 
# 
# High freq. dielectric constant tensor:
#      x y z
#    x 1.693950 0.000000 0.000000 
#    y 0.000000 1.717280 0.000000 
#    z 0.000000 0.000000 1.655310 
# 
# From -- ./inp_files/2233.got.cif
#   From: 2010.03.12/outbox.cif.g09.slc.cpg/sg47_2_cif.got.tgz:2233.got - 2010.04.14 03:12:58.
