data_PCOD8196550
_publ_section_title
;
Structure prediction by ZEFSAII (Michael W. Deem and Ramdas Pophale) SiO2 
 PCOD8196550
Probable space group: P M M M
;
_chemical_formula_sum "Si O2"
_cell_formula_units_Z 64
_cell_length_a 9.876607
_cell_length_b 20.096143
_cell_length_c 17.589060
_cell_angle_alpha 90.000000
_cell_angle_beta 90.000000
_cell_angle_gamma 90.000000
_cell_volume 3491.106647
_symmetry_space_group_name_H-M "P M M M"
_symmetry_group_IT_number 47
_symmetry_cell_setting 'orthorhombic'
loop_
_space_group_symop_operation_xyz
x,y,z
-x,-y,z
x,-y,-z
-x,y,-z
-x,-y,-z
x,y,-z
-x,y,z
x,-y,z
loop_
_atom_site_type_symbol
_atom_site_label
_atom_site_fract_x
_atom_site_fract_y
_atom_site_fract_z
Si Si1 0.147492 0.719708 0.876806
Si Si2 0.648165 0.075340 0.199398
Si Si3 0.845265 0.803707 0.414542
Si Si4 0.343020 0.425836 0.751044
Si Si5 0.842543 0.693483 0.706930
Si Si6 0.342208 0.075491 0.625052
Si Si7 0.149429 0.867370 0.917127
Si Si8 0.345605 0.611020 0.917692
O O1 0.182186 0.729396 0.787493
O O2 0.142393 0.788578 0.920034
O O3 0.257459 0.677069 0.920251
O O4 0.000000 0.684573 0.882962
O O5 0.500000 0.107435 0.187757
O O6 0.691100 0.079625 0.286338
O O7 0.753606 0.114444 0.150242
O O8 0.646007 0.000000 0.171099
O O9 0.838597 0.774713 0.500000
O O10 0.793225 0.745627 0.357724
O O11 0.752646 0.869861 0.414023
O O12 0.000000 0.823446 0.393075
O O13 0.500000 0.405356 0.739166
O O14 0.316314 0.500000 0.718543
O O15 0.248226 0.373872 0.705653
O O16 0.307558 0.430225 0.841836
O O17 0.000000 0.674105 0.693706
O O18 0.500000 0.091493 0.608424
O O19 0.309821 0.000000 0.596097
O O20 0.000000 0.896987 0.900848
O O21 0.200250 0.892687 0.000000
O O22 0.500000 0.633908 0.911493
O O23 0.322935 0.573432 0.000000
#
# Coordination Sequence:
#
# PCOD8196550 Si02
#       8
#     8   8   8   8   8   8   8   8
#     4   9  17  30  47  65  88 121 159 196 237 286
#     4   9  19  35  51  66  87 119 160 203 245 290
#     4  10  21  36  55  81 110 136 164 201 246 298
#     4   9  18  32  50  73 100 131 169 211 252 295
#     4   9  18  33  53  75  99 129 165 205 247 294
#     4   9  19  36  56  78 105 137 172 207 244 293
#     4  10  20  31  44  65  92 122 159 205 255 302
#     4   9  17  28  43  66  96 128 161 198 242 290
#
# _framework density 18.332294999999998
#
# number of rings (size 3 to 8) (size 9 to 14) (size 15 to 20)
#    0.000    2.750    0.000    1.875    0.000    5.250 
#    0.000    7.500    0.000    0.375    0.000    6.125 
#    0.000    0.000    0.000    0.000    0.000    0.000 
#
# Total GULP energy -793005.437707 kJ/mol
# GULP energy per Si atom -12390.709964 kJ/mol
# Density = 1.829057 g / cm^3
# Si number density = 18.332295 Si / 1000 Ang^3
#
#
#
# Elastic Constant Matrix: (Units=GPa)
#
#
# Indices 1 2 3 4 5 6 
#
# 1 69.9453 43.2090 35.7208 0.0000 0.0000 0.0000
# 2 43.2090 79.8031 37.2836 0.0000 0.0000 0.0000
# 3 35.7208 37.2836 71.9246 0.0000 0.0000 0.0000
# 4 0.0000 0.0000 0.0000 4.9770 0.0000 0.0000
# 5 0.0000 0.0000 0.0000 0.0000 22.0684 0.0000
# 6 0.0000 0.0000 0.0000 0.0000 0.0000 31.1003
#
#
#
# Elastic Compliance Matrix: (Units=1/GPa)
#
#
# Indices 1 2 3 4 5 6 
#
# 1 0.023740 -0.009693 -0.006766 0.000000 0.000000 0.000000
# 2 -0.009693 0.020493 -0.005809 0.000000 0.000000 0.000000
# 3 -0.006766 -0.005809 0.020275 0.000000 0.000000 0.000000
# 4 0.000000 0.000000 0.000000 0.200926 0.000000 0.000000
# 5 0.000000 0.000000 0.000000 0.000000 0.045314 0.000000
# 6 0.000000 0.000000 0.000000 0.000000 0.000000 0.032154
#
#
# Mechanical properties :
#
#
# Convention : Reuss Voigt Hill
#
# Bulk Modulus (GPa) = 50.06922 50.45553 50.26237
# Shear Modulus (GPa) = 12.68730 18.65976 15.67353
#
# Velocity S-wave (km/s) = 2.63358 3.19386 2.92716
# Velocity P-wave (km/s) = 6.05136 6.41743 6.23709
#
# Compressibility (1/GPa) = 0.01997235
#
# Stress axis : x y z
#
# Youngs Moduli (GPa) = 42.12298 48.79716 49.32227
#
# Poissons Ratio (x) = 0.47299 0.33370
# Poissons Ratio (y) = 0.40830 0.28651
# Poissons Ratio (z) = 0.28499 0.28346
#
# Static dielectric constant tensor:
#      x y z
#    x 3.458220 0.000000 0.000000 
#    y 0.000000 3.191740 0.000000 
#    z 0.000000 0.000000 3.314560 
# 
# 
# High freq. dielectric constant tensor:
#      x y z
#    x 1.711180 0.000000 0.000000 
#    y 0.000000 1.688390 0.000000 
#    z 0.000000 0.000000 1.705110 
# 
# From -- ./inp_files/11564.got.cif
#   From: 2010.03.12/outbox.cif.g09.slc.cpg/sg47_6_cif.got.tgz:11564.got - 2010.04.14 03:12:58.
