data_PCOD8196304
_publ_section_title
;
Structure prediction by ZEFSAII (Michael W. Deem and Ramdas Pophale) SiO2 
 PCOD8196304
Probable space group: P M M M
;
_chemical_formula_sum "Si O2"
_cell_formula_units_Z 56
_cell_length_a 9.255777
_cell_length_b 17.251793
_cell_length_c 18.818912
_cell_angle_alpha 90.000000
_cell_angle_beta 90.000000
_cell_angle_gamma 90.000000
_cell_volume 3004.980323
_symmetry_space_group_name_H-M "P M M M"
_symmetry_group_IT_number 47
_symmetry_cell_setting 'orthorhombic'
loop_
_space_group_symop_operation_xyz
x,y,z
-x,-y,z
x,-y,-z
-x,y,-z
-x,-y,-z
x,y,-z
-x,y,z
x,-y,z
loop_
_atom_site_type_symbol
_atom_site_label
_atom_site_fract_x
_atom_site_fract_y
_atom_site_fract_z
Si Si1 0.171904 0.500000 0.919731
Si Si2 0.164463 0.641954 0.827745
Si Si3 0.665491 0.703613 0.421925
Si Si4 0.671264 0.801897 0.811515
Si Si5 0.665921 0.138853 0.656317
Si Si6 0.828153 0.000000 0.582859
Si Si7 0.837655 0.413847 0.670267
Si Si8 0.165205 0.090074 0.082025
O O1 0.228543 0.579547 0.883709
O O2 0.000000 0.500000 0.913368
O O3 0.228219 0.500000 0.000000
O O4 0.261497 0.718292 0.826955
O O5 0.170019 0.597954 0.753703
O O6 0.000000 0.666358 0.846782
O O7 0.735307 0.694934 0.500000
O O8 0.500000 0.679344 0.423866
O O9 0.684080 0.791250 0.397943
O O10 0.738624 0.647705 0.366883
O O11 0.500000 0.793486 0.815858
O O12 0.718308 0.834263 0.734367
O O13 0.725011 0.861532 0.870565
O O14 0.500000 0.109603 0.659116
O O15 0.768765 0.073263 0.625524
O O16 0.777369 0.000000 0.500000
O O17 0.000000 0.000000 0.587282
O O18 0.782264 0.500000 0.652104
O O19 0.000000 0.402554 0.642352
O O20 0.000000 0.110214 0.102329
O O21 0.196089 0.000000 0.095978
O O22 0.193720 0.110889 0.000000
#
# Coordination Sequence:
#
# PCOD8196304 Si02
#       8
#     4   8   8   8   8   4   8   8
#     4   9  18  34  59  89 116 147 192 238 277 331
#     4  10  19  35  58  83 113 151 192 233 281 334
#     4  10  21  38  59  82 110 147 191 235 279 334
#     4  11  23  37  58  89 120 150 191 237 283 338
#     4  10  22  40  60  83 115 155 195 232 283 349
#     4  11  25  41  59  87 118 149 192 245 297 346
#     4  10  20  35  56  81 111 147 188 233 283 338
#     4   9  20  40  63  86 114 150 190 230 278 335
#
# _framework density 18.635729000000001
#
# number of rings (size 3 to 8) (size 9 to 14) (size 15 to 20)
#    0.000    2.000    2.143    1.500    1.000    4.857 
#    0.000    3.929    0.000    0.429    0.000    0.000 
#    0.000    0.000    0.000    0.000    0.000    0.000 
#
# Total GULP energy -694408.112570 kJ/mol
# GULP energy per Si atom -12400.144867 kJ/mol
# Density = 1.859331 g / cm^3
# Si number density = 18.635729 Si / 1000 Ang^3
#
#
#
# Elastic Constant Matrix: (Units=GPa)
#
#
# Indices 1 2 3 4 5 6 
#
# 1 70.5985 55.7292 42.6982 0.0000 0.0000 0.0000
# 2 55.7292 93.9089 44.2389 0.0000 0.0000 0.0000
# 3 42.6982 44.2389 104.0302 0.0000 0.0000 0.0000
# 4 0.0000 0.0000 0.0000 -67.3662 0.0000 0.0000
# 5 0.0000 0.0000 0.0000 0.0000 27.0226 0.0000
# 6 0.0000 0.0000 0.0000 0.0000 0.0000 40.1005
#
#
#
# Elastic Compliance Matrix: (Units=1/GPa)
#
#
# Indices 1 2 3 4 5 6 
#
# 1 0.029175 -0.014597 -0.005767 0.000000 0.000000 0.000000
# 2 -0.014597 0.020619 -0.002777 0.000000 0.000000 0.000000
# 3 -0.005767 -0.002777 0.013161 0.000000 0.000000 0.000000
# 4 0.000000 0.000000 0.000000 -0.014844 0.000000 0.000000
# 5 0.000000 0.000000 0.000000 0.000000 0.037006 0.000000
# 6 0.000000 0.000000 0.000000 0.000000 0.000000 0.024937
#
#
# Mechanical properties :
#
#
# Convention : Reuss Voigt Hill
#
# Bulk Modulus (GPa) = 59.97938 61.54114 60.76026
# Shear Modulus (GPa) = 30.88430 8.34281 19.61356
#
# Velocity S-wave (km/s) = 4.07537 2.11814 3.24770
# Velocity P-wave (km/s) = 7.37562 6.25115 6.83655
#
# Compressibility (1/GPa) = 0.01667240
#
# Stress axis : x y z
#
# Youngs Moduli (GPa) = 34.27573 48.49841 75.98329
#
# Poissons Ratio (x) = 0.70792 0.43822
# Poissons Ratio (y) = 0.50031 0.21102
# Poissons Ratio (z) = 0.19768 0.13469
#
# Static dielectric constant tensor:
#      x y z
#    x 3.325070 0.000000 0.000000 
#    y 0.000000 3.557380 0.000000 
#    z 0.000000 0.000000 3.861640 
# 
# 
# High freq. dielectric constant tensor:
#      x y z
#    x 1.708800 0.000000 0.000000 
#    y 0.000000 1.734650 0.000000 
#    z 0.000000 0.000000 1.732470 
# 
# From -- ./inp_files/29752.got.cif
#   From: 2010.03.12/outbox.cif.g09.slc.cpg/sg47_15_cif.got.tgz:29752.got - 2010.04.14 03:12:58.
