data_PCOD8196967
_publ_section_title
;
Structure prediction by ZEFSAII (Michael W. Deem and Ramdas Pophale) SiO2 
 PCOD8196967
Probable space group: P M M M
;
_chemical_formula_sum "Si O2"
_cell_formula_units_Z 48
_cell_length_a 9.183784
_cell_length_b 9.276278
_cell_length_c 30.576506
_cell_angle_alpha 90.000000
_cell_angle_beta 90.000000
_cell_angle_gamma 90.000000
_cell_volume 2604.853319
_symmetry_space_group_name_H-M "P M M M"
_symmetry_group_IT_number 47
_symmetry_cell_setting 'orthorhombic'
loop_
_space_group_symop_operation_xyz
x,y,z
-x,-y,z
x,-y,-z
-x,y,-z
-x,-y,-z
x,y,-z
-x,y,z
x,-y,z
loop_
_atom_site_type_symbol
_atom_site_label
_atom_site_fract_x
_atom_site_fract_y
_atom_site_fract_z
Si Si1 0.830603 0.836389 0.656947
Si Si2 0.667775 0.669136 0.830248
Si Si3 0.673372 0.163120 0.500000
Si Si4 0.164681 0.328285 0.915486
Si Si5 0.165073 0.832301 0.242458
Si Si6 0.672046 0.334852 0.584095
Si Si7 0.335091 0.671993 0.000000
O O1 0.797609 0.799959 0.707252
O O2 0.739646 0.725597 0.628355
O O3 0.000000 0.816731 0.646630
O O4 0.782151 0.000000 0.646334
O O5 0.500000 0.707988 0.837998
O O6 0.691420 0.500000 0.824606
O O7 0.757661 0.728840 0.871687
O O8 0.722693 0.743489 0.786371
O O9 0.500000 0.164963 0.500000
O O10 0.732643 0.244820 0.542845
O O11 0.733672 0.000000 0.500000
O O12 0.165742 0.500000 0.916320
O O13 0.000000 0.268841 0.916834
O O14 0.252040 0.268296 0.957315
O O15 0.000000 0.783498 0.231982
O O16 0.184029 0.000000 0.232138
O O17 0.500000 0.319862 0.587801
O O18 0.719448 0.500000 0.577800
O O19 0.335442 0.500000 0.000000
O O20 0.500000 0.731025 0.000000
#
# Coordination Sequence:
#
# PCOD8196967 Si02
#       7
#     8   8   4   8   8   8   4
#     4   9  19  36  55  74  98 129 166 207 249 295
#     4  10  20  32  47  71 102 131 161 202 251 299
#     4   9  17  31  52  75 100 135 176 212 248 293
#     4   9  16  26  41  62  90 126 166 204 245 297
#     4   9  19  36  55  73  95 127 167 207 247 295
#     4  10  20  33  51  77 107 135 165 205 252 300
#     4   9  15  23  37  59  90 125 160 203 254 301
#
# _framework density 18.427142
#
# number of rings (size 3 to 8) (size 9 to 14) (size 15 to 20)
#    0.000    2.667    0.000    3.000    0.000    8.000 
#    0.000    5.417    0.000    2.500    0.000    0.583 
#    0.000    4.667    0.000    0.000    0.000    0.000 
#
# Total GULP energy -595255.086114 kJ/mol
# GULP energy per Si atom -12401.147627 kJ/mol
# Density = 1.838520 g / cm^3
# Si number density = 18.427142 Si / 1000 Ang^3
#
#
#
# Elastic Constant Matrix: (Units=GPa)
#
#
# Indices 1 2 3 4 5 6 
#
# 1 98.8249 44.4307 67.2779 0.0000 0.0000 0.0000
# 2 44.4307 75.1764 60.3751 0.0000 0.0000 0.0000
# 3 67.2779 60.3751 135.2248 0.0000 0.0000 0.0000
# 4 0.0000 0.0000 0.0000 9.1548 0.0000 0.0000
# 5 0.0000 0.0000 0.0000 0.0000 32.3246 0.0000
# 6 0.0000 0.0000 0.0000 0.0000 0.0000 24.0791
#
#
#
# Elastic Compliance Matrix: (Units=1/GPa)
#
#
# Indices 1 2 3 4 5 6 
#
# 1 0.016378 -0.004888 -0.005966 0.000000 0.000000 0.000000
# 2 -0.004888 0.022197 -0.007478 0.000000 0.000000 0.000000
# 3 -0.005966 -0.007478 0.013702 0.000000 0.000000 0.000000
# 4 0.000000 0.000000 0.000000 0.109232 0.000000 0.000000
# 5 0.000000 0.000000 0.000000 0.000000 0.030936 0.000000
# 6 0.000000 0.000000 0.000000 0.000000 0.000000 0.041530
#
#
# Mechanical properties :
#
#
# Convention : Reuss Voigt Hill
#
# Bulk Modulus (GPa) = 64.05360 72.59929 68.32644
# Shear Modulus (GPa) = 18.12604 22.25453 20.19028
#
# Velocity S-wave (km/s) = 3.13974 3.47897 3.31370
# Velocity P-wave (km/s) = 6.92675 7.45796 7.19726
#
# Compressibility (1/GPa) = 0.01561193
#
# Stress axis : x y z
#
# Youngs Moduli (GPa) = 61.05656 45.05053 72.98027
#
# Poissons Ratio (x) = 0.22023 0.43540
# Poissons Ratio (y) = 0.29847 0.54578
# Poissons Ratio (z) = 0.36426 0.33691
#
# Static dielectric constant tensor:
#      x y z
#    x 3.321980 0.000000 0.000000 
#    y 0.000000 3.101970 0.000000 
#    z 0.000000 0.000000 3.479830 
# 
# 
# High freq. dielectric constant tensor:
#      x y z
#    x 1.709150 0.000000 0.000000 
#    y 0.000000 1.683200 0.000000 
#    z 0.000000 0.000000 1.728420 
# 
# From -- ./inp_files/34201.got.cif
#   From: 2010.03.12/outbox.cif.g09.slc.cpg/sg47_18_cif.got.tgz:34201.got - 2010.04.14 03:12:58.
