data_PCOD8196142
_publ_section_title
;
Structure prediction by ZEFSAII (Michael W. Deem and Ramdas Pophale) SiO2 
 PCOD8196142
Probable space group: P M M M
;
_chemical_formula_sum "Si O2"
_cell_formula_units_Z 52
_cell_length_a 9.186855
_cell_length_b 22.170576
_cell_length_c 14.804464
_cell_angle_alpha 90.000000
_cell_angle_beta 90.000000
_cell_angle_gamma 90.000000
_cell_volume 3015.341649
_symmetry_space_group_name_H-M "P M M M"
_symmetry_group_IT_number 47
_symmetry_cell_setting 'orthorhombic'
loop_
_space_group_symop_operation_xyz
x,y,z
-x,-y,z
x,-y,-z
-x,y,-z
-x,-y,-z
x,y,-z
-x,y,z
x,-y,z
loop_
_atom_site_type_symbol
_atom_site_label
_atom_site_fract_x
_atom_site_fract_y
_atom_site_fract_z
Si Si1 0.835866 0.377859 0.349102
Si Si2 0.669449 0.780685 0.218389
Si Si3 0.654726 0.567904 0.500000
Si Si4 0.328131 0.430898 0.000000
Si Si5 0.830442 0.881295 0.106409
Si Si6 0.668438 0.643202 0.825451
Si Si7 0.165699 0.240370 0.397773
Si Si8 0.664819 0.000000 0.892734
O O1 0.746860 0.421667 0.411426
O O2 0.767943 0.384439 0.251135
O O3 0.825399 0.311927 0.391749
O O4 0.000000 0.400686 0.343705
O O5 0.500000 0.798364 0.219643
O O6 0.759270 0.824849 0.155229
O O7 0.693298 0.715274 0.172996
O O8 0.728339 0.786800 0.321315
O O9 0.608862 0.500000 0.500000
O O10 0.500000 0.604909 0.500000
O O11 0.276816 0.390812 0.915110
O O12 0.263899 0.500000 0.000000
O O13 0.500000 0.436068 0.000000
O O14 0.750502 0.941342 0.142310
O O15 0.000000 0.885976 0.131267
O O16 0.807387 0.872896 0.000000
O O17 0.500000 0.629084 0.805476
O O18 0.213876 0.221182 0.500000
O O19 0.000000 0.218677 0.379441
O O20 0.500000 0.000000 0.854278
O O21 0.662458 0.000000 0.000000
#
# Coordination Sequence:
#
# PCOD8196142 Si02
#       8
#     8   8   4   4   8   8   8   4
#     4  10  19  34  53  73  97 125 156 198 252 309
#     4  10  20  31  48  76 106 135 170 216 262 306
#     4  11  23  35  49  71  97 125 159 198 243 304
#     4   9  18  34  55  73  93 128 173 216 257 307
#     4  10  20  33  50  74 107 145 182 217 256 304
#     4   9  19  34  52  75 100 130 169 214 261 309
#     4   9  17  32  52  72  98 130 162 200 252 310
#     4   9  17  31  51  75 104 141 180 217 257 301
#
# _framework density 17.245142999999999
#
# number of rings (size 3 to 8) (size 9 to 14) (size 15 to 20)
#    0.000    2.385    0.769    1.846    1.077    4.615 
#    0.000    1.923    0.000    0.462    0.000    0.538 
#    0.000    4.308    0.000    0.000    0.000    0.000 
#
# Total GULP energy -644583.501410 kJ/mol
# GULP energy per Si atom -12395.836566 kJ/mol
# Density = 1.720589 g / cm^3
# Si number density = 17.245143 Si / 1000 Ang^3
#
#
#
# Elastic Constant Matrix: (Units=GPa)
#
#
# Indices 1 2 3 4 5 6 
#
# 1 135.2586 56.6780 70.3506 0.0000 0.0000 0.0000
# 2 56.6780 79.3109 52.5450 0.0000 0.0000 0.0000
# 3 70.3506 52.5450 110.4888 0.0000 0.0000 0.0000
# 4 0.0000 0.0000 0.0000 8.9309 0.0000 0.0000
# 5 0.0000 0.0000 0.0000 0.0000 26.7710 0.0000
# 6 0.0000 0.0000 0.0000 0.0000 0.0000 21.6879
#
#
#
# Elastic Compliance Matrix: (Units=1/GPa)
#
#
# Indices 1 2 3 4 5 6 
#
# 1 0.012416 -0.005308 -0.005382 0.000000 0.000000 0.000000
# 2 -0.005308 0.020678 -0.006454 0.000000 0.000000 0.000000
# 3 -0.005382 -0.006454 0.015547 0.000000 0.000000 0.000000
# 4 0.000000 0.000000 0.000000 0.111971 0.000000 0.000000
# 5 0.000000 0.000000 0.000000 0.000000 0.037354 0.000000
# 6 0.000000 0.000000 0.000000 0.000000 0.000000 0.046109
#
#
# Mechanical properties :
#
#
# Convention : Reuss Voigt Hill
#
# Bulk Modulus (GPa) = 69.66778 76.02284 72.84531
# Shear Modulus (GPa) = 17.65873 21.17691 19.41782
#
# Velocity S-wave (km/s) = 3.20344 3.50807 3.35921
# Velocity P-wave (km/s) = 7.35995 7.78384 7.57486
#
# Compressibility (1/GPa) = 0.01435384
#
# Stress axis : x y z
#
# Youngs Moduli (GPa) = 80.53814 48.36138 64.32249
#
# Poissons Ratio (x) = 0.25669 0.34616
# Poissons Ratio (y) = 0.42748 0.41514
# Poissons Ratio (z) = 0.43343 0.31213
#
# Static dielectric constant tensor:
#      x y z
#    x 3.337250 0.000000 0.000000 
#    y 0.000000 3.080650 0.000000 
#    z 0.000000 0.000000 3.227730 
# 
# 
# High freq. dielectric constant tensor:
#      x y z
#    x 1.675100 0.000000 0.000000 
#    y 0.000000 1.643950 0.000000 
#    z 0.000000 0.000000 1.659200 
# 
# From -- ./inp_files/7110.got.cif
#   From: 2010.03.12/outbox.cif.g09.slc.cpg/sg47_4_cif.got.tgz:7110.got - 2010.04.14 03:12:58.
