data_PCOD8196856
_publ_section_title
;
Structure prediction by ZEFSAII (Michael W. Deem and Ramdas Pophale) SiO2 
 PCOD8196856
Probable space group: P M M M
;
_chemical_formula_sum "Si O2"
_cell_formula_units_Z 52
_cell_length_a 9.663189
_cell_length_b 33.643860
_cell_length_c 9.163382
_cell_angle_alpha 90.000000
_cell_angle_beta 90.000000
_cell_angle_gamma 90.000000
_cell_volume 2979.079429
_symmetry_space_group_name_H-M "P M M M"
_symmetry_group_IT_number 47
_symmetry_cell_setting 'orthorhombic'
loop_
_space_group_symop_operation_xyz
x,y,z
-x,-y,z
x,-y,-z
-x,y,-z
-x,-y,-z
x,y,-z
-x,y,z
x,-y,z
loop_
_atom_site_type_symbol
_atom_site_label
_atom_site_fract_x
_atom_site_fract_y
_atom_site_fract_z
Si Si1 0.338877 0.844305 0.670806
Si Si2 0.838969 0.220746 0.170906
Si Si3 0.158285 0.385319 0.671984
Si Si4 0.665170 0.000000 0.665418
Si Si5 0.335507 0.076922 0.835099
Si Si6 0.835787 0.690608 0.838960
Si Si7 0.344588 0.543934 0.673584
O O1 0.311709 0.849934 0.500000
O O2 0.500000 0.836616 0.703854
O O3 0.252774 0.807478 0.729970
O O4 0.284880 0.883689 0.752304
O O5 0.791895 0.265491 0.214458
O O6 0.000000 0.213690 0.206915
O O7 0.810716 0.212997 0.000000
O O8 0.173531 0.383109 0.500000
O O9 0.220374 0.343994 0.733337
O O10 0.243184 0.422481 0.738202
O O11 0.000000 0.391392 0.720487
O O12 0.722837 0.038712 0.749118
O O13 0.500000 0.000000 0.664619
O O14 0.721787 0.000000 0.500000
O O15 0.500000 0.075180 0.837297
O O16 0.276726 0.076992 0.000000
O O17 0.000000 0.689650 0.844489
O O18 0.775207 0.682565 0.000000
O O19 0.339783 0.545003 0.500000
O O20 0.500000 0.552753 0.728356
O O21 0.297399 0.500000 0.727485
#
# Coordination Sequence:
#
# PCOD8196856 Si02
#       7
#     8   8   8   4   8   8   8
#     4  10  20  32  46  68  98 127 154 189 236 282
#     4   9  18  33  52  71  90 118 158 196 229 273
#     4   9  16  25  41  66  88 105 134 178 219 252
#     4   9  15  23  37  59  88 119 152 193 238 281
#     4   9  16  26  41  61  87 121 158 193 231 277
#     4   8  15  29  47  65  87 115 144 176 218 267
#     4   8  14  25  40  58  83 115 145 172 209 257
#
# _framework density 17.455058000000001
#
# number of rings (size 3 to 8) (size 9 to 14) (size 15 to 20)
#    0.000    3.154    0.000    2.538    0.000    4.923 
#    0.000    3.846    0.000    3.692    0.000    3.769 
#    0.000    4.308    0.000    0.000    0.000    0.000 
#
# Total GULP energy -644546.596400 kJ/mol
# GULP energy per Si atom -12395.126854 kJ/mol
# Density = 1.741533 g / cm^3
# Si number density = 17.455058 Si / 1000 Ang^3
#
#
#
# Elastic Constant Matrix: (Units=GPa)
#
#
# Indices 1 2 3 4 5 6 
#
# 1 41.4668 53.4040 31.5122 0.0000 0.0000 0.0000
# 2 53.4040 178.6751 69.9976 0.0000 0.0000 0.0000
# 3 31.5122 69.9976 84.3845 0.0000 0.0000 0.0000
# 4 0.0000 0.0000 0.0000 23.8920 0.0000 0.0000
# 5 0.0000 0.0000 0.0000 0.0000 15.6191 0.0000
# 6 0.0000 0.0000 0.0000 0.0000 0.0000 13.4163
#
#
#
# Elastic Compliance Matrix: (Units=1/GPa)
#
#
# Indices 1 2 3 4 5 6 
#
# 1 0.042488 -0.009605 -0.007900 0.000000 0.000000 0.000000
# 2 -0.009605 0.010462 -0.005092 0.000000 0.000000 0.000000
# 3 -0.007900 -0.005092 0.019024 0.000000 0.000000 0.000000
# 4 0.000000 0.000000 0.000000 0.041855 0.000000 0.000000
# 5 0.000000 0.000000 0.000000 0.000000 0.064024 0.000000
# 6 0.000000 0.000000 0.000000 0.000000 0.000000 0.074536
#
#
# Mechanical properties :
#
#
# Convention : Reuss Voigt Hill
#
# Bulk Modulus (GPa) = 37.33737 68.26156 52.79946
# Shear Modulus (GPa) = 16.31269 20.55964 18.43617
#
# Velocity S-wave (km/s) = 3.06036 3.43572 3.25346
# Velocity P-wave (km/s) = 5.82450 7.41153 6.66542
#
# Compressibility (1/GPa) = 0.02678282
#
# Stress axis : x y z
#
# Youngs Moduli (GPa) = 23.53589 95.58212 52.56464
#
# Poissons Ratio (x) = 0.91802 0.41524
# Poissons Ratio (y) = 0.22605 0.26765
# Poissons Ratio (z) = 0.18592 0.48669
#
# Static dielectric constant tensor:
#      x y z
#    x 2.896170 0.000000 0.000000 
#    y 0.000000 3.619870 0.000000 
#    z 0.000000 0.000000 3.195760 
# 
# 
# High freq. dielectric constant tensor:
#      x y z
#    x 1.624890 0.000000 0.000000 
#    y 0.000000 1.692530 0.000000 
#    z 0.000000 0.000000 1.661400 
# 
# From -- ./inp_files/4775.got.cif
#   From: 2010.03.12/outbox.cif.g09.slc.cpg/sg47_3_cif.got.tgz:4775.got - 2010.04.14 03:12:58.
