data_PCOD8196030
_publ_section_title
;
Structure prediction by ZEFSAII (Michael W. Deem and Ramdas Pophale) SiO2 
 PCOD8196030
Probable space group: P M M M
;
_chemical_formula_sum "Si O2"
_cell_formula_units_Z 48
_cell_length_a 9.612453
_cell_length_b 28.979685
_cell_length_c 9.426764
_cell_angle_alpha 90.000000
_cell_angle_beta 90.000000
_cell_angle_gamma 90.000000
_cell_volume 2625.974621
_symmetry_space_group_name_H-M "P M M M"
_symmetry_group_IT_number 47
_symmetry_cell_setting 'orthorhombic'
loop_
_space_group_symop_operation_xyz
x,y,z
-x,-y,z
x,-y,-z
-x,y,-z
-x,-y,-z
x,y,-z
-x,y,z
x,-y,z
loop_
_atom_site_type_symbol
_atom_site_label
_atom_site_fract_x
_atom_site_fract_y
_atom_site_fract_z
Si Si1 0.158320 0.210779 0.668685
Si Si2 0.000000 0.448637 0.334102
Si Si3 0.343260 0.294309 0.331675
Si Si4 0.727389 0.396953 0.333173
Si Si5 0.500000 0.554255 0.841926
Si Si6 0.842540 0.054060 0.163323
Si Si7 0.338397 0.876621 0.332459
O O1 0.152960 0.212565 0.500000
O O2 0.236905 0.256073 0.729270
O O3 0.248804 0.167195 0.719802
O O4 0.000000 0.208346 0.728971
O O5 0.125124 0.416331 0.287829
O O6 0.000000 0.500000 0.262031
O O7 0.000000 0.457054 0.500000
O O8 0.346740 0.290727 0.500000
O O9 0.500000 0.286328 0.272643
O O10 0.287828 0.344149 0.283439
O O11 0.694564 0.401536 0.500000
O O12 0.630771 0.429814 0.245203
O O13 0.500000 0.500000 0.851114
O O14 0.500000 0.575695 0.000000
O O15 0.727405 0.078822 0.258715
O O16 0.000000 0.067945 0.209259
O O17 0.820652 0.000000 0.185696
O O18 0.818579 0.067670 0.000000
O O19 0.326030 0.883314 0.500000
O O20 0.500000 0.870449 0.287889
#
# Coordination Sequence:
#
# PCOD8196030 Si02
#       7
#     8   4   8   8   4   8   8
#     4   9  17  28  46  73 105 138 170 211 260 308
#     4   9  18  30  47  75 107 133 163 211 262 303
#     4   9  16  27  45  72 102 130 163 205 255 308
#     4  10  19  33  54  79 105 135 170 212 261 309
#     4  11  23  37  53  75 103 137 177 215 254 307
#     4   9  19  36  56  77 103 138 180 225 270 314
#     4  10  20  33  50  76 110 144 177 216 262 311
#
# _framework density 18.278928000000001
#
# number of rings (size 3 to 8) (size 9 to 14) (size 15 to 20)
#    0.000    2.500    0.833    2.250    1.167    5.333 
#    0.000    2.917    0.000    2.500    0.000    0.000 
#    0.000    0.000    0.000    0.000    0.000    0.000 
#
# Total GULP energy -594980.098903 kJ/mol
# GULP energy per Si atom -12395.418727 kJ/mol
# Density = 1.823732 g / cm^3
# Si number density = 18.278928 Si / 1000 Ang^3
#
#
#
# Elastic Constant Matrix: (Units=GPa)
#
#
# Indices 1 2 3 4 5 6 
#
# 1 184.7599 80.5069 34.9104 0.0000 0.0000 0.0000
# 2 80.5069 110.4309 26.0323 0.0000 0.0000 0.0000
# 3 34.9104 26.0323 31.8004 0.0000 0.0000 0.0000
# 4 0.0000 0.0000 0.0000 3.1873 0.0000 0.0000
# 5 0.0000 0.0000 0.0000 0.0000 -1.2196 0.0000
# 6 0.0000 0.0000 0.0000 0.0000 0.0000 44.8266
#
#
#
# Elastic Compliance Matrix: (Units=1/GPa)
#
#
# Indices 1 2 3 4 5 6 
#
# 1 0.008608 -0.005015 -0.005344 0.000000 0.000000 0.000000
# 2 -0.005015 0.014143 -0.006072 0.000000 0.000000 0.000000
# 3 -0.005344 -0.006072 0.042283 0.000000 0.000000 0.000000
# 4 0.000000 0.000000 0.000000 0.313741 0.000000 0.000000
# 5 0.000000 0.000000 0.000000 0.000000 -0.819934 0.000000
# 6 0.000000 0.000000 0.000000 0.000000 0.000000 0.022308
#
#
# Mechanical properties :
#
#
# Convention : Reuss Voigt Hill
#
# Bulk Modulus (GPa) = 31.08320 67.76562 49.42441
# Shear Modulus (GPa) = -13.32389 21.72830 4.20221
#
# Velocity S-wave (km/s) = -2.70278 3.45150 1.51787
# Velocity P-wave (km/s) = 2.70219 7.28268 5.49269
#
# Compressibility (1/GPa) = 0.03217172
#
# Stress axis : x y z
#
# Youngs Moduli (GPa) = 116.17746 70.70560 23.65024
#
# Poissons Ratio (x) = 0.35462 0.12638
# Poissons Ratio (y) = 0.58268 0.14360
# Poissons Ratio (z) = 0.62081 0.42931
#
# Static dielectric constant tensor:
#      x y z
#    x 3.478670 0.000000 0.000000 
#    y 0.000000 3.483160 0.000000 
#    z 0.000000 0.000000 2.907170 
# 
# 
# High freq. dielectric constant tensor:
#      x y z
#    x 1.724850 0.000000 0.000000 
#    y 0.000000 1.720930 0.000000 
#    z 0.000000 0.000000 1.652600 
# 
# From -- ./inp_files/2803.got.cif
#   From: 2010.03.12/outbox.cif.g09.slc.cpg/sg47_2_cif.got.tgz:2803.got - 2010.04.14 03:12:58.
