data_PCOD8196954
_publ_section_title
;
Structure prediction by ZEFSAII (Michael W. Deem and Ramdas Pophale) SiO2 
 PCOD8196954
Probable space group: P M M M
;
_chemical_formula_sum "Si O2"
_cell_formula_units_Z 44
_cell_length_a 9.076213
_cell_length_b 28.598894
_cell_length_c 9.668262
_cell_angle_alpha 90.000000
_cell_angle_beta 90.000000
_cell_angle_gamma 90.000000
_cell_volume 2509.587417
_symmetry_space_group_name_H-M "P M M M"
_symmetry_group_IT_number 47
_symmetry_cell_setting 'orthorhombic'
loop_
_space_group_symop_operation_xyz
x,y,z
-x,-y,z
x,-y,-z
-x,y,-z
-x,-y,-z
x,y,-z
-x,y,z
x,-y,z
loop_
_atom_site_type_symbol
_atom_site_label
_atom_site_fract_x
_atom_site_fract_y
_atom_site_fract_z
Si Si1 0.175089 0.551581 0.344577
Si Si2 0.673246 0.730424 0.159336
Si Si3 0.664965 0.099981 0.335114
Si Si4 0.829204 0.808491 0.337606
Si Si5 0.324998 0.000000 0.651493
Si Si6 0.171335 0.635489 0.840184
O O1 0.228681 0.562652 0.500000
O O2 0.232528 0.500000 0.299130
O O3 0.237525 0.591403 0.243319
O O4 0.000000 0.551698 0.337857
O O5 0.500000 0.728245 0.181875
O O6 0.738947 0.770230 0.255111
O O7 0.741240 0.681281 0.207209
O O8 0.714601 0.740841 0.000000
O O9 0.663174 0.095567 0.500000
O O10 0.500000 0.112120 0.282008
O O11 0.775493 0.140506 0.286691
O O12 0.719180 0.049217 0.273409
O O13 0.798233 0.801656 0.500000
O O14 0.000000 0.803482 0.301639
O O15 0.500000 0.000000 0.635743
O O16 0.250587 0.000000 0.500000
O O17 0.000000 0.644021 0.806911
O O18 0.197700 0.624234 0.000000
#
# Coordination Sequence:
#
# PCOD8196954 Si02
#       6
#     8   8   8   8   4   8
#     4   8  14  25  42  66  95 123 150 182 221 266
#     4  10  21  36  52  69  91 122 160 199 239 285
#     4   8  13  23  40  62  90 123 157 192 229 271
#     4  10  20  32  47  70  98 125 155 193 237 284
#     4   7  10  18  35  59  86 119 156 189 224 268
#     4   9  17  29  46  68  92 117 148 189 233 274
#
# _framework density 17.532762000000002
#
# number of rings (size 3 to 8) (size 9 to 14) (size 15 to 20)
#    0.000    3.182    0.000    2.727    0.000    3.273 
#    0.000    4.091    0.000    3.273    0.000    4.455 
#    0.000    5.091    0.000    0.000    0.000    0.000 
#
# Total GULP energy -545251.589993 kJ/mol
# GULP energy per Si atom -12392.081591 kJ/mol
# Density = 1.749286 g / cm^3
# Si number density = 17.532762 Si / 1000 Ang^3
#
#
#
# Elastic Constant Matrix: (Units=GPa)
#
#
# Indices 1 2 3 4 5 6 
#
# 1 52.1748 51.4102 25.5809 0.0000 0.0000 0.0000
# 2 51.4102 183.4287 64.0387 0.0000 0.0000 0.0000
# 3 25.5809 64.0387 46.3392 0.0000 0.0000 0.0000
# 4 0.0000 0.0000 0.0000 -0.5611 0.0000 0.0000
# 5 0.0000 0.0000 0.0000 0.0000 16.4594 0.0000
# 6 0.0000 0.0000 0.0000 0.0000 0.0000 -9.4680
#
#
#
# Elastic Compliance Matrix: (Units=1/GPa)
#
#
# Indices 1 2 3 4 5 6 
#
# 1 0.028299 -0.004787 -0.009007 0.000000 0.000000 0.000000
# 2 -0.004787 0.011344 -0.013034 0.000000 0.000000 0.000000
# 3 -0.009007 -0.013034 0.044564 0.000000 0.000000 0.000000
# 4 0.000000 0.000000 0.000000 -1.782125 0.000000 0.000000
# 5 0.000000 0.000000 0.000000 0.000000 0.060756 0.000000
# 6 0.000000 0.000000 0.000000 0.000000 0.000000 -0.105619
#
#
# Mechanical properties :
#
#
# Convention : Reuss Voigt Hill
#
# Bulk Modulus (GPa) = 32.73112 62.66694 47.69903
# Shear Modulus (GPa) = -2.97807 10.68025 3.85109
#
# Velocity S-wave (km/s) = -1.30471 2.47079 1.48367
# Velocity P-wave (km/s) = 4.05455 6.63024 5.49543
#
# Compressibility (1/GPa) = 0.03055196
#
# Stress axis : x y z
#
# Youngs Moduli (GPa) = 35.33667 88.15334 22.43942
#
# Poissons Ratio (x) = 0.42200 0.20210
# Poissons Ratio (y) = 0.16916 0.29248
# Poissons Ratio (z) = 0.31826 1.14900
#
# Static dielectric constant tensor:
#      x y z
#    x 3.024770 0.000000 0.000000 
#    y 0.000000 3.803160 0.000000 
#    z 0.000000 0.000000 3.003960 
# 
# 
# High freq. dielectric constant tensor:
#      x y z
#    x 1.649280 0.000000 0.000000 
#    y 0.000000 1.700140 0.000000 
#    z 0.000000 0.000000 1.638200 
# 
# From -- ./inp_files/2289.got.cif
#   From: 2010.03.12/outbox.cif.g09.slc.cpg/sg47_2_cif.got.tgz:2289.got - 2010.04.14 03:12:58.
