data_PCOD8196169
_publ_section_title
;
Structure prediction by ZEFSAII (Michael W. Deem and Ramdas Pophale) SiO2 
 PCOD8196169
Probable space group: P M M M
;
_chemical_formula_sum "Si O2"
_cell_formula_units_Z 56
_cell_length_a 22.161254
_cell_length_b 14.949381
_cell_length_c 8.896900
_cell_angle_alpha 90.000000
_cell_angle_beta 90.000000
_cell_angle_gamma 90.000000
_cell_volume 2947.516542
_symmetry_space_group_name_H-M "P M M M"
_symmetry_group_IT_number 47
_symmetry_cell_setting 'orthorhombic'
loop_
_space_group_symop_operation_xyz
x,y,z
-x,-y,z
x,-y,-z
-x,y,-z
-x,-y,-z
x,y,-z
-x,y,z
x,-y,z
loop_
_atom_site_type_symbol
_atom_site_label
_atom_site_fract_x
_atom_site_fract_y
_atom_site_fract_z
Si Si1 0.656592 0.652457 0.674906
Si Si2 0.500000 0.899813 0.821586
Si Si3 0.834138 0.775875 0.177360
Si Si4 0.432555 0.500000 0.678029
Si Si5 0.372401 0.165695 0.176890
Si Si6 0.207357 0.399427 0.674025
Si Si7 0.070322 0.898583 0.327089
Si Si8 0.737973 0.900555 0.671704
O O1 0.648643 0.678250 0.500000
O O2 0.603967 0.586711 0.731373
O O3 0.651044 0.737135 0.780857
O O4 0.721329 0.608325 0.703919
O O5 0.440571 0.848377 0.763638
O O6 0.500000 0.000000 0.755901
O O7 0.500000 0.902942 0.000000
O O8 0.831264 0.673500 0.234037
O O9 0.894778 0.825087 0.230405
O O10 0.776908 0.829921 0.237029
O O11 0.832623 0.775296 0.000000
O O12 0.500000 0.500000 0.748398
O O13 0.435983 0.500000 0.500000
O O14 0.329020 0.094984 0.259389
O O15 0.368009 0.149658 0.000000
O O16 0.192902 0.383243 0.500000
O O17 0.187656 0.500000 0.722452
O O18 0.090561 0.889093 0.500000
O O19 0.000000 0.878034 0.308651
O O20 0.084478 0.000000 0.272042
O O21 0.735264 0.867500 0.500000
O O22 0.766373 0.000000 0.682297
#
# Coordination Sequence:
#
# PCOD8196169 Si02
#       8
#     8   4   8   4   8   8   8   8
#     4  10  19  34  55  78 105 138 178 227 284 342
#     4   9  20  38  55  70  97 138 178 219 273 345
#     4  12  24  36  56  89 125 158 193 237 291 346
#     4   9  18  32  53  81 107 137 180 231 286 345
#     4  11  22  36  55  78 104 138 180 225 283 347
#     4  10  20  37  60  82 110 152 198 241 288 346
#     4   9  19  38  64  92 124 165 208 245 283 332
#     4  11  23  38  56  79 110 147 188 237 287 336
#
# _framework density 18.999044999999999
#
# number of rings (size 3 to 8) (size 9 to 14) (size 15 to 20)
#    0.000    1.714    2.143    3.429    1.000    4.286 
#    0.000    2.143    0.000    3.429    0.000    3.000 
#    0.000    0.000    0.000    0.000    0.000    0.000 
#
# Total GULP energy -694417.713159 kJ/mol
# GULP energy per Si atom -12400.316306 kJ/mol
# Density = 1.895580 g / cm^3
# Si number density = 18.999045 Si / 1000 Ang^3
#
#
#
# Elastic Constant Matrix: (Units=GPa)
#
#
# Indices 1 2 3 4 5 6 
#
# 1 89.2361 46.4275 46.2359 0.0000 0.0000 0.0000
# 2 46.4275 130.3423 57.3441 0.0000 0.0000 0.0000
# 3 46.2359 57.3441 98.4167 0.0000 0.0000 0.0000
# 4 0.0000 0.0000 0.0000 -2.7805 0.0000 0.0000
# 5 0.0000 0.0000 0.0000 0.0000 24.8341 0.0000
# 6 0.0000 0.0000 0.0000 0.0000 0.0000 33.5616
#
#
#
# Elastic Compliance Matrix: (Units=1/GPa)
#
#
# Indices 1 2 3 4 5 6 
#
# 1 0.015724 -0.003161 -0.005545 0.000000 0.000000 0.000000
# 2 -0.003161 0.010952 -0.004896 0.000000 0.000000 0.000000
# 3 -0.005545 -0.004896 0.015619 0.000000 0.000000 0.000000
# 4 0.000000 0.000000 0.000000 -0.359653 0.000000 0.000000
# 5 0.000000 0.000000 0.000000 0.000000 0.040267 0.000000
# 6 0.000000 0.000000 0.000000 0.000000 0.000000 0.029796
#
#
# Mechanical properties :
#
#
# Convention : Reuss Voigt Hill
#
# Bulk Modulus (GPa) = 66.27042 68.66778 67.46910
# Shear Modulus (GPa) = -23.24943 22.32223 -0.46360
#
# Velocity S-wave (km/s) = -3.50196 3.43142 -0.49451
# Velocity P-wave (km/s) = 4.31335 7.20560 5.93826
#
# Compressibility (1/GPa) = 0.01508969
#
# Stress axis : x y z
#
# Youngs Moduli (GPa) = 63.59675 91.30495 64.02482
#
# Poissons Ratio (x) = 0.28864 0.35503
# Poissons Ratio (y) = 0.20105 0.31349
# Poissons Ratio (z) = 0.35265 0.44706
#
# Static dielectric constant tensor:
#      x y z
#    x 3.570590 0.000000 0.000000 
#    y 0.000000 3.577530 0.000000 
#    z 0.000000 0.000000 3.282660 
# 
# 
# High freq. dielectric constant tensor:
#      x y z
#    x 1.731710 0.000000 0.000000 
#    y 0.000000 1.745350 0.000000 
#    z 0.000000 0.000000 1.720200 
# 
# From -- ./inp_files/11370.got.cif
#   From: 2010.03.12/outbox.cif.g09.slc.cpg/sg47_6_cif.got.tgz:11370.got - 2010.04.14 03:12:58.
