data_PCOD8196946
_publ_section_title
;
Structure prediction by ZEFSAII (Michael W. Deem and Ramdas Pophale) SiO2 
 PCOD8196946
Probable space group: P M M M
;
_chemical_formula_sum "Si O2"
_cell_formula_units_Z 40
_cell_length_a 8.039475
_cell_length_b 9.239071
_cell_length_c 27.571085
_cell_angle_alpha 90.000000
_cell_angle_beta 90.000000
_cell_angle_gamma 90.000000
_cell_volume 2047.905209
_symmetry_space_group_name_H-M "P M M M"
_symmetry_group_IT_number 47
_symmetry_cell_setting 'orthorhombic'
loop_
_space_group_symop_operation_xyz
x,y,z
-x,-y,z
x,-y,-z
-x,y,-z
-x,-y,-z
x,y,-z
-x,y,z
x,-y,z
loop_
_atom_site_type_symbol
_atom_site_label
_atom_site_fract_x
_atom_site_fract_y
_atom_site_fract_z
Si Si1 0.187032 0.671961 0.783025
Si Si2 0.307466 0.664593 0.679896
Si Si3 0.801030 0.337150 0.500000
Si Si4 0.315377 0.327670 0.884701
Si Si5 0.192389 0.159887 0.409354
Si Si6 0.000000 0.327401 0.945103
O O1 0.186743 0.500000 0.784520
O O2 0.275737 0.725874 0.733944
O O3 0.285244 0.730456 0.830039
O O4 0.000000 0.732824 0.784451
O O5 0.500000 0.672167 0.667491
O O6 0.240530 0.500000 0.675588
O O7 0.210797 0.763610 0.642257
O O8 0.729964 0.500000 0.500000
O O9 0.728826 0.256014 0.547548
O O10 0.000000 0.340885 0.500000
O O11 0.500000 0.275088 0.901784
O O12 0.308932 0.500000 0.885426
O O13 0.167986 0.267516 0.919277
O O14 0.000000 0.141685 0.420804
O O15 0.275924 0.000000 0.408338
O O16 0.000000 0.500000 0.943242
O O17 0.000000 0.269759 0.000000
#
# Coordination Sequence:
#
# PCOD8196946 Si02
#       6
#     8   8   4   8   8   4
#     4   9  15  25  42  62  84 111 146 193 247 297
#     4  10  20  32  47  70  97 124 159 203 248 296
#     4   9  17  31  54  79 100 125 162 208 252 293
#     4   9  15  23  35  51  74 106 147 196 248 299
#     4  10  20  34  52  74 100 130 163 199 245 302
#     4   9  16  24  32  46  72 108 153 200 245 296
#
# _framework density 19.532153999999998
#
# number of rings (size 3 to 8) (size 9 to 14) (size 15 to 20)
#    0.000    2.600    1.000    2.100    0.000    6.400 
#    0.000    2.500    0.000    3.000    0.000    0.000 
#    0.000    0.000    0.000    0.000    0.000    2.000 
#
# Total GULP energy -495815.679427 kJ/mol
# GULP energy per Si atom -12395.391986 kJ/mol
# Density = 1.948770 g / cm^3
# Si number density = 19.532154 Si / 1000 Ang^3
#
#
#
# Elastic Constant Matrix: (Units=GPa)
#
#
# Indices 1 2 3 4 5 6 
#
# 1 91.4662 19.0878 43.8943 0.0000 0.0000 0.0000
# 2 19.0878 68.3129 46.7786 0.0000 0.0000 0.0000
# 3 43.8943 46.7786 168.0683 0.0000 0.0000 0.0000
# 4 0.0000 0.0000 0.0000 1.8730 0.0000 0.0000
# 5 0.0000 0.0000 0.0000 0.0000 9.5850 0.0000
# 6 0.0000 0.0000 0.0000 0.0000 0.0000 6.5396
#
#
#
# Elastic Compliance Matrix: (Units=1/GPa)
#
#
# Indices 1 2 3 4 5 6 
#
# 1 0.012634 -0.001570 -0.002863 0.000000 0.000000 0.000000
# 2 -0.001570 0.018281 -0.004678 0.000000 0.000000 0.000000
# 3 -0.002863 -0.004678 0.008000 0.000000 0.000000 0.000000
# 4 0.000000 0.000000 0.000000 0.533896 0.000000 0.000000
# 5 0.000000 0.000000 0.000000 0.000000 0.104329 0.000000
# 6 0.000000 0.000000 0.000000 0.000000 0.000000 0.152913
#
#
# Mechanical properties :
#
#
# Convention : Reuss Voigt Hill
#
# Bulk Modulus (GPa) = 48.32502 60.81874 54.57188
# Shear Modulus (GPa) = 5.84677 18.13866 11.99272
#
# Velocity S-wave (km/s) = 1.73202 3.05069 2.48059
# Velocity P-wave (km/s) = 5.36608 6.60411 6.01702
#
# Compressibility (1/GPa) = 0.02069321
#
# Stress axis : x y z
#
# Youngs Moduli (GPa) = 79.14865 54.70297 125.00518
#
# Poissons Ratio (x) = 0.08588 0.35786
# Poissons Ratio (y) = 0.12426 0.58478
# Poissons Ratio (z) = 0.22658 0.25590
#
# Static dielectric constant tensor:
#      x y z
#    x 3.545490 0.000000 0.000000 
#    y 0.000000 3.083870 0.000000 
#    z 0.000000 0.000000 3.724000 
# 
# 
# High freq. dielectric constant tensor:
#      x y z
#    x 1.756030 0.000000 0.000000 
#    y 0.000000 1.691790 0.000000 
#    z 0.000000 0.000000 1.770270 
# 
# From -- ./inp_files/33056.got.cif
#   From: 2010.03.12/outbox.cif.g09.slc.cpg/sg47_17_cif.got.tgz:33056.got - 2010.04.14 03:12:58.
