data_PCOD8196587
_publ_section_title
;
Structure prediction by ZEFSAII (Michael W. Deem and Ramdas Pophale) SiO2 
 PCOD8196587
Probable space group: P M M M
;
_chemical_formula_sum "Si O2"
_cell_formula_units_Z 52
_cell_length_a 22.628059
_cell_length_b 9.510017
_cell_length_c 14.778134
_cell_angle_alpha 90.000000
_cell_angle_beta 90.000000
_cell_angle_gamma 90.000000
_cell_volume 3180.154326
_symmetry_space_group_name_H-M "P M M M"
_symmetry_group_IT_number 47
_symmetry_cell_setting 'orthorhombic'
loop_
_space_group_symop_operation_xyz
x,y,z
-x,-y,z
x,-y,-z
-x,y,-z
-x,-y,-z
x,y,-z
-x,y,z
x,-y,z
loop_
_atom_site_type_symbol
_atom_site_label
_atom_site_fract_x
_atom_site_fract_y
_atom_site_fract_z
Si Si1 0.570203 0.342729 0.099807
Si Si2 0.000000 0.332601 0.397640
Si Si3 0.112646 0.332216 0.713977
Si Si4 0.778387 0.667004 0.600771
Si Si5 0.646603 0.340836 0.393204
Si Si6 0.569880 0.161726 0.734582
Si Si7 0.933125 0.667145 0.901179
O O1 0.500000 0.340591 0.099886
O O2 0.592644 0.500000 0.123359
O O3 0.594513 0.233764 0.173767
O O4 0.593318 0.298277 0.000000
O O5 0.942092 0.276391 0.345720
O O6 0.000000 0.500000 0.398781
O O7 0.000000 0.273620 0.500000
O O8 0.113088 0.500000 0.712948
O O9 0.173312 0.272137 0.671019
O O10 0.106633 0.276100 0.817664
O O11 0.790978 0.727534 0.500000
O O12 0.782564 0.500000 0.595741
O O13 0.712749 0.709280 0.633781
O O14 0.638766 0.333779 0.500000
O O15 0.634916 0.500000 0.359013
O O16 0.599388 0.235928 0.350757
O O17 0.500000 0.180278 0.724833
O O18 0.588660 0.000000 0.737240
O O19 0.933467 0.500000 0.898888
O O20 0.000000 0.721734 0.887583
O O21 0.909003 0.718568 0.000000
#
# Coordination Sequence:
#
# PCOD8196587 Si02
#       7
#     8   4   8   8   8   8   8
#     4   8  14  26  45  68  93 120 147 173 204 249
#     4   9  14  16  21  39  65  87 109 145 196 249
#     4   9  13  18  28  43  63  89 121 159 203 245
#     4   8  14  24  37  51  67  93 132 173 209 252
#     4   9  18  32  47  61  80 112 152 186 220 269
#     4  10  20  31  45  68  94 116 140 178 228 273
#     4   8  12  17  24  36  58  89 125 160 191 231
#
# _framework density 16.351407999999999
#
# number of rings (size 3 to 8) (size 9 to 14) (size 15 to 20)
#    0.000    3.308    0.769    2.769    0.000    3.692 
#    0.000    3.077    0.000    0.923    0.000    4.308 
#    0.000    0.000    0.000    0.692    0.000    8.462 
#
# Total GULP energy -644344.637570 kJ/mol
# GULP energy per Si atom -12391.243030 kJ/mol
# Density = 1.631419 g / cm^3
# Si number density = 16.351408 Si / 1000 Ang^3
#
#
#
# Elastic Constant Matrix: (Units=GPa)
#
#
# Indices 1 2 3 4 5 6 
#
# 1 57.3713 32.6014 48.2494 0.0000 0.0000 0.0000
# 2 32.6014 51.8436 37.0912 0.0000 0.0000 0.0000
# 3 48.2494 37.0912 119.2300 0.0000 0.0000 0.0000
# 4 0.0000 0.0000 0.0000 8.8341 0.0000 0.0000
# 5 0.0000 0.0000 0.0000 0.0000 17.8921 0.0000
# 6 0.0000 0.0000 0.0000 0.0000 0.0000 3.9599
#
#
#
# Elastic Compliance Matrix: (Units=1/GPa)
#
#
# Indices 1 2 3 4 5 6 
#
# 1 0.033148 -0.014468 -0.008913 0.000000 0.000000 0.000000
# 2 -0.014468 0.031125 -0.003828 0.000000 0.000000 0.000000
# 3 -0.008913 -0.003828 0.013185 0.000000 0.000000 0.000000
# 4 0.000000 0.000000 0.000000 0.113197 0.000000 0.000000
# 5 0.000000 0.000000 0.000000 0.000000 0.055890 0.000000
# 6 0.000000 0.000000 0.000000 0.000000 0.000000 0.252529
#
#
# Mechanical properties :
#
#
# Convention : Reuss Voigt Hill
#
# Bulk Modulus (GPa) = 43.40272 51.59210 47.49741
# Shear Modulus (GPa) = 8.90990 13.50411 11.20701
#
# Velocity S-wave (km/s) = 2.33684 2.87691 2.62083
# Velocity P-wave (km/s) = 5.82087 6.53116 6.18622
#
# Compressibility (1/GPa) = 0.02304003
#
# Stress axis : x y z
#
# Youngs Moduli (GPa) = 30.16802 32.12808 75.84369
#
# Poissons Ratio (x) = 0.46482 0.67602
# Poissons Ratio (y) = 0.43646 0.29034
# Poissons Ratio (z) = 0.26890 0.12299
#
# Static dielectric constant tensor:
#      x y z
#    x 3.044230 0.000000 0.000000 
#    y 0.000000 2.587990 0.000000 
#    z 0.000000 0.000000 3.465050 
# 
# 
# High freq. dielectric constant tensor:
#      x y z
#    x 1.604220 0.000000 0.000000 
#    y 0.000000 1.565800 0.000000 
#    z 0.000000 0.000000 1.642430 
# 
# From -- ./inp_files/25420.got.cif
#   From: 2010.03.12/outbox.cif.g09.slc.cpg/sg47_13_cif.got.tgz:25420.got - 2010.04.14 03:12:58.
