data_PCOD8196395
_publ_section_title
;
Structure prediction by ZEFSAII (Michael W. Deem and Ramdas Pophale) SiO2 
 PCOD8196395
Probable space group: P M M M
;
_chemical_formula_sum "Si O2"
_cell_formula_units_Z 52
_cell_length_a 9.140721
_cell_length_b 22.607638
_cell_length_c 15.249861
_cell_angle_alpha 90.000000
_cell_angle_beta 90.000000
_cell_angle_gamma 90.000000
_cell_volume 3151.385475
_symmetry_space_group_name_H-M "P M M M"
_symmetry_group_IT_number 47
_symmetry_cell_setting 'orthorhombic'
loop_
_space_group_symop_operation_xyz
x,y,z
-x,-y,z
x,-y,-z
-x,y,-z
-x,-y,-z
x,y,-z
-x,y,z
x,-y,z
loop_
_atom_site_type_symbol
_atom_site_label
_atom_site_fract_x
_atom_site_fract_y
_atom_site_fract_z
Si Si1 0.164070 0.099614 0.670699
Si Si2 0.837381 0.233223 0.271883
Si Si3 0.672605 0.320022 0.600803
Si Si4 0.669887 0.065861 0.161721
Si Si5 0.336213 0.930336 0.500000
Si Si6 0.836253 0.564754 0.603871
Si Si7 0.830410 0.177303 0.902680
O O1 0.157362 0.168472 0.689240
O O2 0.251832 0.064505 0.744536
O O3 0.249793 0.093135 0.582004
O O4 0.000000 0.073465 0.663241
O O5 0.730128 0.271511 0.331432
O O6 0.780070 0.225656 0.170574
O O7 0.000000 0.261819 0.273693
O O8 0.725447 0.307526 0.500000
O O9 0.500000 0.319879 0.604946
O O10 0.728080 0.383689 0.635613
O O11 0.500000 0.081495 0.174760
O O12 0.741461 0.115864 0.100658
O O13 0.687666 0.000000 0.119877
O O14 0.500000 0.903675 0.500000
O O15 0.342501 0.000000 0.500000
O O16 0.836763 0.562775 0.500000
O O17 0.784561 0.500000 0.639267
O O18 0.000000 0.578369 0.638347
O O19 0.000000 0.161486 0.883998
O O20 0.808659 0.204571 0.000000
#
# Coordination Sequence:
#
# PCOD8196395 Si02
#       7
#     8   8   8   8   4   8   8
#     4  10  21  35  50  67  86 116 157 197 236 278
#     4   9  19  34  50  68  91 120 154 194 236 278
#     4  10  20  30  43  68  99 132 166 197 231 270
#     4  10  20  33  49  70  95 119 144 180 232 291
#     4  11  23  35  47  65  89 117 150 191 240 289
#     4   8  14  26  44  65  91 127 167 201 233 267
#     4   9  19  36  55  73  92 117 152 194 241 290
#
# _framework density 16.500679000000002
#
# number of rings (size 3 to 8) (size 9 to 14) (size 15 to 20)
#    0.000    2.538    0.000    3.462    1.077    8.615 
#    0.000    3.077    0.000    0.000    0.000    0.000 
#    0.000    0.615    0.000    7.077    0.000    2.308 
#
# Total GULP energy -644467.108424 kJ/mol
# GULP energy per Si atom -12393.598239 kJ/mol
# Density = 1.646312 g / cm^3
# Si number density = 16.500679 Si / 1000 Ang^3
#
#
#
# Elastic Constant Matrix: (Units=GPa)
#
#
# Indices 1 2 3 4 5 6 
#
# 1 92.1814 34.2922 40.0270 0.0000 0.0000 0.0000
# 2 34.2922 72.2379 32.9363 0.0000 0.0000 0.0000
# 3 40.0270 32.9363 100.5524 0.0000 0.0000 0.0000
# 4 0.0000 0.0000 0.0000 9.8765 0.0000 0.0000
# 5 0.0000 0.0000 0.0000 0.0000 -15.3487 0.0000
# 6 0.0000 0.0000 0.0000 0.0000 0.0000 22.0600
#
#
#
# Elastic Compliance Matrix: (Units=1/GPa)
#
#
# Indices 1 2 3 4 5 6 
#
# 1 0.014504 -0.004999 -0.004136 0.000000 0.000000 0.000000
# 2 -0.004999 0.017997 -0.003905 0.000000 0.000000 0.000000
# 3 -0.004136 -0.003905 0.012871 0.000000 0.000000 0.000000
# 4 0.000000 0.000000 0.000000 0.101251 0.000000 0.000000
# 5 0.000000 0.000000 0.000000 0.000000 -0.065152 0.000000
# 6 0.000000 0.000000 0.000000 0.000000 0.000000 0.045331
#
#
# Mechanical properties :
#
#
# Convention : Reuss Voigt Hill
#
# Bulk Modulus (GPa) = 51.83817 53.27585 52.55701
# Shear Modulus (GPa) = 31.38508 13.83198 22.60853
#
# Velocity S-wave (km/s) = 4.36598 2.89843 3.70558
# Velocity P-wave (km/s) = 7.54319 6.59987 7.08724
#
# Compressibility (1/GPa) = 0.01929080
#
# Stress axis : x y z
#
# Youngs Moduli (GPa) = 68.94680 55.56554 77.69688
#
# Poissons Ratio (x) = 0.27779 0.32136
# Poissons Ratio (y) = 0.34469 0.30339
# Poissons Ratio (z) = 0.28517 0.21697
#
# Static dielectric constant tensor:
#      x y z
#    x 3.312780 0.000000 0.000000 
#    y 0.000000 3.214700 0.000000 
#    z 0.000000 0.000000 2.862800 
# 
# 
# High freq. dielectric constant tensor:
#      x y z
#    x 1.644740 0.000000 0.000000 
#    y 0.000000 1.615240 0.000000 
#    z 0.000000 0.000000 1.613720 
# 
# From -- ./inp_files/21812.got.cif
#   From: 2010.03.12/outbox.cif.g09.slc.cpg/sg47_11_cif.got.tgz:21812.got - 2010.04.14 03:12:58.
