data_PCOD8196610
_publ_section_title
;
Structure prediction by ZEFSAII (Michael W. Deem and Ramdas Pophale) SiO2 
 PCOD8196610
Probable space group: P M M M
;
_chemical_formula_sum "Si O2"
_cell_formula_units_Z 44
_cell_length_a 28.439273
_cell_length_b 9.103273
_cell_length_c 9.368701
_cell_angle_alpha 90.000000
_cell_angle_beta 90.000000
_cell_angle_gamma 90.000000
_cell_volume 2425.467368
_symmetry_space_group_name_H-M "P M M M"
_symmetry_group_IT_number 47
_symmetry_cell_setting 'orthorhombic'
loop_
_space_group_symop_operation_xyz
x,y,z
-x,-y,z
x,-y,-z
-x,y,-z
-x,-y,-z
x,y,-z
-x,y,z
x,-y,z
loop_
_atom_site_type_symbol
_atom_site_label
_atom_site_fract_x
_atom_site_fract_y
_atom_site_fract_z
Si Si1 0.000000 0.175020 0.338090
Si Si2 0.175721 0.825566 0.658263
Si Si3 0.910820 0.824732 0.160946
Si Si4 0.281107 0.830533 0.666781
Si Si5 0.360975 0.325465 0.161428
Si Si6 0.551923 0.325334 0.660216
O O1 0.045740 0.234274 0.254815
O O2 0.000000 0.236197 0.500000
O O3 0.000000 0.000000 0.340637
O O4 0.164715 0.762807 0.500000
O O5 0.137443 0.763730 0.769622
O O6 0.228129 0.779905 0.706391
O O7 0.172870 0.000000 0.651100
O O8 0.910941 0.000000 0.159098
O O9 0.914977 0.763363 0.000000
O O10 0.290700 0.804973 0.500000
O O11 0.315351 0.730540 0.757705
O O12 0.289073 0.000000 0.707494
O O13 0.360656 0.500000 0.167475
O O14 0.408205 0.261437 0.235228
O O15 0.360230 0.267217 0.000000
O O16 0.562085 0.268213 0.500000
O O17 0.500000 0.271734 0.710284
O O18 0.553310 0.500000 0.661796
#
# Coordination Sequence:
#
# PCOD8196610 Si02
#       6
#     4   8   8   8   8   8
#     4   9  15  21  29  41  61  93 130 167 208 251
#     4   8  14  25  39  54  73  99 134 174 213 255
#     4   9  15  21  30  46  68  94 127 167 209 254
#     4   9  18  32  49  67  87 116 155 193 226 264
#     4  10  20  31  45  69  98 124 149 180 222 269
#     4   8  14  26  45  67  89 115 148 183 218 259
#
# _framework density 18.140833000000001
#
# number of rings (size 3 to 8) (size 9 to 14) (size 15 to 20)
#    0.000    3.182    0.000    3.000    0.000    5.818 
#    0.000    3.636    0.000    0.545    0.000    3.818 
#    0.000    0.000    0.000    0.818    0.000   16.182 
#
# Total GULP energy -545376.287125 kJ/mol
# GULP energy per Si atom -12394.915616 kJ/mol
# Density = 1.809954 g / cm^3
# Si number density = 18.140833 Si / 1000 Ang^3
#
#
#
# Elastic Constant Matrix: (Units=GPa)
#
#
# Indices 1 2 3 4 5 6 
#
# 1 171.5894 11.5265 99.4606 0.0000 0.0000 0.0000
# 2 11.5265 5.3353 10.9412 0.0000 0.0000 0.0000
# 3 99.4606 10.9412 137.4981 0.0000 0.0000 0.0000
# 4 0.0000 0.0000 0.0000 13.9476 0.0000 0.0000
# 5 0.0000 0.0000 0.0000 0.0000 23.6094 0.0000
# 6 0.0000 0.0000 0.0000 0.0000 0.0000 -38.5116
#
#
#
# Elastic Compliance Matrix: (Units=1/GPa)
#
#
# Indices 1 2 3 4 5 6 
#
# 1 0.010339 -0.008365 -0.006813 0.000000 0.000000 0.000000
# 2 -0.008365 0.230750 -0.012311 0.000000 0.000000 0.000000
# 3 -0.006813 -0.012311 0.013181 0.000000 0.000000 0.000000
# 4 0.000000 0.000000 0.000000 0.071697 0.000000 0.000000
# 5 0.000000 0.000000 0.000000 0.000000 0.042356 0.000000
# 6 0.000000 0.000000 0.000000 0.000000 0.000000 -0.025966
#
#
# Mechanical properties :
#
#
# Convention : Reuss Voigt Hill
#
# Bulk Modulus (GPa) = 5.01776 62.03104 33.52440
# Shear Modulus (GPa) = 10.78133 12.64205 11.71169
#
# Velocity S-wave (km/s) = 2.44050 2.64272 2.54362
# Velocity P-wave (km/s) = 3.27313 6.60154 5.21027
#
# Compressibility (1/GPa) = 0.19929199
#
# Stress axis : x y z
#
# Youngs Moduli (GPa) = 96.72125 4.33370 75.86760
#
# Poissons Ratio (x) = 0.03625 0.51690
# Poissons Ratio (y) = 0.80904 0.93400
# Poissons Ratio (z) = 0.65898 0.05335
#
# Static dielectric constant tensor:
#      x y z
#    x 3.681700 0.000000 0.000000 
#    y 0.000000 2.594320 0.000000 
#    z 0.000000 0.000000 3.584390 
# 
# 
# High freq. dielectric constant tensor:
#      x y z
#    x 1.722020 0.000000 0.000000 
#    y 0.000000 1.620210 0.000000 
#    z 0.000000 0.000000 1.707930 
# 
# From -- ./inp_files/13548.got.cif
#   From: 2010.03.12/outbox.cif.g09.slc.cpg/sg47_7_cif.got.tgz:13548.got - 2010.04.14 03:12:58.
