data_PCOD8196607
_publ_section_title
;
Structure prediction by ZEFSAII (Michael W. Deem and Ramdas Pophale) SiO2 
 PCOD8196607
Probable space group: P M M M
;
_chemical_formula_sum "Si O2"
_cell_formula_units_Z 48
_cell_length_a 9.058211
_cell_length_b 9.550135
_cell_length_c 30.818628
_cell_angle_alpha 90.000000
_cell_angle_beta 90.000000
_cell_angle_gamma 90.000000
_cell_volume 2666.031303
_symmetry_space_group_name_H-M "P M M M"
_symmetry_group_IT_number 47
_symmetry_cell_setting 'orthorhombic'
loop_
_space_group_symop_operation_xyz
x,y,z
-x,-y,z
x,-y,-z
-x,y,-z
-x,-y,-z
x,y,-z
-x,y,z
x,-y,z
loop_
_atom_site_type_symbol
_atom_site_label
_atom_site_fract_x
_atom_site_fract_y
_atom_site_fract_z
Si Si1 0.329428 0.159460 0.949781
Si Si2 0.824443 0.842898 0.295064
Si Si3 0.824596 0.341379 0.120335
Si Si4 0.176463 0.342214 0.373475
Si Si5 0.175541 0.157032 0.451867
Si Si6 0.175520 0.156962 0.801147
O O1 0.500000 0.183517 0.938295
O O2 0.230704 0.265431 0.922682
O O3 0.283622 0.000000 0.938935
O O4 0.299675 0.191808 0.000000
O O5 0.760813 0.736024 0.330781
O O6 0.770300 0.797026 0.246949
O O7 0.000000 0.841392 0.296622
O O8 0.768274 0.000000 0.305534
O O9 0.765379 0.500000 0.121018
O O10 0.760441 0.263120 0.162981
O O11 0.000000 0.337552 0.120108
O O12 0.237664 0.500000 0.373474
O O13 0.239172 0.263974 0.416169
O O14 0.000000 0.341024 0.373475
O O15 0.229138 0.203103 0.500000
O O16 0.000000 0.158161 0.450217
O O17 0.232074 0.000000 0.441451
O O18 0.000000 0.158652 0.802340
O O19 0.232435 0.000000 0.811565
#
# Coordination Sequence:
#
# PCOD8196607 Si02
#       6
#     8   8   8   8   8   8
#     4   9  19  36  55  72  90 116 152 189 221 255
#     4   8  13  21  32  44  59  82 112 144 179 223
#     4  10  20  31  45  69  98 123 146 176 217 264
#     4   9  15  19  24  36  52  70  94 128 173 224
#     4   8  13  20  27  32  40  59  89 126 169 217
#     4   8  14  25  40  56  75 102 134 165 198 238
#
# _framework density 18.004290000000001
#
# number of rings (size 3 to 8) (size 9 to 14) (size 15 to 20)
#    0.000    3.333    0.000    3.000    0.000    5.000 
#    0.000    7.500    0.000    0.000    0.000    0.000 
#    0.000    0.000    0.000    0.000    0.000    0.000 
#
# Total GULP energy -594901.761339 kJ/mol
# GULP energy per Si atom -12393.786695 kJ/mol
# Density = 1.796331 g / cm^3
# Si number density = 18.004290 Si / 1000 Ang^3
#
#
#
# Elastic Constant Matrix: (Units=GPa)
#
#
# Indices 1 2 3 4 5 6 
#
# 1 4.7591 12.9481 12.8883 0.0000 0.0000 0.0000
# 2 12.9481 153.0640 102.3154 0.0000 0.0000 0.0000
# 3 12.8883 102.3154 149.5361 0.0000 0.0000 0.0000
# 4 0.0000 0.0000 0.0000 22.0929 0.0000 0.0000
# 5 0.0000 0.0000 0.0000 0.0000 -0.5439 0.0000
# 6 0.0000 0.0000 0.0000 0.0000 0.0000 10.2295
#
#
#
# Elastic Compliance Matrix: (Units=1/GPa)
#
#
# Indices 1 2 3 4 5 6 
#
# 1 0.290448 -0.014441 -0.015152 0.000000 0.000000 0.000000
# 2 -0.014441 0.012758 -0.007484 0.000000 0.000000 0.000000
# 3 -0.015152 -0.007484 0.013114 0.000000 0.000000 0.000000
# 4 0.000000 0.000000 0.000000 0.045263 0.000000 0.000000
# 5 0.000000 0.000000 0.000000 0.000000 -1.838623 0.000000
# 6 0.000000 0.000000 0.000000 0.000000 0.000000 0.097756
#
#
# Mechanical properties :
#
#
# Convention : Reuss Voigt Hill
#
# Bulk Modulus (GPa) = 4.12943 62.62921 33.37932
# Shear Modulus (GPa) = -4.08362 18.30286 7.10962
#
# Velocity S-wave (km/s) = -1.50767 3.19185 1.98933
# Velocity P-wave (km/s) = 0.85568 6.96025 4.88431
#
# Compressibility (1/GPa) = 0.24216440
#
# Stress axis : x y z
#
# Youngs Moduli (GPa) = 3.44295 78.38338 76.25245
#
# Poissons Ratio (x) = 1.13195 1.15541
# Poissons Ratio (y) = 0.04972 0.57071
# Poissons Ratio (z) = 0.05217 0.58666
#
# Static dielectric constant tensor:
#      x y z
#    x 2.521500 0.000000 0.000000 
#    y 0.000000 3.534980 0.000000 
#    z 0.000000 0.000000 3.677100 
# 
# 
# High freq. dielectric constant tensor:
#      x y z
#    x 1.611110 0.000000 0.000000 
#    y 0.000000 1.699070 0.000000 
#    z 0.000000 0.000000 1.715000 
# 
# From -- ./inp_files/2485.got.cif
#   From: 2010.03.12/outbox.cif.g09.slc.cpg/sg47_2_cif.got.tgz:2485.got - 2010.04.14 03:12:58.
