data_PCOD8196279
_publ_section_title
;
Structure prediction by ZEFSAII (Michael W. Deem and Ramdas Pophale) SiO2 
 PCOD8196279
Probable space group: P M M M
;
_chemical_formula_sum "Si O2"
_cell_formula_units_Z 40
_cell_length_a 16.493735
_cell_length_b 8.594953
_cell_length_c 14.709823
_cell_angle_alpha 90.000000
_cell_angle_beta 90.000000
_cell_angle_gamma 90.000000
_cell_volume 2085.306830
_symmetry_space_group_name_H-M "P M M M"
_symmetry_group_IT_number 47
_symmetry_cell_setting 'orthorhombic'
loop_
_space_group_symop_operation_xyz
x,y,z
-x,-y,z
x,-y,-z
-x,y,-z
-x,-y,-z
x,y,-z
-x,y,z
x,-y,z
loop_
_atom_site_type_symbol
_atom_site_label
_atom_site_fract_x
_atom_site_fract_y
_atom_site_fract_z
Si Si1 0.500000 0.316586 0.324696
Si Si2 0.675869 0.317248 0.399146
Si Si3 0.226602 0.178679 0.237511
Si Si4 0.500000 0.182274 0.130607
Si Si5 0.091512 0.185059 0.897683
Si Si6 0.335928 0.675427 0.901335
O O1 0.500000 0.500000 0.300443
O O2 0.582661 0.270313 0.377347
O O3 0.500000 0.208268 0.237746
O O4 0.695308 0.252604 0.500000
O O5 0.683081 0.500000 0.396664
O O6 0.746474 0.256043 0.332014
O O7 0.148723 0.253268 0.183615
O O8 0.299463 0.199565 0.167259
O O9 0.210362 0.000000 0.258932
O O10 0.426501 0.270024 0.083578
O O11 0.500000 0.000000 0.107490
O O12 0.000000 0.238409 0.875633
O O13 0.098901 0.000000 0.897046
O O14 0.115559 0.244007 0.000000
O O15 0.331302 0.500000 0.860165
O O16 0.292405 0.679558 0.000000
#
# Coordination Sequence:
#
# PCOD8196279 Si02
#       6
#     4   8   8   4   8   8
#     4  10  19  35  57  75  99 137 181 225 271 322
#     4  10  21  37  57  78 103 141 185 225 270 325
#     4  11  21  33  54  83 111 136 171 224 276 318
#     4  12  23  34  51  75 103 136 177 227 273 309
#     4   8  15  30  53  81 112 144 176 211 258 318
#     4  11  23  37  52  71 102 146 185 215 258 319
#
# _framework density 19.181827999999999
#
# number of rings (size 3 to 8) (size 9 to 14) (size 15 to 20)
#    0.000    1.800    2.000    3.900    0.000    5.200 
#    0.000    0.000    0.000    4.800    0.000   11.200 
#    0.000    0.000    0.000    0.000    0.000    0.000 
#
# Total GULP energy -495556.706337 kJ/mol
# GULP energy per Si atom -12388.917658 kJ/mol
# Density = 1.913817 g / cm^3
# Si number density = 19.181828 Si / 1000 Ang^3
#
#
#
# Elastic Constant Matrix: (Units=GPa)
#
#
# Indices 1 2 3 4 5 6 
#
# 1 114.8892 10.7818 66.5087 0.0000 0.0000 0.0000
# 2 10.7818 35.2666 22.4197 0.0000 0.0000 0.0000
# 3 66.5087 22.4197 161.7573 0.0000 0.0000 0.0000
# 4 0.0000 0.0000 0.0000 12.5477 0.0000 0.0000
# 5 0.0000 0.0000 0.0000 0.0000 23.9448 0.0000
# 6 0.0000 0.0000 0.0000 0.0000 0.0000 14.4403
#
#
#
# Elastic Compliance Matrix: (Units=1/GPa)
#
#
# Indices 1 2 3 4 5 6 
#
# 1 0.011433 -0.000556 -0.004624 0.000000 0.000000 0.000000
# 2 -0.000556 0.031122 -0.004085 0.000000 0.000000 0.000000
# 3 -0.004624 -0.004085 0.008649 0.000000 0.000000 0.000000
# 4 0.000000 0.000000 0.000000 0.079696 0.000000 0.000000
# 5 0.000000 0.000000 0.000000 0.000000 0.041763 0.000000
# 6 0.000000 0.000000 0.000000 0.000000 0.000000 0.069251
#
#
# Mechanical properties :
#
#
# Convention : Reuss Voigt Hill
#
# Bulk Modulus (GPa) = 30.60418 56.81484 43.70951
# Shear Modulus (GPa) = 18.42742 24.33342 21.38042
#
# Velocity S-wave (km/s) = 3.10283 3.56556 3.34221
# Velocity P-wave (km/s) = 5.36900 6.82893 6.14250
#
# Compressibility (1/GPa) = 0.03267527
#
# Stress axis : x y z
#
# Youngs Moduli (GPa) = 87.46726 32.13131 115.61504
#
# Poissons Ratio (x) = 0.01786 0.53457
# Poissons Ratio (y) = 0.04862 0.47229
# Poissons Ratio (z) = 0.40442 0.13126
#
# Static dielectric constant tensor:
#      x y z
#    x 3.697500 0.000000 0.000000 
#    y 0.000000 3.218190 0.000000 
#    z 0.000000 0.000000 3.737520 
# 
# 
# High freq. dielectric constant tensor:
#      x y z
#    x 1.731910 0.000000 0.000000 
#    y 0.000000 1.721770 0.000000 
#    z 0.000000 0.000000 1.747720 
# 
# From -- ./inp_files/23347.got.cif
#   From: 2010.03.12/outbox.cif.g09.slc.cpg/sg47_12_cif.got.tgz:23347.got - 2010.04.14 03:12:58.
