data_PCOD8196072
_publ_section_title
;
Structure prediction by ZEFSAII (Michael W. Deem and Ramdas Pophale) SiO2 
 PCOD8196072
Probable space group: P M M M
;
_chemical_formula_sum "Si O2"
_cell_formula_units_Z 56
_cell_length_a 9.575989
_cell_length_b 13.937926
_cell_length_c 22.341549
_cell_angle_alpha 90.000000
_cell_angle_beta 90.000000
_cell_angle_gamma 90.000000
_cell_volume 2981.913722
_symmetry_space_group_name_H-M "P M M M"
_symmetry_group_IT_number 47
_symmetry_cell_setting 'orthorhombic'
loop_
_space_group_symop_operation_xyz
x,y,z
-x,-y,z
x,-y,-z
-x,y,-z
-x,-y,-z
x,y,-z
-x,y,z
x,-y,z
loop_
_atom_site_type_symbol
_atom_site_label
_atom_site_fract_x
_atom_site_fract_y
_atom_site_fract_z
Si Si1 0.228085 0.109126 0.636879
Si Si2 0.157555 0.387871 0.730698
Si Si3 0.500000 0.111782 0.565747
Si Si4 0.659667 0.893945 0.233973
Si Si5 0.839877 0.610339 0.930318
Si Si6 0.335595 0.295409 0.832071
Si Si7 0.334688 0.387124 0.500000
Si Si8 0.847284 0.304933 0.394973
O O1 0.369299 0.141231 0.604857
O O2 0.242177 0.119510 0.708395
O O3 0.125416 0.189632 0.610573
O O4 0.180677 0.000000 0.620585
O O5 0.161236 0.500000 0.721040
O O6 0.267105 0.361231 0.781629
O O7 0.207713 0.340594 0.669070
O O8 0.000000 0.354161 0.747914
O O9 0.500000 0.163062 0.500000
O O10 0.500000 0.000000 0.554471
O O11 0.500000 0.883050 0.255846
O O12 0.694889 0.816060 0.183196
O O13 0.684505 0.000000 0.206286
O O14 0.806154 0.500000 0.913950
O O15 0.736159 0.680689 0.895177
O O16 0.000000 0.633116 0.912971
O O17 0.814558 0.629030 0.000000
O O18 0.500000 0.317322 0.835928
O O19 0.300748 0.500000 0.500000
O O20 0.500000 0.368510 0.500000
O O21 0.267206 0.337112 0.557533
O O22 0.000000 0.349140 0.410998
#
# Coordination Sequence:
#
# PCOD8196072 Si02
#       8
#     8   8   4   8   8   8   4   8
#     4  10  19  33  55  81 114 149 185 231 282 333
#     4  10  21  37  55  76 108 149 187 223 271 337
#     4   9  18  30  50  80 106 140 187 232 279 333
#     4   9  17  32  52  77 112 153 190 227 278 336
#     4   9  19  37  59  81 111 154 194 225 270 339
#     4  11  21  32  54  87 116 144 183 236 282 320
#     4  11  27  47  66  85 104 136 188 244 288 337
#     4  11  24  40  60  84 112 149 185 226 285 345
#
# _framework density 18.779886000000001
#
# number of rings (size 3 to 8) (size 9 to 14) (size 15 to 20)
#    0.000    2.000    2.143    1.929    2.000    4.571 
#    0.000    0.714    0.000    3.000    0.000    3.000 
#    0.000    0.000    0.000    0.000    0.000    0.000 
#
# Total GULP energy -694142.843558 kJ/mol
# GULP energy per Si atom -12395.407921 kJ/mol
# Density = 1.873714 g / cm^3
# Si number density = 18.779886 Si / 1000 Ang^3
#
#
#
# Elastic Constant Matrix: (Units=GPa)
#
#
# Indices 1 2 3 4 5 6 
#
# 1 90.8045 39.0237 51.2251 0.0000 0.0000 0.0000
# 2 39.0237 115.2111 48.5982 0.0000 0.0000 0.0000
# 3 51.2251 48.5982 100.9766 0.0000 0.0000 0.0000
# 4 0.0000 0.0000 0.0000 30.2992 0.0000 0.0000
# 5 0.0000 0.0000 0.0000 0.0000 -42.0019 0.0000
# 6 0.0000 0.0000 0.0000 0.0000 0.0000 22.4057
#
#
#
# Elastic Compliance Matrix: (Units=1/GPa)
#
#
# Indices 1 2 3 4 5 6 
#
# 1 0.015982 -0.002501 -0.006904 0.000000 0.000000 0.000000
# 2 -0.002501 0.011282 -0.004161 0.000000 0.000000 0.000000
# 3 -0.006904 -0.004161 0.015408 0.000000 0.000000 0.000000
# 4 0.000000 0.000000 0.000000 0.033004 0.000000 0.000000
# 5 0.000000 0.000000 0.000000 0.000000 -0.023808 0.000000
# 6 0.000000 0.000000 0.000000 0.000000 0.000000 0.044631
#
#
# Mechanical properties :
#
#
# Convention : Reuss Voigt Hill
#
# Bulk Modulus (GPa) = 64.34898 64.96513 64.65706
# Shear Modulus (GPa) = 38.81616 13.35028 26.08322
#
# Velocity S-wave (km/s) = 4.55125 2.66913 3.73083
# Velocity P-wave (km/s) = 7.87132 6.64583 7.28439
#
# Compressibility (1/GPa) = 0.01554026
#
# Stress axis : x y z
#
# Youngs Moduli (GPa) = 62.56928 88.63587 64.90022
#
# Poissons Ratio (x) = 0.22170 0.44807
# Poissons Ratio (y) = 0.15650 0.27005
# Poissons Ratio (z) = 0.43198 0.36882
#
# Static dielectric constant tensor:
#      x y z
#    x 3.556900 0.000000 0.000000 
#    y 0.000000 3.592470 0.000000 
#    z 0.000000 0.000000 3.331850 
# 
# 
# High freq. dielectric constant tensor:
#      x y z
#    x 1.724780 0.000000 0.000000 
#    y 0.000000 1.734370 0.000000 
#    z 0.000000 0.000000 1.713280 
# 
# From -- ./inp_files/29769.got.cif
#   From: 2010.03.12/outbox.cif.g09.slc.cpg/sg47_15_cif.got.tgz:29769.got - 2010.04.14 03:12:58.
