data_PCOD8196773
_publ_section_title
;
Structure prediction by ZEFSAII (Michael W. Deem and Ramdas Pophale) SiO2 
 PCOD8196773
Probable space group: P M M M
;
_chemical_formula_sum "Si O2"
_cell_formula_units_Z 52
_cell_length_a 23.526582
_cell_length_b 14.038682
_cell_length_c 9.016119
_cell_angle_alpha 90.000000
_cell_angle_beta 90.000000
_cell_angle_gamma 90.000000
_cell_volume 2977.863648
_symmetry_space_group_name_H-M "P M M M"
_symmetry_group_IT_number 47
_symmetry_cell_setting 'orthorhombic'
loop_
_space_group_symop_operation_xyz
x,y,z
-x,-y,z
x,-y,-z
-x,y,-z
-x,-y,-z
x,y,-z
-x,y,z
x,-y,z
loop_
_atom_site_type_symbol
_atom_site_label
_atom_site_fract_x
_atom_site_fract_y
_atom_site_fract_z
Si Si1 0.566920 0.000000 0.836942
Si Si2 0.843758 0.266723 0.674613
Si Si3 0.242879 0.607335 0.165901
Si Si4 0.772218 0.889192 0.824498
Si Si5 0.436119 0.188402 0.674317
Si Si6 0.934055 0.607863 0.826976
Si Si7 0.332428 0.760197 0.165377
O O1 0.586568 0.090868 0.745575
O O2 0.500000 0.000000 0.852789
O O3 0.595656 0.000000 0.000000
O O4 0.848779 0.251357 0.500000
O O5 0.797265 0.346048 0.712458
O O6 0.825120 0.165686 0.747561
O O7 0.902919 0.308292 0.736540
O O8 0.253488 0.500000 0.213693
O O9 0.303509 0.657679 0.165431
O O10 0.215531 0.615543 0.000000
O O11 0.712383 0.840431 0.775897
O O12 0.772354 0.000000 0.776222
O O13 0.779960 0.877116 0.000000
O O14 0.436054 0.178109 0.500000
O O15 0.500000 0.216326 0.728647
O O16 0.387454 0.259397 0.730424
O O17 0.912870 0.500000 0.785406
O O18 0.000000 0.616701 0.787082
O O19 0.923386 0.625476 0.000000
O O20 0.352989 0.788231 0.000000
#
# Coordination Sequence:
#
# PCOD8196773 Si02
#       7
#     4   8   8   8   8   8   8
#     4   9  17  29  45  63  83 113 153 191 226 269
#     4  11  21  31  48  77 109 137 165 200 248 300
#     4   9  18  34  54  73  96 128 165 205 246 290
#     4   9  19  36  55  73  96 130 170 210 248 289
#     4  10  20  32  45  65  95 127 157 191 238 297
#     4   9  18  33  53  76 103 138 177 212 247 290
#     4   9  18  31  50  75  96 120 159 204 248 290
#
# _framework density 17.462184000000001
#
# number of rings (size 3 to 8) (size 9 to 14) (size 15 to 20)
#    0.000    2.538    0.000    3.923    1.077    7.385 
#    0.000    0.769    0.000    0.923    0.000    6.462 
#    0.000    0.000    0.000    0.000    0.000    0.000 
#
# Total GULP energy -644455.699482 kJ/mol
# GULP energy per Si atom -12393.378836 kJ/mol
# Density = 1.742244 g / cm^3
# Si number density = 17.462184 Si / 1000 Ang^3
#
#
#
# Elastic Constant Matrix: (Units=GPa)
#
#
# Indices 1 2 3 4 5 6 
#
# 1 89.3852 38.6857 41.1180 0.0000 0.0000 0.0000
# 2 38.6857 109.6012 28.5819 0.0000 0.0000 0.0000
# 3 41.1180 28.5819 74.9938 0.0000 0.0000 0.0000
# 4 0.0000 0.0000 0.0000 17.9808 0.0000 0.0000
# 5 0.0000 0.0000 0.0000 0.0000 22.3448 0.0000
# 6 0.0000 0.0000 0.0000 0.0000 0.0000 18.9588
#
#
#
# Elastic Compliance Matrix: (Units=1/GPa)
#
#
# Indices 1 2 3 4 5 6 
#
# 1 0.016267 -0.003793 -0.007473 0.000000 0.000000 0.000000
# 2 -0.003793 0.011015 -0.002119 0.000000 0.000000 0.000000
# 3 -0.007473 -0.002119 0.018239 0.000000 0.000000 0.000000
# 4 0.000000 0.000000 0.000000 0.055615 0.000000 0.000000
# 5 0.000000 0.000000 0.000000 0.000000 0.044753 0.000000
# 6 0.000000 0.000000 0.000000 0.000000 0.000000 0.052746
#
#
# Mechanical properties :
#
#
# Convention : Reuss Voigt Hill
#
# Bulk Modulus (GPa) = 53.32775 54.52794 53.92785
# Shear Modulus (GPa) = 21.58376 22.89652 22.24014
#
# Velocity S-wave (km/s) = 3.51953 3.62499 3.57265
# Velocity P-wave (km/s) = 6.86451 6.98676 6.92590
#
# Compressibility (1/GPa) = 0.01875196
#
# Stress axis : x y z
#
# Youngs Moduli (GPa) = 61.47467 90.78353 54.82620
#
# Poissons Ratio (x) = 0.34432 0.40974
# Poissons Ratio (y) = 0.23316 0.11616
# Poissons Ratio (z) = 0.45942 0.19234
#
# Static dielectric constant tensor:
#      x y z
#    x 3.232260 0.000000 0.000000 
#    y 0.000000 3.262330 0.000000 
#    z 0.000000 0.000000 3.158830 
# 
# 
# High freq. dielectric constant tensor:
#      x y z
#    x 1.668090 0.000000 0.000000 
#    y 0.000000 1.657840 0.000000 
#    z 0.000000 0.000000 1.667510 
# 
# From -- ./inp_files/12495.got.cif
#   From: 2010.03.12/outbox.cif.g09.slc.cpg/sg47_7_cif.got.tgz:12495.got - 2010.04.14 03:12:58.
