data_PCOD8196394
_publ_section_title
;
Structure prediction by ZEFSAII (Michael W. Deem and Ramdas Pophale) SiO2 
 PCOD8196394
Probable space group: P M M M
;
_chemical_formula_sum "Si O2"
_cell_formula_units_Z 56
_cell_length_a 15.212719
_cell_length_b 9.426593
_cell_length_c 20.373953
_cell_angle_alpha 90.000000
_cell_angle_beta 90.000000
_cell_angle_gamma 90.000000
_cell_volume 2921.708606
_symmetry_space_group_name_H-M "P M M M"
_symmetry_group_IT_number 47
_symmetry_cell_setting 'orthorhombic'
loop_
_space_group_symop_operation_xyz
x,y,z
-x,-y,z
x,-y,-z
-x,y,-z
-x,-y,-z
x,y,-z
-x,y,z
x,-y,z
loop_
_atom_site_type_symbol
_atom_site_label
_atom_site_fract_x
_atom_site_fract_y
_atom_site_fract_z
Si Si1 0.262587 0.836281 0.926706
Si Si2 0.257244 0.664161 0.572231
Si Si3 0.598782 0.164007 0.819735
Si Si4 0.097470 0.163186 0.383112
Si Si5 0.902107 0.664307 0.113011
Si Si6 0.668792 0.341023 0.293250
Si Si7 0.131858 0.340903 0.260105
O O1 0.333801 0.775438 0.874593
O O2 0.170096 0.755496 0.924544
O O3 0.243621 0.000000 0.911184
O O4 0.301762 0.817567 0.000000
O O5 0.300989 0.683537 0.500000
O O6 0.232286 0.500000 0.585589
O O7 0.167082 0.752589 0.572649
O O8 0.323350 0.712978 0.630523
O O9 0.500000 0.187117 0.846420
O O10 0.606212 0.241240 0.749390
O O11 0.618391 0.000000 0.806614
O O12 0.092611 0.228983 0.310682
O O13 0.000000 0.174224 0.414783
O O14 0.127632 0.000000 0.378232
O O15 0.877486 0.500000 0.103307
O O16 0.902495 0.704945 0.189406
O O17 0.000000 0.695927 0.084909
O O18 0.629811 0.500000 0.291954
O O19 0.763296 0.335041 0.259511
O O20 0.099675 0.500000 0.277987
#
# Coordination Sequence:
#
# PCOD8196394 Si02
#       7
#     8   8   8   8   8   8   8
#     4  10  22  39  57  79 111 149 185 225 273 323
#     4   9  19  35  53  73 100 139 183 222 266 322
#     4  10  21  37  59  86 112 140 177 221 272 332
#     4  10  20  30  42  67 103 139 178 227 277 322
#     4  10  20  34  54  79 108 145 188 231 274 321
#     4   9  17  32  56  82 106 134 172 221 271 318
#     4   9  17  31  51  73 100 137 181 226 271 320
#
# _framework density 19.166868000000001
#
# number of rings (size 3 to 8) (size 9 to 14) (size 15 to 20)
#    0.000    2.429    1.429    1.714    0.000    6.571 
#    0.000    4.286    0.000    0.429    0.000    5.000 
#    0.000    0.000    0.000    0.000    0.000    0.000 
#
# Total GULP energy -694175.595241 kJ/mol
# GULP energy per Si atom -12395.992772 kJ/mol
# Density = 1.912324 g / cm^3
# Si number density = 19.166868 Si / 1000 Ang^3
#
#
#
# Elastic Constant Matrix: (Units=GPa)
#
#
# Indices 1 2 3 4 5 6 
#
# 1 76.3206 29.5536 41.9163 0.0000 0.0000 0.0000
# 2 29.5536 65.3192 39.8776 0.0000 0.0000 0.0000
# 3 41.9163 39.8776 116.1678 0.0000 0.0000 0.0000
# 4 0.0000 0.0000 0.0000 23.6717 0.0000 0.0000
# 5 0.0000 0.0000 0.0000 0.0000 -5.9893 0.0000
# 6 0.0000 0.0000 0.0000 0.0000 0.0000 21.3460
#
#
#
# Elastic Compliance Matrix: (Units=1/GPa)
#
#
# Indices 1 2 3 4 5 6 
#
# 1 0.017624 -0.005176 -0.004582 0.000000 0.000000 0.000000
# 2 -0.005176 0.020889 -0.005303 0.000000 0.000000 0.000000
# 3 -0.004582 -0.005303 0.012082 0.000000 0.000000 0.000000
# 4 0.000000 0.000000 0.000000 0.042244 0.000000 0.000000
# 5 0.000000 0.000000 0.000000 0.000000 -0.166965 0.000000
# 6 0.000000 0.000000 0.000000 0.000000 0.000000 0.046847
#
#
# Mechanical properties :
#
#
# Convention : Reuss Voigt Hill
#
# Bulk Modulus (GPa) = 48.84797 53.38917 51.11857
# Shear Modulus (GPa) = 517.16616 17.56969 267.36793
#
# Velocity S-wave (km/s) = 16.44411 3.03094 11.82361
# Velocity P-wave (km/s) = 19.64907 6.33752 14.59880
#
# Compressibility (1/GPa) = 0.02047168
#
# Stress axis : x y z
#
# Youngs Moduli (GPa) = 56.74197 47.87221 82.76821
#
# Poissons Ratio (x) = 0.24781 0.37925
# Poissons Ratio (y) = 0.29372 0.43891
# Poissons Ratio (z) = 0.26000 0.25386
#
# Static dielectric constant tensor:
#      x y z
#    x 3.304290 0.000000 0.000000 
#    y 0.000000 3.434690 0.000000 
#    z 0.000000 0.000000 3.534760 
# 
# 
# High freq. dielectric constant tensor:
#      x y z
#    x 1.722350 0.000000 0.000000 
#    y 0.000000 1.736090 0.000000 
#    z 0.000000 0.000000 1.746240 
# 
# From -- ./inp_files/7263.got.cif
#   From: 2010.03.12/outbox.cif.g09.slc.cpg/sg47_4_cif.got.tgz:7263.got - 2010.04.14 03:12:58.
