data_PCOD8196377
_publ_section_title
;
Structure prediction by ZEFSAII (Michael W. Deem and Ramdas Pophale) SiO2 
 PCOD8196377
Probable space group: P M M M
;
_chemical_formula_sum "Si O2"
_cell_formula_units_Z 64
_cell_length_a 9.249712
_cell_length_b 15.115255
_cell_length_c 30.127944
_cell_angle_alpha 90.000000
_cell_angle_beta 90.000000
_cell_angle_gamma 90.000000
_cell_volume 4212.240742
_symmetry_space_group_name_H-M "P M M M"
_symmetry_group_IT_number 47
_symmetry_cell_setting 'orthorhombic'
loop_
_space_group_symop_operation_xyz
x,y,z
-x,-y,z
x,-y,-z
-x,y,-z
-x,-y,-z
x,y,-z
-x,y,z
x,-y,z
loop_
_atom_site_type_symbol
_atom_site_label
_atom_site_fract_x
_atom_site_fract_y
_atom_site_fract_z
Si Si1 0.668572 0.402418 0.798427
Si Si2 0.162425 0.217251 0.699298
Si Si3 0.836708 0.405817 0.290353
Si Si4 0.162870 0.894882 0.548658
Si Si5 0.837826 0.894971 0.048913
Si Si6 0.332506 0.896845 0.367058
Si Si7 0.333165 0.895388 0.133449
Si Si8 0.832165 0.767903 0.195810
O O1 0.500000 0.377576 0.800362
O O2 0.695553 0.500000 0.820471
O O3 0.717627 0.407948 0.747656
O O4 0.760054 0.323986 0.821745
O O5 0.187627 0.317607 0.680027
O O6 0.272033 0.150782 0.676347
O O7 0.192233 0.219973 0.751749
O O8 0.000000 0.184375 0.689197
O O9 0.825108 0.500000 0.317086
O O10 0.000000 0.397324 0.269583
O O11 0.216455 0.861344 0.500000
O O12 0.262196 0.857060 0.588030
O O13 0.000000 0.861876 0.557159
O O14 0.169058 0.000000 0.549109
O O15 0.727924 0.859968 0.086287
O O16 0.000000 0.861245 0.059757
O O17 0.836391 0.000000 0.048603
O O18 0.789714 0.860328 0.000000
O O19 0.500000 0.877116 0.370375
O O20 0.297863 0.000000 0.361746
O O21 0.500000 0.868190 0.136392
O O22 0.244987 0.850620 0.172984
O O23 0.311434 0.000000 0.138444
O O24 0.000000 0.767137 0.182915
#
# Coordination Sequence:
#
# PCOD8196377 Si02
#       8
#     8   8   8   8   8   8   8   8
#     4   9  16  26  42  63  84 105 131 168 215 260
#     4   9  18  30  43  59  79 108 143 175 206 240
#     4   8  14  26  43  61  80 102 131 168 210 253
#     4   8  14  26  44  62  78  99 129 166 207 247
#     4   8  14  26  44  63  82 106 137 173 212 253
#     4  10  20  30  40  57  82 112 142 172 205 239
#     4  10  20  31  43  61  86 115 145 179 217 254
#     4  10  20  32  45  60  81 113 150 183 212 246
#
# _framework density 15.193813
#
# number of rings (size 3 to 8) (size 9 to 14) (size 15 to 20)
#    0.000    3.000    0.000    3.000    0.000    5.750 
#    0.000    5.000    0.000    0.000    0.000    0.000 
#    0.000    1.000    0.000   11.000    0.000    4.625 
#
# Total GULP energy -792913.065103 kJ/mol
# GULP energy per Si atom -12389.266642 kJ/mol
# Density = 1.515923 g / cm^3
# Si number density = 15.193813 Si / 1000 Ang^3
#
#
#
# Elastic Constant Matrix: (Units=GPa)
#
#
# Indices 1 2 3 4 5 6 
#
# 1 99.6039 50.8685 45.2531 0.0000 0.0000 0.0000
# 2 50.8685 56.4282 36.3464 0.0000 0.0000 0.0000
# 3 45.2531 36.3464 64.4787 0.0000 0.0000 0.0000
# 4 0.0000 0.0000 0.0000 1.1712 0.0000 0.0000
# 5 0.0000 0.0000 0.0000 0.0000 21.0248 0.0000
# 6 0.0000 0.0000 0.0000 0.0000 0.0000 22.0533
#
#
#
# Elastic Compliance Matrix: (Units=1/GPa)
#
#
# Indices 1 2 3 4 5 6 
#
# 1 0.020020 -0.014126 -0.006088 0.000000 0.000000 0.000000
# 2 -0.014126 0.037792 -0.011389 0.000000 0.000000 0.000000
# 3 -0.006088 -0.011389 0.026201 0.000000 0.000000 0.000000
# 4 0.000000 0.000000 0.000000 0.853836 0.000000 0.000000
# 5 0.000000 0.000000 0.000000 0.000000 0.047563 0.000000
# 6 0.000000 0.000000 0.000000 0.000000 0.000000 0.045345
#
#
# Mechanical properties :
#
#
# Convention : Reuss Voigt Hill
#
# Bulk Modulus (GPa) = 48.05951 53.93853 50.99902
# Shear Modulus (GPa) = 4.54174 14.71937 9.63056
#
# Velocity S-wave (km/s) = 1.73081 3.11589 2.52036
# Velocity P-wave (km/s) = 5.97444 6.96580 6.48908
#
# Compressibility (1/GPa) = 0.02080754
#
# Stress axis : x y z
#
# Youngs Moduli (GPa) = 49.94993 26.46064 38.16586
#
# Poissons Ratio (x) = 0.37379 0.23234
# Poissons Ratio (y) = 0.70561 0.43467
# Poissons Ratio (z) = 0.30408 0.30136
#
# Static dielectric constant tensor:
#      x y z
#    x 3.031190 0.000000 0.000000 
#    y 0.000000 2.978340 0.000000 
#    z 0.000000 0.000000 2.844690 
# 
# 
# High freq. dielectric constant tensor:
#      x y z
#    x 1.593610 0.000000 0.000000 
#    y 0.000000 1.559940 0.000000 
#    z 0.000000 0.000000 1.547610 
# 
# From -- ./inp_files/34403.got.cif
#   From: 2010.03.12/outbox.cif.g09.slc.cpg/sg47_18_cif.got.tgz:34403.got - 2010.04.14 03:12:58.
