data_PCOD8196614
_publ_section_title
;
Structure prediction by ZEFSAII (Michael W. Deem and Ramdas Pophale) SiO2 
 PCOD8196614
Probable space group: P M M M
;
_chemical_formula_sum "Si O2"
_cell_formula_units_Z 44
_cell_length_a 9.420641
_cell_length_b 9.293854
_cell_length_c 28.423543
_cell_angle_alpha 90.000000
_cell_angle_beta 90.000000
_cell_angle_gamma 90.000000
_cell_volume 2488.596647
_symmetry_space_group_name_H-M "P M M M"
_symmetry_group_IT_number 47
_symmetry_cell_setting 'orthorhombic'
loop_
_space_group_symop_operation_xyz
x,y,z
-x,-y,z
x,-y,-z
-x,y,-z
-x,-y,-z
x,y,-z
-x,y,z
x,-y,z
loop_
_atom_site_type_symbol
_atom_site_label
_atom_site_fract_x
_atom_site_fract_y
_atom_site_fract_z
Si Si1 0.840733 0.170944 0.051915
Si Si2 0.830605 0.838167 0.410269
Si Si3 0.336601 0.170148 0.139449
Si Si4 0.837047 0.330886 0.782405
Si Si5 0.169153 0.337241 0.500000
Si Si6 0.168345 0.659253 0.676942
O O1 0.734786 0.230751 0.091598
O O2 0.000000 0.225589 0.063163
O O3 0.837986 0.000000 0.052066
O O4 0.793477 0.226368 0.000000
O O5 0.773221 0.745166 0.454021
O O6 0.771130 0.769240 0.361897
O O7 0.000000 0.839239 0.410262
O O8 0.771304 0.000000 0.414453
O O9 0.500000 0.215219 0.138014
O O10 0.264296 0.242479 0.183918
O O11 0.316449 0.000000 0.143869
O O12 0.817406 0.500000 0.790978
O O13 0.790174 0.289495 0.729327
O O14 0.000000 0.285872 0.791581
O O15 0.228229 0.500000 0.500000
O O16 0.000000 0.338648 0.500000
O O17 0.230839 0.500000 0.666970
O O18 0.000000 0.650657 0.673294
#
# Coordination Sequence:
#
# PCOD8196614 Si02
#       6
#     8   8   8   8   4   8
#     4   8  14  26  45  68  93 122 156 192 229 270
#     4   9  15  21  30  47  71  98 132 175 220 265
#     4  10  20  31  45  69  98 125 153 187 230 279
#     4   9  18  32  49  67  87 116 155 195 234 278
#     4   9  15  21  29  41  63 101 142 175 212 261
#     4   8  14  25  39  54  73  99 135 178 221 267
#
# _framework density 17.680647
#
# number of rings (size 3 to 8) (size 9 to 14) (size 15 to 20)
#    0.000    3.182    0.000    3.000    0.000    5.818 
#    0.000    3.636    0.000    0.545    0.000    3.818 
#    0.000    0.000    0.000    0.818    0.000   16.182 
#
# Total GULP energy -545377.259169 kJ/mol
# GULP energy per Si atom -12394.937708 kJ/mol
# Density = 1.764040 g / cm^3
# Si number density = 17.680647 Si / 1000 Ang^3
#
#
#
# Elastic Constant Matrix: (Units=GPa)
#
#
# Indices 1 2 3 4 5 6 
#
# 1 62.5556 32.8627 61.2755 0.0000 0.0000 0.0000
# 2 32.8627 84.8261 73.2960 0.0000 0.0000 0.0000
# 3 61.2755 73.2960 179.0827 0.0000 0.0000 0.0000
# 4 0.0000 0.0000 0.0000 16.7946 0.0000 0.0000
# 5 0.0000 0.0000 0.0000 0.0000 1.2617 0.0000
# 6 0.0000 0.0000 0.0000 0.0000 0.0000 13.1419
#
#
#
# Elastic Compliance Matrix: (Units=1/GPa)
#
#
# Indices 1 2 3 4 5 6 
#
# 1 0.024701 -0.003507 -0.007016 0.000000 0.000000 0.000000
# 2 -0.003507 0.018737 -0.006469 0.000000 0.000000 0.000000
# 3 -0.007016 -0.006469 0.010632 0.000000 0.000000 0.000000
# 4 0.000000 0.000000 0.000000 0.059543 0.000000 0.000000
# 5 0.000000 0.000000 0.000000 0.000000 0.792575 0.000000
# 6 0.000000 0.000000 0.000000 0.000000 0.000000 0.076093
#
#
# Mechanical properties :
#
#
# Convention : Reuss Voigt Hill
#
# Bulk Modulus (GPa) = 49.78567 73.48143 61.63355
# Shear Modulus (GPa) = 4.88777 16.84164 10.86471
#
# Velocity S-wave (km/s) = 1.66447 3.08968 2.48159
# Velocity P-wave (km/s) = 5.64919 7.37420 6.56857
#
# Compressibility (1/GPa) = 0.02008610
#
# Stress axis : x y z
#
# Youngs Moduli (GPa) = 40.48442 53.37038 94.05187
#
# Poissons Ratio (x) = 0.18715 0.65991
# Poissons Ratio (y) = 0.14197 0.60841
# Poissons Ratio (z) = 0.28406 0.34525
#
# Static dielectric constant tensor:
#      x y z
#    x 2.814260 0.000000 0.000000 
#    y 0.000000 3.192590 0.000000 
#    z 0.000000 0.000000 3.636650 
# 
# 
# High freq. dielectric constant tensor:
#      x y z
#    x 1.623900 0.000000 0.000000 
#    y 0.000000 1.665220 0.000000 
#    z 0.000000 0.000000 1.703620 
# 
# From -- ./inp_files/33935.got.cif
#   From: 2010.03.12/outbox.cif.g09.slc.cpg/sg47_17_cif.got.tgz:33935.got - 2010.04.14 03:12:58.
