data_PCOD8196485
_publ_section_title
;
Structure prediction by ZEFSAII (Michael W. Deem and Ramdas Pophale) SiO2 
 PCOD8196485
Probable space group: P M M M
;
_chemical_formula_sum "Si O2"
_cell_formula_units_Z 56
_cell_length_a 9.181004
_cell_length_b 15.015898
_cell_length_c 31.017117
_cell_angle_alpha 90.000000
_cell_angle_beta 90.000000
_cell_angle_gamma 90.000000
_cell_volume 4276.051375
_symmetry_space_group_name_H-M "P M M M"
_symmetry_group_IT_number 47
_symmetry_cell_setting 'orthorhombic'
loop_
_space_group_symop_operation_xyz
x,y,z
-x,-y,z
x,-y,-z
-x,y,-z
-x,-y,-z
x,y,-z
-x,y,z
x,-y,z
loop_
_atom_site_type_symbol
_atom_site_label
_atom_site_fract_x
_atom_site_fract_y
_atom_site_fract_z
Si Si1 0.826911 0.400193 0.454353
Si Si2 0.336469 0.901899 0.948793
Si Si3 0.835650 0.606627 0.637914
Si Si4 0.335824 0.393753 0.279805
Si Si5 0.164520 0.605964 0.196888
Si Si6 0.166865 0.731675 0.051068
Si Si7 0.330748 0.395461 0.112004
O O1 0.778920 0.351990 0.500000
O O2 0.764231 0.500000 0.456313
O O3 0.776070 0.355961 0.408787
O O4 0.000000 0.403992 0.452008
O O5 0.500000 0.881117 0.932318
O O6 0.227289 0.826340 0.931380
O O7 0.286710 0.000000 0.932203
O O8 0.334855 0.901721 0.000000
O O9 0.833106 0.500000 0.636386
O O10 0.733423 0.643458 0.675921
O O11 0.000000 0.639701 0.647076
O O12 0.500000 0.357751 0.276075
O O13 0.333235 0.500000 0.279717
O O14 0.243708 0.356497 0.239506
O O15 0.163875 0.500000 0.198173
O O16 0.252313 0.639580 0.155204
O O17 0.000000 0.643214 0.195244
O O18 0.259811 0.651850 0.070987
O O19 0.000000 0.723134 0.065589
O O20 0.184134 0.724249 0.000000
O O21 0.500000 0.371084 0.115318
O O22 0.306632 0.500000 0.105594
#
# Coordination Sequence:
#
# PCOD8196485 Si02
#       7
#     8   8   8   8   8   8   8
#     4   7   9  13  21  32  44  58  78 104 132 164
#     4   8  14  26  44  63  81 100 120 142 169 200
#     4   8  12  17  25  36  48  62  82 108 138 172
#     4   9  15  21  29  41  56  71  88 113 146 183
#     4   9  16  26  39  51  62  77  99 128 161 195
#     4  10  20  31  43  60  80 100 121 145 171 199
#     4  10  20  32  44  56  71  93 120 147 174 205
#
# _framework density 13.096194000000001
#
# number of rings (size 3 to 8) (size 9 to 14) (size 15 to 20)
#    0.000    3.286    0.000    3.429    0.000    5.714 
#    0.000    2.857    0.000    0.429    0.000    3.000 
#    0.000    0.000    0.000    0.000    0.000    0.000 
#
# Total GULP energy -693737.125664 kJ/mol
# GULP energy per Si atom -12388.162958 kJ/mol
# Density = 1.306639 g / cm^3
# Si number density = 13.096194 Si / 1000 Ang^3
#
#
#
# Elastic Constant Matrix: (Units=GPa)
#
#
# Indices 1 2 3 4 5 6 
#
# 1 97.2118 25.8964 47.4061 0.0000 0.0000 0.0000
# 2 25.8964 25.5026 23.2651 0.0000 0.0000 0.0000
# 3 47.4061 23.2651 75.9954 0.0000 0.0000 0.0000
# 4 0.0000 0.0000 0.0000 0.4037 0.0000 0.0000
# 5 0.0000 0.0000 0.0000 0.0000 14.1768 0.0000
# 6 0.0000 0.0000 0.0000 0.0000 0.0000 11.8026
#
#
#
# Elastic Compliance Matrix: (Units=1/GPa)
#
#
# Indices 1 2 3 4 5 6 
#
# 1 0.016505 -0.010222 -0.007166 0.000000 0.000000 0.000000
# 2 -0.010222 0.060737 -0.012217 0.000000 0.000000 0.000000
# 3 -0.007166 -0.012217 0.021369 0.000000 0.000000 0.000000
# 4 0.000000 0.000000 0.000000 2.477105 0.000000 0.000000
# 5 0.000000 0.000000 0.000000 0.000000 0.070538 0.000000
# 6 0.000000 0.000000 0.000000 0.000000 0.000000 0.084727
#
#
# Mechanical properties :
#
#
# Convention : Reuss Voigt Hill
#
# Bulk Modulus (GPa) = 25.38097 43.53834 34.45965
# Shear Modulus (GPa) = 1.78360 12.08612 6.93486
#
# Velocity S-wave (km/s) = 1.16828 3.04118 2.30365
# Velocity P-wave (km/s) = 4.60894 6.75640 5.78322
#
# Compressibility (1/GPa) = 0.03939960
#
# Stress axis : x y z
#
# Youngs Moduli (GPa) = 60.58948 16.46441 46.79624
#
# Poissons Ratio (x) = 0.16830 0.33535
# Poissons Ratio (y) = 0.61934 0.57173
# Poissons Ratio (z) = 0.43420 0.20115
#
# Static dielectric constant tensor:
#      x y z
#    x 2.715150 0.000000 0.000000 
#    y 0.000000 2.177950 0.000000 
#    z 0.000000 0.000000 2.872480 
# 
# 
# High freq. dielectric constant tensor:
#      x y z
#    x 1.501610 0.000000 0.000000 
#    y 0.000000 1.417210 0.000000 
#    z 0.000000 0.000000 1.500990 
# 
# From -- ./inp_files/8172.got.cif
#   From: 2010.03.12/outbox.cif.g09.slc.cpg/sg47_5_cif.got.tgz:8172.got - 2010.04.14 03:12:58.
