data_PCOD8196437
_publ_section_title
;
Structure prediction by ZEFSAII (Michael W. Deem and Ramdas Pophale) SiO2 
 PCOD8196437
Probable space group: P M M M
;
_chemical_formula_sum "Si O2"
_cell_formula_units_Z 44
_cell_length_a 9.186209
_cell_length_b 25.705633
_cell_length_c 12.436730
_cell_angle_alpha 90.000000
_cell_angle_beta 90.000000
_cell_angle_gamma 90.000000
_cell_volume 2936.776057
_symmetry_space_group_name_H-M "P M M M"
_symmetry_group_IT_number 47
_symmetry_cell_setting 'orthorhombic'
loop_
_space_group_symop_operation_xyz
x,y,z
-x,-y,z
x,-y,-z
-x,y,-z
-x,-y,-z
x,y,-z
-x,y,z
x,-y,z
loop_
_atom_site_type_symbol
_atom_site_label
_atom_site_fract_x
_atom_site_fract_y
_atom_site_fract_z
Si Si1 0.332047 0.142467 0.373069
Si Si2 0.336254 0.344352 0.371626
Si Si3 0.172533 0.060235 0.232760
Si Si4 0.159055 0.061492 0.000000
Si Si5 0.164417 0.244305 0.372019
Si Si6 0.836432 0.557358 0.372161
O O1 0.314150 0.136747 0.500000
O O2 0.500000 0.146023 0.339202
O O3 0.258093 0.092356 0.321405
O O4 0.251791 0.194128 0.330204
O O5 0.334898 0.344502 0.500000
O O6 0.500000 0.339342 0.327753
O O7 0.243002 0.295926 0.327241
O O8 0.268511 0.397961 0.325510
O O9 0.234640 0.076981 0.113509
O O10 0.000000 0.070914 0.240231
O O11 0.206005 0.000000 0.255602
O O12 0.000000 0.087588 0.000000
O O13 0.138969 0.000000 0.000000
O O14 0.164021 0.245393 0.500000
O O15 0.000000 0.242419 0.327112
O O16 0.836114 0.559835 0.500000
O O17 0.782373 0.500000 0.334460
O O18 0.000000 0.567453 0.330012
#
# Coordination Sequence:
#
# PCOD8196437 Si02
#       6
#     8   8   8   4   8   8
#     4  10  20  31  41  56  81 108 131 159 196 234
#     4   9  15  21  30  44  61  81 107 142 185 228
#     4   9  17  30  48  66  82 102 129 159 191 230
#     4   7  12  26  47  67  83  99 123 157 192 223
#     4   9  16  26  39  51  64  87 121 156 187 223
#     4   8  13  20  28  38  54  77 106 141 180 220
#
# _framework density 14.982416000000001
#
# number of rings (size 3 to 8) (size 9 to 14) (size 15 to 20)
#    0.000    3.182    0.000    3.273    0.000    6.545 
#    0.000    4.091    0.000    1.636    0.000    0.000 
#    0.000    0.000    0.000    0.000    0.000    0.000 
#
# Total GULP energy -545209.568831 kJ/mol
# GULP energy per Si atom -12391.126564 kJ/mol
# Density = 1.494832 g / cm^3
# Si number density = 14.982416 Si / 1000 Ang^3
#
#
#
# Elastic Constant Matrix: (Units=GPa)
#
#
# Indices 1 2 3 4 5 6 
#
# 1 114.3025 74.6411 21.4076 0.0000 0.0000 0.0000
# 2 74.6411 122.0238 25.5921 0.0000 0.0000 0.0000
# 3 21.4076 25.5921 18.1437 0.0000 0.0000 0.0000
# 4 0.0000 0.0000 0.0000 0.3784 0.0000 0.0000
# 5 0.0000 0.0000 0.0000 0.0000 7.2861 0.0000
# 6 0.0000 0.0000 0.0000 0.0000 0.0000 22.7818
#
#
#
# Elastic Compliance Matrix: (Units=1/GPa)
#
#
# Indices 1 2 3 4 5 6 
#
# 1 0.015139 -0.007831 -0.006817 0.000000 0.000000 0.000000
# 2 -0.007831 0.015688 -0.012889 0.000000 0.000000 0.000000
# 3 -0.006817 -0.012889 0.081340 0.000000 0.000000 0.000000
# 4 0.000000 0.000000 0.000000 2.642971 0.000000 0.000000
# 5 0.000000 0.000000 0.000000 0.000000 0.137248 0.000000
# 6 0.000000 0.000000 0.000000 0.000000 0.000000 0.043895
#
#
# Mechanical properties :
#
#
# Convention : Reuss Voigt Hill
#
# Bulk Modulus (GPa) = 17.51529 55.30572 36.41050
# Shear Modulus (GPa) = 1.66092 14.94453 8.30272
#
# Velocity S-wave (km/s) = 1.05403 3.16170 2.35662
# Velocity P-wave (km/s) = 3.63280 7.09383 5.63558
#
# Compressibility (1/GPa) = 0.05709298
#
# Stress axis : x y z
#
# Youngs Moduli (GPa) = 66.05444 63.74141 12.29405
#
# Poissons Ratio (x) = 0.49914 0.08381
# Poissons Ratio (y) = 0.51725 0.15846
# Poissons Ratio (z) = 0.45030 0.82159
#
# Static dielectric constant tensor:
#      x y z
#    x 2.977030 0.000000 0.000000 
#    y 0.000000 3.039180 0.000000 
#    z 0.000000 0.000000 2.429010 
# 
# 
# High freq. dielectric constant tensor:
#      x y z
#    x 1.576820 0.000000 0.000000 
#    y 0.000000 1.580200 0.000000 
#    z 0.000000 0.000000 1.495890 
# 
# From -- ./inp_files/4468.got.cif
#   From: 2010.03.12/outbox.cif.g09.slc.cpg/sg47_3_cif.got.tgz:4468.got - 2010.04.14 03:12:58.
