data_PCOD8196398
_publ_section_title
;
Structure prediction by ZEFSAII (Michael W. Deem and Ramdas Pophale) SiO2 
 PCOD8196398
Probable space group: P M M M
;
_chemical_formula_sum "Si O2"
_cell_formula_units_Z 52
_cell_length_a 12.454276
_cell_length_b 25.325228
_cell_length_c 8.986858
_cell_angle_alpha 90.000000
_cell_angle_beta 90.000000
_cell_angle_gamma 90.000000
_cell_volume 2834.521330
_symmetry_space_group_name_H-M "P M M M"
_symmetry_group_IT_number 47
_symmetry_cell_setting 'orthorhombic'
loop_
_space_group_symop_operation_xyz
x,y,z
-x,-y,z
x,-y,-z
-x,y,-z
-x,-y,-z
x,y,-z
-x,y,z
x,-y,z
loop_
_atom_site_type_symbol
_atom_site_label
_atom_site_fract_x
_atom_site_fract_y
_atom_site_fract_z
Si Si1 0.821635 0.394081 0.174731
Si Si2 0.621702 0.645680 0.328045
Si Si3 0.224424 0.149732 0.677126
Si Si4 0.379365 0.059192 0.322990
Si Si5 0.383678 0.764275 0.323314
Si Si6 0.000000 0.689617 0.175904
Si Si7 0.878369 0.500000 0.339558
Si Si8 0.000000 0.805573 0.677174
O O1 0.698940 0.387992 0.224744
O O2 0.895490 0.344402 0.226192
O O3 0.857727 0.448328 0.244741
O O4 0.830015 0.400298 0.000000
O O5 0.657043 0.641329 0.500000
O O6 0.500000 0.625274 0.308380
O O7 0.633190 0.705104 0.267462
O O8 0.228074 0.148467 0.500000
O O9 0.283939 0.097051 0.739605
O O10 0.291260 0.198909 0.742943
O O11 0.102117 0.159161 0.730702
O O12 0.377666 0.060741 0.500000
O O13 0.500000 0.076506 0.270259
O O14 0.354790 0.000000 0.265613
O O15 0.380388 0.764719 0.500000
O O16 0.500000 0.785486 0.269794
O O17 0.000000 0.746755 0.254862
O O18 0.000000 0.699570 0.000000
O O19 0.815134 0.500000 0.500000
O O20 0.000000 0.500000 0.383538
O O21 0.000000 0.797985 0.500000
#
# Coordination Sequence:
#
# PCOD8196398 Si02
#       8
#     8   8   8   8   8   4   4   4
#     4  11  22  37  57  79 107 138 168 205 252 305
#     4   9  18  33  52  76 106 137 172 212 252 300
#     4   9  15  23  35  56  87 119 156 200 242 288
#     4   8  13  21  34  53  81 121 163 199 241 295
#     4   8  13  22  39  61  84 114 152 197 245 285
#     4  10  22  37  53  75 104 137 168 205 254 299
#     4  11  23  39  60  85 106 129 167 213 257 300
#     4  10  20  30  44  67  94 126 161 197 240 297
#
# _framework density 18.345248999999999
#
# number of rings (size 3 to 8) (size 9 to 14) (size 15 to 20)
#    0.000    2.692    0.769    3.462    0.000    4.923 
#    0.000    0.769    0.000    4.615    0.000    0.000 
#    0.000    1.231    0.000    1.692    0.000    2.923 
#
# Total GULP energy -644268.204839 kJ/mol
# GULP energy per Si atom -12389.773170 kJ/mol
# Density = 1.830349 g / cm^3
# Si number density = 18.345249 Si / 1000 Ang^3
#
#
#
# Elastic Constant Matrix: (Units=GPa)
#
#
# Indices 1 2 3 4 5 6 
#
# 1 144.2900 73.0277 29.7554 0.0000 0.0000 0.0000
# 2 73.0277 118.5414 28.8597 0.0000 0.0000 0.0000
# 3 29.7554 28.8597 38.6486 0.0000 0.0000 0.0000
# 4 0.0000 0.0000 0.0000 9.9051 0.0000 0.0000
# 5 0.0000 0.0000 0.0000 0.0000 13.7798 0.0000
# 6 0.0000 0.0000 0.0000 0.0000 0.0000 27.6613
#
#
#
# Elastic Compliance Matrix: (Units=1/GPa)
#
#
# Indices 1 2 3 4 5 6 
#
# 1 0.010552 -0.005528 -0.003996 0.000000 0.000000 0.000000
# 2 -0.005528 0.013206 -0.005605 0.000000 0.000000 0.000000
# 3 -0.003996 -0.005605 0.033137 0.000000 0.000000 0.000000
# 4 0.000000 0.000000 0.000000 0.100958 0.000000 0.000000
# 5 0.000000 0.000000 0.000000 0.000000 0.072570 0.000000
# 6 0.000000 0.000000 0.000000 0.000000 0.000000 0.036152
#
#
# Mechanical properties :
#
#
# Convention : Reuss Voigt Hill
#
# Bulk Modulus (GPa) = 37.54359 62.75173 50.14766
# Shear Modulus (GPa) = 16.35522 21.59171 18.97346
#
# Velocity S-wave (km/s) = 2.98908 3.43441 3.21946
# Velocity P-wave (km/s) = 5.69405 7.07157 6.41987
#
# Compressibility (1/GPa) = 0.02663570
#
# Stress axis : x y z
#
# Youngs Moduli (GPa) = 94.76545 75.72341 30.17813
#
# Poissons Ratio (x) = 0.41859 0.12061
# Poissons Ratio (y) = 0.52385 0.16916
# Poissons Ratio (z) = 0.37873 0.42445
#
# Static dielectric constant tensor:
#      x y z
#    x 3.687770 0.000000 0.000000 
#    y 0.000000 3.549400 0.000000 
#    z 0.000000 0.000000 2.854160 
# 
# 
# High freq. dielectric constant tensor:
#      x y z
#    x 1.719190 0.000000 0.000000 
#    y 0.000000 1.708580 0.000000 
#    z 0.000000 0.000000 1.657020 
# 
# From -- ./inp_files/4634.got.cif
#   From: 2010.03.12/outbox.cif.g09.slc.cpg/sg47_3_cif.got.tgz:4634.got - 2010.04.14 03:12:58.
