data_PCOD8196415
_publ_section_title
;
Structure prediction by ZEFSAII (Michael W. Deem and Ramdas Pophale) SiO2 
 PCOD8196415
Probable space group: P M M M
;
_chemical_formula_sum "Si O2"
_cell_formula_units_Z 44
_cell_length_a 20.274132
_cell_length_b 17.410513
_cell_length_c 9.376681
_cell_angle_alpha 90.000000
_cell_angle_beta 90.000000
_cell_angle_gamma 90.000000
_cell_volume 3309.809353
_symmetry_space_group_name_H-M "P M M M"
_symmetry_group_IT_number 47
_symmetry_cell_setting 'orthorhombic'
loop_
_space_group_symop_operation_xyz
x,y,z
-x,-y,z
x,-y,-z
-x,y,-z
-x,-y,-z
x,y,-z
-x,y,z
x,-y,z
loop_
_atom_site_type_symbol
_atom_site_label
_atom_site_fract_x
_atom_site_fract_y
_atom_site_fract_z
Si Si1 0.077032 0.187283 0.665457
Si Si2 0.921643 0.359286 0.342039
Si Si3 0.178704 0.909383 0.164700
Si Si4 0.573078 0.908654 0.160120
Si Si5 0.694687 0.091495 0.339274
Si Si6 0.921174 0.500000 0.840482
O O1 0.093250 0.170416 0.500000
O O2 0.099466 0.273883 0.706404
O O3 0.114596 0.128703 0.766924
O O4 0.000000 0.175702 0.695011
O O5 0.893961 0.376727 0.500000
O O6 0.893102 0.423580 0.235714
O O7 0.000000 0.363339 0.346301
O O8 0.243180 0.879353 0.247975
O O9 0.170457 0.000000 0.181413
O O10 0.185345 0.885413 0.000000
O O11 0.500000 0.881497 0.209334
O O12 0.627935 0.875191 0.267601
O O13 0.576267 0.000000 0.160385
O O14 0.587775 0.878888 0.000000
O O15 0.699985 0.123762 0.500000
O O16 0.692793 0.000000 0.340202
O O17 0.000000 0.500000 0.837991
O O18 0.893471 0.500000 0.000000
#
# Coordination Sequence:
#
# PCOD8196415 Si02
#       6
#     8   8   8   8   8   4
#     4   9  18  31  44  56  69  87 114 149 187 223
#     4   8  14  25  39  53  70  91 111 132 164 207
#     4  10  20  31  41  52  67  89 117 150 189 229
#     4   8  13  21  33  49  69  90 108 129 163 206
#     4   9  16  25  37  51  66  85 111 143 175 208
#     4   9  15  21  33  55  77  93 109 129 156 195
#
# _framework density 13.293817000000001
#
# number of rings (size 3 to 8) (size 9 to 14) (size 15 to 20)
#    0.000    3.182    0.000    3.000    0.000    6.182 
#    0.000    5.455    0.000    0.000    0.000    0.000 
#    0.000    0.000    0.000    0.000    0.000    0.000 
#
# Total GULP energy -545358.913048 kJ/mol
# GULP energy per Si atom -12394.520751 kJ/mol
# Density = 1.326356 g / cm^3
# Si number density = 13.293817 Si / 1000 Ang^3
#
#
#
# Elastic Constant Matrix: (Units=GPa)
#
#
# Indices 1 2 3 4 5 6 
#
# 1 68.3557 25.2774 55.3134 0.0000 0.0000 0.0000
# 2 25.2774 32.0628 35.8839 0.0000 0.0000 0.0000
# 3 55.3134 35.8839 113.9376 0.0000 0.0000 0.0000
# 4 0.0000 0.0000 0.0000 15.1897 0.0000 0.0000
# 5 0.0000 0.0000 0.0000 0.0000 23.2673 0.0000
# 6 0.0000 0.0000 0.0000 0.0000 0.0000 0.2360
#
#
#
# Elastic Compliance Matrix: (Units=1/GPa)
#
#
# Indices 1 2 3 4 5 6 
#
# 1 0.025954 -0.009822 -0.009507 0.000000 0.000000 0.000000
# 2 -0.009822 0.051883 -0.011572 0.000000 0.000000 0.000000
# 3 -0.009507 -0.011572 0.017036 0.000000 0.000000 0.000000
# 4 0.000000 0.000000 0.000000 0.065834 0.000000 0.000000
# 5 0.000000 0.000000 0.000000 0.000000 0.042979 0.000000
# 6 0.000000 0.000000 0.000000 0.000000 0.000000 4.237448
#
#
# Mechanical properties :
#
#
# Convention : Reuss Voigt Hill
#
# Bulk Modulus (GPa) = 30.23643 49.70060 39.96851
# Shear Modulus (GPa) = 1.10767 14.26402 7.68585
#
# Velocity S-wave (km/s) = 0.91380 3.27919 2.40709
# Velocity P-wave (km/s) = 4.88953 7.19756 6.15274
#
# Compressibility (1/GPa) = 0.03307269
#
# Stress axis : x y z
#
# Youngs Moduli (GPa) = 38.52939 19.27408 58.69755
#
# Poissons Ratio (x) = 0.18931 0.55802
# Poissons Ratio (y) = 0.37843 0.67925
# Poissons Ratio (z) = 0.36629 0.22304
#
# Static dielectric constant tensor:
#      x y z
#    x 2.547320 0.000000 0.000000 
#    y 0.000000 2.408620 0.000000 
#    z 0.000000 0.000000 2.871460 
# 
# 
# High freq. dielectric constant tensor:
#      x y z
#    x 1.478210 0.000000 0.000000 
#    y 0.000000 1.458200 0.000000 
#    z 0.000000 0.000000 1.519340 
# 
# From -- ./inp_files/10885.got.cif
#   From: 2010.03.12/outbox.cif.g09.slc.cpg/sg47_6_cif.got.tgz:10885.got - 2010.04.14 03:12:58.
