data_PCOD8196115
_publ_section_title
;
Structure prediction by ZEFSAII (Michael W. Deem and Ramdas Pophale) SiO2 
 PCOD8196115
Probable space group: P M M M
;
_chemical_formula_sum "Si O2"
_cell_formula_units_Z 32
_cell_length_a 14.471676
_cell_length_b 9.240807
_cell_length_c 11.837393
_cell_angle_alpha 90.000000
_cell_angle_beta 90.000000
_cell_angle_gamma 90.000000
_cell_volume 1583.014150
_symmetry_space_group_name_H-M "P M M M"
_symmetry_group_IT_number 47
_symmetry_cell_setting 'orthorhombic'
loop_
_space_group_symop_operation_xyz
x,y,z
-x,-y,z
x,-y,-z
-x,y,-z
-x,-y,-z
x,y,-z
-x,y,z
x,-y,z
loop_
_atom_site_type_symbol
_atom_site_label
_atom_site_fract_x
_atom_site_fract_y
_atom_site_fract_z
Si Si1 0.639452 0.655581 0.243741
Si Si2 0.000000 0.170953 0.366259
Si Si3 0.849432 0.332799 0.776838
Si Si4 0.500000 0.830690 0.624581
Si Si5 0.808403 0.837530 0.000000
Si Si6 0.395382 0.752560 0.000000
O O1 0.604578 0.500000 0.289027
O O2 0.746530 0.671846 0.271073
O O3 0.590745 0.784586 0.308742
O O4 0.615099 0.655581 0.111122
O O5 0.089167 0.247743 0.313264
O O6 0.000000 0.198153 0.500000
O O7 0.000000 0.000000 0.338517
O O8 0.882398 0.500000 0.792733
O O9 0.850526 0.248959 0.894993
O O10 0.500000 0.761710 0.500000
O O11 0.500000 0.000000 0.617509
O O12 0.695625 0.855740 0.000000
O O13 0.848474 0.000000 0.000000
O O14 0.500000 0.825846 0.000000
#
# Coordination Sequence:
#
# PCOD8196115 Si02
#       6
#     8   4   8   4   4   4
#     4  10  21  38  61  88 118 156 198 245 298 355
#     4  11  25  44  67  94 121 155 201 253 310 369
#     4  10  22  41  64  92 124 158 200 250 304 363
#     4  11  25  40  53  76 114 159 204 249 298 351
#     4  10  21  37  59  91 130 166 201 245 302 365
#     4  10  19  33  56  93 124 157 196 245 301 355
#
# _framework density 20.214600000000001
#
# number of rings (size 3 to 8) (size 9 to 14) (size 15 to 20)
#    0.000    1.750    1.250    2.250    0.000   12.250 
#    0.000    7.500    0.000    0.000    0.000    0.000 
#    0.000    0.000    0.000    0.000    0.000    0.000 
#
# Total GULP energy -396565.456150 kJ/mol
# GULP energy per Si atom -12392.670505 kJ/mol
# Density = 2.016859 g / cm^3
# Si number density = 20.214600 Si / 1000 Ang^3
#
#
#
# Elastic Constant Matrix: (Units=GPa)
#
#
# Indices 1 2 3 4 5 6 
#
# 1 115.1698 50.4120 64.3891 0.0000 0.0000 0.0000
# 2 50.4120 153.6149 71.3549 0.0000 0.0000 0.0000
# 3 64.3891 71.3549 131.6913 0.0000 0.0000 0.0000
# 4 0.0000 0.0000 0.0000 6.2880 0.0000 0.0000
# 5 0.0000 0.0000 0.0000 0.0000 91.6138 0.0000
# 6 0.0000 0.0000 0.0000 0.0000 0.0000 25.2317
#
#
#
# Elastic Compliance Matrix: (Units=1/GPa)
#
#
# Indices 1 2 3 4 5 6 
#
# 1 0.012256 -0.001655 -0.005096 0.000000 0.000000 0.000000
# 2 -0.001655 0.008923 -0.004025 0.000000 0.000000 0.000000
# 3 -0.005096 -0.004025 0.012266 0.000000 0.000000 0.000000
# 4 0.000000 0.000000 0.000000 0.159032 0.000000 0.000000
# 5 0.000000 0.000000 0.000000 0.000000 0.010915 0.000000
# 6 0.000000 0.000000 0.000000 0.000000 0.000000 0.039633
#
#
# Mechanical properties :
#
#
# Convention : Reuss Voigt Hill
#
# Bulk Modulus (GPa) = 84.08619 85.86534 84.97577
# Shear Modulus (GPa) = 18.61906 38.91470 28.76688
#
# Velocity S-wave (km/s) = 3.03821 4.39233 3.77646
# Velocity P-wave (km/s) = 7.34811 8.26393 7.81944
#
# Compressibility (1/GPa) = 0.01189256
#
# Stress axis : x y z
#
# Youngs Moduli (GPa) = 81.59095 112.07277 81.52527
#
# Poissons Ratio (x) = 0.18550 0.41543
# Poissons Ratio (y) = 0.13505 0.32817
# Poissons Ratio (z) = 0.41577 0.45114
#
# Static dielectric constant tensor:
#      x y z
#    x 3.787940 0.000000 0.000000 
#    y 0.000000 3.655220 0.000000 
#    z 0.000000 0.000000 3.634950 
# 
# 
# High freq. dielectric constant tensor:
#      x y z
#    x 1.795710 0.000000 0.000000 
#    y 0.000000 1.794000 0.000000 
#    z 0.000000 0.000000 1.783260 
# 
# From -- ./inp_files/17105.got.cif
#   From: 2010.03.12/outbox.cif.g09.slc.cpg/sg47_9_cif.got.tgz:17105.got - 2010.04.14 03:12:58.
