data_PCOD8196443
_publ_section_title
;
Structure prediction by ZEFSAII (Michael W. Deem and Ramdas Pophale) SiO2 
 PCOD8196443
Probable space group: P M M M
;
_chemical_formula_sum "Si O2"
_cell_formula_units_Z 56
_cell_length_a 9.121015
_cell_length_b 18.818513
_cell_length_c 21.525871
_cell_angle_alpha 90.000000
_cell_angle_beta 90.000000
_cell_angle_gamma 90.000000
_cell_volume 3694.785296
_symmetry_space_group_name_H-M "P M M M"
_symmetry_group_IT_number 47
_symmetry_cell_setting 'orthorhombic'
loop_
_space_group_symop_operation_xyz
x,y,z
-x,-y,z
x,-y,-z
-x,y,-z
-x,-y,-z
x,y,-z
-x,y,z
x,-y,z
loop_
_atom_site_type_symbol
_atom_site_label
_atom_site_fract_x
_atom_site_fract_y
_atom_site_fract_z
Si Si1 0.832606 0.213030 0.429048
Si Si2 0.328455 0.709847 0.677733
Si Si3 0.158704 0.583433 0.500000
Si Si4 0.166317 0.920598 0.354392
Si Si5 0.327738 0.154698 0.753323
Si Si6 0.174764 0.419471 0.635461
Si Si7 0.174148 0.917174 0.134603
Si Si8 0.171483 0.081479 0.000000
O O1 0.790042 0.227302 0.500000
O O2 0.722722 0.257674 0.387364
O O3 0.812317 0.129563 0.414119
O O4 0.000000 0.236305 0.415065
O O5 0.500000 0.695804 0.675463
O O6 0.287509 0.764122 0.733551
O O7 0.246670 0.633917 0.685812
O O8 0.132583 0.500000 0.500000
O O9 0.235987 0.602689 0.434122
O O10 0.000000 0.621849 0.500000
O O11 0.274001 0.899460 0.299029
O O12 0.000000 0.915174 0.328719
O O13 0.204143 0.000000 0.376300
O O14 0.500000 0.145226 0.761031
O O15 0.250690 0.135777 0.817639
O O16 0.222415 0.500000 0.651994
O O17 0.000000 0.412811 0.636968
O O18 0.229850 0.888824 0.066287
O O19 0.000000 0.909876 0.140934
O O20 0.218566 0.000000 0.145506
O O21 0.000000 0.092416 0.000000
O O22 0.213592 0.000000 0.000000
#
# Coordination Sequence:
#
# PCOD8196443 Si02
#       8
#     8   8   4   8   8   8   8   4
#     4   9  18  31  45  59  75  99 130 166 213 261
#     4  10  21  33  43  58  83 111 137 168 204 245
#     4   7  12  24  41  61  81  97 116 147 192 245
#     4   9  17  29  44  60  76  96 130 175 216 255
#     4  10  20  31  41  57  83 114 144 172 205 242
#     4   9  17  30  48  67  84 103 129 163 205 253
#     4   9  16  27  45  66  87 113 145 179 212 246
#     4   7  12  24  41  63  89 113 138 171 212 251
#
# _framework density 15.156496000000001
#
# number of rings (size 3 to 8) (size 9 to 14) (size 15 to 20)
#    0.000    3.000    0.000    3.000    1.000    4.857 
#    0.000    1.786    0.000    2.571    0.000    4.000 
#    0.000    0.000    0.000    0.643    0.000   12.571 
#
# Total GULP energy -693746.999489 kJ/mol
# GULP energy per Si atom -12388.339277 kJ/mol
# Density = 1.512200 g / cm^3
# Si number density = 15.156496 Si / 1000 Ang^3
#
#
#
# Elastic Constant Matrix: (Units=GPa)
#
#
# Indices 1 2 3 4 5 6 
#
# 1 45.0252 35.1380 32.0440 0.0000 0.0000 0.0000
# 2 35.1380 93.9460 34.7078 0.0000 0.0000 0.0000
# 3 32.0440 34.7078 85.0203 0.0000 0.0000 0.0000
# 4 0.0000 0.0000 0.0000 17.0529 0.0000 0.0000
# 5 0.0000 0.0000 0.0000 0.0000 8.9796 0.0000
# 6 0.0000 0.0000 0.0000 0.0000 0.0000 19.4302
#
#
#
# Elastic Compliance Matrix: (Units=1/GPa)
#
#
# Indices 1 2 3 4 5 6 
#
# 1 0.037244 -0.010297 -0.009834 0.000000 0.000000 0.000000
# 2 -0.010297 0.015382 -0.002398 0.000000 0.000000 0.000000
# 3 -0.009834 -0.002398 0.016447 0.000000 0.000000 0.000000
# 4 0.000000 0.000000 0.000000 0.058641 0.000000 0.000000
# 5 0.000000 0.000000 0.000000 0.000000 0.111363 0.000000
# 6 0.000000 0.000000 0.000000 0.000000 0.000000 0.051466
#
#
# Mechanical properties :
#
#
# Convention : Reuss Voigt Hill
#
# Bulk Modulus (GPa) = 41.64070 47.53011 44.58541
# Shear Modulus (GPa) = 14.55148 17.23266 15.89207
#
# Velocity S-wave (km/s) = 3.10188 3.37557 3.24162
# Velocity P-wave (km/s) = 6.35314 6.82791 6.59480
#
# Compressibility (1/GPa) = 0.02401497
#
# Stress axis : x y z
#
# Youngs Moduli (GPa) = 26.84972 65.01156 60.80042
#
# Poissons Ratio (x) = 0.66944 0.59789
# Poissons Ratio (y) = 0.27648 0.14582
# Poissons Ratio (z) = 0.26403 0.15592
#
# Static dielectric constant tensor:
#      x y z
#    x 2.779170 0.000000 0.000000 
#    y 0.000000 2.992140 0.000000 
#    z 0.000000 0.000000 2.969170 
# 
# 
# High freq. dielectric constant tensor:
#      x y z
#    x 1.566060 0.000000 0.000000 
#    y 0.000000 1.571700 0.000000 
#    z 0.000000 0.000000 1.553150 
# 
# From -- ./inp_files/30084.got.cif
#   From: 2010.03.12/outbox.cif.g09.slc.cpg/sg47_16_cif.got.tgz:30084.got - 2010.04.14 03:12:58.
