data_PCOD8196541
_publ_section_title
;
Structure prediction by ZEFSAII (Michael W. Deem and Ramdas Pophale) SiO2 
 PCOD8196541
Probable space group: P M M M
;
_chemical_formula_sum "Si O2"
_cell_formula_units_Z 64
_cell_length_a 23.692056
_cell_length_b 9.465545
_cell_length_c 18.832551
_cell_angle_alpha 90.000000
_cell_angle_beta 90.000000
_cell_angle_gamma 90.000000
_cell_volume 4223.354407
_symmetry_space_group_name_H-M "P M M M"
_symmetry_group_IT_number 47
_symmetry_cell_setting 'orthorhombic'
loop_
_space_group_symop_operation_xyz
x,y,z
-x,-y,z
x,-y,-z
-x,y,-z
-x,-y,-z
x,y,-z
-x,y,z
x,-y,z
loop_
_atom_site_type_symbol
_atom_site_label
_atom_site_fract_x
_atom_site_fract_y
_atom_site_fract_z
Si Si1 0.280827 0.665000 0.081346
Si Si2 0.384707 0.335898 0.419040
Si Si3 0.062410 0.667697 0.920583
Si Si4 0.168413 0.665480 0.164715
Si Si5 0.662707 0.162319 0.196492
Si Si6 0.727306 0.838698 0.578853
Si Si7 0.223035 0.159901 0.278421
Si Si8 0.436174 0.837548 0.701525
O O1 0.292951 0.500000 0.089013
O O2 0.218868 0.703334 0.110830
O O3 0.328924 0.746357 0.125341
O O4 0.283595 0.714579 0.000000
O O5 0.405533 0.316638 0.500000
O O6 0.380674 0.500000 0.398307
O O7 0.323668 0.267552 0.408213
O O8 0.429034 0.258328 0.368216
O O9 0.067498 0.500000 0.923529
O O10 0.110514 0.727370 0.868368
O O11 0.000000 0.712638 0.893170
O O12 0.072167 0.727631 0.000000
O O13 0.164377 0.500000 0.178927
O O14 0.177962 0.739161 0.240576
O O15 0.713990 0.189235 0.250349
O O16 0.605594 0.212329 0.235656
O O17 0.658704 0.000000 0.173055
O O18 0.753085 0.817291 0.500000
O O19 0.775973 0.807905 0.637048
O O20 0.705216 0.000000 0.588856
O O21 0.204453 0.000000 0.262565
O O22 0.500000 0.819877 0.729291
O O23 0.422929 0.000000 0.681133
#
# Coordination Sequence:
#
# PCOD8196541 Si02
#       8
#     8   8   8   8   8   8   8   8
#     4   9  17  28  43  64  87 110 135 166 206 252
#     4  10  20  31  44  64  89 113 137 170 210 250
#     4   8  13  22  38  60  86 117 152 185 210 235
#     4   9  16  25  40  63  88 114 143 176 209 244
#     4   9  17  30  45  63  83 103 132 170 211 252
#     4   9  16  28  46  63  82 112 146 174 204 249
#     4   9  16  27  42  61  85 110 136 171 212 251
#     4  10  20  34  50  64  80 107 143 178 209 249
#
# _framework density 15.153831
#
# number of rings (size 3 to 8) (size 9 to 14) (size 15 to 20)
#    0.000    2.875    1.250    1.125    0.000    4.000 
#    0.000    1.250    0.000    1.875    0.000    3.500 
#    0.000    0.500    0.000    6.250    0.000    0.000 
#
# Total GULP energy -793427.537807 kJ/mol
# GULP energy per Si atom -12397.305278 kJ/mol
# Density = 1.511934 g / cm^3
# Si number density = 15.153831 Si / 1000 Ang^3
#
#
#
# Elastic Constant Matrix: (Units=GPa)
#
#
# Indices 1 2 3 4 5 6 
#
# 1 92.0419 34.6856 57.0892 0.0000 0.0000 0.0000
# 2 34.6856 51.3782 43.0476 0.0000 0.0000 0.0000
# 3 57.0892 43.0476 109.0843 0.0000 0.0000 0.0000
# 4 0.0000 0.0000 0.0000 26.0626 0.0000 0.0000
# 5 0.0000 0.0000 0.0000 0.0000 25.6419 0.0000
# 6 0.0000 0.0000 0.0000 0.0000 0.0000 14.5471
#
#
#
# Elastic Compliance Matrix: (Units=1/GPa)
#
#
# Indices 1 2 3 4 5 6 
#
# 1 0.017281 -0.006109 -0.006633 0.000000 0.000000 0.000000
# 2 -0.006109 0.031237 -0.009130 0.000000 0.000000 0.000000
# 3 -0.006633 -0.009130 0.016242 0.000000 0.000000 0.000000
# 4 0.000000 0.000000 0.000000 0.038369 0.000000 0.000000
# 5 0.000000 0.000000 0.000000 0.000000 0.038999 0.000000
# 6 0.000000 0.000000 0.000000 0.000000 0.000000 0.068742
#
#
# Mechanical properties :
#
#
# Convention : Reuss Voigt Hill
#
# Bulk Modulus (GPa) = 47.58331 58.01656 52.79993
# Shear Modulus (GPa) = 19.11174 21.09580 20.10377
#
# Velocity S-wave (km/s) = 3.55517 3.73515 3.64627
# Velocity P-wave (km/s) = 6.95130 7.54784 7.25571
#
# Compressibility (1/GPa) = 0.02101577
#
# Stress axis : x y z
#
# Youngs Moduli (GPa) = 57.86702 32.01314 61.56971
#
# Poissons Ratio (x) = 0.19556 0.40841
# Poissons Ratio (y) = 0.35349 0.56213
# Poissons Ratio (z) = 0.38385 0.29228
#
# Static dielectric constant tensor:
#      x y z
#    x 2.782720 0.000000 0.000000 
#    y 0.000000 2.847880 0.000000 
#    z 0.000000 0.000000 3.032610 
# 
# 
# High freq. dielectric constant tensor:
#      x y z
#    x 1.548400 0.000000 0.000000 
#    y 0.000000 1.571050 0.000000 
#    z 0.000000 0.000000 1.576610 
# 
# From -- ./inp_files/31583.got.cif
#   From: 2010.03.12/outbox.cif.g09.slc.cpg/sg47_16_cif.got.tgz:31583.got - 2010.04.14 03:12:58.
