data_PCOD8196131
_publ_section_title
;
Structure prediction by ZEFSAII (Michael W. Deem and Ramdas Pophale) SiO2 
 PCOD8196131
Probable space group: P M M M
;
_chemical_formula_sum "Si O2"
_cell_formula_units_Z 44
_cell_length_a 14.241960
_cell_length_b 8.014252
_cell_length_c 19.245107
_cell_angle_alpha 90.000000
_cell_angle_beta 90.000000
_cell_angle_gamma 90.000000
_cell_volume 2196.610656
_symmetry_space_group_name_H-M "P M M M"
_symmetry_group_IT_number 47
_symmetry_cell_setting 'orthorhombic'
loop_
_space_group_symop_operation_xyz
x,y,z
-x,-y,z
x,-y,-z
-x,y,-z
-x,-y,-z
x,y,-z
-x,y,z
x,-y,z
loop_
_atom_site_type_symbol
_atom_site_label
_atom_site_fract_x
_atom_site_fract_y
_atom_site_fract_z
Si Si1 0.104935 0.189949 0.192722
Si Si2 0.727912 0.809394 0.577029
Si Si3 0.896817 0.312399 0.658948
Si Si4 0.607848 0.000000 0.081983
Si Si5 0.394345 0.305976 0.698391
Si Si6 0.701766 0.691364 0.157550
O O1 0.121890 0.193411 0.275533
O O2 0.184940 0.296044 0.153335
O O3 0.000000 0.259021 0.174895
O O4 0.114408 0.000000 0.167759
O O5 0.697139 0.748558 0.500000
O O6 0.819852 0.708438 0.599569
O O7 0.642291 0.786809 0.630114
O O8 0.758012 0.000000 0.575288
O O9 0.890306 0.500000 0.688247
O O10 0.000000 0.276855 0.626810
O O11 0.655646 0.828261 0.107522
O O12 0.500000 0.000000 0.106714
O O13 0.616557 0.000000 0.000000
O O14 0.500000 0.245440 0.713959
O O15 0.390541 0.500000 0.681745
O O16 0.330567 0.262852 0.764581
O O17 0.672045 0.500000 0.137682
#
# Coordination Sequence:
#
# PCOD8196131 Si02
#       6
#     8   8   8   4   8   8
#     4  10  19  33  58  93 129 163 205 257 310 368
#     4  11  24  38  52  75 110 151 195 249 312 371
#     4  10  20  34  53  79 111 149 197 251 307 367
#     4  11  26  46  69 101 136 172 212 249 301 371
#     4  10  22  39  59  84 111 147 200 254 304 360
#     4  11  22  40  67  98 132 167 209 260 311 366
#
# _framework density 20.030859
#
# number of rings (size 3 to 8) (size 9 to 14) (size 15 to 20)
#    0.000    1.545    2.727    2.182    1.273    6.182 
#    0.000    4.545    0.000    1.091    0.000    1.273 
#    0.000    0.000    0.000    0.000    0.000    0.000 
#
# Total GULP energy -545533.409742 kJ/mol
# GULP energy per Si atom -12398.486585 kJ/mol
# Density = 1.998527 g / cm^3
# Si number density = 20.030859 Si / 1000 Ang^3
#
#
#
# Elastic Constant Matrix: (Units=GPa)
#
#
# Indices 1 2 3 4 5 6 
#
# 1 147.3530 39.1827 39.6775 0.0000 0.0000 0.0000
# 2 39.1827 87.0451 33.4489 0.0000 0.0000 0.0000
# 3 39.6775 33.4489 68.9186 0.0000 0.0000 0.0000
# 4 0.0000 0.0000 0.0000 20.3280 0.0000 0.0000
# 5 0.0000 0.0000 0.0000 0.0000 25.9426 0.0000
# 6 0.0000 0.0000 0.0000 0.0000 0.0000 28.7178
#
#
#
# Elastic Compliance Matrix: (Units=1/GPa)
#
#
# Indices 1 2 3 4 5 6 
#
# 1 0.008410 -0.002367 -0.003693 0.000000 0.000000 0.000000
# 2 -0.002367 0.014788 -0.005815 0.000000 0.000000 0.000000
# 3 -0.003693 -0.005815 0.019458 0.000000 0.000000 0.000000
# 4 0.000000 0.000000 0.000000 0.049193 0.000000 0.000000
# 5 0.000000 0.000000 0.000000 0.000000 0.038547 0.000000
# 6 0.000000 0.000000 0.000000 0.000000 0.000000 0.034822
#
#
# Mechanical properties :
#
#
# Convention : Reuss Voigt Hill
#
# Bulk Modulus (GPa) = 52.88960 58.65943 55.77452
# Shear Modulus (GPa) = 25.60561 27.73151 26.66856
#
# Velocity S-wave (km/s) = 3.57922 3.72484 3.65276
# Velocity P-wave (km/s) = 6.59867 6.91718 6.75980
#
# Compressibility (1/GPa) = 0.01890731
#
# Stress axis : x y z
#
# Youngs Moduli (GPa) = 118.90309 67.62230 51.39198
#
# Poissons Ratio (x) = 0.16003 0.18981
# Poissons Ratio (y) = 0.28139 0.29883
# Poissons Ratio (z) = 0.43915 0.39321
#
# Static dielectric constant tensor:
#      x y z
#    x 3.870110 0.000000 0.000000 
#    y 0.000000 3.665230 0.000000 
#    z 0.000000 0.000000 3.291130 
# 
# 
# High freq. dielectric constant tensor:
#      x y z
#    x 1.796440 0.000000 0.000000 
#    y 0.000000 1.787820 0.000000 
#    z 0.000000 0.000000 1.739170 
# 
# From -- ./inp_files/27975.got.cif
#   From: 2010.03.12/outbox.cif.g09.slc.cpg/sg47_14_cif.got.tgz:27975.got - 2010.04.14 03:12:58.
