data_PCOD8196504
_publ_section_title
;
Structure prediction by ZEFSAII (Michael W. Deem and Ramdas Pophale) SiO2 
 PCOD8196504
Probable space group: P M M M
;
_chemical_formula_sum "Si O2"
_cell_formula_units_Z 52
_cell_length_a 9.302526
_cell_length_b 30.725556
_cell_length_c 12.122952
_cell_angle_alpha 90.000000
_cell_angle_beta 90.000000
_cell_angle_gamma 90.000000
_cell_volume 3465.046193
_symmetry_space_group_name_H-M "P M M M"
_symmetry_group_IT_number 47
_symmetry_cell_setting 'orthorhombic'
loop_
_space_group_symop_operation_xyz
x,y,z
-x,-y,z
x,-y,-z
-x,y,-z
-x,-y,-z
x,y,-z
-x,y,z
x,-y,z
loop_
_atom_site_type_symbol
_atom_site_label
_atom_site_fract_x
_atom_site_fract_y
_atom_site_fract_z
Si Si1 0.833324 0.551401 0.785264
Si Si2 0.161367 0.305897 0.631045
Si Si3 0.161493 0.790137 0.631102
Si Si4 0.335309 0.388087 0.630878
Si Si5 0.336634 0.551702 0.000000
Si Si6 0.161432 0.952065 0.631123
Si Si7 0.661130 0.128933 0.631859
O O1 0.817930 0.500000 0.771456
O O2 0.759121 0.572825 0.679310
O O3 0.000000 0.565117 0.793841
O O4 0.749494 0.568520 0.893241
O O5 0.159736 0.306442 0.500000
O O6 0.211768 0.257885 0.671825
O O7 0.271634 0.342222 0.675269
O O8 0.000000 0.315901 0.674554
O O9 0.166170 0.791691 0.500000
O O10 0.263396 0.827698 0.679913
O O11 0.000000 0.799285 0.672406
O O12 0.323384 0.391477 0.500000
O O13 0.500000 0.391818 0.670307
O O14 0.339435 0.500000 0.000000
O O15 0.500000 0.570070 0.000000
O O16 0.162151 0.949710 0.500000
O O17 0.262186 0.914227 0.679907
O O18 0.000000 0.944288 0.674714
O O19 0.216503 0.000000 0.669014
O O20 0.665847 0.128904 0.500000
O O21 0.500000 0.128738 0.676921
#
# Coordination Sequence:
#
# PCOD8196504 Si02
#       7
#     8   8   8   8   4   8   8
#     4  10  20  33  49  67  86 109 137 166 194 228
#     4   8  14  25  39  52  67  90 119 148 178 215
#     4   8  13  21  32  43  55  74 100 129 161 199
#     4  10  20  31  43  61  85 111 136 163 197 236
#     4   9  17  31  51  71  89 107 129 161 199 233
#     4   8  13  20  27  32  40  58  83 110 144 190
#     4   9  15  19  24  36  51  65  84 115 154 194
#
# _framework density 15.007016
#
# number of rings (size 3 to 8) (size 9 to 14) (size 15 to 20)
#    0.000    3.154    0.000    3.000    0.000    5.846 
#    0.000    6.154    0.000    0.000    0.000    0.000 
#    0.000    0.000    0.000    0.000    0.000    0.000 
#
# Total GULP energy -644440.665101 kJ/mol
# GULP energy per Si atom -12393.089713 kJ/mol
# Density = 1.497286 g / cm^3
# Si number density = 15.007016 Si / 1000 Ang^3
#
#
#
# Elastic Constant Matrix: (Units=GPa)
#
#
# Indices 1 2 3 4 5 6 
#
# 1 127.7601 68.0123 22.8372 0.0000 0.0000 0.0000
# 2 68.0123 94.3639 20.4605 0.0000 0.0000 0.0000
# 3 22.8372 20.4605 17.9749 0.0000 0.0000 0.0000
# 4 0.0000 0.0000 0.0000 0.6802 0.0000 0.0000
# 5 0.0000 0.0000 0.0000 0.0000 13.8891 0.0000
# 6 0.0000 0.0000 0.0000 0.0000 0.0000 23.1842
#
#
#
# Elastic Compliance Matrix: (Units=1/GPa)
#
#
# Indices 1 2 3 4 5 6 
#
# 1 0.013531 -0.007999 -0.008086 0.000000 0.000000 0.000000
# 2 -0.007999 0.018799 -0.011235 0.000000 0.000000 0.000000
# 3 -0.008086 -0.011235 0.078695 0.000000 0.000000 0.000000
# 4 0.000000 0.000000 0.000000 1.470083 0.000000 0.000000
# 5 0.000000 0.000000 0.000000 0.000000 0.071999 0.000000
# 6 0.000000 0.000000 0.000000 0.000000 0.000000 0.043133
#
#
# Mechanical properties :
#
#
# Convention : Reuss Voigt Hill
#
# Bulk Modulus (GPa) = 17.73549 51.41321 34.57435
# Shear Modulus (GPa) = 2.82538 16.13664 9.48101
#
# Velocity S-wave (km/s) = 1.37361 3.28269 2.51623
# Velocity P-wave (km/s) = 3.78939 6.97868 5.61522
#
# Compressibility (1/GPa) = 0.05638413
#
# Stress axis : x y z
#
# Youngs Moduli (GPa) = 73.90589 53.19534 12.70731
#
# Poissons Ratio (x) = 0.42551 0.10275
# Poissons Ratio (y) = 0.59117 0.14277
# Poissons Ratio (z) = 0.59758 0.59767
#
# Static dielectric constant tensor:
#      x y z
#    x 3.124970 0.000000 0.000000 
#    y 0.000000 3.184430 0.000000 
#    z 0.000000 0.000000 2.245370 
# 
# 
# High freq. dielectric constant tensor:
#      x y z
#    x 1.587170 0.000000 0.000000 
#    y 0.000000 1.582660 0.000000 
#    z 0.000000 0.000000 1.484500 
# 
# From -- ./inp_files/15653.got.cif
#   From: 2010.03.12/outbox.cif.g09.slc.cpg/sg47_8_cif.got.tgz:15653.got - 2010.04.14 03:12:58.
