data_PCOD8196340
_publ_section_title
;
Structure prediction by ZEFSAII (Michael W. Deem and Ramdas Pophale) SiO2 
 PCOD8196340
Probable space group: P M M M
;
_chemical_formula_sum "Si O2"
_cell_formula_units_Z 56
_cell_length_a 21.337369
_cell_length_b 8.519682
_cell_length_c 15.291916
_cell_angle_alpha 90.000000
_cell_angle_beta 90.000000
_cell_angle_gamma 90.000000
_cell_volume 2779.880688
_symmetry_space_group_name_H-M "P M M M"
_symmetry_group_IT_number 47
_symmetry_cell_setting 'orthorhombic'
loop_
_space_group_symop_operation_xyz
x,y,z
-x,-y,z
x,-y,-z
-x,y,-z
-x,-y,-z
x,y,-z
-x,y,z
x,-y,z
loop_
_atom_site_type_symbol
_atom_site_label
_atom_site_fract_x
_atom_site_fract_y
_atom_site_fract_z
Si Si1 0.844456 0.816790 0.253404
Si Si2 0.930074 0.813702 0.097111
Si Si3 0.072212 0.318693 0.399450
Si Si4 0.622935 0.820586 0.597406
Si Si5 0.365987 0.816404 0.099032
Si Si6 0.500000 0.181647 0.152087
Si Si7 0.708676 0.318287 0.256188
Si Si8 0.500000 0.320344 0.338242
O O1 0.882410 0.749281 0.169789
O O2 0.885025 0.792461 0.340439
O O3 0.781713 0.717422 0.259237
O O4 0.828378 0.000000 0.242973
O O5 0.000000 0.747761 0.115869
O O6 0.932067 0.000000 0.102441
O O7 0.908001 0.760335 0.000000
O O8 0.089188 0.284546 0.500000
O O9 0.085218 0.500000 0.376796
O O10 0.000000 0.276568 0.381361
O O11 0.650755 0.796010 0.500000
O O12 0.675524 0.777872 0.667216
O O13 0.561629 0.712959 0.605414
O O14 0.602697 0.000000 0.612701
O O15 0.436414 0.746582 0.110963
O O16 0.318398 0.726554 0.161705
O O17 0.364612 0.000000 0.123367
O O18 0.343729 0.787219 0.000000
O O19 0.500000 0.207628 0.255073
O O20 0.500000 0.000000 0.128792
O O21 0.696689 0.500000 0.273836
O O22 0.500000 0.500000 0.307144
#
# Coordination Sequence:
#
# PCOD8196340 Si02
#       8
#     8   8   8   8   8   4   8   4
#     4  11  22  36  58  86 116 153 199 244 290 346
#     4   8  15  30  54  85 117 146 182 232 285 335
#     4   9  19  37  60  86 118 155 192 234 291 355
#     4  11  24  43  66  89 115 152 198 247 298 353
#     4  10  21  39  64  91 119 155 199 245 296 354
#     4  10  19  35  63  91 121 155 193 243 293 346
#     4  12  26  42  59  83 119 160 200 247 301 355
#     4  12  23  36  61  95 127 156 187 235 297 355
#
# _framework density 20.144749000000001
#
# number of rings (size 3 to 8) (size 9 to 14) (size 15 to 20)
#    0.000    1.714    1.429    4.500    0.000    5.429 
#    0.000    2.143    0.000    2.571    0.000    5.000 
#    0.000    0.000    0.000    0.000    0.000    0.000 
#
# Total GULP energy -694524.588394 kJ/mol
# GULP energy per Si atom -12402.224793 kJ/mol
# Density = 2.009890 g / cm^3
# Si number density = 20.144749 Si / 1000 Ang^3
#
#
#
# Elastic Constant Matrix: (Units=GPa)
#
#
# Indices 1 2 3 4 5 6 
#
# 1 112.8224 15.4420 56.8606 0.0000 0.0000 0.0000
# 2 15.4420 44.2149 19.4162 0.0000 0.0000 0.0000
# 3 56.8606 19.4162 127.5381 0.0000 0.0000 0.0000
# 4 0.0000 0.0000 0.0000 15.6263 0.0000 0.0000
# 5 0.0000 0.0000 0.0000 0.0000 10.7379 0.0000
# 6 0.0000 0.0000 0.0000 0.0000 0.0000 24.9336
#
#
#
# Elastic Compliance Matrix: (Units=1/GPa)
#
#
# Indices 1 2 3 4 5 6 
#
# 1 0.011580 -0.001905 -0.004873 0.000000 0.000000 0.000000
# 2 -0.001905 0.024550 -0.002888 0.000000 0.000000 0.000000
# 3 -0.004873 -0.002888 0.010453 0.000000 0.000000 0.000000
# 4 0.000000 0.000000 0.000000 0.063995 0.000000 0.000000
# 5 0.000000 0.000000 0.000000 0.000000 0.093128 0.000000
# 6 0.000000 0.000000 0.000000 0.000000 0.000000 0.040106
#
#
# Mechanical properties :
#
#
# Convention : Reuss Voigt Hill
#
# Bulk Modulus (GPa) = 36.69473 52.00144 44.34809
# Shear Modulus (GPa) = 18.36697 23.11667 20.74182
#
# Velocity S-wave (km/s) = 3.02280 3.39119 3.21228
# Velocity P-wave (km/s) = 5.51708 6.41900 5.98505
#
# Compressibility (1/GPa) = 0.02725187
#
# Stress axis : x y z
#
# Youngs Moduli (GPa) = 86.35608 40.73263 95.66661
#
# Poissons Ratio (x) = 0.07758 0.46616
# Poissons Ratio (y) = 0.16447 0.27633
# Poissons Ratio (z) = 0.42079 0.11765
#
# Static dielectric constant tensor:
#      x y z
#    x 3.685740 0.000000 0.000000 
#    y 0.000000 3.422180 0.000000 
#    z 0.000000 0.000000 3.778330 
# 
# 
# High freq. dielectric constant tensor:
#      x y z
#    x 1.783890 0.000000 0.000000 
#    y 0.000000 1.766410 0.000000 
#    z 0.000000 0.000000 1.798760 
# 
# From -- ./inp_files/25215.got.cif
#   From: 2010.03.12/outbox.cif.g09.slc.cpg/sg47_13_cif.got.tgz:25215.got - 2010.04.14 03:12:58.
