data_PCOD8196904
_publ_section_title
;
Structure prediction by ZEFSAII (Michael W. Deem and Ramdas Pophale) SiO2 
 PCOD8196904
Probable space group: P M M M
;
_chemical_formula_sum "Si O2"
_cell_formula_units_Z 48
_cell_length_a 17.722219
_cell_length_b 17.744556
_cell_length_c 9.222491
_cell_angle_alpha 90.000000
_cell_angle_beta 90.000000
_cell_angle_gamma 90.000000
_cell_volume 2900.223559
_symmetry_space_group_name_H-M "P M M M"
_symmetry_group_IT_number 47
_symmetry_cell_setting 'orthorhombic'
loop_
_space_group_symop_operation_xyz
x,y,z
-x,-y,z
x,-y,-z
-x,y,-z
-x,-y,-z
x,y,-z
-x,y,z
x,-y,z
loop_
_atom_site_type_symbol
_atom_site_label
_atom_site_fract_x
_atom_site_fract_y
_atom_site_fract_z
Si Si1 0.707156 0.411222 0.167342
Si Si2 0.208141 0.915457 0.170325
Si Si3 0.309314 0.186565 0.339973
Si Si4 0.586886 0.685220 0.670589
Si Si5 0.816797 0.686016 0.337012
Si Si6 0.913675 0.794169 0.831275
O O1 0.701475 0.500000 0.183460
O O2 0.632401 0.376671 0.239243
O O3 0.783478 0.384310 0.247606
O O4 0.711120 0.385768 0.000000
O O5 0.285681 0.880906 0.233838
O O6 0.135606 0.866434 0.217800
O O7 0.196450 0.000000 0.230171
O O8 0.218137 0.915846 0.000000
O O9 0.319287 0.151699 0.500000
O O10 0.385593 0.229593 0.289828
O O11 0.245614 0.249847 0.340205
O O12 0.600936 0.670394 0.500000
O O13 0.500000 0.677884 0.713873
O O14 0.838283 0.660295 0.500000
O O15 0.890543 0.719514 0.257575
O O16 0.000000 0.814123 0.796912
O O17 0.900572 0.776643 0.000000
#
# Coordination Sequence:
#
# PCOD8196904 Si02
#       6
#     8   8   8   8   8   8
#     4  10  20  32  47  69  96 123 151 185 225 270
#     4   9  17  28  43  65  92 121 153 188 225 267
#     4   8  15  28  45  64  85 113 151 190 225 264
#     4   9  18  32  49  69  93 121 153 189 228 270
#     4   9  17  30  48  67  88 118 156 193 225 263
#     4   9  17  29  46  68  94 123 152 185 228 274
#
# _framework density 16.550447999999999
#
# number of rings (size 3 to 8) (size 9 to 14) (size 15 to 20)
#    0.000    3.000    0.000    2.000    0.000    7.000 
#    0.000    3.333    0.000    1.000    0.000   11.667 
#    0.000    0.000    0.000    0.000    0.000    0.000 
#
# Total GULP energy -595027.177097 kJ/mol
# GULP energy per Si atom -12396.399523 kJ/mol
# Density = 1.651278 g / cm^3
# Si number density = 16.550448 Si / 1000 Ang^3
#
#
#
# Elastic Constant Matrix: (Units=GPa)
#
#
# Indices 1 2 3 4 5 6 
#
# 1 56.2297 62.9567 42.3382 0.0000 0.0000 0.0000
# 2 62.9567 86.2237 52.5538 0.0000 0.0000 0.0000
# 3 42.3382 52.5538 78.7846 0.0000 0.0000 0.0000
# 4 0.0000 0.0000 0.0000 22.5302 0.0000 0.0000
# 5 0.0000 0.0000 0.0000 0.0000 24.8464 0.0000
# 6 0.0000 0.0000 0.0000 0.0000 0.0000 18.8999
#
#
#
# Elastic Compliance Matrix: (Units=1/GPa)
#
#
# Indices 1 2 3 4 5 6 
#
# 1 0.100753 -0.068357 -0.008546 0.000000 0.000000 0.000000
# 2 -0.068357 0.065920 -0.007238 0.000000 0.000000 0.000000
# 3 -0.008546 -0.007238 0.022114 0.000000 0.000000 0.000000
# 4 0.000000 0.000000 0.000000 0.044385 0.000000 0.000000
# 5 0.000000 0.000000 0.000000 0.000000 0.040247 0.000000
# 6 0.000000 0.000000 0.000000 0.000000 0.000000 0.052910
#
#
# Mechanical properties :
#
#
# Convention : Reuss Voigt Hill
#
# Bulk Modulus (GPa) = 48.76812 59.65947 54.21380
# Shear Modulus (GPa) = 9.97112 17.48125 13.72618
#
# Velocity S-wave (km/s) = 2.45719 3.25351 2.88298
# Velocity P-wave (km/s) = 6.13031 7.08795 6.62645
#
# Compressibility (1/GPa) = 0.02050520
#
# Stress axis : x y z
#
# Youngs Moduli (GPa) = 9.92522 15.16981 45.22014
#
# Poissons Ratio (x) = 1.03696 0.38647
# Poissons Ratio (y) = 0.67845 0.32732
# Poissons Ratio (z) = 0.08483 0.10980
#
# Static dielectric constant tensor:
#      x y z
#    x 3.156110 0.000000 0.000000 
#    y 0.000000 3.092390 0.000000 
#    z 0.000000 0.000000 3.264620 
# 
# 
# High freq. dielectric constant tensor:
#      x y z
#    x 1.620100 0.000000 0.000000 
#    y 0.000000 1.619850 0.000000 
#    z 0.000000 0.000000 1.641560 
# 
# From -- ./inp_files/6384.got.cif
#   From: 2010.03.12/outbox.cif.g09.slc.cpg/sg47_4_cif.got.tgz:6384.got - 2010.04.14 03:12:58.
