data_PCOD8196841
_publ_section_title
;
Structure prediction by ZEFSAII (Michael W. Deem and Ramdas Pophale) SiO2 
 PCOD8196841
Probable space group: P M M M
;
_chemical_formula_sum "Si O2"
_cell_formula_units_Z 64
_cell_length_a 14.539796
_cell_length_b 28.480116
_cell_length_c 8.841285
_cell_angle_alpha 90.000000
_cell_angle_beta 90.000000
_cell_angle_gamma 90.000000
_cell_volume 3661.132590
_symmetry_space_group_name_H-M "P M M M"
_symmetry_group_IT_number 47
_symmetry_cell_setting 'orthorhombic'
loop_
_space_group_symop_operation_xyz
x,y,z
-x,-y,z
x,-y,-z
-x,y,-z
-x,-y,-z
x,y,-z
-x,y,z
x,-y,z
loop_
_atom_site_type_symbol
_atom_site_label
_atom_site_fract_x
_atom_site_fract_y
_atom_site_fract_z
Si Si1 0.284001 0.361605 0.177700
Si Si2 0.395940 0.175008 0.321958
Si Si3 0.893858 0.783085 0.675077
Si Si4 0.396213 0.448092 0.179938
Si Si5 0.897320 0.684881 0.175326
Si Si6 0.897070 0.947880 0.820232
Si Si7 0.775647 0.136967 0.178881
Si Si8 0.393635 0.272373 0.173831
O O1 0.325648 0.409473 0.249212
O O2 0.175382 0.356409 0.215571
O O3 0.336767 0.315999 0.241353
O O4 0.302228 0.363491 0.000000
O O5 0.386681 0.171433 0.500000
O O6 0.500000 0.163696 0.268227
O O7 0.327202 0.137653 0.246348
O O8 0.366956 0.227089 0.271291
O O9 0.867660 0.788534 0.500000
O O10 0.873551 0.730068 0.725288
O O11 0.831753 0.817275 0.773321
O O12 0.000000 0.795741 0.705318
O O13 0.500000 0.435464 0.231405
O O14 0.368927 0.500000 0.240862
O O15 0.391164 0.448395 0.000000
O O16 0.000000 0.666008 0.211128
O O17 0.888006 0.699488 0.000000
O O18 0.826440 0.909335 0.755413
O O19 0.000000 0.936839 0.759814
O O20 0.866564 0.000000 0.766248
O O21 0.897995 0.945691 0.000000
O O22 0.768843 0.135328 0.000000
O O23 0.500000 0.285437 0.190308
O O24 0.367478 0.261616 0.000000
#
# Coordination Sequence:
#
# PCOD8196841 Si02
#       8
#     8   8   8   8   8   8   8   8
#     4   9  15  23  37  56  79 109 142 176 217 262
#     4  10  21  35  48  64  92 128 161 194 232 273
#     4  10  20  32  46  67  97 128 155 186 225 270
#     4   8  13  21  34  54  80 107 134 168 215 270
#     4   9  17  28  41  58  83 116 152 185 215 253
#     4   8  15  29  49  74 101 123 145 180 227 274
#     4  11  20  30  50  75  96 122 157 193 229 272
#     4   9  16  26  42  64  87 110 141 182 225 269
#
# _framework density 17.480929
#
# number of rings (size 3 to 8) (size 9 to 14) (size 15 to 20)
#    0.000    2.750    0.000    3.375    0.000    4.500 
#    0.000    0.000    0.000    2.250    0.000    9.625 
#    0.000    2.000    0.000   12.000    0.000   11.500 
#
# Total GULP energy -793373.460865 kJ/mol
# GULP energy per Si atom -12396.460326 kJ/mol
# Density = 1.744114 g / cm^3
# Si number density = 17.480929 Si / 1000 Ang^3
#
#
#
# Elastic Constant Matrix: (Units=GPa)
#
#
# Indices 1 2 3 4 5 6 
#
# 1 127.6871 89.3658 23.8977 0.0000 0.0000 0.0000
# 2 89.3658 113.9739 20.9229 0.0000 0.0000 0.0000
# 3 23.8977 20.9229 34.3309 0.0000 0.0000 0.0000
# 4 0.0000 0.0000 0.0000 0.1018 0.0000 0.0000
# 5 0.0000 0.0000 0.0000 0.0000 18.5805 0.0000
# 6 0.0000 0.0000 0.0000 0.0000 0.0000 33.1916
#
#
#
# Elastic Compliance Matrix: (Units=1/GPa)
#
#
# Indices 1 2 3 4 5 6 
#
# 1 0.017929 -0.013249 -0.004406 0.000000 0.000000 0.000000
# 2 -0.013249 0.019670 -0.002765 0.000000 0.000000 0.000000
# 3 -0.004406 -0.002765 0.033880 0.000000 0.000000 0.000000
# 4 0.000000 0.000000 0.000000 9.827480 0.000000 0.000000
# 5 0.000000 0.000000 0.000000 0.000000 0.053820 0.000000
# 6 0.000000 0.000000 0.000000 0.000000 0.000000 0.030128
#
#
# Mechanical properties :
#
#
# Convention : Reuss Voigt Hill
#
# Bulk Modulus (GPa) = 32.63780 60.48500 46.56140
# Shear Modulus (GPa) = 0.49831 19.82847 10.16339
#
# Velocity S-wave (km/s) = 0.53449 3.37158 2.41384
# Velocity P-wave (km/s) = 4.36943 7.05921 5.87045
#
# Compressibility (1/GPa) = 0.03063932
#
# Stress axis : x y z
#
# Youngs Moduli (GPa) = 55.77520 50.83840 29.51571
#
# Poissons Ratio (x) = 0.67357 0.13004
# Poissons Ratio (y) = 0.73898 0.08162
# Poissons Ratio (z) = 0.24573 0.14058
#
# Static dielectric constant tensor:
#      x y z
#    x 3.519090 0.000000 0.000000 
#    y 0.000000 3.384620 0.000000 
#    z 0.000000 0.000000 2.909890 
# 
# 
# High freq. dielectric constant tensor:
#      x y z
#    x 1.682060 0.000000 0.000000 
#    y 0.000000 1.656770 0.000000 
#    z 0.000000 0.000000 1.639320 
# 
# From -- ./inp_files/8236.got.cif
#   From: 2010.03.12/outbox.cif.g09.slc.cpg/sg47_5_cif.got.tgz:8236.got - 2010.04.14 03:12:58.
