data_PCOD8196204
_publ_section_title
;
Structure prediction by ZEFSAII (Michael W. Deem and Ramdas Pophale) SiO2 
 PCOD8196204
Probable space group: P M M M
;
_chemical_formula_sum "Si O2"
_cell_formula_units_Z 48
_cell_length_a 29.303750
_cell_length_b 9.179800
_cell_length_c 9.615760
_cell_angle_alpha 90.000000
_cell_angle_beta 90.000000
_cell_angle_gamma 90.000000
_cell_volume 2586.664097
_symmetry_space_group_name_H-M "P M M M"
_symmetry_group_IT_number 47
_symmetry_cell_setting 'orthorhombic'
loop_
_space_group_symop_operation_xyz
x,y,z
-x,-y,z
x,-y,-z
-x,y,-z
-x,-y,-z
x,y,-z
-x,y,z
x,-y,z
loop_
_atom_site_type_symbol
_atom_site_label
_atom_site_fract_x
_atom_site_fract_y
_atom_site_fract_z
Si Si1 0.550665 0.172770 0.655209
Si Si2 0.896869 0.672296 0.769148
Si Si3 0.796664 0.672691 0.843454
Si Si4 0.711776 0.672676 0.662151
Si Si5 0.946536 0.160927 0.000000
Si Si6 0.633938 0.172997 0.161358
Si Si7 0.948792 0.671616 0.500000
O O1 0.564871 0.227952 0.500000
O O2 0.500000 0.232074 0.692611
O O3 0.586005 0.226903 0.772404
O O4 0.549752 0.000000 0.654009
O O5 0.898285 0.500000 0.792279
O O6 0.845463 0.731286 0.790402
O O7 0.916952 0.723570 0.624081
O O8 0.931603 0.747744 0.869821
O O9 0.797344 0.500000 0.847371
O O10 0.758767 0.725930 0.733730
O O11 0.786675 0.732284 0.000000
O O12 0.711574 0.720328 0.500000
O O13 0.705377 0.500000 0.675667
O O14 0.672365 0.751031 0.747461
O O15 0.000000 0.146872 0.000000
O O16 0.924243 0.000000 0.000000
O O17 0.639761 0.000000 0.173534
O O18 0.636174 0.222819 0.000000
O O19 0.955317 0.500000 0.500000
O O20 0.000000 0.742101 0.500000
#
# Coordination Sequence:
#
# PCOD8196204 Si02
#       7
#     8   8   8   8   4   8   4
#     4   8  14  26  46  72 102 137 176 219 265 310
#     4  10  19  34  57  81 105 135 172 215 259 305
#     4   9  17  31  52  78 102 129 167 210 257 306
#     4  10  21  35  54  78 104 137 175 214 261 317
#     4  11  23  37  53  77 109 143 177 211 252 305
#     4  10  20  33  51  77 108 141 177 217 263 312
#     4   9  18  30  49  81 111 131 161 211 262 301
#
# _framework density 18.556719000000001
#
# number of rings (size 3 to 8) (size 9 to 14) (size 15 to 20)
#    0.000    2.500    0.833    2.250    1.167    3.667 
#    0.000    2.917    0.000    2.000    0.000    3.500 
#    0.000    0.000    0.000    0.000    0.000    0.000 
#
# Total GULP energy -594863.339296 kJ/mol
# GULP energy per Si atom -12392.986235 kJ/mol
# Density = 1.851448 g / cm^3
# Si number density = 18.556719 Si / 1000 Ang^3
#
#
#
# Elastic Constant Matrix: (Units=GPa)
#
#
# Indices 1 2 3 4 5 6 
#
# 1 144.9628 23.3809 95.5725 0.0000 0.0000 0.0000
# 2 23.3809 19.9070 30.4523 0.0000 0.0000 0.0000
# 3 95.5725 30.4523 191.7165 0.0000 0.0000 0.0000
# 4 0.0000 0.0000 0.0000 11.9546 0.0000 0.0000
# 5 0.0000 0.0000 0.0000 0.0000 47.3195 0.0000
# 6 0.0000 0.0000 0.0000 0.0000 0.0000 24.4802
#
#
#
# Elastic Compliance Matrix: (Units=1/GPa)
#
#
# Indices 1 2 3 4 5 6 
#
# 1 0.010769 -0.005860 -0.004438 0.000000 0.000000 0.000000
# 2 -0.005860 0.069546 -0.008125 0.000000 0.000000 0.000000
# 3 -0.004438 -0.008125 0.008719 0.000000 0.000000 0.000000
# 4 0.000000 0.000000 0.000000 0.083650 0.000000 0.000000
# 5 0.000000 0.000000 0.000000 0.000000 0.021133 0.000000
# 6 0.000000 0.000000 0.000000 0.000000 0.000000 0.040849
#
#
# Mechanical properties :
#
#
# Convention : Reuss Voigt Hill
#
# Bulk Modulus (GPa) = 19.16163 72.82196 45.99180
# Shear Modulus (GPa) = 17.30652 30.56290 23.93471
#
# Velocity S-wave (km/s) = 3.05721 4.06273 3.59529
# Velocity P-wave (km/s) = 4.77603 7.83172 6.48638
#
# Compressibility (1/GPa) = 0.05218763
#
# Stress axis : x y z
#
# Youngs Moduli (GPa) = 92.85704 14.37903 114.69257
#
# Poissons Ratio (x) = 0.08426 0.50898
# Poissons Ratio (y) = 0.54413 0.93193
# Poissons Ratio (z) = 0.41208 0.11684
#
# Static dielectric constant tensor:
#      x y z
#    x 3.754120 0.000000 0.000000 
#    y 0.000000 2.993950 0.000000 
#    z 0.000000 0.000000 3.668130 
# 
# 
# High freq. dielectric constant tensor:
#      x y z
#    x 1.735340 0.000000 0.000000 
#    y 0.000000 1.666560 0.000000 
#    z 0.000000 0.000000 1.735540 
# 
# From -- ./inp_files/13953.got.cif
#   From: 2010.03.12/outbox.cif.g09.slc.cpg/sg47_7_cif.got.tgz:13953.got - 2010.04.14 03:12:58.
