data_PCOD8196941
_publ_section_title
;
Structure prediction by ZEFSAII (Michael W. Deem and Ramdas Pophale) SiO2 
 PCOD8196941
Probable space group: P M M M
;
_chemical_formula_sum "Si O2"
_cell_formula_units_Z 44
_cell_length_a 9.318195
_cell_length_b 7.778970
_cell_length_c 29.672022
_cell_angle_alpha 90.000000
_cell_angle_beta 90.000000
_cell_angle_gamma 90.000000
_cell_volume 2150.804981
_symmetry_space_group_name_H-M "P M M M"
_symmetry_group_IT_number 47
_symmetry_cell_setting 'orthorhombic'
loop_
_space_group_symop_operation_xyz
x,y,z
-x,-y,z
x,-y,-z
-x,y,-z
-x,-y,-z
x,y,-z
-x,y,z
x,-y,z
loop_
_atom_site_type_symbol
_atom_site_label
_atom_site_fract_x
_atom_site_fract_y
_atom_site_fract_z
Si Si1 0.338564 0.205237 0.633487
Si Si2 0.339996 0.302516 0.803973
Si Si3 0.666367 0.193514 0.901336
Si Si4 0.161078 0.204400 0.549769
Si Si5 0.838129 0.796432 0.718545
Si Si6 0.165872 0.500000 0.946912
O O1 0.500000 0.276430 0.636104
O O2 0.266446 0.279246 0.587897
O O3 0.252026 0.277159 0.676474
O O4 0.336732 0.000000 0.633164
O O5 0.500000 0.248910 0.787503
O O6 0.336324 0.500000 0.818444
O O7 0.295967 0.196471 0.848214
O O8 0.227832 0.269031 0.764788
O O9 0.500000 0.243482 0.908508
O O10 0.762893 0.326961 0.928313
O O11 0.697420 0.000000 0.918929
O O12 0.211915 0.266149 0.500000
O O13 0.000000 0.271285 0.559287
O O14 0.161856 0.000000 0.551658
O O15 0.000000 0.726467 0.714723
O O16 0.835347 0.000000 0.717825
O O17 0.000000 0.500000 0.932447
O O18 0.185563 0.500000 0.000000
#
# Coordination Sequence:
#
# PCOD8196941 Si02
#       6
#     8   8   8   8   8   4
#     4   9  16  25  38  57  84 120 163 212 263 317
#     4  10  20  36  58  82 110 143 181 229 284 340
#     4  10  21  40  67  95 123 160 207 256 305 359
#     4   8  13  21  33  50  76 113 155 200 256 322
#     4  10  20  32  47  70 101 137 176 217 266 328
#     4  11  25  43  63  91 131 173 209 253 306 359
#
# _framework density 20.457457999999999
#
# number of rings (size 3 to 8) (size 9 to 14) (size 15 to 20)
#    0.000    2.455    0.909    2.455    0.000    6.909 
#    0.000    3.636    0.000    0.000    0.000    0.000 
#    0.000    0.727    0.000    7.636    0.000   10.545 
#
# Total GULP energy -545549.814106 kJ/mol
# GULP energy per Si atom -12398.859411 kJ/mol
# Density = 2.041090 g / cm^3
# Si number density = 20.457458 Si / 1000 Ang^3
#
#
#
# Elastic Constant Matrix: (Units=GPa)
#
#
# Indices 1 2 3 4 5 6 
#
# 1 151.2411 50.0836 87.0341 0.0000 0.0000 0.0000
# 2 50.0836 61.2265 42.2644 0.0000 0.0000 0.0000
# 3 87.0341 42.2644 126.9035 0.0000 0.0000 0.0000
# 4 0.0000 0.0000 0.0000 -45.6029 0.0000 0.0000
# 5 0.0000 0.0000 0.0000 0.0000 43.7140 0.0000
# 6 0.0000 0.0000 0.0000 0.0000 0.0000 16.2210
#
#
#
# Elastic Compliance Matrix: (Units=1/GPa)
#
#
# Indices 1 2 3 4 5 6 
#
# 1 0.012179 -0.005449 -0.006538 0.000000 0.000000 0.000000
# 2 -0.005449 0.023647 -0.004138 0.000000 0.000000 0.000000
# 3 -0.006538 -0.004138 0.013742 0.000000 0.000000 0.000000
# 4 0.000000 0.000000 0.000000 -0.021928 0.000000 0.000000
# 5 0.000000 0.000000 0.000000 0.000000 0.022876 0.000000
# 6 0.000000 0.000000 0.000000 0.000000 0.000000 0.061648
#
#
# Mechanical properties :
#
#
# Convention : Reuss Voigt Hill
#
# Bulk Modulus (GPa) = 57.74579 77.57059 67.65819
# Shear Modulus (GPa) = 33.29203 13.53237 23.41220
#
# Velocity S-wave (km/s) = 4.03845 2.57473 3.38662
# Velocity P-wave (km/s) = 7.07347 6.84392 6.95965
#
# Compressibility (1/GPa) = 0.01731728
#
# Stress axis : x y z
#
# Youngs Moduli (GPa) = 82.11058 42.28879 72.77025
#
# Poissons Ratio (x) = 0.23045 0.47575
# Poissons Ratio (y) = 0.44745 0.30113
# Poissons Ratio (z) = 0.53681 0.17500
#
# Static dielectric constant tensor:
#      x y z
#    x 3.893270 0.000000 0.000000 
#    y 0.000000 3.428420 0.000000 
#    z 0.000000 0.000000 3.788200 
# 
# 
# High freq. dielectric constant tensor:
#      x y z
#    x 1.797600 0.000000 0.000000 
#    y 0.000000 1.775020 0.000000 
#    z 0.000000 0.000000 1.803880 
# 
# From -- ./inp_files/33944.got.cif
#   From: 2010.03.12/outbox.cif.g09.slc.cpg/sg47_17_cif.got.tgz:33944.got - 2010.04.14 03:12:58.
