data_PCOD8196192
_publ_section_title
;
Structure prediction by ZEFSAII (Michael W. Deem and Ramdas Pophale) SiO2 
 PCOD8196192
Probable space group: P M M M
;
_chemical_formula_sum "Si O2"
_cell_formula_units_Z 42
_cell_length_a 16.236142
_cell_length_b 13.113452
_cell_length_c 11.123863
_cell_angle_alpha 90.000000
_cell_angle_beta 90.000000
_cell_angle_gamma 90.000000
_cell_volume 2368.402459
_symmetry_space_group_name_H-M "P M M M"
_symmetry_group_IT_number 47
_symmetry_cell_setting 'orthorhombic'
loop_
_space_group_symop_operation_xyz
x,y,z
-x,-y,z
x,-y,-z
-x,y,-z
-x,-y,-z
x,y,-z
-x,y,z
x,-y,z
loop_
_atom_site_type_symbol
_atom_site_label
_atom_site_fract_x
_atom_site_fract_y
_atom_site_fract_z
Si Si1 0.750791 0.183222 0.000000
Si Si2 0.500000 0.120097 0.363799
Si Si3 0.087867 0.000000 0.741317
Si Si4 0.178015 0.808144 0.637555
Si Si5 0.871337 0.000000 0.000000
Si Si6 0.091862 0.673309 0.000000
Si Si7 0.331468 0.122444 0.240600
Si Si8 0.092437 0.612537 0.736818
O O1 0.808086 0.088959 0.000000
O O2 0.820141 0.270067 0.000000
O O3 0.691176 0.180766 0.116742
O O4 0.500000 0.167493 0.500000
O O5 0.422070 0.154152 0.284173
O O6 0.500000 0.000000 0.379518
O O7 0.133386 0.896366 0.710900
O O8 0.071605 0.000000 0.883525
O O9 0.000000 0.000000 0.675023
O O10 0.152511 0.815742 0.500000
O O11 0.274087 0.831405 0.654473
O O12 0.154790 0.697204 0.687482
O O13 0.093880 0.605568 0.119129
O O14 0.000000 0.732476 0.000000
O O15 0.321035 0.000000 0.226780
O O16 0.118163 0.500000 0.688737
O O17 0.000000 0.639534 0.691929
#
# Coordination Sequence:
#
# PCOD8196192 Si02
#       8
#     4   4   4   8   2   4   8   8
#     4  12  18  32  54  79 111 143 178 232 283 329
#     4   9  20  35  55  79 108 148 190 228 276 341
#     4  12  24  36  53  77 106 148 194 233 276 333
#     4  12  23  36  54  76 110 151 187 230 280 335
#     4  12  19  36  48  73 104 142 182 223 278 320
#     4  10  19  34  56  80 107 141 186 237 285 330
#     4  11  20  36  55  81 112 145 186 229 281 339
#     4  10  21  37  56  79 107 144 192 241 286 328
#
# _framework density 17.733473
#
# number of rings (size 3 to 8) (size 9 to 14) (size 15 to 20)
#    0.000    1.048    5.714    1.857    0.000    6.857 
#    0.000    2.381    0.000    0.000    0.000    0.667 
#    0.000    3.810    0.000    0.000    0.000    0.000 
#
# Total GULP energy -520312.852425 kJ/mol
# GULP energy per Si atom -12388.401248 kJ/mol
# Density = 1.769311 g / cm^3
# Si number density = 17.733473 Si / 1000 Ang^3
#
#
#
# Elastic Constant Matrix: (Units=GPa)
#
#
# Indices 1 2 3 4 5 6 
#
# 1 135.6665 45.0762 37.0224 0.0000 0.0000 0.0000
# 2 45.0762 88.9597 23.2139 0.0000 0.0000 0.0000
# 3 37.0224 23.2139 106.7290 0.0000 0.0000 0.0000
# 4 0.0000 0.0000 0.0000 0.9382 0.0000 0.0000
# 5 0.0000 0.0000 0.0000 0.0000 15.5693 0.0000
# 6 0.0000 0.0000 0.0000 0.0000 0.0000 -63.2800
#
#
#
# Elastic Compliance Matrix: (Units=1/GPa)
#
#
# Indices 1 2 3 4 5 6 
#
# 1 0.009391 -0.004143 -0.002356 0.000000 0.000000 0.000000
# 2 -0.004143 0.013746 -0.001552 0.000000 0.000000 0.000000
# 3 -0.002356 -0.001552 0.010525 0.000000 0.000000 0.000000
# 4 0.000000 0.000000 0.000000 1.065913 0.000000 0.000000
# 5 0.000000 0.000000 0.000000 0.000000 0.064229 0.000000
# 6 0.000000 0.000000 0.000000 0.000000 0.000000 -0.015803
#
#
# Mechanical properties :
#
#
# Convention : Reuss Voigt Hill
#
# Bulk Modulus (GPa) = 56.95859 60.22001 58.58930
# Shear Modulus (GPa) = 4.27366 5.71500 4.99433
#
# Velocity S-wave (km/s) = 1.55408 1.79714 1.68001
# Velocity P-wave (km/s) = 5.95056 6.19180 6.07238
#
# Compressibility (1/GPa) = 0.01755662
#
# Stress axis : x y z
#
# Youngs Moduli (GPa) = 106.48816 72.75034 95.01609
#
# Poissons Ratio (x) = 0.30144 0.22388
# Poissons Ratio (y) = 0.44123 0.14751
# Poissons Ratio (z) = 0.25091 0.11294
#
# Static dielectric constant tensor:
#      x y z
#    x 3.429590 0.000000 0.000000 
#    y 0.000000 2.995050 0.000000 
#    z 0.000000 0.000000 3.639700 
# 
# 
# High freq. dielectric constant tensor:
#      x y z
#    x 1.678450 0.000000 0.000000 
#    y 0.000000 1.654830 0.000000 
#    z 0.000000 0.000000 1.698110 
# 
# From -- ./inp_files/18393.got.cif
#   From: 2010.03.12/outbox.cif.g09.slc.cpg/sg47_10_cif.got.tgz:18393.got - 2010.04.14 03:12:58.
