data_PCOD8196011
_publ_section_title
;
Structure prediction by ZEFSAII (Michael W. Deem and Ramdas Pophale) SiO2 
 PCOD8196011
Probable space group: P M M M
;
_chemical_formula_sum "Si O2"
_cell_formula_units_Z 52
_cell_length_a 8.902323
_cell_length_b 27.961693
_cell_length_c 11.734483
_cell_angle_alpha 90.000000
_cell_angle_beta 90.000000
_cell_angle_gamma 90.000000
_cell_volume 2920.994713
_symmetry_space_group_name_H-M "P M M M"
_symmetry_group_IT_number 47
_symmetry_cell_setting 'orthorhombic'
loop_
_space_group_symop_operation_xyz
x,y,z
-x,-y,z
x,-y,-z
-x,y,-z
-x,-y,-z
x,y,-z
-x,y,z
x,-y,z
loop_
_atom_site_type_symbol
_atom_site_label
_atom_site_fract_x
_atom_site_fract_y
_atom_site_fract_z
Si Si1 0.322730 0.134170 0.773457
Si Si2 0.323185 0.404316 0.370093
Si Si3 0.173198 0.055567 0.370044
Si Si4 0.168969 0.500000 0.364611
Si Si5 0.178164 0.169824 0.000000
Si Si6 0.321831 0.223240 0.373675
Si Si7 0.678137 0.687643 0.772036
Si Si8 0.178067 0.719930 0.000000
O O1 0.500000 0.135889 0.794196
O O2 0.277688 0.083983 0.717545
O O3 0.266503 0.175693 0.689045
O O4 0.239983 0.141251 0.892318
O O5 0.270030 0.394043 0.500000
O O6 0.500000 0.411237 0.367066
O O7 0.250113 0.452386 0.319084
O O8 0.271794 0.360939 0.289993
O O9 0.219855 0.067605 0.500000
O O10 0.000000 0.069349 0.349957
O O11 0.199553 0.000000 0.345016
O O12 0.176979 0.500000 0.500000
O O13 0.000000 0.500000 0.318429
O O14 0.235504 0.224945 0.000000
O O15 0.000000 0.167916 0.000000
O O16 0.251377 0.223851 0.500000
O O17 0.500000 0.224735 0.381184
O O18 0.262505 0.269070 0.305789
O O19 0.500000 0.690128 0.790383
O O20 0.759425 0.691253 0.892387
O O21 0.000000 0.718108 0.000000
#
# Coordination Sequence:
#
# PCOD8196011 Si02
#       8
#     8   8   8   4   4   8   8   4
#     4  11  21  34  56  83 110 139 178 228 273 312
#     4   9  17  30  51  79 107 136 173 217 261 309
#     4   9  19  37  59  82 112 149 182 213 259 322
#     4   9  17  29  47  72 105 144 177 209 257 315
#     4  11  23  39  56  74 104 146 189 224 263 321
#     4   9  17  29  48  77 109 136 164 205 261 318
#     4  10  19  33  54  76 103 138 177 216 259 312
#     4  11  23  37  53  73 103 141 183 223 260 307
#
# _framework density 17.802154999999999
#
# number of rings (size 3 to 8) (size 9 to 14) (size 15 to 20)
#    0.000    2.231    1.538    2.538    0.000    5.231 
#    0.000    1.154    0.000    5.077    0.000    3.231 
#    0.000    0.000    0.000    0.000    0.000    0.000 
#
# Total GULP energy -644893.674446 kJ/mol
# GULP energy per Si atom -12401.801432 kJ/mol
# Density = 1.776164 g / cm^3
# Si number density = 17.802155 Si / 1000 Ang^3
#
#
#
# Elastic Constant Matrix: (Units=GPa)
#
#
# Indices 1 2 3 4 5 6 
#
# 1 50.0706 40.6145 38.5768 0.0000 0.0000 0.0000
# 2 40.6145 126.2804 66.8768 0.0000 0.0000 0.0000
# 3 38.5768 66.8768 136.0537 0.0000 0.0000 0.0000
# 4 0.0000 0.0000 0.0000 11.0942 0.0000 0.0000
# 5 0.0000 0.0000 0.0000 0.0000 21.4755 0.0000
# 6 0.0000 0.0000 0.0000 0.0000 0.0000 25.1721
#
#
#
# Elastic Compliance Matrix: (Units=1/GPa)
#
#
# Indices 1 2 3 4 5 6 
#
# 1 0.029314 -0.006795 -0.004972 0.000000 0.000000 0.000000
# 2 -0.006795 0.012281 -0.004110 0.000000 0.000000 0.000000
# 3 -0.004972 -0.004110 0.010780 0.000000 0.000000 0.000000
# 4 0.000000 0.000000 0.000000 0.090137 0.000000 0.000000
# 5 0.000000 0.000000 0.000000 0.000000 0.046565 0.000000
# 6 0.000000 0.000000 0.000000 0.000000 0.000000 0.039727
#
#
# Mechanical properties :
#
#
# Convention : Reuss Voigt Hill
#
# Bulk Modulus (GPa) = 48.49309 67.17124 57.83216
# Shear Modulus (GPa) = 18.69643 22.63745 20.66694
#
# Velocity S-wave (km/s) = 3.24425 3.56984 3.41093
# Velocity P-wave (km/s) = 6.42905 7.40308 6.93319
#
# Compressibility (1/GPa) = 0.02062150
#
# Stress axis : x y z
#
# Youngs Moduli (GPa) = 34.11344 81.42704 92.76497
#
# Poissons Ratio (x) = 0.55330 0.46119
# Poissons Ratio (y) = 0.23180 0.38126
# Poissons Ratio (z) = 0.16960 0.33466
#
# Static dielectric constant tensor:
#      x y z
#    x 3.097750 0.000000 0.000000 
#    y 0.000000 3.362170 0.000000 
#    z 0.000000 0.000000 3.284490 
# 
# 
# High freq. dielectric constant tensor:
#      x y z
#    x 1.674260 0.000000 0.000000 
#    y 0.000000 1.692940 0.000000 
#    z 0.000000 0.000000 1.680630 
# 
# From -- ./inp_files/15504.got.cif
#   From: 2010.03.12/outbox.cif.g09.slc.cpg/sg47_8_cif.got.tgz:15504.got - 2010.04.14 03:12:58.
