data_PCOD8196889
_publ_section_title
;
Structure prediction by ZEFSAII (Michael W. Deem and Ramdas Pophale) SiO2 
 PCOD8196889
Probable space group: P M M M
;
_chemical_formula_sum "Si O2"
_cell_formula_units_Z 64
_cell_length_a 13.912375
_cell_length_b 9.181457
_cell_length_c 28.714757
_cell_angle_alpha 90.000000
_cell_angle_beta 90.000000
_cell_angle_gamma 90.000000
_cell_volume 3667.904549
_symmetry_space_group_name_H-M "P M M M"
_symmetry_group_IT_number 47
_symmetry_cell_setting 'orthorhombic'
loop_
_space_group_symop_operation_xyz
x,y,z
-x,-y,z
x,-y,-z
-x,y,-z
-x,-y,-z
x,y,-z
-x,y,z
x,-y,z
loop_
_atom_site_type_symbol
_atom_site_label
_atom_site_fract_x
_atom_site_fract_y
_atom_site_fract_z
Si Si1 0.273196 0.829718 0.637959
Si Si2 0.224730 0.671213 0.777631
Si Si3 0.891938 0.829893 0.854173
Si Si4 0.890388 0.329214 0.314141
Si Si5 0.389368 0.169680 0.270112
Si Si6 0.392514 0.827066 0.448297
Si Si7 0.806019 0.827004 0.948568
Si Si8 0.399136 0.161667 0.055105
O O1 0.171975 0.749946 0.646268
O O2 0.349355 0.795327 0.678583
O O3 0.318690 0.766294 0.590223
O O4 0.251182 0.000000 0.634442
O O5 0.237149 0.500000 0.783418
O O6 0.182795 0.736533 0.824845
O O7 0.151171 0.712289 0.736372
O O8 0.329112 0.740216 0.767897
O O9 0.882641 0.786273 0.908863
O O10 0.000000 0.791817 0.838652
O O11 0.869448 0.000000 0.846723
O O12 0.883660 0.500000 0.323106
O O13 0.000000 0.273730 0.316979
O O14 0.500000 0.219660 0.267915
O O15 0.378466 0.000000 0.258432
O O16 0.357678 0.779864 0.500000
O O17 0.500000 0.765870 0.439041
O O18 0.396290 0.000000 0.444225
O O19 0.701896 0.760586 0.931610
O O20 0.794425 0.000000 0.952567
O O21 0.836932 0.766571 0.000000
O O22 0.500000 0.241501 0.071115
O O23 0.401134 0.000000 0.077108
O O24 0.398561 0.148835 0.000000
#
# Coordination Sequence:
#
# PCOD8196889 Si02
#       8
#     8   8   8   8   8   8   8   8
#     4   9  16  26  44  71  97 121 154 194 233 272
#     4  10  20  34  51  69  91 121 156 191 228 276
#     4  10  20  32  47  68  93 120 152 193 238 280
#     4   9  18  32  48  65  86 115 153 196 240 283
#     4   9  17  30  49  73 101 128 152 185 230 276
#     4   8  13  22  39  65  96 127 156 186 223 271
#     4   8  14  25  41  62  88 116 147 184 225 270
#     4   7   9  15  30  52  77 104 132 163 201 244
#
# _framework density 17.448654000000001
#
# number of rings (size 3 to 8) (size 9 to 14) (size 15 to 20)
#    0.000    3.250    0.000    2.625    0.000    3.500 
#    0.000    1.875    0.000    4.500    0.000    4.375 
#    0.000    0.000    0.000    4.250    0.000    4.125 
#
# Total GULP energy -792936.504888 kJ/mol
# GULP energy per Si atom -12389.632889 kJ/mol
# Density = 1.740894 g / cm^3
# Si number density = 17.448654 Si / 1000 Ang^3
#
#
#
# Elastic Constant Matrix: (Units=GPa)
#
#
# Indices 1 2 3 4 5 6 
#
# 1 128.9358 38.0444 56.5975 0.0000 0.0000 0.0000
# 2 38.0444 32.7925 30.7149 0.0000 0.0000 0.0000
# 3 56.5975 30.7149 100.8935 0.0000 0.0000 0.0000
# 4 0.0000 0.0000 0.0000 10.2366 0.0000 0.0000
# 5 0.0000 0.0000 0.0000 0.0000 28.4682 0.0000
# 6 0.0000 0.0000 0.0000 0.0000 0.0000 17.2974
#
#
#
# Elastic Compliance Matrix: (Units=1/GPa)
#
#
# Indices 1 2 3 4 5 6 
#
# 1 0.012706 -0.011282 -0.003693 0.000000 0.000000 0.000000
# 2 -0.011282 0.052675 -0.009707 0.000000 0.000000 0.000000
# 3 -0.003693 -0.009707 0.014938 0.000000 0.000000 0.000000
# 4 0.000000 0.000000 0.000000 0.097688 0.000000 0.000000
# 5 0.000000 0.000000 0.000000 0.000000 0.035127 0.000000
# 6 0.000000 0.000000 0.000000 0.000000 0.000000 0.057812
#
#
# Mechanical properties :
#
#
# Convention : Reuss Voigt Hill
#
# Bulk Modulus (GPa) = 32.30437 57.03728 44.67082
# Shear Modulus (GPa) = 15.12269 20.35145 17.73707
#
# Velocity S-wave (km/s) = 2.94716 3.41891 3.19176
# Velocity P-wave (km/s) = 5.48955 6.95305 6.26419
#
# Compressibility (1/GPa) = 0.03095556
#
# Stress axis : x y z
#
# Youngs Moduli (GPa) = 78.70520 18.98418 66.94222
#
# Poissons Ratio (x) = 0.21417 0.24722
# Poissons Ratio (y) = 0.88792 0.64983
# Poissons Ratio (z) = 0.29066 0.18429
#
# Static dielectric constant tensor:
#      x y z
#    x 3.609880 0.000000 0.000000 
#    y 0.000000 2.801620 0.000000 
#    z 0.000000 0.000000 3.214550 
# 
# 
# High freq. dielectric constant tensor:
#      x y z
#    x 1.682270 0.000000 0.000000 
#    y 0.000000 1.623470 0.000000 
#    z 0.000000 0.000000 1.658220 
# 
# From -- ./inp_files/34703.got.cif
#   From: 2010.03.12/outbox.cif.g09.slc.cpg/sg47_18_cif.got.tgz:34703.got - 2010.04.14 03:12:58.
