data_PCOD8196293
_publ_section_title
;
Structure prediction by ZEFSAII (Michael W. Deem and Ramdas Pophale) SiO2 
 PCOD8196293
Probable space group: P M M M
;
_chemical_formula_sum "Si O2"
_cell_formula_units_Z 48
_cell_length_a 17.273400
_cell_length_b 8.007564
_cell_length_c 18.171512
_cell_angle_alpha 90.000000
_cell_angle_beta 90.000000
_cell_angle_gamma 90.000000
_cell_volume 2513.444580
_symmetry_space_group_name_H-M "P M M M"
_symmetry_group_IT_number 47
_symmetry_cell_setting 'orthorhombic'
loop_
_space_group_symop_operation_xyz
x,y,z
-x,-y,z
x,-y,-z
-x,y,-z
-x,-y,-z
x,y,-z
-x,y,z
x,-y,z
loop_
_atom_site_type_symbol
_atom_site_label
_atom_site_fract_x
_atom_site_fract_y
_atom_site_fract_z
Si Si1 0.000000 0.812297 0.587214
Si Si2 0.908825 0.000000 0.083895
Si Si3 0.257395 0.806623 0.284765
Si Si4 0.180395 0.689764 0.855409
Si Si5 0.416332 0.191592 0.773072
Si Si6 0.164376 0.693257 0.583207
Si Si7 0.346653 0.306330 0.082227
O O1 0.077880 0.722305 0.615647
O O2 0.000000 0.805264 0.500000
O O3 0.000000 0.000000 0.617732
O O4 0.881845 0.829470 0.123283
O O5 0.000000 0.000000 0.088934
O O6 0.879548 0.000000 0.000000
O O7 0.200347 0.705572 0.231127
O O8 0.345039 0.732689 0.274955
O O9 0.228354 0.787240 0.368147
O O10 0.256945 0.000000 0.261153
O O11 0.149425 0.500000 0.869588
O O12 0.256209 0.726214 0.903623
O O13 0.500000 0.278345 0.755515
O O14 0.398522 0.206302 0.859918
O O15 0.424345 0.000000 0.752194
O O16 0.170502 0.764444 0.500000
O O17 0.183907 0.500000 0.584754
O O18 0.366285 0.500000 0.091834
O O19 0.366629 0.244050 0.000000
#
# Coordination Sequence:
#
# PCOD8196293 Si02
#       7
#     4   4   8   8   8   8   8
#     4   9  17  31  51  77 109 141 173 212 261 318
#     4  11  24  40  58  82 110 144 190 239 288 338
#     4  10  19  35  58  81 107 143 186 228 273 331
#     4  10  20  38  58  79 109 144 187 234 282 334
#     4   9  19  34  51  74 104 137 173 217 271 328
#     4  10  20  34  53  80 113 146 181 223 273 329
#     4   9  18  31  50  76 102 134 174 216 267 326
#
# _framework density 19.097297000000001
#
# number of rings (size 3 to 8) (size 9 to 14) (size 15 to 20)
#    0.000    2.333    0.833    1.750    1.167    5.000 
#    1.500    2.500    0.000    0.500    0.000    3.500 
#    0.000    0.000    0.000    0.000    0.000    0.000 
#
# Total GULP energy -594991.221813 kJ/mol
# GULP energy per Si atom -12395.650454 kJ/mol
# Density = 1.905383 g / cm^3
# Si number density = 19.097297 Si / 1000 Ang^3
#
#
#
# Elastic Constant Matrix: (Units=GPa)
#
#
# Indices 1 2 3 4 5 6 
#
# 1 117.0669 29.5275 61.0283 0.0000 0.0000 0.0000
# 2 29.5275 73.8137 15.1864 0.0000 0.0000 0.0000
# 3 61.0283 15.1864 91.6442 0.0000 0.0000 0.0000
# 4 0.0000 0.0000 0.0000 25.7954 0.0000 0.0000
# 5 0.0000 0.0000 0.0000 0.0000 17.7141 0.0000
# 6 0.0000 0.0000 0.0000 0.0000 0.0000 13.0906
#
#
#
# Elastic Compliance Matrix: (Units=1/GPa)
#
#
# Indices 1 2 3 4 5 6 
#
# 1 0.014057 -0.003828 -0.008727 0.000000 0.000000 0.000000
# 2 -0.003828 0.015068 0.000052 0.000000 0.000000 0.000000
# 3 -0.008727 0.000052 0.016714 0.000000 0.000000 0.000000
# 4 0.000000 0.000000 0.000000 0.038767 0.000000 0.000000
# 5 0.000000 0.000000 0.000000 0.000000 0.056452 0.000000
# 6 0.000000 0.000000 0.000000 0.000000 0.000000 0.076391
#
#
# Mechanical properties :
#
#
# Convention : Reuss Voigt Hill
#
# Bulk Modulus (GPa) = 47.99640 54.88990 51.44315
# Shear Modulus (GPa) = 20.04825 23.10551 21.57688
#
# Velocity S-wave (km/s) = 3.24357 3.48211 3.36496
# Velocity P-wave (km/s) = 6.26217 6.70607 6.48792
#
# Compressibility (1/GPa) = 0.02083490
#
# Stress axis : x y z
#
# Youngs Moduli (GPa) = 71.13985 66.36527 59.82878
#
# Poissons Ratio (x) = 0.25403 0.52210
# Poissons Ratio (y) = 0.27230 -0.00311
# Poissons Ratio (z) = 0.62080 -0.00345
#
# Static dielectric constant tensor:
#      x y z
#    x 3.650510 0.000000 0.000000 
#    y 0.000000 3.445460 0.000000 
#    z 0.000000 0.000000 3.354150 
# 
# 
# High freq. dielectric constant tensor:
#      x y z
#    x 1.733660 0.000000 0.000000 
#    y 0.000000 1.742110 0.000000 
#    z 0.000000 0.000000 1.718880 
# 
# From -- ./inp_files/28036.got.cif
#   From: 2010.03.12/outbox.cif.g09.slc.cpg/sg47_15_cif.got.tgz:28036.got - 2010.04.14 03:12:58.
