data_PCOD8196759
_publ_section_title
;
Structure prediction by ZEFSAII (Michael W. Deem and Ramdas Pophale) SiO2 
 PCOD8196759
Probable space group: P M M M
;
_chemical_formula_sum "Si O2"
_cell_formula_units_Z 64
_cell_length_a 31.411905
_cell_length_b 14.102339
_cell_length_c 8.957604
_cell_angle_alpha 90.000000
_cell_angle_beta 90.000000
_cell_angle_gamma 90.000000
_cell_volume 3968.051360
_symmetry_space_group_name_H-M "P M M M"
_symmetry_group_IT_number 47
_symmetry_cell_setting 'orthorhombic'
loop_
_space_group_symop_operation_xyz
x,y,z
-x,-y,z
x,-y,-z
-x,y,-z
-x,-y,-z
x,y,-z
-x,y,z
x,-y,z
loop_
_atom_site_type_symbol
_atom_site_label
_atom_site_fract_x
_atom_site_fract_y
_atom_site_fract_z
Si Si1 0.545075 0.106308 0.677458
Si Si2 0.280681 0.887439 0.831445
Si Si3 0.819878 0.606849 0.174100
Si Si4 0.092394 0.605175 0.669669
Si Si5 0.951747 0.795358 0.326949
Si Si6 0.796120 0.787593 0.676214
Si Si7 0.125372 0.110156 0.826007
Si Si8 0.363935 0.886590 0.331817
O O1 0.547440 0.102521 0.500000
O O2 0.500000 0.157636 0.726632
O O3 0.590049 0.153555 0.729863
O O4 0.543072 0.000000 0.741501
O O5 0.243487 0.849541 0.727708
O O6 0.326171 0.848825 0.773354
O O7 0.279392 0.000000 0.822657
O O8 0.273965 0.851461 0.000000
O O9 0.805158 0.500000 0.213847
O O10 0.868756 0.622660 0.218935
O O11 0.790296 0.680353 0.263839
O O12 0.815308 0.627758 0.000000
O O13 0.109600 0.615148 0.500000
O O14 0.072690 0.500000 0.694940
O O15 0.056733 0.683737 0.702803
O O16 0.944222 0.820287 0.500000
O O17 0.921551 0.861316 0.227998
O O18 0.000000 0.817038 0.278814
O O19 0.798032 0.787557 0.500000
O O20 0.840002 0.829917 0.737022
O O21 0.133044 0.000000 0.793112
O O22 0.130189 0.133136 0.000000
O O23 0.354976 0.850560 0.500000
O O24 0.366089 0.000000 0.330308
#
# Coordination Sequence:
#
# PCOD8196759 Si02
#       8
#     8   8   8   8   8   8   8   8
#     4   7   9  14  27  48  72 100 139 188 236 276
#     4  10  20  32  45  63  90 123 157 194 237 281
#     4  10  20  34  54  78 102 125 147 175 214 262
#     4   9  17  31  52  77 103 128 152 178 212 257
#     4  10  21  36  54  77 102 128 156 185 221 264
#     4  12  23  35  54  76  96 119 150 188 229 272
#     4  11  24  40  56  73  94 122 156 192 231 272
#     4   8  13  22  36  54  78 109 148 193 236 277
#
# _framework density 16.128824000000002
#
# number of rings (size 3 to 8) (size 9 to 14) (size 15 to 20)
#    0.000    2.375    1.250    3.750    0.000    4.750 
#    0.000    2.500    0.000    0.375    0.000    5.250 
#    0.000    0.000    0.000    0.000    0.000    0.625 
#
# Total GULP energy -793155.661474 kJ/mol
# GULP energy per Si atom -12393.057211 kJ/mol
# Density = 1.609211 g / cm^3
# Si number density = 16.128824 Si / 1000 Ang^3
#
#
#
# Elastic Constant Matrix: (Units=GPa)
#
#
# Indices 1 2 3 4 5 6 
#
# 1 102.6596 22.1023 41.4228 0.0000 0.0000 0.0000
# 2 22.1023 46.2811 36.0326 0.0000 0.0000 0.0000
# 3 41.4228 36.0326 89.3407 0.0000 0.0000 0.0000
# 4 0.0000 0.0000 0.0000 20.7295 0.0000 0.0000
# 5 0.0000 0.0000 0.0000 0.0000 4.1073 0.0000
# 6 0.0000 0.0000 0.0000 0.0000 0.0000 2.6787
#
#
#
# Elastic Compliance Matrix: (Units=1/GPa)
#
#
# Indices 1 2 3 4 5 6 
#
# 1 0.012116 -0.002059 -0.004787 0.000000 0.000000 0.000000
# 2 -0.002059 0.031847 -0.011890 0.000000 0.000000 0.000000
# 3 -0.004787 -0.011890 0.018208 0.000000 0.000000 0.000000
# 4 0.000000 0.000000 0.000000 0.048240 0.000000 0.000000
# 5 0.000000 0.000000 0.000000 0.000000 0.243471 0.000000
# 6 0.000000 0.000000 0.000000 0.000000 0.000000 0.373311
#
#
# Mechanical properties :
#
#
# Convention : Reuss Voigt Hill
#
# Bulk Modulus (GPa) = 40.48717 48.59965 44.54341
# Shear Modulus (GPa) = 6.46915 14.75134 10.61024
#
# Velocity S-wave (km/s) = 2.00490 3.02751 2.56763
# Velocity P-wave (km/s) = 5.52416 6.51296 6.03883
#
# Compressibility (1/GPa) = 0.02469918
#
# Stress axis : x y z
#
# Youngs Moduli (GPa) = 82.53683 31.39971 54.92090
#
# Poissons Ratio (x) = 0.06466 0.26291
# Poissons Ratio (y) = 0.16995 0.65300
# Poissons Ratio (z) = 0.39511 0.37334
#
# Static dielectric constant tensor:
#      x y z
#    x 3.291800 0.000000 0.000000 
#    y 0.000000 2.932960 0.000000 
#    z 0.000000 0.000000 3.057670 
# 
# 
# High freq. dielectric constant tensor:
#      x y z
#    x 1.616410 0.000000 0.000000 
#    y 0.000000 1.581500 0.000000 
#    z 0.000000 0.000000 1.617050 
# 
# From -- ./inp_files/14357.got.cif
#   From: 2010.03.12/outbox.cif.g09.slc.cpg/sg47_8_cif.got.tgz:14357.got - 2010.04.14 03:12:58.
