data_PCOD8196552
_publ_section_title
;
Structure prediction by ZEFSAII (Michael W. Deem and Ramdas Pophale) SiO2 
 PCOD8196552
Probable space group: P M M M
;
_chemical_formula_sum "Si O2"
_cell_formula_units_Z 64
_cell_length_a 17.699580
_cell_length_b 9.588796
_cell_length_c 22.655692
_cell_angle_alpha 90.000000
_cell_angle_beta 90.000000
_cell_angle_gamma 90.000000
_cell_volume 3845.071075
_symmetry_space_group_name_H-M "P M M M"
_symmetry_group_IT_number 47
_symmetry_cell_setting 'orthorhombic'
loop_
_space_group_symop_operation_xyz
x,y,z
-x,-y,z
x,-y,-z
-x,y,-z
-x,-y,-z
x,y,-z
-x,y,z
x,-y,z
loop_
_atom_site_type_symbol
_atom_site_label
_atom_site_fract_x
_atom_site_fract_y
_atom_site_fract_z
Si Si1 0.823455 0.347224 0.238681
Si Si2 0.787777 0.837757 0.067409
Si Si3 0.292655 0.663895 0.336271
Si Si4 0.222889 0.162292 0.569255
Si Si5 0.691258 0.345064 0.144280
Si Si6 0.584572 0.333863 0.243625
Si Si7 0.085573 0.161994 0.159558
Si Si8 0.916596 0.655098 0.430181
O O1 0.860900 0.500000 0.245046
O O2 0.784139 0.303775 0.299937
O O3 0.759390 0.353484 0.189679
O O4 0.888144 0.239470 0.219258
O O5 0.713786 0.756132 0.090593
O O6 0.862852 0.795748 0.103676
O O7 0.769541 0.000000 0.074411
O O8 0.803183 0.795934 0.000000
O O9 0.299389 0.500000 0.351608
O O10 0.289165 0.756082 0.395817
O O11 0.365341 0.716608 0.299129
O O12 0.237765 0.184307 0.500000
O O13 0.143289 0.229078 0.590010
O O14 0.222513 0.000000 0.586227
O O15 0.674064 0.500000 0.119025
O O16 0.619516 0.283876 0.180770
O O17 0.500000 0.273540 0.250154
O O18 0.585684 0.500000 0.243075
O O19 0.000000 0.204594 0.143854
O O20 0.092761 0.000000 0.173651
O O21 0.920826 0.652664 0.500000
O O22 0.892258 0.500000 0.407724
O O23 0.000000 0.693092 0.404910
#
# Coordination Sequence:
#
# PCOD8196552 Si02
#       8
#     8   8   8   8   8   8   8   8
#     4   8  15  28  44  62  83 108 140 177 220 266
#     4   9  17  28  42  61  87 121 157 189 221 257
#     4   9  17  30  49  70  90 114 145 180 219 268
#     4  10  20  31  44  65  93 124 155 186 221 262
#     4   8  14  26  45  67  89 112 139 175 218 262
#     4   8  14  27  50  77  97 111 135 179 231 274
#     4   9  17  28  42  61  85 114 150 191 230 264
#     4   8  14  26  44  63  82 107 142 183 222 257
#
# _framework density 16.644684999999999
#
# number of rings (size 3 to 8) (size 9 to 14) (size 15 to 20)
#    0.000    3.375    0.000    2.250    0.000    2.250 
#    0.000    5.000    0.000    3.000    0.000    8.750 
#    0.000    0.000    0.000    0.000    0.000    0.000 
#
# Total GULP energy -793130.006368 kJ/mol
# GULP energy per Si atom -12392.656349 kJ/mol
# Density = 1.660680 g / cm^3
# Si number density = 16.644685 Si / 1000 Ang^3
#
#
#
# Elastic Constant Matrix: (Units=GPa)
#
#
# Indices 1 2 3 4 5 6 
#
# 1 103.8240 47.0901 47.5200 0.0000 0.0000 0.0000
# 2 47.0901 69.2554 43.9570 0.0000 0.0000 0.0000
# 3 47.5200 43.9570 71.3627 0.0000 0.0000 0.0000
# 4 0.0000 0.0000 0.0000 25.3575 0.0000 0.0000
# 5 0.0000 0.0000 0.0000 0.0000 18.7369 0.0000
# 6 0.0000 0.0000 0.0000 0.0000 0.0000 14.1985
#
#
#
# Elastic Compliance Matrix: (Units=1/GPa)
#
#
# Indices 1 2 3 4 5 6 
#
# 1 0.015467 -0.006534 -0.006275 0.000000 0.000000 0.000000
# 2 -0.006534 0.026469 -0.011953 0.000000 0.000000 0.000000
# 3 -0.006275 -0.011953 0.025554 0.000000 0.000000 0.000000
# 4 0.000000 0.000000 0.000000 0.039436 0.000000 0.000000
# 5 0.000000 0.000000 0.000000 0.000000 0.053371 0.000000
# 6 0.000000 0.000000 0.000000 0.000000 0.000000 0.070430
#
#
# Mechanical properties :
#
#
# Convention : Reuss Voigt Hill
#
# Bulk Modulus (GPa) = 55.65967 57.95292 56.80629
# Shear Modulus (GPa) = 17.46793 18.71690 18.09242
#
# Velocity S-wave (km/s) = 3.24305 3.35699 3.30051
# Velocity P-wave (km/s) = 6.89461 7.06535 6.98050
#
# Compressibility (1/GPa) = 0.01796633
#
# Stress axis : x y z
#
# Youngs Moduli (GPa) = 64.65259 37.78019 39.13343
#
# Poissons Ratio (x) = 0.24687 0.24555
# Poissons Ratio (y) = 0.42247 0.46775
# Poissons Ratio (z) = 0.40567 0.45158
#
# Static dielectric constant tensor:
#      x y z
#    x 3.224190 0.000000 0.000000 
#    y 0.000000 3.147020 0.000000 
#    z 0.000000 0.000000 3.078960 
# 
# 
# High freq. dielectric constant tensor:
#      x y z
#    x 1.619670 0.000000 0.000000 
#    y 0.000000 1.626790 0.000000 
#    z 0.000000 0.000000 1.626730 
# 
# From -- ./inp_files/32922.got.cif
#   From: 2010.03.12/outbox.cif.g09.slc.cpg/sg47_17_cif.got.tgz:32922.got - 2010.04.14 03:12:58.
