data_PCOD8196740
_publ_section_title
;
Structure prediction by ZEFSAII (Michael W. Deem and Ramdas Pophale) SiO2 
 PCOD8196740
Probable space group: P M M M
;
_chemical_formula_sum "Si O2"
_cell_formula_units_Z 64
_cell_length_a 9.151005
_cell_length_b 14.322491
_cell_length_c 31.261200
_cell_angle_alpha 90.000000
_cell_angle_beta 90.000000
_cell_angle_gamma 90.000000
_cell_volume 4097.255016
_symmetry_space_group_name_H-M "P M M M"
_symmetry_group_IT_number 47
_symmetry_cell_setting 'orthorhombic'
loop_
_space_group_symop_operation_xyz
x,y,z
-x,-y,z
x,-y,-z
-x,y,-z
-x,-y,-z
x,y,-z
-x,y,z
x,-y,z
loop_
_atom_site_type_symbol
_atom_site_label
_atom_site_fract_x
_atom_site_fract_y
_atom_site_fract_z
Si Si1 0.170300 0.109385 0.131215
Si Si2 0.826644 0.210772 0.046661
Si Si3 0.330137 0.796404 0.209638
Si Si4 0.666063 0.396769 0.825793
Si Si5 0.829234 0.890956 0.287786
Si Si6 0.827389 0.397467 0.912587
Si Si7 0.835788 0.111030 0.452861
Si Si8 0.336396 0.111082 0.627865
O O1 0.225988 0.141597 0.084235
O O2 0.267773 0.160347 0.166219
O O3 0.000000 0.135384 0.138190
O O4 0.195892 0.000000 0.135435
O O5 0.771741 0.316743 0.055590
O O6 0.000000 0.208433 0.044950
O O7 0.764018 0.180008 0.000000
O O8 0.500000 0.823977 0.213870
O O9 0.308097 0.684027 0.209304
O O10 0.242337 0.834533 0.249620
O O11 0.500000 0.392119 0.842545
O O12 0.699365 0.500000 0.806105
O O13 0.769104 0.375866 0.865597
O O14 0.759321 0.855429 0.332026
O O15 0.000000 0.869369 0.289367
O O16 0.798344 0.000000 0.280206
O O17 0.774694 0.500000 0.928777
O O18 0.000000 0.394368 0.908962
O O19 0.779687 0.142729 0.500000
O O20 0.732021 0.152644 0.415904
O O21 0.000000 0.148140 0.445283
O O22 0.836148 0.000000 0.450282
O O23 0.500000 0.150628 0.632757
O O24 0.337509 0.000000 0.625731
#
# Coordination Sequence:
#
# PCOD8196740 Si02
#       8
#     8   8   8   8   8   8   8   8
#     4  10  20  33  48  65  86 112 142 175 208 243
#     4   9  17  29  45  66  90 112 136 168 204 244
#     4  11  21  32  49  69  87 108 136 172 210 250
#     4   9  18  32  49  68  89 111 133 160 200 249
#     4  10  20  32  45  61  84 115 147 179 217 259
#     4   9  16  27  46  69  89 109 133 164 202 243
#     4   8  13  21  33  49  71 103 144 187 229 271
#     4   9  16  25  37  54  78 107 142 186 229 265
#
# _framework density 15.620214000000001
#
# number of rings (size 3 to 8) (size 9 to 14) (size 15 to 20)
#    0.000    2.625    1.250    1.875    0.000    5.250 
#    0.000    3.750    0.000    1.500    0.000    2.625 
#    0.000    0.000    0.000    0.000    0.000    0.625 
#
# Total GULP energy -793217.053789 kJ/mol
# GULP energy per Si atom -12394.016465 kJ/mol
# Density = 1.558466 g / cm^3
# Si number density = 15.620214 Si / 1000 Ang^3
#
#
#
# Elastic Constant Matrix: (Units=GPa)
#
#
# Indices 1 2 3 4 5 6 
#
# 1 63.1978 26.7541 49.0432 0.0000 0.0000 0.0000
# 2 26.7541 54.3762 38.5225 0.0000 0.0000 0.0000
# 3 49.0432 38.5225 125.1156 0.0000 0.0000 0.0000
# 4 0.0000 0.0000 0.0000 2.2484 0.0000 0.0000
# 5 0.0000 0.0000 0.0000 0.0000 2.3911 0.0000
# 6 0.0000 0.0000 0.0000 0.0000 0.0000 14.3660
#
#
#
# Elastic Compliance Matrix: (Units=1/GPa)
#
#
# Indices 1 2 3 4 5 6 
#
# 1 0.024522 -0.006722 -0.007543 0.000000 0.000000 0.000000
# 2 -0.006722 0.025364 -0.005174 0.000000 0.000000 0.000000
# 3 -0.007543 -0.005174 0.012542 0.000000 0.000000 0.000000
# 4 0.000000 0.000000 0.000000 0.444764 0.000000 0.000000
# 5 0.000000 0.000000 0.000000 0.000000 0.418209 0.000000
# 6 0.000000 0.000000 0.000000 0.000000 0.000000 0.069609
#
#
# Mechanical properties :
#
#
# Convention : Reuss Voigt Hill
#
# Bulk Modulus (GPa) = 42.46250 52.36993 47.41621
# Shear Modulus (GPa) = 4.79967 12.35909 8.57938
#
# Velocity S-wave (km/s) = 1.75482 2.81592 2.34615
# Velocity P-wave (km/s) = 5.59904 6.64623 6.14498
#
# Compressibility (1/GPa) = 0.02355019
#
# Stress axis : x y z
#
# Youngs Moduli (GPa) = 40.77918 39.42673 79.72952
#
# Poissons Ratio (x) = 0.26502 0.60138
# Poissons Ratio (y) = 0.27411 0.41256
# Poissons Ratio (z) = 0.30759 0.20401
#
# Static dielectric constant tensor:
#      x y z
#    x 3.013070 0.000000 0.000000 
#    y 0.000000 2.927400 0.000000 
#    z 0.000000 0.000000 3.140180 
# 
# 
# High freq. dielectric constant tensor:
#      x y z
#    x 1.595810 0.000000 0.000000 
#    y 0.000000 1.563540 0.000000 
#    z 0.000000 0.000000 1.593020 
# 
# From -- ./inp_files/25839.got.cif
#   From: 2010.03.12/outbox.cif.g09.slc.cpg/sg47_13_cif.got.tgz:25839.got - 2010.04.14 03:12:58.
