data_PCOD8196328
_publ_section_title
;
Structure prediction by ZEFSAII (Michael W. Deem and Ramdas Pophale) SiO2 
 PCOD8196328
Probable space group: P M M M
;
_chemical_formula_sum "Si O2"
_cell_formula_units_Z 48
_cell_length_a 17.797288
_cell_length_b 15.626426
_cell_length_c 8.952952
_cell_angle_alpha 90.000000
_cell_angle_beta 90.000000
_cell_angle_gamma 90.000000
_cell_volume 2489.887610
_symmetry_space_group_name_H-M "P M M M"
_symmetry_group_IT_number 47
_symmetry_cell_setting 'orthorhombic'
loop_
_space_group_symop_operation_xyz
x,y,z
-x,-y,z
x,-y,-z
-x,y,-z
-x,-y,-z
x,y,-z
-x,y,z
x,-y,z
loop_
_atom_site_type_symbol
_atom_site_label
_atom_site_fract_x
_atom_site_fract_y
_atom_site_fract_z
Si Si1 0.643105 0.903416 0.676491
Si Si2 0.688460 0.403687 0.324571
Si Si3 0.844360 0.330188 0.323197
Si Si4 0.808110 0.855760 0.677663
Si Si5 0.585493 0.738310 0.828148
Si Si6 0.916680 0.000000 0.321658
Si Si7 0.000000 0.403545 0.321745
O O1 0.637048 0.890070 0.500000
O O2 0.728150 0.890316 0.733523
O O3 0.592086 0.831868 0.753853
O O4 0.616968 0.000000 0.719884
O O5 0.678404 0.388014 0.500000
O O6 0.663580 0.500000 0.279541
O O7 0.776212 0.393565 0.279782
O O8 0.637989 0.333407 0.244241
O O9 0.852666 0.324999 0.500000
O O10 0.823764 0.237773 0.255822
O O11 0.924377 0.360038 0.256066
O O12 0.808128 0.854241 0.500000
O O13 0.873684 0.916705 0.738491
O O14 0.500000 0.707311 0.808605
O O15 0.608263 0.747011 0.000000
O O16 0.918837 0.000000 0.500000
O O17 0.000000 0.000000 0.253798
O O18 0.000000 0.500000 0.264473
O O19 0.000000 0.399326 0.500000
#
# Coordination Sequence:
#
# PCOD8196328 Si02
#       7
#     8   8   8   8   8   4   4
#     4  10  19  35  60  85 110 143 183 228 276 326
#     4  10  20  36  60  86 111 144 187 233 279 329
#     4   9  16  26  44  71 106 143 178 219 270 323
#     4   9  15  25  42  67 100 139 177 216 262 313
#     4  11  25  42  58  80 113 148 182 227 282 339
#     4   9  16  22  34  64 108 147 176 212 267 327
#     4   9  16  24  36  63 106 146 175 211 267 328
#
# _framework density 19.277977
#
# number of rings (size 3 to 8) (size 9 to 14) (size 15 to 20)
#    0.000    2.333    2.500    1.000    1.167    4.667 
#    0.000    3.333    0.000    0.000    0.000    0.583 
#    0.000    2.667    0.000    0.000    0.000    0.000 
#
# Total GULP energy -595017.600142 kJ/mol
# GULP energy per Si atom -12396.200003 kJ/mol
# Density = 1.923410 g / cm^3
# Si number density = 19.277977 Si / 1000 Ang^3
#
#
#
# Elastic Constant Matrix: (Units=GPa)
#
#
# Indices 1 2 3 4 5 6 
#
# 1 109.2254 51.3080 32.1591 0.0000 0.0000 0.0000
# 2 51.3080 153.5240 39.7052 0.0000 0.0000 0.0000
# 3 32.1591 39.7052 38.9969 0.0000 0.0000 0.0000
# 4 0.0000 0.0000 0.0000 9.1033 0.0000 0.0000
# 5 0.0000 0.0000 0.0000 0.0000 -2.4271 0.0000
# 6 0.0000 0.0000 0.0000 0.0000 0.0000 28.4694
#
#
#
# Elastic Compliance Matrix: (Units=1/GPa)
#
#
# Indices 1 2 3 4 5 6 
#
# 1 0.012554 -0.002061 -0.008254 0.000000 0.000000 0.000000
# 2 -0.002061 0.009180 -0.007648 0.000000 0.000000 0.000000
# 3 -0.008254 -0.007648 0.040237 0.000000 0.000000 0.000000
# 4 0.000000 0.000000 0.000000 0.109850 0.000000 0.000000
# 5 0.000000 0.000000 0.000000 0.000000 -0.412015 0.000000
# 6 0.000000 0.000000 0.000000 0.000000 0.000000 0.035125
#
#
# Mechanical properties :
#
#
# Convention : Reuss Voigt Hill
#
# Bulk Modulus (GPa) = 38.39482 60.89900 49.64691
# Shear Modulus (GPa) = -31.16002 18.93406 -6.11298
#
# Velocity S-wave (km/s) = -4.02475 3.13734 -1.78265
# Velocity P-wave (km/s) = 1.28004 6.69197 4.64456
#
# Compressibility (1/GPa) = 0.02604518
#
# Stress axis : x y z
#
# Youngs Moduli (GPa) = 79.65771 108.93043 24.85299
#
# Poissons Ratio (x) = 0.22447 0.20515
# Poissons Ratio (y) = 0.16415 0.19006
# Poissons Ratio (z) = 0.65753 0.83305
#
# Static dielectric constant tensor:
#      x y z
#    x 3.678540 0.000000 0.000000 
#    y 0.000000 3.764580 0.000000 
#    z 0.000000 0.000000 2.922120 
# 
# 
# High freq. dielectric constant tensor:
#      x y z
#    x 1.759330 0.000000 0.000000 
#    y 0.000000 1.766360 0.000000 
#    z 0.000000 0.000000 1.680450 
# 
# From -- ./inp_files/9145.got.cif
#   From: 2010.03.12/outbox.cif.g09.slc.cpg/sg47_5_cif.got.tgz:9145.got - 2010.04.14 03:12:58.
