data_PCOD8196595
_publ_section_title
;
Structure prediction by ZEFSAII (Michael W. Deem and Ramdas Pophale) SiO2 
 PCOD8196595
Probable space group: P M M M
;
_chemical_formula_sum "Si O2"
_cell_formula_units_Z 52
_cell_length_a 9.124150
_cell_length_b 15.269397
_cell_length_c 22.654670
_cell_angle_alpha 90.000000
_cell_angle_beta 90.000000
_cell_angle_gamma 90.000000
_cell_volume 3156.254710
_symmetry_space_group_name_H-M "P M M M"
_symmetry_group_IT_number 47
_symmetry_cell_setting 'orthorhombic'
loop_
_space_group_symop_operation_xyz
x,y,z
-x,-y,z
x,-y,-z
-x,y,-z
-x,-y,-z
x,y,-z
-x,y,z
x,-y,z
loop_
_atom_site_type_symbol
_atom_site_label
_atom_site_fract_x
_atom_site_fract_y
_atom_site_fract_z
Si Si1 0.666767 0.000000 0.569153
Si Si2 0.828489 0.655085 0.435814
Si Si3 0.171564 0.598162 0.308494
Si Si4 0.663575 0.103555 0.935263
Si Si5 0.172629 0.102016 0.180024
Si Si6 0.666299 0.817716 0.397200
Si Si7 0.333122 0.760892 0.263842
O O1 0.742376 0.087470 0.594416
O O2 0.500000 0.000000 0.591889
O O3 0.679188 0.000000 0.500000
O O4 0.790473 0.609990 0.500000
O O5 0.775184 0.602235 0.377575
O O6 0.755205 0.749800 0.436350
O O7 0.000000 0.668771 0.430934
O O8 0.205180 0.500000 0.286032
O O9 0.255732 0.665355 0.265186
O O10 0.000000 0.620128 0.304430
O O11 0.500000 0.138243 0.919695
O O12 0.777990 0.133032 0.885281
O O13 0.659956 0.000000 0.938351
O O14 0.712004 0.139999 0.000000
O O15 0.250120 0.167538 0.224953
O O16 0.000000 0.113911 0.185487
O O17 0.217477 0.000000 0.192104
O O18 0.500000 0.817855 0.421260
O O19 0.672613 0.796553 0.329117
O O20 0.500000 0.750031 0.241222
#
# Coordination Sequence:
#
# PCOD8196595 Si02
#       7
#     4   8   8   8   8   8   8
#     4   9  16  26  41  59  77 101 140 185 222 265
#     4   9  17  29  45  65  88 110 136 175 224 280
#     4   9  18  33  51  68  89 117 147 185 235 289
#     4   8  14  26  44  66  94 129 166 200 233 267
#     4  10  20  31  45  68  98 132 167 199 232 272
#     4   9  18  30  44  60  79 110 147 185 228 272
#     4  10  20  32  48  67  90 120 155 197 236 277
#
# _framework density 16.475223
#
# number of rings (size 3 to 8) (size 9 to 14) (size 15 to 20)
#    0.000    2.846    0.000    1.846    1.077    3.385 
#    0.000    3.462    0.000    1.385    0.000    4.308 
#    0.000    0.615    0.000    6.462    0.000    3.077 
#
# Total GULP energy -644263.368330 kJ/mol
# GULP energy per Si atom -12389.680160 kJ/mol
# Density = 1.643772 g / cm^3
# Si number density = 16.475223 Si / 1000 Ang^3
#
#
#
# Elastic Constant Matrix: (Units=GPa)
#
#
# Indices 1 2 3 4 5 6 
#
# 1 57.9027 34.5105 35.4223 0.0000 0.0000 0.0000
# 2 34.5105 91.7678 27.0660 0.0000 0.0000 0.0000
# 3 35.4223 27.0660 59.9758 0.0000 0.0000 0.0000
# 4 0.0000 0.0000 0.0000 7.4533 0.0000 0.0000
# 5 0.0000 0.0000 0.0000 0.0000 23.1557 0.0000
# 6 0.0000 0.0000 0.0000 0.0000 0.0000 18.9980
#
#
#
# Elastic Compliance Matrix: (Units=1/GPa)
#
#
# Indices 1 2 3 4 5 6 
#
# 1 0.030611 -0.007128 -0.014862 0.000000 0.000000 0.000000
# 2 -0.007128 0.014230 -0.002212 0.000000 0.000000 0.000000
# 3 -0.014862 -0.002212 0.026449 0.000000 0.000000 0.000000
# 4 0.000000 0.000000 0.000000 0.134168 0.000000 0.000000
# 5 0.000000 0.000000 0.000000 0.000000 0.043186 0.000000
# 6 0.000000 0.000000 0.000000 0.000000 0.000000 0.052637
#
#
# Mechanical properties :
#
#
# Convention : Reuss Voigt Hill
#
# Bulk Modulus (GPa) = 43.69521 44.84932 44.27226
# Shear Modulus (GPa) = 13.99328 17.43124 15.71226
#
# Velocity S-wave (km/s) = 2.91753 3.25626 3.09154
# Velocity P-wave (km/s) = 6.15862 6.43576 6.29872
#
# Compressibility (1/GPa) = 0.02288581
#
# Stress axis : x y z
#
# Youngs Moduli (GPa) = 32.66817 70.27380 37.80812
#
# Poissons Ratio (x) = 0.50092 0.56191
# Poissons Ratio (y) = 0.23286 0.08363
# Poissons Ratio (z) = 0.48552 0.15543
#
# Static dielectric constant tensor:
#      x y z
#    x 3.156800 0.000000 0.000000 
#    y 0.000000 3.007620 0.000000 
#    z 0.000000 0.000000 3.325450 
# 
# 
# High freq. dielectric constant tensor:
#      x y z
#    x 1.626910 0.000000 0.000000 
#    y 0.000000 1.612070 0.000000 
#    z 0.000000 0.000000 1.620320 
# 
# From -- ./inp_files/11057.got.cif
#   From: 2010.03.12/outbox.cif.g09.slc.cpg/sg47_6_cif.got.tgz:11057.got - 2010.04.14 03:12:58.
