data_PCOD8196053
_publ_section_title
;
Structure prediction by ZEFSAII (Michael W. Deem and Ramdas Pophale) SiO2 
 PCOD8196053
Probable space group: P M M M
;
_chemical_formula_sum "Si O2"
_cell_formula_units_Z 52
_cell_length_a 8.743022
_cell_length_b 28.038362
_cell_length_c 11.767882
_cell_angle_alpha 90.000000
_cell_angle_beta 90.000000
_cell_angle_gamma 90.000000
_cell_volume 2884.778780
_symmetry_space_group_name_H-M "P M M M"
_symmetry_group_IT_number 47
_symmetry_cell_setting 'orthorhombic'
loop_
_space_group_symop_operation_xyz
x,y,z
-x,-y,z
x,-y,-z
-x,y,-z
-x,-y,-z
x,y,-z
-x,y,z
x,-y,z
loop_
_atom_site_type_symbol
_atom_site_label
_atom_site_fract_x
_atom_site_fract_y
_atom_site_fract_z
Si Si1 0.818890 0.316889 0.270924
Si Si2 0.180540 0.862717 0.263118
Si Si3 0.680431 0.946004 0.872694
Si Si4 0.680802 0.715123 0.500000
Si Si5 0.817952 0.227537 0.873528
Si Si6 0.678889 0.597929 0.132958
Si Si7 0.828193 0.500000 0.865559
Si Si8 0.180715 0.179645 0.500000
O O1 0.738607 0.314742 0.392377
O O2 0.757873 0.272079 0.198431
O O3 0.773409 0.364338 0.205164
O O4 0.000000 0.315079 0.287651
O O5 0.247147 0.912886 0.223316
O O6 0.244510 0.820972 0.182165
O O7 0.233077 0.850987 0.391196
O O8 0.000000 0.865793 0.255362
O O9 0.500000 0.941689 0.865454
O O10 0.732784 0.000000 0.846822
O O11 0.735576 0.931421 0.000000
O O12 0.500000 0.717162 0.500000
O O13 0.743520 0.768723 0.500000
O O14 0.000000 0.227466 0.875727
O O15 0.749936 0.231398 0.000000
O O16 0.500000 0.602912 0.158161
O O17 0.735456 0.546314 0.175379
O O18 0.715089 0.605784 0.000000
O O19 0.000000 0.500000 0.814040
O O20 0.837645 0.500000 0.000000
O O21 0.000000 0.189012 0.500000
#
# Coordination Sequence:
#
# PCOD8196053 Si02
#       8
#     8   8   8   4   8   8   4   4
#     4  11  21  36  56  77 108 147 186 226 272 328
#     4  10  19  33  55  79 105 136 177 223 265 312
#     4   9  19  36  55  76 106 141 174 213 266 325
#     4  12  24  38  56  78 106 142 188 233 273 322
#     4   9  17  29  49  78 107 134 168 214 265 315
#     4  10  20  34  53  82 119 151 182 229 284 329
#     4   9  17  31  53  80 109 148 195 231 270 331
#     4  10  20  38  57  77 105 142 180 220 267 320
#
# _framework density 18.025646999999999
#
# number of rings (size 3 to 8) (size 9 to 14) (size 15 to 20)
#    0.000    2.077    1.538    3.231    0.000    4.308 
#    0.000    1.154    0.000    5.538    0.000    3.231 
#    0.000    0.000    0.000    0.000    0.000    0.000 
#
# Total GULP energy -644856.949860 kJ/mol
# GULP energy per Si atom -12401.095190 kJ/mol
# Density = 1.798462 g / cm^3
# Si number density = 18.025647 Si / 1000 Ang^3
#
#
#
# Elastic Constant Matrix: (Units=GPa)
#
#
# Indices 1 2 3 4 5 6 
#
# 1 47.9268 22.5747 28.9508 0.0000 0.0000 0.0000
# 2 22.5747 120.6489 55.9502 0.0000 0.0000 0.0000
# 3 28.9508 55.9502 121.0822 0.0000 0.0000 0.0000
# 4 0.0000 0.0000 0.0000 12.2625 0.0000 0.0000
# 5 0.0000 0.0000 0.0000 0.0000 22.0846 0.0000
# 6 0.0000 0.0000 0.0000 0.0000 0.0000 27.2483
#
#
#
# Elastic Compliance Matrix: (Units=1/GPa)
#
#
# Indices 1 2 3 4 5 6 
#
# 1 0.024930 -0.002419 -0.004843 0.000000 0.000000 0.000000
# 2 -0.002419 0.010784 -0.004405 0.000000 0.000000 0.000000
# 3 -0.004843 -0.004405 0.011452 0.000000 0.000000 0.000000
# 4 0.000000 0.000000 0.000000 0.081550 0.000000 0.000000
# 5 0.000000 0.000000 0.000000 0.000000 0.045281 0.000000
# 6 0.000000 0.000000 0.000000 0.000000 0.000000 0.036700
#
#
# Mechanical properties :
#
#
# Convention : Reuss Voigt Hill
#
# Bulk Modulus (GPa) = 41.95883 56.06770 49.01327
# Shear Modulus (GPa) = 20.66347 24.46454 22.56401
#
# Velocity S-wave (km/s) = 3.38943 3.68803 3.54188
# Velocity P-wave (km/s) = 6.21655 7.02192 6.63147
#
# Compressibility (1/GPa) = 0.02383288
#
# Stress axis : x y z
#
# Youngs Moduli (GPa) = 40.11231 92.73239 87.31965
#
# Poissons Ratio (x) = 0.22429 0.42290
# Poissons Ratio (y) = 0.09702 0.38461
# Poissons Ratio (z) = 0.19427 0.40846
#
# Static dielectric constant tensor:
#      x y z
#    x 3.162530 0.000000 0.000000 
#    y 0.000000 3.477380 0.000000 
#    z 0.000000 0.000000 3.500600 
# 
# 
# High freq. dielectric constant tensor:
#      x y z
#    x 1.686540 0.000000 0.000000 
#    y 0.000000 1.702580 0.000000 
#    z 0.000000 0.000000 1.690960 
# 
# From -- ./inp_files/15512.got.cif
#   From: 2010.03.12/outbox.cif.g09.slc.cpg/sg47_8_cif.got.tgz:15512.got - 2010.04.14 03:12:58.
