data_PCOD8196445
_publ_section_title
;
Structure prediction by ZEFSAII (Michael W. Deem and Ramdas Pophale) SiO2 
 PCOD8196445
Probable space group: P M M M
;
_chemical_formula_sum "Si O2"
_cell_formula_units_Z 32
_cell_length_a 12.654221
_cell_length_b 9.106451
_cell_length_c 17.551008
_cell_angle_alpha 90.000000
_cell_angle_beta 90.000000
_cell_angle_gamma 90.000000
_cell_volume 2022.491170
_symmetry_space_group_name_H-M "P M M M"
_symmetry_group_IT_number 47
_symmetry_cell_setting 'orthorhombic'
loop_
_space_group_symop_operation_xyz
x,y,z
-x,-y,z
x,-y,-z
-x,y,-z
-x,-y,-z
x,y,-z
-x,y,z
x,-y,z
loop_
_atom_site_type_symbol
_atom_site_label
_atom_site_fract_x
_atom_site_fract_y
_atom_site_fract_z
Si Si1 0.874238 0.665751 0.648050
Si Si2 0.271565 0.331583 0.909325
Si Si3 0.126109 0.166064 0.500000
Si Si4 0.500000 0.326662 0.083029
Si Si5 0.877441 0.171233 0.798824
O O1 0.830271 0.500000 0.647088
O O2 0.829620 0.751254 0.574549
O O3 0.834021 0.746021 0.724116
O O4 0.000000 0.666744 0.645725
O O5 0.246132 0.500000 0.887601
O O6 0.388595 0.284353 0.876634
O O7 0.185086 0.226468 0.872436
O O8 0.268040 0.310764 0.000000
O O9 0.000000 0.166782 0.500000
O O10 0.169182 0.000000 0.500000
O O11 0.500000 0.500000 0.071365
O O12 0.500000 0.251165 0.000000
O O13 0.000000 0.206704 0.813018
O O14 0.858115 0.000000 0.786439
#
# Coordination Sequence:
#
# PCOD8196445 Si02
#       5
#     8   8   4   4   8
#     4   9  16  26  40  57  78 107 144 180 210 245
#     4   9  17  30  48  66  83 107 141 179 217 258
#     4   9  15  23  37  57  81 108 137 170 211 255
#     4   7  12  26  47  67  83 100 129 174 223 261
#     4  10  20  31  41  57  86 120 148 176 213 254
#
# _framework density 15.822070999999999
#
# number of rings (size 3 to 8) (size 9 to 14) (size 15 to 20)
#    0.000    3.000    0.000    3.375    0.000    7.000 
#    0.000    3.125    0.000    2.250    0.000    0.000 
#    0.000    1.000    0.000   10.750    0.000    8.250 
#
# Total GULP energy -396567.908571 kJ/mol
# GULP energy per Si atom -12392.747143 kJ/mol
# Density = 1.578606 g / cm^3
# Si number density = 15.822071 Si / 1000 Ang^3
#
#
#
# Elastic Constant Matrix: (Units=GPa)
#
#
# Indices 1 2 3 4 5 6 
#
# 1 55.5005 39.1405 36.9876 0.0000 0.0000 0.0000
# 2 39.1405 104.6223 48.0801 0.0000 0.0000 0.0000
# 3 36.9876 48.0801 78.4009 0.0000 0.0000 0.0000
# 4 0.0000 0.0000 0.0000 29.0057 0.0000 0.0000
# 5 0.0000 0.0000 0.0000 0.0000 1.3491 0.0000
# 6 0.0000 0.0000 0.0000 0.0000 0.0000 12.1800
#
#
#
# Elastic Compliance Matrix: (Units=1/GPa)
#
#
# Indices 1 2 3 4 5 6 
#
# 1 0.029031 -0.006359 -0.009797 0.000000 0.000000 0.000000
# 2 -0.006359 0.014702 -0.006016 0.000000 0.000000 0.000000
# 3 -0.009797 -0.006016 0.021066 0.000000 0.000000 0.000000
# 4 0.000000 0.000000 0.000000 0.034476 0.000000 0.000000
# 5 0.000000 0.000000 0.000000 0.000000 0.741208 0.000000
# 6 0.000000 0.000000 0.000000 0.000000 0.000000 0.082102
#
#
# Mechanical properties :
#
#
# Convention : Reuss Voigt Hill
#
# Bulk Modulus (GPa) = 48.88507 54.10447 51.49477
# Shear Modulus (GPa) = 5.13481 16.12800 10.63141
#
# Velocity S-wave (km/s) = 1.80344 3.19617 2.59498
# Velocity P-wave (km/s) = 5.94141 6.92029 6.44945
#
# Compressibility (1/GPa) = 0.02045614
#
# Stress axis : x y z
#
# Youngs Moduli (GPa) = 34.44586 68.01864 47.46944
#
# Poissons Ratio (x) = 0.43252 0.46504
# Poissons Ratio (y) = 0.21903 0.28558
# Poissons Ratio (z) = 0.33745 0.40921
#
# Static dielectric constant tensor:
#      x y z
#    x 2.812050 0.000000 0.000000 
#    y 0.000000 3.024680 0.000000 
#    z 0.000000 0.000000 2.952230 
# 
# 
# High freq. dielectric constant tensor:
#      x y z
#    x 1.559760 0.000000 0.000000 
#    y 0.000000 1.609910 0.000000 
#    z 0.000000 0.000000 1.598980 
# 
# From -- ./inp_files/3597.got.cif
#   From: 2010.03.12/outbox.cif.g09.slc.cpg/sg47_2_cif.got.tgz:3597.got - 2010.04.14 03:12:58.
