data_PCOD8196185
_publ_section_title
;
Structure prediction by ZEFSAII (Michael W. Deem and Ramdas Pophale) SiO2 
 PCOD8196185
Probable space group: P M M M
;
_chemical_formula_sum "Si O2"
_cell_formula_units_Z 40
_cell_length_a 9.652492
_cell_length_b 11.775095
_cell_length_c 19.964892
_cell_angle_alpha 90.000000
_cell_angle_beta 90.000000
_cell_angle_gamma 90.000000
_cell_volume 2269.189865
_symmetry_space_group_name_H-M "P M M M"
_symmetry_group_IT_number 47
_symmetry_cell_setting 'orthorhombic'
loop_
_space_group_symop_operation_xyz
x,y,z
-x,-y,z
x,-y,-z
-x,y,-z
-x,-y,-z
x,y,-z
-x,y,z
x,-y,z
loop_
_atom_site_type_symbol
_atom_site_label
_atom_site_fract_x
_atom_site_fract_y
_atom_site_fract_z
Si Si1 0.339513 0.760214 0.077183
Si Si2 0.840393 0.244171 0.682879
Si Si3 0.659644 0.629839 0.422660
Si Si4 0.156930 0.000000 0.267338
Si Si5 0.660774 0.000000 0.863531
Si Si6 0.160258 0.367700 0.817560
O O1 0.500000 0.737818 0.093696
O O2 0.248788 0.672971 0.119526
O O3 0.298923 0.889901 0.093349
O O4 0.306502 0.736545 0.000000
O O5 0.752927 0.287338 0.620685
O O6 0.816442 0.109497 0.686797
O O7 0.788311 0.301845 0.751551
O O8 0.000000 0.276010 0.670229
O O9 0.687788 0.657743 0.500000
O O10 0.500000 0.651412 0.404621
O O11 0.699874 0.500000 0.406942
O O12 0.257336 0.000000 0.204987
O O13 0.000000 0.000000 0.239355
O O14 0.500000 0.000000 0.844773
O O15 0.185991 0.500000 0.805598
O O16 0.000000 0.340384 0.832382
#
# Coordination Sequence:
#
# PCOD8196185 Si02
#       6
#     8   8   8   4   4   8
#     4  10  21  36  54  77 105 137 175 220 269 320
#     4  10  20  35  56  81 108 139 177 219 264 313
#     4   9  19  36  57  82 112 144 178 217 259 304
#     4  10  20  35  56  80 108 138 172 219 266 312
#     4  10  19  34  56  79 103 133 174 222 267 314
#     4  10  21  36  54  77 105 138 178 222 266 315
#
# _framework density 17.627437
#
# number of rings (size 3 to 8) (size 9 to 14) (size 15 to 20)
#    0.000    2.200    2.000    1.500    0.000    5.600 
#    0.000    3.500    0.000    4.800    0.000    0.000 
#    0.000    0.000    0.000    0.000    0.000    0.000 
#
# Total GULP energy -496146.903421 kJ/mol
# GULP energy per Si atom -12403.672586 kJ/mol
# Density = 1.758732 g / cm^3
# Si number density = 17.627437 Si / 1000 Ang^3
#
#
#
# Elastic Constant Matrix: (Units=GPa)
#
#
# Indices 1 2 3 4 5 6 
#
# 1 63.1156 46.7602 56.8242 0.0000 0.0000 0.0000
# 2 46.7602 113.9218 56.6213 0.0000 0.0000 0.0000
# 3 56.8242 56.6213 103.8157 0.0000 0.0000 0.0000
# 4 0.0000 0.0000 0.0000 33.4045 0.0000 0.0000
# 5 0.0000 0.0000 0.0000 0.0000 25.1336 0.0000
# 6 0.0000 0.0000 0.0000 0.0000 0.0000 31.4269
#
#
#
# Elastic Compliance Matrix: (Units=1/GPa)
#
#
# Indices 1 2 3 4 5 6 
#
# 1 0.034461 -0.006544 -0.015294 0.000000 0.000000 0.000000
# 2 -0.006544 0.013285 -0.003664 0.000000 0.000000 0.000000
# 3 -0.015294 -0.003664 0.020002 0.000000 0.000000 0.000000
# 4 0.000000 0.000000 0.000000 0.029936 0.000000 0.000000
# 5 0.000000 0.000000 0.000000 0.000000 0.039787 0.000000
# 6 0.000000 0.000000 0.000000 0.000000 0.000000 0.031820
#
#
# Mechanical properties :
#
#
# Convention : Reuss Voigt Hill
#
# Bulk Modulus (GPa) = 59.71761 66.80717 63.26239
# Shear Modulus (GPa) = 22.13617 26.03617 24.08617
#
# Velocity S-wave (km/s) = 3.54754 3.84738 3.70050
# Velocity P-wave (km/s) = 7.12259 7.59725 7.36375
#
# Compressibility (1/GPa) = 0.01674548
#
# Stress axis : x y z
#
# Youngs Moduli (GPa) = 29.01839 75.27371 49.99562
#
# Poissons Ratio (x) = 0.49256 0.76461
# Poissons Ratio (y) = 0.18989 0.18318
# Poissons Ratio (z) = 0.44379 0.27579
#
# Static dielectric constant tensor:
#      x y z
#    x 3.249540 0.000000 0.000000 
#    y 0.000000 3.390810 0.000000 
#    z 0.000000 0.000000 3.160540 
# 
# 
# High freq. dielectric constant tensor:
#      x y z
#    x 1.679950 0.000000 0.000000 
#    y 0.000000 1.689440 0.000000 
#    z 0.000000 0.000000 1.676770 
# 
# From -- ./inp_files/4079.got.cif
#   From: 2010.03.12/outbox.cif.g09.slc.cpg/sg47_3_cif.got.tgz:4079.got - 2010.04.14 03:12:58.
