data_PCOD8196401
_publ_section_title
;
Structure prediction by ZEFSAII (Michael W. Deem and Ramdas Pophale) SiO2 
 PCOD8196401
Probable space group: P M M M
;
_chemical_formula_sum "Si O2"
_cell_formula_units_Z 52
_cell_length_a 22.404877
_cell_length_b 14.080932
_cell_length_c 9.116451
_cell_angle_alpha 90.000000
_cell_angle_beta 90.000000
_cell_angle_gamma 90.000000
_cell_volume 2876.072087
_symmetry_space_group_name_H-M "P M M M"
_symmetry_group_IT_number 47
_symmetry_cell_setting 'orthorhombic'
loop_
_space_group_symop_operation_xyz
x,y,z
-x,-y,z
x,-y,-z
-x,y,-z
-x,-y,-z
x,y,-z
-x,y,z
x,-y,z
loop_
_atom_site_type_symbol
_atom_site_label
_atom_site_fract_x
_atom_site_fract_y
_atom_site_fract_z
Si Si1 0.387037 0.102691 0.173226
Si Si2 0.676253 0.612105 0.665060
Si Si3 0.745652 0.889342 0.835832
Si Si4 0.566668 0.701139 0.171641
Si Si5 0.930144 0.887607 0.500000
Si Si6 0.204188 0.608780 0.173298
Si Si7 0.159546 0.773189 0.661428
O O1 0.320603 0.129332 0.228150
O O2 0.431197 0.187481 0.218080
O O3 0.407971 0.000000 0.238908
O O4 0.383503 0.091353 0.000000
O O5 0.680479 0.653058 0.500000
O O6 0.676775 0.500000 0.662599
O O7 0.614132 0.642297 0.737112
O O8 0.732931 0.646877 0.760566
O O9 0.791412 0.841260 0.728141
O O10 0.759653 0.000000 0.839525
O O11 0.752588 0.846501 0.000000
O O12 0.500000 0.663985 0.207121
O O13 0.581418 0.689127 0.000000
O O14 0.901593 0.835489 0.355686
O O15 0.000000 0.868721 0.500000
O O16 0.915426 0.000000 0.500000
O O17 0.190711 0.500000 0.219438
O O18 0.152542 0.677793 0.239093
O O19 0.206824 0.618872 0.000000
O O20 0.180934 0.739844 0.500000
#
# Coordination Sequence:
#
# PCOD8196401 Si02
#       7
#     8   8   8   8   4   8   8
#     4   8  15  28  45  66  94 127 161 204 262 321
#     4  10  21  36  54  75 102 134 170 216 273 333
#     4   9  16  27  46  73 104 135 172 223 280 334
#     4  10  20  32  48  70  95 130 179 227 268 320
#     4   9  20  38  57  81 117 159 195 224 256 296
#     4  10  20  35  56  83 114 142 171 218 282 341
#     4  10  20  30  53  81 108 145 186 223 259 309
#
# _framework density 18.080214000000002
#
# number of rings (size 3 to 8) (size 9 to 14) (size 15 to 20)
#    0.462    2.077    0.000    3.692    0.000    4.000 
#    0.000    3.077    0.000    3.231    0.000    7.538 
#    0.000    0.000    0.000    0.000    0.000    0.000 
#
# Total GULP energy -644361.343433 kJ/mol
# GULP energy per Si atom -12391.564297 kJ/mol
# Density = 1.803906 g / cm^3
# Si number density = 18.080214 Si / 1000 Ang^3
#
#
#
# Elastic Constant Matrix: (Units=GPa)
#
#
# Indices 1 2 3 4 5 6 
#
# 1 78.2664 48.4972 38.5679 0.0000 0.0000 0.0000
# 2 48.4972 60.1993 32.8724 0.0000 0.0000 0.0000
# 3 38.5679 32.8724 83.2743 0.0000 0.0000 0.0000
# 4 0.0000 0.0000 0.0000 29.0723 0.0000 0.0000
# 5 0.0000 0.0000 0.0000 0.0000 20.2271 0.0000
# 6 0.0000 0.0000 0.0000 0.0000 0.0000 23.4054
#
#
#
# Elastic Compliance Matrix: (Units=1/GPa)
#
#
# Indices 1 2 3 4 5 6 
#
# 1 0.027056 -0.019063 -0.005006 0.000000 0.000000 0.000000
# 2 -0.019063 0.034608 -0.004832 0.000000 0.000000 0.000000
# 3 -0.005006 -0.004832 0.016234 0.000000 0.000000 0.000000
# 4 0.000000 0.000000 0.000000 0.034397 0.000000 0.000000
# 5 0.000000 0.000000 0.000000 0.000000 0.049439 0.000000
# 6 0.000000 0.000000 0.000000 0.000000 0.000000 0.042725
#
#
# Mechanical properties :
#
#
# Convention : Reuss Voigt Hill
#
# Bulk Modulus (GPa) = 49.76178 51.29056 50.52617
# Shear Modulus (GPa) = 18.59015 21.32780 19.95897
#
# Velocity S-wave (km/s) = 3.21004 3.43829 3.32612
# Velocity P-wave (km/s) = 6.42819 6.64773 6.53888
#
# Compressibility (1/GPa) = 0.02009575
#
# Stress axis : x y z
#
# Youngs Moduli (GPa) = 36.96053 28.89528 61.59760
#
# Poissons Ratio (x) = 0.55084 0.30833
# Poissons Ratio (y) = 0.70458 0.29766
# Poissons Ratio (z) = 0.18501 0.13963
#
# Static dielectric constant tensor:
#      x y z
#    x 3.045630 0.000000 0.000000 
#    y 0.000000 3.687550 0.000000 
#    z 0.000000 0.000000 3.259510 
# 
# 
# High freq. dielectric constant tensor:
#      x y z
#    x 1.664240 0.000000 0.000000 
#    y 0.000000 1.717110 0.000000 
#    z 0.000000 0.000000 1.681440 
# 
# From -- ./inp_files/12522.got.cif
#   From: 2010.03.12/outbox.cif.g09.slc.cpg/sg47_7_cif.got.tgz:12522.got - 2010.04.14 03:12:58.
