data_PCOD8196850
_publ_section_title
;
Structure prediction by ZEFSAII (Michael W. Deem and Ramdas Pophale) SiO2 
 PCOD8196850
Probable space group: P M M M
;
_chemical_formula_sum "Si O2"
_cell_formula_units_Z 64
_cell_length_a 14.325402
_cell_length_b 8.896725
_cell_length_c 28.721013
_cell_angle_alpha 90.000000
_cell_angle_beta 90.000000
_cell_angle_gamma 90.000000
_cell_volume 3660.469042
_symmetry_space_group_name_H-M "P M M M"
_symmetry_group_IT_number 47
_symmetry_cell_setting 'orthorhombic'
loop_
_space_group_symop_operation_xyz
x,y,z
-x,-y,z
x,-y,-z
-x,y,-z
-x,-y,-z
x,y,-z
-x,y,z
x,-y,z
loop_
_atom_site_type_symbol
_atom_site_label
_atom_site_fract_x
_atom_site_fract_y
_atom_site_fract_z
Si Si1 0.289891 0.177061 0.947651
Si Si2 0.891544 0.828842 0.198619
Si Si3 0.889444 0.668355 0.449048
Si Si4 0.774678 0.323281 0.723990
Si Si5 0.108474 0.175540 0.356769
Si Si6 0.100943 0.177845 0.906117
Si Si7 0.392836 0.177468 0.768857
Si Si8 0.610097 0.330888 0.863666
O O1 0.182557 0.230716 0.940622
O O2 0.355507 0.260968 0.911773
O O3 0.298946 0.000000 0.938844
O O4 0.320210 0.219845 0.000000
O O5 0.835701 0.716923 0.231235
O O6 0.874455 0.770556 0.146222
O O7 0.000000 0.821385 0.211877
O O8 0.855127 0.000000 0.205455
O O9 0.851250 0.720734 0.500000
O O10 0.852984 0.500000 0.437910
O O11 0.856614 0.781896 0.408712
O O12 0.000000 0.667026 0.451000
O O13 0.762559 0.500000 0.719876
O O14 0.826047 0.263773 0.678423
O O15 0.671745 0.249869 0.728857
O O16 0.000000 0.221586 0.349163
O O17 0.122324 0.000000 0.348659
O O18 0.000000 0.245350 0.921776
O O19 0.091977 0.000000 0.905701
O O20 0.500000 0.226964 0.759924
O O21 0.356525 0.234726 0.819233
O O22 0.382173 0.000000 0.767785
O O23 0.500000 0.329518 0.866436
O O24 0.648670 0.500000 0.858216
#
# Coordination Sequence:
#
# PCOD8196850 Si02
#       8
#     8   8   8   8   8   8   8   8
#     4  10  20  32  49  74  99 124 156 192 230 275
#     4   9  17  30  48  68  92 126 167 205 239 281
#     4   8  14  26  44  65  92 129 172 217 263 306
#     4  12  23  32  47  71 101 134 164 199 244 293
#     4  10  20  32  46  67  99 139 181 220 253 290
#     4   8  15  29  48  68  90 118 153 192 230 268
#     4  10  21  38  59  78  96 121 154 194 240 291
#     4  10  21  37  56  76  97 121 150 186 232 286
#
# _framework density 17.484096999999998
#
# number of rings (size 3 to 8) (size 9 to 14) (size 15 to 20)
#    0.000    2.375    0.000    4.500    0.000    6.000 
#    0.000    3.750    0.000    1.125    0.000    0.875 
#    0.000    0.500    0.000    5.250    0.000    2.500 
#
# Total GULP energy -793415.443617 kJ/mol
# GULP energy per Si atom -12397.116307 kJ/mol
# Density = 1.744430 g / cm^3
# Si number density = 17.484097 Si / 1000 Ang^3
#
#
#
# Elastic Constant Matrix: (Units=GPa)
#
#
# Indices 1 2 3 4 5 6 
#
# 1 52.3563 35.1303 44.3657 0.0000 0.0000 0.0000
# 2 35.1303 87.1933 49.0167 0.0000 0.0000 0.0000
# 3 44.3657 49.0167 95.9415 0.0000 0.0000 0.0000
# 4 0.0000 0.0000 0.0000 18.7649 0.0000 0.0000
# 5 0.0000 0.0000 0.0000 0.0000 19.3659 0.0000
# 6 0.0000 0.0000 0.0000 0.0000 0.0000 19.8793
#
#
#
# Elastic Compliance Matrix: (Units=1/GPa)
#
#
# Indices 1 2 3 4 5 6 
#
# 1 0.034082 -0.006835 -0.012268 0.000000 0.000000 0.000000
# 2 -0.006835 0.017461 -0.005760 0.000000 0.000000 0.000000
# 3 -0.012268 -0.005760 0.019039 0.000000 0.000000 0.000000
# 4 0.000000 0.000000 0.000000 0.053291 0.000000 0.000000
# 5 0.000000 0.000000 0.000000 0.000000 0.051637 0.000000
# 6 0.000000 0.000000 0.000000 0.000000 0.000000 0.050304
#
#
# Mechanical properties :
#
#
# Convention : Reuss Voigt Hill
#
# Bulk Modulus (GPa) = 47.95007 54.72405 51.33706
# Shear Modulus (GPa) = 17.69962 18.73390 18.21676
#
# Velocity S-wave (km/s) = 3.18516 3.27690 3.23136
# Velocity P-wave (km/s) = 6.40402 6.75905 6.58393
#
# Compressibility (1/GPa) = 0.02085503
#
# Stress axis : x y z
#
# Youngs Moduli (GPa) = 29.34099 57.27169 52.52356
#
# Poissons Ratio (x) = 0.39144 0.64438
# Poissons Ratio (y) = 0.20054 0.30254
# Poissons Ratio (z) = 0.35997 0.32989
#
# Static dielectric constant tensor:
#      x y z
#    x 3.504370 0.000000 0.000000 
#    y 0.000000 3.184240 0.000000 
#    z 0.000000 0.000000 3.412180 
# 
# 
# High freq. dielectric constant tensor:
#      x y z
#    x 1.657960 0.000000 0.000000 
#    y 0.000000 1.666330 0.000000 
#    z 0.000000 0.000000 1.666860 
# 
# From -- ./inp_files/34409.got.cif
#   From: 2010.03.12/outbox.cif.g09.slc.cpg/sg47_18_cif.got.tgz:34409.got - 2010.04.14 03:12:58.
