data_PCOD8196150
_publ_section_title
;
Structure prediction by ZEFSAII (Michael W. Deem and Ramdas Pophale) SiO2 
 PCOD8196150
Probable space group: P M M M
;
_chemical_formula_sum "Si O2"
_cell_formula_units_Z 52
_cell_length_a 9.209617
_cell_length_b 10.670753
_cell_length_c 30.631621
_cell_angle_alpha 90.000000
_cell_angle_beta 90.000000
_cell_angle_gamma 90.000000
_cell_volume 3010.278084
_symmetry_space_group_name_H-M "P M M M"
_symmetry_group_IT_number 47
_symmetry_cell_setting 'orthorhombic'
loop_
_space_group_symop_operation_xyz
x,y,z
-x,-y,z
x,-y,-z
-x,y,-z
-x,-y,-z
x,y,-z
-x,y,z
x,-y,z
loop_
_atom_site_type_symbol
_atom_site_label
_atom_site_fract_x
_atom_site_fract_y
_atom_site_fract_z
Si Si1 0.337266 0.147774 0.083356
Si Si2 0.338076 0.647203 0.326075
Si Si3 0.835619 0.850269 0.000000
Si Si4 0.670134 0.000000 0.451748
Si Si5 0.842586 0.357766 0.500000
Si Si6 0.170706 0.356471 0.759990
Si Si7 0.328172 0.738369 0.581543
Si Si8 0.170271 0.855685 0.829062
O O1 0.500000 0.205041 0.083883
O O2 0.247434 0.202934 0.042527
O O3 0.255307 0.183190 0.127595
O O4 0.346840 0.000000 0.078097
O O5 0.500000 0.702254 0.318905
O O6 0.344624 0.500000 0.330405
O O7 0.239886 0.687366 0.285479
O O8 0.269614 0.698530 0.370999
O O9 0.000000 0.798406 0.000000
O O10 0.837587 0.000000 0.000000
O O11 0.717730 0.882052 0.423570
O O12 0.500000 0.000000 0.459484
O O13 0.744221 0.000000 0.500000
O O14 0.883089 0.500000 0.500000
O O15 0.749344 0.334579 0.543062
O O16 0.000000 0.285631 0.500000
O O17 0.219710 0.500000 0.773086
O O18 0.219609 0.249670 0.794269
O O19 0.000000 0.354033 0.753754
O O20 0.500000 0.713480 0.577663
O O21 0.000000 0.845808 0.838925
O O22 0.208169 0.000000 0.814424
#
# Coordination Sequence:
#
# PCOD8196150 Si02
#       8
#     8   8   4   4   4   8   8   8
#     4   9  16  25  39  62  93 126 160 201 245 285
#     4   9  18  32  50  72  95 119 151 191 231 272
#     4   9  15  23  37  59  90 129 168 201 238 288
#     4   9  16  30  52  74  94 122 156 190 222 263
#     4  11  23  34  47  72 100 121 148 191 236 273
#     4   9  18  33  52  71  93 124 159 195 238 286
#     4  10  19  34  54  72  94 125 158 188 225 276
#     4   9  17  30  47  67  93 125 159 195 236 284
#
# _framework density 17.274152000000001
#
# number of rings (size 3 to 8) (size 9 to 14) (size 15 to 20)
#    0.000    2.692    0.769    1.385    0.000    5.231 
#    1.385    2.308    0.000    0.000    0.000    0.538 
#    0.000    4.308    0.000    0.000    0.000    0.000 
#
# Total GULP energy -644438.708308 kJ/mol
# GULP energy per Si atom -12393.052083 kJ/mol
# Density = 1.723483 g / cm^3
# Si number density = 17.274152 Si / 1000 Ang^3
#
#
#
# Elastic Constant Matrix: (Units=GPa)
#
#
# Indices 1 2 3 4 5 6 
#
# 1 68.5116 29.8771 65.4944 0.0000 0.0000 0.0000
# 2 29.8771 60.3462 59.3579 0.0000 0.0000 0.0000
# 3 65.4944 59.3579 172.0102 0.0000 0.0000 0.0000
# 4 0.0000 0.0000 0.0000 18.3218 0.0000 0.0000
# 5 0.0000 0.0000 0.0000 0.0000 31.5996 0.0000
# 6 0.0000 0.0000 0.0000 0.0000 0.0000 7.9650
#
#
#
# Elastic Compliance Matrix: (Units=1/GPa)
#
#
# Indices 1 2 3 4 5 6 
#
# 1 0.023671 -0.004321 -0.007522 0.000000 0.000000 0.000000
# 2 -0.004321 0.025875 -0.007284 0.000000 0.000000 0.000000
# 3 -0.007522 -0.007284 0.011191 0.000000 0.000000 0.000000
# 4 0.000000 0.000000 0.000000 0.054580 0.000000 0.000000
# 5 0.000000 0.000000 0.000000 0.000000 0.031646 0.000000
# 6 0.000000 0.000000 0.000000 0.000000 0.000000 0.125549
#
#
# Mechanical properties :
#
#
# Convention : Reuss Voigt Hill
#
# Bulk Modulus (GPa) = 44.47595 67.81408 56.14501
# Shear Modulus (GPa) = 15.71046 21.31985 18.51515
#
# Velocity S-wave (km/s) = 3.01903 3.51694 3.27745
# Velocity P-wave (km/s) = 6.16082 7.47225 6.84800
#
# Compressibility (1/GPa) = 0.02248406
#
# Stress axis : x y z
#
# Youngs Moduli (GPa) = 42.24593 38.64786 89.35610
#
# Poissons Ratio (x) = 0.16698 0.67213
# Poissons Ratio (y) = 0.18253 0.65085
# Poissons Ratio (z) = 0.31777 0.28150
#
# Static dielectric constant tensor:
#      x y z
#    x 3.263650 0.000000 0.000000 
#    y 0.000000 3.036120 0.000000 
#    z 0.000000 0.000000 3.264270 
# 
# 
# High freq. dielectric constant tensor:
#      x y z
#    x 1.663300 0.000000 0.000000 
#    y 0.000000 1.635300 0.000000 
#    z 0.000000 0.000000 1.671490 
# 
# From -- ./inp_files/4870.got.cif
#   From: 2010.03.12/outbox.cif.g09.slc.cpg/sg47_3_cif.got.tgz:4870.got - 2010.04.14 03:12:58.
