data_PCOD8196356
_publ_section_title
;
Structure prediction by ZEFSAII (Michael W. Deem and Ramdas Pophale) SiO2 
 PCOD8196356
Probable space group: P M M M
;
_chemical_formula_sum "Si O2"
_cell_formula_units_Z 64
_cell_length_a 25.083146
_cell_length_b 9.175204
_cell_length_c 14.426799
_cell_angle_alpha 90.000000
_cell_angle_beta 90.000000
_cell_angle_gamma 90.000000
_cell_volume 3320.226536
_symmetry_space_group_name_H-M "P M M M"
_symmetry_group_IT_number 47
_symmetry_cell_setting 'orthorhombic'
loop_
_space_group_symop_operation_xyz
x,y,z
-x,-y,z
x,-y,-z
-x,y,-z
-x,-y,-z
x,y,-z
-x,y,z
x,-y,z
loop_
_atom_site_type_symbol
_atom_site_label
_atom_site_fract_x
_atom_site_fract_y
_atom_site_fract_z
Si Si1 0.353665 0.170039 0.392469
Si Si2 0.563318 0.163597 0.101905
Si Si3 0.060151 0.167215 0.276846
Si Si4 0.147952 0.670002 0.392886
Si Si5 0.097141 0.669458 0.895103
Si Si6 0.437297 0.331581 0.720117
Si Si7 0.742366 0.671623 0.706380
Si Si8 0.217722 0.327406 0.899839
O O1 0.344691 0.201438 0.500000
O O2 0.408799 0.245137 0.362233
O O3 0.305028 0.238427 0.337309
O O4 0.357398 0.000000 0.370409
O O5 0.500000 0.165728 0.101306
O O6 0.584389 0.272816 0.180810
O O7 0.583542 0.000000 0.123787
O O8 0.584158 0.213580 0.000000
O O9 0.098908 0.244865 0.349040
O O10 0.061422 0.239064 0.175205
O O11 0.000000 0.181675 0.315054
O O12 0.077562 0.000000 0.268144
O O13 0.152902 0.713072 0.500000
O O14 0.136769 0.500000 0.378840
O O15 0.202817 0.714940 0.343520
O O16 0.093187 0.500000 0.868007
O O17 0.157563 0.727798 0.884430
O O18 0.076647 0.694430 0.000000
O O19 0.500000 0.305372 0.708550
O O20 0.421891 0.500000 0.714160
O O21 0.730704 0.500000 0.695776
O O22 0.745394 0.721721 0.814261
O O23 0.214874 0.500000 0.902646
O O24 0.239611 0.269382 0.000000
#
# Coordination Sequence:
#
# PCOD8196356 Si02
#       8
#     8   8   8   8   8   8   8   8
#     4  11  25  42  59  82 113 150 192 237 286 342
#     4   8  14  27  50  80 114 152 190 227 271 325
#     4  11  24  38  52  76 114 155 191 233 285 342
#     4  10  21  38  61  86 108 138 187 242 292 342
#     4   9  17  33  58  84 110 144 188 234 279 333
#     4  10  21  37  59  87 117 151 193 240 287 336
#     4  10  19  36  63  89 114 143 179 229 284 337
#     4   8  14  28  55  88 116 142 175 218 271 330
#
# _framework density 19.275791999999999
#
# number of rings (size 3 to 8) (size 9 to 14) (size 15 to 20)
#    0.000    2.375    1.250    2.625    0.000    5.250 
#    0.000    5.625    0.000    2.625    0.000    0.000 
#    0.000    0.000    0.000    0.000    0.000    0.000 
#
# Total GULP energy -793484.292378 kJ/mol
# GULP energy per Si atom -12398.192068 kJ/mol
# Density = 1.923192 g / cm^3
# Si number density = 19.275792 Si / 1000 Ang^3
#
#
#
# Elastic Constant Matrix: (Units=GPa)
#
#
# Indices 1 2 3 4 5 6 
#
# 1 78.8782 48.5402 57.5248 0.0000 0.0000 0.0000
# 2 48.5402 86.0559 60.4365 0.0000 0.0000 0.0000
# 3 57.5248 60.4365 139.5429 0.0000 0.0000 0.0000
# 4 0.0000 0.0000 0.0000 26.2709 0.0000 0.0000
# 5 0.0000 0.0000 0.0000 0.0000 24.2242 0.0000
# 6 0.0000 0.0000 0.0000 0.0000 0.0000 24.5977
#
#
#
# Elastic Compliance Matrix: (Units=1/GPa)
#
#
# Indices 1 2 3 4 5 6 
#
# 1 0.021814 -0.008607 -0.005265 0.000000 0.000000 0.000000
# 2 -0.008607 0.020096 -0.005156 0.000000 0.000000 0.000000
# 3 -0.005265 -0.005156 0.011570 0.000000 0.000000 0.000000
# 4 0.000000 0.000000 0.000000 0.038065 0.000000 0.000000
# 5 0.000000 0.000000 0.000000 0.000000 0.041281 0.000000
# 6 0.000000 0.000000 0.000000 0.000000 0.000000 0.040654
#
#
# Mechanical properties :
#
#
# Convention : Reuss Voigt Hill
#
# Bulk Modulus (GPa) = 64.83051 70.83110 67.83081
# Shear Modulus (GPa) = 23.07607 24.21694 23.64651
#
# Velocity S-wave (km/s) = 3.46374 3.54833 3.50629
# Velocity P-wave (km/s) = 7.05002 7.32212 7.18736
#
# Compressibility (1/GPa) = 0.01542484
#
# Stress axis : x y z
#
# Youngs Moduli (GPa) = 45.84265 49.76195 86.43413
#
# Poissons Ratio (x) = 0.42828 0.45506
# Poissons Ratio (y) = 0.39455 0.44561
# Poissons Ratio (z) = 0.24136 0.25655
#
# Static dielectric constant tensor:
#      x y z
#    x 3.324210 0.000000 0.000000 
#    y 0.000000 3.381890 0.000000 
#    z 0.000000 0.000000 4.031370 
# 
# 
# High freq. dielectric constant tensor:
#      x y z
#    x 1.733330 0.000000 0.000000 
#    y 0.000000 1.733380 0.000000 
#    z 0.000000 0.000000 1.765010 
# 
# From -- ./inp_files/7953.got.cif
#   From: 2010.03.12/outbox.cif.g09.slc.cpg/sg47_4_cif.got.tgz:7953.got - 2010.04.14 03:12:58.
