data_PCOD8196477
_publ_section_title
;
Structure prediction by ZEFSAII (Michael W. Deem and Ramdas Pophale) SiO2 
 PCOD8196477
Probable space group: P M M M
;
_chemical_formula_sum "Si O2"
_cell_formula_units_Z 40
_cell_length_a 18.029854
_cell_length_b 9.129526
_cell_length_c 16.608923
_cell_angle_alpha 90.000000
_cell_angle_beta 90.000000
_cell_angle_gamma 90.000000
_cell_volume 2733.895508
_symmetry_space_group_name_H-M "P M M M"
_symmetry_group_IT_number 47
_symmetry_cell_setting 'orthorhombic'
loop_
_space_group_symop_operation_xyz
x,y,z
-x,-y,z
x,-y,-z
-x,y,-z
-x,-y,-z
x,y,-z
-x,y,z
x,-y,z
loop_
_atom_site_type_symbol
_atom_site_label
_atom_site_fract_x
_atom_site_fract_y
_atom_site_fract_z
Si Si1 0.275308 0.668910 0.095131
Si Si2 0.088253 0.665494 0.500000
Si Si3 0.000000 0.666304 0.095233
Si Si4 0.418354 0.164029 0.904484
Si Si5 0.861757 0.828112 0.170769
Si Si6 0.915241 0.168861 0.344687
O O1 0.265339 0.500000 0.118965
O O2 0.356057 0.722540 0.125621
O O3 0.215849 0.766696 0.140798
O O4 0.265513 0.692204 0.000000
O O5 0.116342 0.500000 0.500000
O O6 0.119175 0.741656 0.419343
O O7 0.000000 0.679567 0.500000
O O8 0.927254 0.748041 0.124618
O O9 0.000000 0.500000 0.128274
O O10 0.000000 0.666621 0.000000
O O11 0.500000 0.212927 0.872663
O O12 0.399918 0.000000 0.873210
O O13 0.419493 0.163107 0.000000
O O14 0.866988 0.797050 0.265939
O O15 0.867639 0.000000 0.152003
O O16 0.000000 0.215754 0.326109
O O17 0.911724 0.000000 0.369042
#
# Coordination Sequence:
#
# PCOD8196477 Si02
#       6
#     8   4   4   8   8   8
#     4  10  20  31  42  60  86 114 144 179 221 260
#     4   9  17  27  43  67  85 101 128 161 206 259
#     4  11  23  35  45  58  79 108 143 185 228 259
#     4   8  14  26  44  63  81 104 137 175 213 255
#     4  11  21  33  47  62  80 109 148 183 215 252
#     4   9  17  31  46  61  81 105 135 172 213 254
#
# _framework density 14.631136
#
# number of rings (size 3 to 8) (size 9 to 14) (size 15 to 20)
#    0.000    2.400    1.000    3.000    0.000    7.600 
#    0.000    2.000    0.000    0.000    0.000    0.000 
#    0.000    0.000    0.000    0.900    0.000   17.400 
#
# Total GULP energy -495932.245036 kJ/mol
# GULP energy per Si atom -12398.306126 kJ/mol
# Density = 1.459784 g / cm^3
# Si number density = 14.631136 Si / 1000 Ang^3
#
#
#
# Elastic Constant Matrix: (Units=GPa)
#
#
# Indices 1 2 3 4 5 6 
#
# 1 90.7418 49.8407 35.1067 0.0000 0.0000 0.0000
# 2 49.8407 104.1463 50.7665 0.0000 0.0000 0.0000
# 3 35.1067 50.7665 64.4698 0.0000 0.0000 0.0000
# 4 0.0000 0.0000 0.0000 17.6635 0.0000 0.0000
# 5 0.0000 0.0000 0.0000 0.0000 -13.4143 0.0000
# 6 0.0000 0.0000 0.0000 0.0000 0.0000 21.5076
#
#
#
# Elastic Compliance Matrix: (Units=1/GPa)
#
#
# Indices 1 2 3 4 5 6 
#
# 1 0.015638 -0.005409 -0.004256 0.000000 0.000000 0.000000
# 2 -0.005409 0.017454 -0.010799 0.000000 0.000000 0.000000
# 3 -0.004256 -0.010799 0.026332 0.000000 0.000000 0.000000
# 4 0.000000 0.000000 0.000000 0.056614 0.000000 0.000000
# 5 0.000000 0.000000 0.000000 0.000000 -0.074547 0.000000
# 6 0.000000 0.000000 0.000000 0.000000 0.000000 0.046495
#
#
# Mechanical properties :
#
#
# Convention : Reuss Voigt Hill
#
# Bulk Modulus (GPa) = 54.06472 58.97618 56.52045
# Shear Modulus (GPa) = 37.01502 13.39430 25.20466
#
# Velocity S-wave (km/s) = 5.03525 3.02895 4.15501
# Velocity P-wave (km/s) = 8.41647 7.25458 7.85703
#
# Compressibility (1/GPa) = 0.01849635
#
# Stress axis : x y z
#
# Youngs Moduli (GPa) = 63.94712 57.29201 37.97594
#
# Poissons Ratio (x) = 0.30989 0.16163
# Poissons Ratio (y) = 0.34589 0.41010
# Poissons Ratio (z) = 0.27217 0.61869
#
# Static dielectric constant tensor:
#      x y z
#    x 2.895010 0.000000 0.000000 
#    y 0.000000 3.022060 0.000000 
#    z 0.000000 0.000000 2.687660 
# 
# 
# High freq. dielectric constant tensor:
#      x y z
#    x 1.538250 0.000000 0.000000 
#    y 0.000000 1.574380 0.000000 
#    z 0.000000 0.000000 1.528560 
# 
# From -- ./inp_files/28394.got.cif
#   From: 2010.03.12/outbox.cif.g09.slc.cpg/sg47_15_cif.got.tgz:28394.got - 2010.04.14 03:12:58.
