data_PCOD8196601
_publ_section_title
;
Structure prediction by ZEFSAII (Michael W. Deem and Ramdas Pophale) SiO2 
 PCOD8196601
Probable space group: P M M M
;
_chemical_formula_sum "Si O2"
_cell_formula_units_Z 44
_cell_length_a 9.691326
_cell_length_b 28.451719
_cell_length_c 8.951683
_cell_angle_alpha 90.000000
_cell_angle_beta 90.000000
_cell_angle_gamma 90.000000
_cell_volume 2468.291274
_symmetry_space_group_name_H-M "P M M M"
_symmetry_group_IT_number 47
_symmetry_cell_setting 'orthorhombic'
loop_
_space_group_symop_operation_xyz
x,y,z
-x,-y,z
x,-y,-z
-x,y,-z
-x,-y,-z
x,y,-z
-x,y,z
x,-y,z
loop_
_atom_site_type_symbol
_atom_site_label
_atom_site_fract_x
_atom_site_fract_y
_atom_site_fract_z
Si Si1 0.156610 0.870515 0.177430
Si Si2 0.154975 0.600775 0.820755
Si Si3 0.656404 0.054564 0.673051
Si Si4 0.655042 0.786879 0.822305
Si Si5 0.164060 0.500000 0.836172
Si Si6 0.654610 0.317269 0.177563
O O1 0.233593 0.917210 0.230159
O O2 0.237657 0.825026 0.242147
O O3 0.000000 0.869807 0.239015
O O4 0.156588 0.869944 0.000000
O O5 0.206564 0.549509 0.756846
O O6 0.248323 0.642412 0.753019
O O7 0.000000 0.611191 0.766799
O O8 0.161311 0.599146 0.000000
O O9 0.678419 0.066549 0.500000
O O10 0.500000 0.067691 0.721197
O O11 0.683984 0.000000 0.703911
O O12 0.500000 0.798106 0.763992
O O13 0.701253 0.734758 0.768328
O O14 0.654594 0.788503 0.000000
O O15 0.000000 0.500000 0.852831
O O16 0.232599 0.500000 0.000000
O O17 0.500000 0.327292 0.233204
O O18 0.661895 0.319219 0.000000
#
# Coordination Sequence:
#
# PCOD8196601 Si02
#       6
#     8   8   8   8   4   8
#     4  10  20  31  45  69  97 120 144 178 219 260
#     4   8  12  17  25  35  48  71 104 142 185 233
#     4   9  19  36  55  72  90 116 151 184 212 250
#     4   8  14  25  39  53  73 103 134 164 202 248
#     4   7  10  16  23  31  45  67  99 139 182 229
#     4   8  13  20  29  42  60  82 111 149 193 238
#
# _framework density 17.826096
#
# number of rings (size 3 to 8) (size 9 to 14) (size 15 to 20)
#    0.000    3.545    0.000    3.273    0.000    2.909 
#    0.000    6.818    0.000    2.727    0.000    0.000 
#    0.000    0.000    0.000    0.000    0.000    0.000 
#
# Total GULP energy -545099.750969 kJ/mol
# GULP energy per Si atom -12388.630704 kJ/mol
# Density = 1.778552 g / cm^3
# Si number density = 17.826096 Si / 1000 Ang^3
#
#
#
# Elastic Constant Matrix: (Units=GPa)
#
#
# Indices 1 2 3 4 5 6 
#
# 1 122.4690 91.5771 12.1948 0.0000 0.0000 0.0000
# 2 91.5771 150.8254 13.0336 0.0000 0.0000 0.0000
# 3 12.1948 13.0336 5.0948 0.0000 0.0000 0.0000
# 4 0.0000 0.0000 0.0000 -0.6682 0.0000 0.0000
# 5 0.0000 0.0000 0.0000 0.0000 11.1641 0.0000
# 6 0.0000 0.0000 0.0000 0.0000 0.0000 37.2344
#
#
#
# Elastic Compliance Matrix: (Units=1/GPa)
#
#
# Indices 1 2 3 4 5 6 
#
# 1 0.016065 -0.008257 -0.017331 0.000000 0.000000 0.000000
# 2 -0.008257 0.012755 -0.012868 0.000000 0.000000 0.000000
# 3 -0.017331 -0.012868 0.270680 0.000000 0.000000 0.000000
# 4 0.000000 0.000000 0.000000 -1.496513 0.000000 0.000000
# 5 0.000000 0.000000 0.000000 0.000000 0.089573 0.000000
# 6 0.000000 0.000000 0.000000 0.000000 0.000000 0.026857
#
#
# Mechanical properties :
#
#
# Convention : Reuss Voigt Hill
#
# Bulk Modulus (GPa) = 4.49256 56.88890 30.69073
# Shear Modulus (GPa) = -5.37938 20.31830 7.46946
#
# Velocity S-wave (km/s) = -1.73904 3.37977 2.04921
# Velocity P-wave (km/s) = 1.22746 6.87117 4.78050
#
# Compressibility (1/GPa) = 0.22259001
#
# Stress axis : x y z
#
# Youngs Moduli (GPa) = 62.24745 78.39859 3.69439
#
# Poissons Ratio (x) = 0.64730 0.06403
# Poissons Ratio (y) = 0.51395 0.04754
# Poissons Ratio (z) = 1.07879 1.00884
#
# Static dielectric constant tensor:
#      x y z
#    x 3.404160 0.000000 0.000000 
#    y 0.000000 3.780740 0.000000 
#    z 0.000000 0.000000 2.538860 
# 
# 
# High freq. dielectric constant tensor:
#      x y z
#    x 1.679350 0.000000 0.000000 
#    y 0.000000 1.711600 0.000000 
#    z 0.000000 0.000000 1.608750 
# 
# From -- ./inp_files/2029.got.cif
#   From: 2010.03.12/outbox.cif.g09.slc.cpg/sg47_2_cif.got.tgz:2029.got - 2010.04.14 03:12:58.
