data_PCOD8196243
_publ_section_title
;
Structure prediction by ZEFSAII (Michael W. Deem and Ramdas Pophale) SiO2 
 PCOD8196243
Probable space group: P M M M
;
_chemical_formula_sum "Si O2"
_cell_formula_units_Z 52
_cell_length_a 8.659182
_cell_length_b 25.343179
_cell_length_c 11.913051
_cell_angle_alpha 90.000000
_cell_angle_beta 90.000000
_cell_angle_gamma 90.000000
_cell_volume 2614.333331
_symmetry_space_group_name_H-M "P M M M"
_symmetry_group_IT_number 47
_symmetry_cell_setting 'orthorhombic'
loop_
_space_group_symop_operation_xyz
x,y,z
-x,-y,z
x,-y,-z
-x,y,-z
-x,-y,-z
x,y,-z
-x,y,z
x,-y,z
loop_
_atom_site_type_symbol
_atom_site_label
_atom_site_fract_x
_atom_site_fract_y
_atom_site_fract_z
Si Si1 0.822919 0.421521 0.000000
Si Si2 0.676150 0.686808 0.000000
Si Si3 0.319129 0.342615 0.370158
Si Si4 0.823729 0.850077 0.872451
Si Si5 0.180952 0.441638 0.244163
Si Si6 0.317210 0.058649 0.739833
Si Si7 0.668232 0.062384 0.500000
Si Si8 0.821131 0.738014 0.207457
O O1 0.752702 0.444039 0.116185
O O2 0.799657 0.359480 0.000000
O O3 0.000000 0.437425 0.000000
O O4 0.706195 0.719960 0.110606
O O5 0.500000 0.666220 0.000000
O O6 0.274398 0.346353 0.500000
O O7 0.500000 0.333575 0.351797
O O8 0.272399 0.397764 0.313167
O O9 0.227514 0.292250 0.320708
O O10 0.724798 0.900214 0.835947
O O11 0.796062 0.801136 0.786948
O O12 0.000000 0.868022 0.867833
O O13 0.777962 0.833900 0.000000
O O14 0.206895 0.500000 0.297413
O O15 0.000000 0.426259 0.244731
O O16 0.500000 0.056441 0.726700
O O17 0.246132 0.077232 0.617796
O O18 0.255794 0.000000 0.772381
O O19 0.500000 0.090074 0.500000
O O20 0.646530 0.000000 0.500000
O O21 0.000000 0.725409 0.179009
#
# Coordination Sequence:
#
# PCOD8196243 Si02
#       8
#     4   4   8   8   8   8   4   8
#     4  10  19  34  58  88 121 154 187 231 286 341
#     4  12  22  33  59  93 118 146 188 237 296 351
#     4  11  25  43  61  85 118 153 192 243 300 349
#     4  10  22  39  57  81 115 151 188 230 284 344
#     4  10  21  37  60  89 120 156 197 237 282 344
#     4   9  18  34  57  84 114 150 193 236 281 335
#     4   7  12  28  53  77 105 143 183 225 272 321
#     4  11  22  41  64  84 112 152 197 240 286 347
#
# _framework density 19.890347999999999
#
# number of rings (size 3 to 8) (size 9 to 14) (size 15 to 20)
#    0.000    1.923    2.308    2.769    0.000    4.923 
#    1.385    3.462    0.000    2.769    0.000    0.000 
#    0.000    0.000    0.000    0.000    0.000    0.000 
#
# Total GULP energy -644387.007955 kJ/mol
# GULP energy per Si atom -12392.057845 kJ/mol
# Density = 1.984508 g / cm^3
# Si number density = 19.890348 Si / 1000 Ang^3
#
#
#
# Elastic Constant Matrix: (Units=GPa)
#
#
# Indices 1 2 3 4 5 6 
#
# 1 45.8835 30.5221 31.3334 0.0000 0.0000 0.0000
# 2 30.5221 124.6651 54.6963 0.0000 0.0000 0.0000
# 3 31.3334 54.6963 116.5556 0.0000 0.0000 0.0000
# 4 0.0000 0.0000 0.0000 14.2524 0.0000 0.0000
# 5 0.0000 0.0000 0.0000 0.0000 20.2829 0.0000
# 6 0.0000 0.0000 0.0000 0.0000 0.0000 22.4961
#
#
#
# Elastic Compliance Matrix: (Units=1/GPa)
#
#
# Indices 1 2 3 4 5 6 
#
# 1 0.028627 -0.004574 -0.005549 0.000000 0.000000 0.000000
# 2 -0.004574 0.010832 -0.003854 0.000000 0.000000 0.000000
# 3 -0.005549 -0.003854 0.011880 0.000000 0.000000 0.000000
# 4 0.000000 0.000000 0.000000 0.070164 0.000000 0.000000
# 5 0.000000 0.000000 0.000000 0.000000 0.049303 0.000000
# 6 0.000000 0.000000 0.000000 0.000000 0.000000 0.044452
#
#
# Mechanical properties :
#
#
# Convention : Reuss Voigt Hill
#
# Bulk Modulus (GPa) = 42.76277 57.80088 50.28182
# Shear Modulus (GPa) = 19.91990 22.77643 21.34816
#
# Velocity S-wave (km/s) = 3.16806 3.38760 3.27967
# Velocity P-wave (km/s) = 5.91000 6.66513 6.29889
#
# Compressibility (1/GPa) = 0.02338483
#
# Stress axis : x y z
#
# Youngs Moduli (GPa) = 34.93264 92.31811 84.17695
#
# Poissons Ratio (x) = 0.42227 0.46711
# Poissons Ratio (y) = 0.15978 0.32438
# Poissons Ratio (z) = 0.19385 0.35575
#
# Static dielectric constant tensor:
#      x y z
#    x 3.370660 0.000000 0.000000 
#    y 0.000000 3.537490 0.000000 
#    z 0.000000 0.000000 3.908980 
# 
# 
# High freq. dielectric constant tensor:
#      x y z
#    x 1.753930 0.000000 0.000000 
#    y 0.000000 1.773750 0.000000 
#    z 0.000000 0.000000 1.774190 
# 
# From -- ./inp_files/15593.got.cif
#   From: 2010.03.12/outbox.cif.g09.slc.cpg/sg47_8_cif.got.tgz:15593.got - 2010.04.14 03:12:58.
