data_PCOD8196327
_publ_section_title
;
Structure prediction by ZEFSAII (Michael W. Deem and Ramdas Pophale) SiO2 
 PCOD8196327
Probable space group: P M M M
;
_chemical_formula_sum "Si O2"
_cell_formula_units_Z 44
_cell_length_a 14.237588
_cell_length_b 9.240010
_cell_length_c 18.078257
_cell_angle_alpha 90.000000
_cell_angle_beta 90.000000
_cell_angle_gamma 90.000000
_cell_volume 2378.293334
_symmetry_space_group_name_H-M "P M M M"
_symmetry_group_IT_number 47
_symmetry_cell_setting 'orthorhombic'
loop_
_space_group_symop_operation_xyz
x,y,z
-x,-y,z
x,-y,-z
-x,y,-z
-x,-y,-z
x,y,-z
-x,y,z
x,-y,z
loop_
_atom_site_type_symbol
_atom_site_label
_atom_site_fract_x
_atom_site_fract_y
_atom_site_fract_z
Si Si1 0.604635 0.665217 0.698652
Si Si2 0.108783 0.171114 0.500000
Si Si3 0.767660 0.332092 0.082951
Si Si4 0.607193 0.167077 0.152009
Si Si5 0.104362 0.671227 0.214954
Si Si6 0.203329 0.667570 0.365960
O O1 0.500000 0.694718 0.665731
O O2 0.613354 0.500000 0.727024
O O3 0.625646 0.767471 0.767388
O O4 0.683723 0.692995 0.636114
O O5 0.158925 0.233648 0.571773
O O6 0.000000 0.217717 0.500000
O O7 0.120396 0.000000 0.500000
O O8 0.746953 0.500000 0.098371
O O9 0.670474 0.246330 0.091364
O O10 0.843224 0.270493 0.141640
O O11 0.806707 0.307979 0.000000
O O12 0.500000 0.189632 0.127379
O O13 0.634928 0.000000 0.155539
O O14 0.097433 0.500000 0.210850
O O15 0.160759 0.718485 0.287769
O O16 0.000000 0.739367 0.217484
O O17 0.179368 0.500000 0.382673
#
# Coordination Sequence:
#
# PCOD8196327 Si02
#       6
#     8   4   8   8   8   8
#     4   9  17  32  57  86 113 140 175 220 265 316
#     4  11  25  41  56  81 116 148 181 225 274 319
#     4  10  20  34  52  76 107 142 182 228 275 320
#     4  10  20  33  51  76 107 143 180 221 271 325
#     4   9  17  31  53  81 108 135 175 225 272 320
#     4  10  19  35  60  85 110 143 181 221 267 320
#
# _framework density 18.500661999999998
#
# number of rings (size 3 to 8) (size 9 to 14) (size 15 to 20)
#    0.000    2.273    1.818    1.364    0.000    4.364 
#    0.000    4.091    0.000    3.273    0.000    1.273 
#    0.000    0.000    0.000    0.000    0.000    0.000 
#
# Total GULP energy -545570.497313 kJ/mol
# GULP energy per Si atom -12399.329484 kJ/mol
# Density = 1.845855 g / cm^3
# Si number density = 18.500662 Si / 1000 Ang^3
#
#
#
# Elastic Constant Matrix: (Units=GPa)
#
#
# Indices 1 2 3 4 5 6 
#
# 1 141.6345 44.4429 71.8385 0.0000 0.0000 0.0000
# 2 44.4429 60.6065 42.0918 0.0000 0.0000 0.0000
# 3 71.8385 42.0918 125.2057 0.0000 0.0000 0.0000
# 4 0.0000 0.0000 0.0000 10.8205 0.0000 0.0000
# 5 0.0000 0.0000 0.0000 0.0000 22.7680 0.0000
# 6 0.0000 0.0000 0.0000 0.0000 0.0000 20.6351
#
#
#
# Elastic Compliance Matrix: (Units=1/GPa)
#
#
# Indices 1 2 3 4 5 6 
#
# 1 0.010923 -0.004771 -0.004663 0.000000 0.000000 0.000000
# 2 -0.004771 0.023610 -0.005200 0.000000 0.000000 0.000000
# 3 -0.004663 -0.005200 0.012410 0.000000 0.000000 0.000000
# 4 0.000000 0.000000 0.000000 0.092417 0.000000 0.000000
# 5 0.000000 0.000000 0.000000 0.000000 0.043921 0.000000
# 6 0.000000 0.000000 0.000000 0.000000 0.000000 0.048461
#
#
# Mechanical properties :
#
#
# Convention : Reuss Voigt Hill
#
# Bulk Modulus (GPa) = 56.57663 71.57701 64.07682
# Shear Modulus (GPa) = 18.73350 22.11629 20.42490
#
# Velocity S-wave (km/s) = 3.18557 3.46125 3.32627
# Velocity P-wave (km/s) = 6.64663 7.39909 7.03293
#
# Compressibility (1/GPa) = 0.01767514
#
# Stress axis : x y z
#
# Youngs Moduli (GPa) = 91.55253 42.35535 80.57747
#
# Poissons Ratio (x) = 0.20208 0.37574
# Poissons Ratio (y) = 0.43680 0.41898
# Poissons Ratio (z) = 0.42692 0.22023
#
# Static dielectric constant tensor:
#      x y z
#    x 3.788520 0.000000 0.000000 
#    y 0.000000 3.220310 0.000000 
#    z 0.000000 0.000000 3.246680 
# 
# 
# High freq. dielectric constant tensor:
#      x y z
#    x 1.731540 0.000000 0.000000 
#    y 0.000000 1.693390 0.000000 
#    z 0.000000 0.000000 1.702280 
# 
# From -- ./inp_files/6054.got.cif
#   From: 2010.03.12/outbox.cif.g09.slc.cpg/sg47_4_cif.got.tgz:6054.got - 2010.04.14 03:12:58.
