data_PCOD8196680
_publ_section_title
;
Structure prediction by ZEFSAII (Michael W. Deem and Ramdas Pophale) SiO2 
 PCOD8196680
Probable space group: P M M M
;
_chemical_formula_sum "Si O2"
_cell_formula_units_Z 36
_cell_length_a 7.865094
_cell_length_b 24.971155
_cell_length_c 8.988365
_cell_angle_alpha 90.000000
_cell_angle_beta 90.000000
_cell_angle_gamma 90.000000
_cell_volume 1765.319213
_symmetry_space_group_name_H-M "P M M M"
_symmetry_group_IT_number 47
_symmetry_cell_setting 'orthorhombic'
loop_
_space_group_symop_operation_xyz
x,y,z
-x,-y,z
x,-y,-z
-x,y,-z
-x,-y,-z
x,y,-z
-x,y,z
x,-y,z
loop_
_atom_site_type_symbol
_atom_site_label
_atom_site_fract_x
_atom_site_fract_y
_atom_site_fract_z
Si Si1 0.695199 0.057540 0.675524
Si Si2 0.193090 0.169856 0.332171
Si Si3 0.000000 0.436744 0.170822
Si Si4 0.699250 0.624644 0.324547
Si Si5 0.305699 0.270301 0.162135
O O1 0.719770 0.055690 0.500000
O O2 0.500000 0.064074 0.720248
O O3 0.792427 0.109855 0.737782
O O4 0.763669 0.000000 0.739681
O O5 0.268264 0.170300 0.500000
O O6 0.293880 0.211834 0.233689
O O7 0.000000 0.188424 0.332321
O O8 0.825290 0.417704 0.248705
O O9 0.000000 0.500000 0.181900
O O10 0.000000 0.417059 0.000000
O O11 0.725400 0.622292 0.500000
O O12 0.500000 0.612890 0.284134
O O13 0.764063 0.683121 0.269571
O O14 0.500000 0.283261 0.135852
O O15 0.213266 0.271279 0.000000
#
# Coordination Sequence:
#
# PCOD8196680 Si02
#       5
#     8   8   4   8   8
#     4   8  14  26  45  68  95 131 176 225 276 331
#     4  10  20  31  47  75 108 141 177 222 279 342
#     4  11  25  43  65  95 131 171 208 245 294 353
#     4  10  22  41  66  94 124 161 206 257 307 354
#     4  10  21  37  57  80 108 145 188 234 287 347
#
# _framework density 20.392913
#
# number of rings (size 3 to 8) (size 9 to 14) (size 15 to 20)
#    0.000    2.333    0.000    3.000    1.556    5.778 
#    0.000    4.444    0.000    0.667    0.000    4.667 
#    0.000    0.000    0.000    0.000    0.000    0.000 
#
# Total GULP energy -446071.701362 kJ/mol
# GULP energy per Si atom -12390.880593 kJ/mol
# Density = 2.034650 g / cm^3
# Si number density = 20.392913 Si / 1000 Ang^3
#
#
#
# Elastic Constant Matrix: (Units=GPa)
#
#
# Indices 1 2 3 4 5 6 
#
# 1 67.7337 38.7270 39.4101 0.0000 0.0000 0.0000
# 2 38.7270 132.3413 59.3612 0.0000 0.0000 0.0000
# 3 39.4101 59.3612 111.7522 0.0000 0.0000 0.0000
# 4 0.0000 0.0000 0.0000 9.8342 0.0000 0.0000
# 5 0.0000 0.0000 0.0000 0.0000 18.6802 0.0000
# 6 0.0000 0.0000 0.0000 0.0000 0.0000 29.0389
#
#
#
# Elastic Compliance Matrix: (Units=1/GPa)
#
#
# Indices 1 2 3 4 5 6 
#
# 1 0.019726 -0.003482 -0.005107 0.000000 0.000000 0.000000
# 2 -0.003482 0.010534 -0.004368 0.000000 0.000000 0.000000
# 3 -0.005107 -0.004368 0.013070 0.000000 0.000000 0.000000
# 4 0.000000 0.000000 0.000000 0.101686 0.000000 0.000000
# 5 0.000000 0.000000 0.000000 0.000000 0.053533 0.000000
# 6 0.000000 0.000000 0.000000 0.000000 0.000000 0.034437
#
#
# Mechanical properties :
#
#
# Convention : Reuss Voigt Hill
#
# Bulk Modulus (GPa) = 57.41651 65.20266 61.30958
# Shear Modulus (GPa) = 18.88912 23.13259 21.01085
#
# Velocity S-wave (km/s) = 3.04675 3.37166 3.21331
# Velocity P-wave (km/s) = 6.37128 6.87023 6.62545
#
# Compressibility (1/GPa) = 0.01741659
#
# Stress axis : x y z
#
# Youngs Moduli (GPa) = 50.69507 94.92878 76.51390
#
# Poissons Ratio (x) = 0.33050 0.39076
# Poissons Ratio (y) = 0.17650 0.33420
# Poissons Ratio (z) = 0.25890 0.41463
#
# Static dielectric constant tensor:
#      x y z
#    x 3.582940 0.000000 0.000000 
#    y 0.000000 3.759900 0.000000 
#    z 0.000000 0.000000 3.599870 
# 
# 
# High freq. dielectric constant tensor:
#      x y z
#    x 1.787150 0.000000 0.000000 
#    y 0.000000 1.809160 0.000000 
#    z 0.000000 0.000000 1.768320 
# 
# From -- ./inp_files/1451.got.cif
#   From: 2010.03.12/outbox.cif.g09.slc.cpg/sg47_1_cif.got.tgz:1451.got - 2010.04.14 03:12:58.
