data_PCOD8196548
_publ_section_title
;
Structure prediction by ZEFSAII (Michael W. Deem and Ramdas Pophale) SiO2 
 PCOD8196548
Probable space group: P M M M
;
_chemical_formula_sum "Si O2"
_cell_formula_units_Z 44
_cell_length_a 30.113057
_cell_length_b 9.386864
_cell_length_c 7.906451
_cell_angle_alpha 90.000000
_cell_angle_beta 90.000000
_cell_angle_gamma 90.000000
_cell_volume 2234.894134
_symmetry_space_group_name_H-M "P M M M"
_symmetry_group_IT_number 47
_symmetry_cell_setting 'orthorhombic'
loop_
_space_group_symop_operation_xyz
x,y,z
-x,-y,z
x,-y,-z
-x,y,-z
-x,-y,-z
x,y,-z
-x,y,z
x,-y,z
loop_
_atom_site_type_symbol
_atom_site_label
_atom_site_fract_x
_atom_site_fract_y
_atom_site_fract_z
Si Si1 0.607282 0.830667 0.812480
Si Si2 0.449741 0.170102 0.500000
Si Si3 0.707286 0.839846 0.802297
Si Si4 0.950885 0.659780 0.701053
Si Si5 0.131064 0.160215 0.297732
Si Si6 0.212279 0.657435 0.695031
O O1 0.574259 0.769993 0.668973
O O2 0.657395 0.785109 0.765501
O O3 0.605035 0.000000 0.818143
O O4 0.594091 0.771887 0.000000
O O5 0.500000 0.226897 0.500000
O O6 0.448170 0.000000 0.500000
O O7 0.740304 0.732507 0.711399
O O8 0.713915 0.000000 0.730060
O O9 0.717116 0.839332 0.000000
O O10 0.949526 0.660963 0.500000
O O11 0.940576 0.500000 0.766096
O O12 0.913835 0.766881 0.773244
O O13 0.000000 0.707763 0.763450
O O14 0.131522 0.158944 0.500000
O O15 0.173306 0.246509 0.223399
O O16 0.133391 0.000000 0.226435
O O17 0.201003 0.638617 0.500000
O O18 0.213419 0.500000 0.780299
#
# Coordination Sequence:
#
# PCOD8196548 Si02
#       6
#     8   4   8   8   8   8
#     4   8  15  27  41  61  91 125 162 205 249 294
#     4   9  16  24  38  64  95 131 171 203 242 297
#     4   9  18  32  49  68  90 120 159 198 238 287
#     4   8  13  21  33  49  73 109 149 188 234 286
#     4   9  16  25  37  55  81 113 150 191 235 284
#     4  10  20  31  44  65  92 121 153 191 238 291
#
# _framework density 19.687732
#
# number of rings (size 3 to 8) (size 9 to 14) (size 15 to 20)
#    0.000    3.182    0.000    2.727    1.273    4.364 
#    0.000    3.636    0.000    0.000    0.000    0.000 
#    0.000    2.182    0.000   11.636    0.000   14.545 
#
# Total GULP energy -545332.446729 kJ/mol
# GULP energy per Si atom -12393.919244 kJ/mol
# Density = 1.964292 g / cm^3
# Si number density = 19.687732 Si / 1000 Ang^3
#
#
#
# Elastic Constant Matrix: (Units=GPa)
#
#
# Indices 1 2 3 4 5 6 
#
# 1 171.4401 73.6079 46.9518 0.0000 0.0000 0.0000
# 2 73.6079 111.0406 22.5403 0.0000 0.0000 0.0000
# 3 46.9518 22.5403 50.5687 0.0000 0.0000 0.0000
# 4 0.0000 0.0000 0.0000 5.1159 0.0000 0.0000
# 5 0.0000 0.0000 0.0000 0.0000 -3.9096 0.0000
# 6 0.0000 0.0000 0.0000 0.0000 0.0000 10.4524
#
#
#
# Elastic Compliance Matrix: (Units=1/GPa)
#
#
# Indices 1 2 3 4 5 6 
#
# 1 0.009963 -0.005197 -0.006934 0.000000 0.000000 0.000000
# 2 -0.005197 0.012612 -0.000797 0.000000 0.000000 0.000000
# 3 -0.006934 -0.000797 0.026568 0.000000 0.000000 0.000000
# 4 0.000000 0.000000 0.000000 0.195470 0.000000 0.000000
# 5 0.000000 0.000000 0.000000 0.000000 -0.255779 0.000000
# 6 0.000000 0.000000 0.000000 0.000000 0.000000 0.095672
#
#
# Mechanical properties :
#
#
# Convention : Reuss Voigt Hill
#
# Bulk Modulus (GPa) = 42.93934 68.80549 55.87241
# Shear Modulus (GPa) = 42.32766 14.99501 28.66134
#
# Velocity S-wave (km/s) = 4.64179 2.76278 3.81963
# Velocity P-wave (km/s) = 7.11237 6.72321 6.92053
#
# Compressibility (1/GPa) = 0.02328867
#
# Stress axis : x y z
#
# Youngs Moduli (GPa) = 100.36786 79.28663 37.63869
#
# Poissons Ratio (x) = 0.41206 0.26100
# Poissons Ratio (y) = 0.52161 0.02998
# Poissons Ratio (z) = 0.69597 0.06315
#
# Static dielectric constant tensor:
#      x y z
#    x 3.780890 0.000000 0.000000 
#    y 0.000000 3.446200 0.000000 
#    z 0.000000 0.000000 3.305900 
# 
# 
# High freq. dielectric constant tensor:
#      x y z
#    x 1.773550 0.000000 0.000000 
#    y 0.000000 1.730530 0.000000 
#    z 0.000000 0.000000 1.734560 
# 
# From -- ./inp_files/13643.got.cif
#   From: 2010.03.12/outbox.cif.g09.slc.cpg/sg47_7_cif.got.tgz:13643.got - 2010.04.14 03:12:58.
