data_PCOD8196307
_publ_section_title
;
Structure prediction by ZEFSAII (Michael W. Deem and Ramdas Pophale) SiO2 
 PCOD8196307
Probable space group: P M M M
;
_chemical_formula_sum "Si O2"
_cell_formula_units_Z 52
_cell_length_a 22.807829
_cell_length_b 9.057017
_cell_length_c 14.221092
_cell_angle_alpha 90.000000
_cell_angle_beta 90.000000
_cell_angle_gamma 90.000000
_cell_volume 2937.663702
_symmetry_space_group_name_H-M "P M M M"
_symmetry_group_IT_number 47
_symmetry_cell_setting 'orthorhombic'
loop_
_space_group_symop_operation_xyz
x,y,z
-x,-y,z
x,-y,-z
-x,y,-z
-x,-y,-z
x,y,-z
-x,y,z
x,-y,z
loop_
_atom_site_type_symbol
_atom_site_label
_atom_site_fract_x
_atom_site_fract_y
_atom_site_fract_z
Si Si1 0.108180 0.672552 0.204420
Si Si2 0.768849 0.670670 0.108940
Si Si3 0.709637 0.328889 0.393165
Si Si4 0.666139 0.825892 0.219355
Si Si5 0.000000 0.825307 0.107529
Si Si6 0.157873 0.675186 0.397629
Si Si7 0.432283 0.330508 0.891667
O O1 0.092008 0.500000 0.199108
O O2 0.167228 0.707324 0.148385
O O3 0.115731 0.726530 0.312925
O O4 0.057057 0.766253 0.159230
O O5 0.753121 0.500000 0.126169
O O6 0.721271 0.768228 0.160942
O O7 0.768084 0.712174 0.000000
O O8 0.688337 0.305498 0.500000
O O9 0.706077 0.500000 0.364317
O O10 0.667650 0.235840 0.325409
O O11 0.775986 0.268504 0.380491
O O12 0.605603 0.776099 0.172852
O O13 0.668309 0.000000 0.222012
O O14 0.000000 0.000000 0.112827
O O15 0.000000 0.769400 0.000000
O O16 0.134739 0.732366 0.500000
O O17 0.161000 0.500000 0.399003
O O18 0.500000 0.299102 0.869602
O O19 0.416410 0.500000 0.869474
O O20 0.418048 0.295652 0.000000
#
# Coordination Sequence:
#
# PCOD8196307 Si02
#       7
#     8   8   8   8   4   8   8
#     4  10  19  35  59  81 101 131 177 226 264 307
#     4  10  20  34  53  77 105 137 178 228 270 308
#     4   9  17  33  57  80 105 140 181 222 263 312
#     4  12  23  32  49  80 117 148 174 212 268 331
#     4  11  25  41  54  71 102 142 179 217 266 327
#     4   8  14  28  54  84 107 128 163 215 267 310
#     4   9  19  37  59  79 102 140 190 236 271 309
#
# _framework density 17.701141
#
# number of rings (size 3 to 8) (size 9 to 14) (size 15 to 20)
#    0.000    2.231    1.538    3.923    0.000    4.923 
#    0.000    1.154    0.000    3.231    0.000    3.231 
#    0.000    0.000    0.000    0.000    0.000    0.000 
#
# Total GULP energy -644769.604659 kJ/mol
# GULP energy per Si atom -12399.415474 kJ/mol
# Density = 1.766085 g / cm^3
# Si number density = 17.701141 Si / 1000 Ang^3
#
#
#
# Elastic Constant Matrix: (Units=GPa)
#
#
# Indices 1 2 3 4 5 6 
#
# 1 87.6307 51.0216 66.0903 0.0000 0.0000 0.0000
# 2 51.0216 83.2357 62.8841 0.0000 0.0000 0.0000
# 3 66.0903 62.8841 147.8146 0.0000 0.0000 0.0000
# 4 0.0000 0.0000 0.0000 15.8986 0.0000 0.0000
# 5 0.0000 0.0000 0.0000 0.0000 -1.4761 0.0000
# 6 0.0000 0.0000 0.0000 0.0000 0.0000 -14.4294
#
#
#
# Elastic Compliance Matrix: (Units=1/GPa)
#
#
# Indices 1 2 3 4 5 6 
#
# 1 0.020495 -0.008311 -0.005628 0.000000 0.000000 0.000000
# 2 -0.008311 0.021075 -0.005250 0.000000 0.000000 0.000000
# 3 -0.005628 -0.005250 0.011515 0.000000 0.000000 0.000000
# 4 0.000000 0.000000 0.000000 0.062899 0.000000 0.000000
# 5 0.000000 0.000000 0.000000 0.000000 -0.677466 0.000000
# 6 0.000000 0.000000 0.000000 0.000000 0.000000 -0.069303
#
#
# Mechanical properties :
#
#
# Convention : Reuss Voigt Hill
#
# Bulk Modulus (GPa) = 67.99376 75.40812 71.70094
# Shear Modulus (GPa) = -8.51055 9.24430 0.36687
#
# Velocity S-wave (km/s) = -2.19507 2.28774 0.45575
# Velocity P-wave (km/s) = 5.66313 7.04780 6.39306
#
# Compressibility (1/GPa) = 0.01470723
#
# Stress axis : x y z
#
# Youngs Moduli (GPa) = 48.79214 47.45015 86.84402
#
# Poissons Ratio (x) = 0.39437 0.48875
# Poissons Ratio (y) = 0.40552 0.45590
# Poissons Ratio (z) = 0.27460 0.24910
#
# Static dielectric constant tensor:
#      x y z
#    x 3.256790 0.000000 0.000000 
#    y 0.000000 3.024640 0.000000 
#    z 0.000000 0.000000 3.761010 
# 
# 
# High freq. dielectric constant tensor:
#      x y z
#    x 1.669270 0.000000 0.000000 
#    y 0.000000 1.659190 0.000000 
#    z 0.000000 0.000000 1.701120 
# 
# From -- ./inp_files/10992.got.cif
#   From: 2010.03.12/outbox.cif.g09.slc.cpg/sg47_6_cif.got.tgz:10992.got - 2010.04.14 03:12:58.
