data_PCOD8196050
_publ_section_title
;
Structure prediction by ZEFSAII (Michael W. Deem and Ramdas Pophale) SiO2 
 PCOD8196050
Probable space group: P M M M
;
_chemical_formula_sum "Si O2"
_cell_formula_units_Z 56
_cell_length_a 9.689126
_cell_length_b 15.280555
_cell_length_c 21.160127
_cell_angle_alpha 90.000000
_cell_angle_beta 90.000000
_cell_angle_gamma 90.000000
_cell_volume 3132.867316
_symmetry_space_group_name_H-M "P M M M"
_symmetry_group_IT_number 47
_symmetry_cell_setting 'orthorhombic'
loop_
_space_group_symop_operation_xyz
x,y,z
-x,-y,z
x,-y,-z
-x,y,-z
-x,-y,-z
x,y,-z
-x,y,z
x,-y,z
loop_
_atom_site_type_symbol
_atom_site_label
_atom_site_fract_x
_atom_site_fract_y
_atom_site_fract_z
Si Si1 0.835640 0.500000 0.930397
Si Si2 0.158376 0.843766 0.072485
Si Si3 0.154708 0.097723 0.425366
Si Si4 0.343634 0.904436 0.819876
Si Si5 0.158308 0.334327 0.856336
Si Si6 0.658606 0.732664 0.750605
Si Si7 0.336728 0.399066 0.500000
Si Si8 0.660806 0.262706 0.606262
O O1 0.781343 0.583712 0.893423
O O2 0.000000 0.500000 0.934992
O O3 0.770204 0.500000 0.000000
O O4 0.250477 0.904030 0.117336
O O5 0.177799 0.745028 0.095544
O O6 0.000000 0.873864 0.078757
O O7 0.207907 0.851812 0.000000
O O8 0.152298 0.098112 0.500000
O O9 0.259594 0.172056 0.403198
O O10 0.000000 0.118332 0.399837
O O11 0.200421 0.000000 0.401939
O O12 0.500000 0.887512 0.842247
O O13 0.300744 0.833481 0.766905
O O14 0.327288 0.000000 0.788128
O O15 0.245763 0.328875 0.792468
O O16 0.000000 0.345861 0.835868
O O17 0.500000 0.714718 0.767801
O O18 0.687322 0.708868 0.678115
O O19 0.276374 0.500000 0.500000
O O20 0.500000 0.407247 0.500000
O O21 0.287531 0.342746 0.438625
O O22 0.500000 0.243282 0.593043
#
# Coordination Sequence:
#
# PCOD8196050 Si02
#       8
#     4   8   8   8   8   8   4   8
#     4   9  16  28  51  79 101 124 161 208 254 300
#     4   9  17  29  46  68  93 121 155 199 246 284
#     4   9  18  32  50  75 108 140 164 197 255 315
#     4   9  18  32  47  63  90 128 163 195 234 284
#     4   9  17  31  50  71  96 127 162 199 242 296
#     4   9  19  34  50  71  99 130 164 202 247 293
#     4   9  18  34  54  77 104 130 165 215 262 303
#     4  10  19  33  55  79 101 133 176 217 255 299
#
# _framework density 17.874998999999999
#
# number of rings (size 3 to 8) (size 9 to 14) (size 15 to 20)
#    0.000    2.857    0.714    0.857    0.000    4.000 
#    1.286    3.929    0.000    2.571    0.000    0.000 
#    0.000    0.000    0.000    0.000    0.000    0.000 
#
# Total GULP energy -694075.214270 kJ/mol
# GULP energy per Si atom -12394.200255 kJ/mol
# Density = 1.783431 g / cm^3
# Si number density = 17.874999 Si / 1000 Ang^3
#
#
#
# Elastic Constant Matrix: (Units=GPa)
#
#
# Indices 1 2 3 4 5 6 
#
# 1 51.3203 40.7483 41.0465 0.0000 0.0000 0.0000
# 2 40.7483 119.1624 54.0177 0.0000 0.0000 0.0000
# 3 41.0465 54.0177 122.3066 0.0000 0.0000 0.0000
# 4 0.0000 0.0000 0.0000 17.7205 0.0000 0.0000
# 5 0.0000 0.0000 0.0000 0.0000 26.0181 0.0000
# 6 0.0000 0.0000 0.0000 0.0000 0.0000 13.4267
#
#
#
# Elastic Compliance Matrix: (Units=1/GPa)
#
#
# Indices 1 2 3 4 5 6 
#
# 1 0.031079 -0.007376 -0.007172 0.000000 0.000000 0.000000
# 2 -0.007376 0.012243 -0.002932 0.000000 0.000000 0.000000
# 3 -0.007172 -0.002932 0.011878 0.000000 0.000000 0.000000
# 4 0.000000 0.000000 0.000000 0.056432 0.000000 0.000000
# 5 0.000000 0.000000 0.000000 0.000000 0.038435 0.000000
# 6 0.000000 0.000000 0.000000 0.000000 0.000000 0.074478
#
#
# Mechanical properties :
#
#
# Convention : Reuss Voigt Hill
#
# Bulk Modulus (GPa) = 49.40899 62.71269 56.06084
# Shear Modulus (GPa) = 18.77918 21.89819 20.33868
#
# Velocity S-wave (km/s) = 3.24479 3.50390 3.37683
# Velocity P-wave (km/s) = 6.46062 7.17844 6.82897
#
# Compressibility (1/GPa) = 0.02023923
#
# Stress axis : x y z
#
# Youngs Moduli (GPa) = 32.17639 81.67739 84.18841
#
# Poissons Ratio (x) = 0.60247 0.60383
# Poissons Ratio (y) = 0.23734 0.24683
# Poissons Ratio (z) = 0.23078 0.23947
#
# Static dielectric constant tensor:
#      x y z
#    x 3.291350 0.000000 0.000000 
#    y 0.000000 3.543060 0.000000 
#    z 0.000000 0.000000 3.293580 
# 
# 
# High freq. dielectric constant tensor:
#      x y z
#    x 1.672490 0.000000 0.000000 
#    y 0.000000 1.690940 0.000000 
#    z 0.000000 0.000000 1.685890 
# 
# From -- ./inp_files/29809.got.cif
#   From: 2010.03.12/outbox.cif.g09.slc.cpg/sg47_15_cif.got.tgz:29809.got - 2010.04.14 03:12:58.
