data_PCOD8196130
_publ_section_title
;
Structure prediction by ZEFSAII (Michael W. Deem and Ramdas Pophale) SiO2 
 PCOD8196130
Probable space group: P M M M
;
_chemical_formula_sum "Si O2"
_cell_formula_units_Z 52
_cell_length_a 21.770476
_cell_length_b 14.506462
_cell_length_c 7.858143
_cell_angle_alpha 90.000000
_cell_angle_beta 90.000000
_cell_angle_gamma 90.000000
_cell_volume 2481.700437
_symmetry_space_group_name_H-M "P M M M"
_symmetry_group_IT_number 47
_symmetry_cell_setting 'orthorhombic'
loop_
_space_group_symop_operation_xyz
x,y,z
-x,-y,z
x,-y,-z
-x,y,-z
-x,-y,-z
x,y,-z
-x,y,z
x,-y,z
loop_
_atom_site_type_symbol
_atom_site_label
_atom_site_fract_x
_atom_site_fract_y
_atom_site_fract_z
Si Si1 0.689332 0.896627 0.300887
Si Si2 0.749184 0.714232 0.811065
Si Si3 0.305613 0.396932 0.500000
Si Si4 0.000000 0.603312 0.800311
Si Si5 0.431843 0.185534 0.807271
Si Si6 0.880413 0.714470 0.310296
Si Si7 0.929098 0.898036 0.803003
Si Si8 0.568079 0.675404 0.500000
O O1 0.686211 0.875794 0.500000
O O2 0.735353 0.822788 0.216857
O O3 0.620582 0.890297 0.224250
O O4 0.713792 0.000000 0.263245
O O5 0.715235 0.654239 0.670415
O O6 0.822023 0.694299 0.807304
O O7 0.726231 0.686193 0.000000
O O8 0.278768 0.500000 0.500000
O O9 0.379716 0.402345 0.500000
O O10 0.939457 0.656698 0.743901
O O11 0.000000 0.500000 0.721890
O O12 0.000000 0.597593 0.000000
O O13 0.500000 0.141536 0.782196
O O14 0.421992 0.266253 0.671558
O O15 0.425367 0.224815 0.000000
O O16 0.861528 0.686052 0.500000
O O17 0.894007 0.823452 0.309059
O O18 0.000000 0.896220 0.751856
O O19 0.902094 0.000000 0.765996
O O20 0.921224 0.871464 0.000000
O O21 0.500000 0.630822 0.500000
#
# Coordination Sequence:
#
# PCOD8196130 Si02
#       8
#     8   8   4   4   8   8   8   4
#     4  11  22  39  64  95 134 176 220 270 324 385
#     4  12  25  46  70  94 131 177 222 269 328 392
#     4  12  26  47  70  99 134 165 218 277 327 394
#     4  11  25  45  68  95 124 159 209 265 328 395
#     4  10  19  33  58  90 128 174 220 265 315 377
#     4  12  24  41  66  95 130 167 209 264 324 386
#     4   9  18  34  58  88 123 164 210 257 307 371
#     4  10  20  39  66  97 129 167 213 265 332 392
#
# _framework density 20.953375000000001
#
# number of rings (size 3 to 8) (size 9 to 14) (size 15 to 20)
#    0.000    1.154    4.615    2.538    0.000    4.154 
#    0.000    2.308    0.000    0.000    0.000    3.231 
#    0.000    0.000    0.000    0.000    0.000    0.000 
#
# Total GULP energy -644662.202072 kJ/mol
# GULP energy per Si atom -12397.350040 kJ/mol
# Density = 2.090568 g / cm^3
# Si number density = 20.953375 Si / 1000 Ang^3
#
#
#
# Elastic Constant Matrix: (Units=GPa)
#
#
# Indices 1 2 3 4 5 6 
#
# 1 124.6548 46.7903 30.1207 0.0000 0.0000 0.0000
# 2 46.7903 111.4280 40.6275 0.0000 0.0000 0.0000
# 3 30.1207 40.6275 140.8767 0.0000 0.0000 0.0000
# 4 0.0000 0.0000 0.0000 12.4304 0.0000 0.0000
# 5 0.0000 0.0000 0.0000 0.0000 20.8618 0.0000
# 6 0.0000 0.0000 0.0000 0.0000 0.0000 7.4705
#
#
#
# Elastic Compliance Matrix: (Units=1/GPa)
#
#
# Indices 1 2 3 4 5 6 
#
# 1 0.009648 -0.003687 -0.001000 0.000000 0.000000 0.000000
# 2 -0.003687 0.011438 -0.002510 0.000000 0.000000 0.000000
# 3 -0.001000 -0.002510 0.008036 0.000000 0.000000 0.000000
# 4 0.000000 0.000000 0.000000 0.080448 0.000000 0.000000
# 5 0.000000 0.000000 0.000000 0.000000 0.047934 0.000000
# 6 0.000000 0.000000 0.000000 0.000000 0.000000 0.133860
#
#
# Mechanical properties :
#
#
# Convention : Reuss Voigt Hill
#
# Bulk Modulus (GPa) = 67.89642 68.00406 67.95024
# Shear Modulus (GPa) = 16.09442 25.44726 20.77084
#
# Velocity S-wave (km/s) = 2.77448 3.48871 3.15189
# Velocity P-wave (km/s) = 6.53740 6.98237 6.76354
#
# Compressibility (1/GPa) = 0.01472832
#
# Stress axis : x y z
#
# Youngs Moduli (GPa) = 103.65369 87.42945 124.43911
#
# Poissons Ratio (x) = 0.32233 0.12438
# Poissons Ratio (y) = 0.38214 0.31238
# Poissons Ratio (z) = 0.10360 0.21947
#
# Static dielectric constant tensor:
#      x y z
#    x 3.897720 0.000000 0.000000 
#    y 0.000000 3.677640 0.000000 
#    z 0.000000 0.000000 3.911570 
# 
# 
# High freq. dielectric constant tensor:
#      x y z
#    x 1.827340 0.000000 0.000000 
#    y 0.000000 1.793020 0.000000 
#    z 0.000000 0.000000 1.832820 
# 
# From -- ./inp_files/11174.got.cif
#   From: 2010.03.12/outbox.cif.g09.slc.cpg/sg47_6_cif.got.tgz:11174.got - 2010.04.14 03:12:58.
