data_PCOD8196480
_publ_section_title
;
Structure prediction by ZEFSAII (Michael W. Deem and Ramdas Pophale) SiO2 
 PCOD8196480
Probable space group: P M M M
;
_chemical_formula_sum "Si O2"
_cell_formula_units_Z 64
_cell_length_a 30.863111
_cell_length_b 8.951117
_cell_length_c 14.386819
_cell_angle_alpha 90.000000
_cell_angle_beta 90.000000
_cell_angle_gamma 90.000000
_cell_volume 3974.492799
_symmetry_space_group_name_H-M "P M M M"
_symmetry_group_IT_number 47
_symmetry_cell_setting 'orthorhombic'
loop_
_space_group_symop_operation_xyz
x,y,z
-x,-y,z
x,-y,-z
-x,y,-z
-x,-y,-z
x,y,-z
-x,y,z
x,-y,z
loop_
_atom_site_type_symbol
_atom_site_label
_atom_site_fract_x
_atom_site_fract_y
_atom_site_fract_z
Si Si1 0.242957 0.677091 0.399156
Si Si2 0.212317 0.322990 0.204688
Si Si3 0.374246 0.323357 0.206233
Si Si4 0.047529 0.332296 0.110316
Si Si5 0.132452 0.828090 0.890515
Si Si6 0.549750 0.172042 0.893131
Si Si7 0.706068 0.828157 0.890224
Si Si8 0.659661 0.322864 0.600948
O O1 0.225258 0.735075 0.500000
O O2 0.244590 0.500000 0.400915
O O3 0.213351 0.729966 0.312953
O O4 0.291649 0.738347 0.383226
O O5 0.215857 0.500000 0.195415
O O6 0.167534 0.269918 0.161938
O O7 0.252457 0.253458 0.150959
O O8 0.368436 0.500000 0.197694
O O9 0.421578 0.276633 0.172084
O O10 0.338029 0.246791 0.143478
O O11 0.369934 0.267967 0.313463
O O12 0.057128 0.500000 0.146330
O O13 0.085011 0.221631 0.146089
O O14 0.000000 0.279112 0.146661
O O15 0.047021 0.331772 0.000000
O O16 0.139478 0.000000 0.865251
O O17 0.137348 0.799378 0.000000
O O18 0.500000 0.199386 0.865721
O O19 0.562636 0.000000 0.877423
O O20 0.557679 0.216323 0.000000
O O21 0.706698 0.000000 0.858820
O O22 0.708327 0.812560 0.000000
O O23 0.642066 0.265397 0.500000
O O24 0.660848 0.500000 0.600009
#
# Coordination Sequence:
#
# PCOD8196480 Si02
#       8
#     8   8   8   8   8   8   8   8
#     4   8  14  27  47  68  89 114 147 188 233 276
#     4  11  20  31  48  68  89 118 157 197 232 266
#     4  11  20  31  51  77  96 115 151 194 230 263
#     4   8  14  26  44  64  85 112 152 201 242 271
#     4  10  20  31  42  60  91 130 163 189 227 279
#     4   9  19  36  54  70  93 127 158 182 221 276
#     4  11  23  35  45  61  92 131 160 183 220 271
#     4   8  14  27  47  70  95 119 145 182 229 276
#
# _framework density 16.102684
#
# number of rings (size 3 to 8) (size 9 to 14) (size 15 to 20)
#    0.000    2.500    1.250    3.750    0.000    5.500 
#    0.000    1.875    0.000    4.125    0.000    2.625 
#    0.000    0.500    0.000    5.750    0.000    1.875 
#
# Total GULP energy -793225.445173 kJ/mol
# GULP energy per Si atom -12394.147581 kJ/mol
# Density = 1.606603 g / cm^3
# Si number density = 16.102684 Si / 1000 Ang^3
#
#
#
# Elastic Constant Matrix: (Units=GPa)
#
#
# Indices 1 2 3 4 5 6 
#
# 1 96.7173 39.4475 48.5933 0.0000 0.0000 0.0000
# 2 39.4475 67.3876 42.8965 0.0000 0.0000 0.0000
# 3 48.5933 42.8965 88.9638 0.0000 0.0000 0.0000
# 4 0.0000 0.0000 0.0000 4.6264 0.0000 0.0000
# 5 0.0000 0.0000 0.0000 0.0000 5.1965 0.0000
# 6 0.0000 0.0000 0.0000 0.0000 0.0000 25.8349
#
#
#
# Elastic Compliance Matrix: (Units=1/GPa)
#
#
# Indices 1 2 3 4 5 6 
#
# 1 0.015460 -0.005302 -0.005888 0.000000 0.000000 0.000000
# 2 -0.005302 0.023230 -0.008305 0.000000 0.000000 0.000000
# 3 -0.005888 -0.008305 0.018461 0.000000 0.000000 0.000000
# 4 0.000000 0.000000 0.000000 0.216151 0.000000 0.000000
# 5 0.000000 0.000000 0.000000 0.000000 0.192438 0.000000
# 6 0.000000 0.000000 0.000000 0.000000 0.000000 0.038707
#
#
# Mechanical properties :
#
#
# Convention : Reuss Voigt Hill
#
# Bulk Modulus (GPa) = 55.06242 57.21591 56.13916
# Shear Modulus (GPa) = 9.09932 15.27364 12.18648
#
# Velocity S-wave (km/s) = 2.37972 3.08314 2.75398
# Velocity P-wave (km/s) = 6.46681 6.94862 6.71204
#
# Compressibility (1/GPa) = 0.01816121
#
# Stress axis : x y z
#
# Youngs Moduli (GPa) = 64.68209 43.04806 54.16785
#
# Poissons Ratio (x) = 0.22824 0.31894
# Poissons Ratio (y) = 0.34294 0.44986
# Poissons Ratio (z) = 0.38085 0.35751
#
# Static dielectric constant tensor:
#      x y z
#    x 3.152500 0.000000 0.000000 
#    y 0.000000 2.963480 0.000000 
#    z 0.000000 0.000000 3.286710 
# 
# 
# High freq. dielectric constant tensor:
#      x y z
#    x 1.608620 0.000000 0.000000 
#    y 0.000000 1.607910 0.000000 
#    z 0.000000 0.000000 1.604800 
# 
# From -- ./inp_files/25892.got.cif
#   From: 2010.03.12/outbox.cif.g09.slc.cpg/sg47_13_cif.got.tgz:25892.got - 2010.04.14 03:12:58.
