data_PCOD8196184
_publ_section_title
;
Structure prediction by ZEFSAII (Michael W. Deem and Ramdas Pophale) SiO2 
 PCOD8196184
Probable space group: P M M M
;
_chemical_formula_sum "Si O2"
_cell_formula_units_Z 52
_cell_length_a 11.760496
_cell_length_b 9.592637
_cell_length_c 27.851385
_cell_angle_alpha 90.000000
_cell_angle_beta 90.000000
_cell_angle_gamma 90.000000
_cell_volume 3142.030856
_symmetry_space_group_name_H-M "P M M M"
_symmetry_group_IT_number 47
_symmetry_cell_setting 'orthorhombic'
loop_
_space_group_symop_operation_xyz
x,y,z
-x,-y,z
x,-y,-z
-x,y,-z
-x,-y,-z
x,y,-z
-x,y,z
x,-y,z
loop_
_atom_site_type_symbol
_atom_site_label
_atom_site_fract_x
_atom_site_fract_y
_atom_site_fract_z
Si Si1 0.260910 0.662103 0.944734
Si Si2 0.132141 0.161074 0.131130
Si Si3 0.500000 0.842323 0.192844
Si Si4 0.864169 0.843111 0.500000
Si Si5 0.869710 0.336572 0.306444
Si Si6 0.500000 0.337558 0.901635
Si Si7 0.134971 0.345487 0.585791
Si Si8 0.255228 0.160520 0.772052
O O1 0.240313 0.500000 0.933820
O O2 0.171494 0.749726 0.914164
O O3 0.389781 0.705262 0.932210
O O4 0.238331 0.697524 0.000000
O O5 0.199667 0.211673 0.178149
O O6 0.000000 0.187600 0.140556
O O7 0.158572 0.000000 0.120065
O O8 0.500000 0.740495 0.148338
O O9 0.390266 0.816203 0.225778
O O10 0.500000 0.000000 0.172541
O O11 0.816731 0.764526 0.547250
O O12 0.000000 0.843858 0.500000
O O13 0.816028 0.000000 0.500000
O O14 0.855682 0.500000 0.296530
O O15 0.829972 0.299687 0.360555
O O16 0.789505 0.252208 0.271281
O O17 0.000000 0.290811 0.298195
O O18 0.500000 0.500000 0.889678
O O19 0.183343 0.500000 0.574111
O O20 0.000000 0.352042 0.582699
O O21 0.222700 0.000000 0.762507
#
# Coordination Sequence:
#
# PCOD8196184 Si02
#       8
#     8   8   4   4   8   4   8   8
#     4  10  21  36  54  76 100 125 154 191 236 283
#     4  10  21  36  53  73  97 127 162 195 230 278
#     4  10  20  35  55  75  96 121 153 194 237 286
#     4   9  15  21  33  57  87 120 161 204 239 273
#     4   9  18  31  47  69  97 129 165 201 236 280
#     4  10  19  34  56  78  98 120 151 193 237 280
#     4   8  14  25  39  56  84 124 163 196 233 276
#     4  10  20  34  52  72  95 123 156 195 240 285
#
# _framework density 16.549804999999999
#
# number of rings (size 3 to 8) (size 9 to 14) (size 15 to 20)
#    0.000    2.538    1.538    1.846    0.000    5.538 
#    0.000    3.077    0.000    1.385    0.000    0.000 
#    0.000    0.615    0.000    6.923    0.000    5.231 
#
# Total GULP energy -644820.915432 kJ/mol
# GULP energy per Si atom -12400.402220 kJ/mol
# Density = 1.651214 g / cm^3
# Si number density = 16.549805 Si / 1000 Ang^3
#
#
#
# Elastic Constant Matrix: (Units=GPa)
#
#
# Indices 1 2 3 4 5 6 
#
# 1 76.0522 34.2581 43.9046 0.0000 0.0000 0.0000
# 2 34.2581 71.6038 66.1906 0.0000 0.0000 0.0000
# 3 43.9046 66.1906 127.0531 0.0000 0.0000 0.0000
# 4 0.0000 0.0000 0.0000 21.7260 0.0000 0.0000
# 5 0.0000 0.0000 0.0000 0.0000 42.2004 0.0000
# 6 0.0000 0.0000 0.0000 0.0000 0.0000 22.9659
#
#
#
# Elastic Compliance Matrix: (Units=1/GPa)
#
#
# Indices 1 2 3 4 5 6 
#
# 1 0.017425 -0.005344 -0.003237 0.000000 0.000000 0.000000
# 2 -0.005344 0.028578 -0.013042 0.000000 0.000000 0.000000
# 3 -0.003237 -0.013042 0.015784 0.000000 0.000000 0.000000
# 4 0.000000 0.000000 0.000000 0.046028 0.000000 0.000000
# 5 0.000000 0.000000 0.000000 0.000000 0.023696 0.000000
# 6 0.000000 0.000000 0.000000 0.000000 0.000000 0.043543
#
#
# Mechanical properties :
#
#
# Convention : Reuss Voigt Hill
#
# Bulk Modulus (GPa) = 53.93533 62.60174 58.26853
# Shear Modulus (GPa) = 22.27363 26.06885 24.17124
#
# Velocity S-wave (km/s) = 3.67257 3.97315 3.82581
# Velocity P-wave (km/s) = 7.11647 7.67830 7.40272
#
# Compressibility (1/GPa) = 0.01854072
#
# Stress axis : x y z
#
# Youngs Moduli (GPa) = 57.38856 34.99147 63.35681
#
# Poissons Ratio (x) = 0.18701 0.20510
# Poissons Ratio (y) = 0.30671 0.82627
# Poissons Ratio (z) = 0.18578 0.45634
#
# Static dielectric constant tensor:
#      x y z
#    x 2.932430 0.000000 0.000000 
#    y 0.000000 3.181880 0.000000 
#    z 0.000000 0.000000 3.182110 
# 
# 
# High freq. dielectric constant tensor:
#      x y z
#    x 1.606880 0.000000 0.000000 
#    y 0.000000 1.639090 0.000000 
#    z 0.000000 0.000000 1.639240 
# 
# From -- ./inp_files/33671.got.cif
#   From: 2010.03.12/outbox.cif.g09.slc.cpg/sg47_17_cif.got.tgz:33671.got - 2010.04.14 03:12:58.
