data_PCOD8196627
_publ_section_title
;
Structure prediction by ZEFSAII (Michael W. Deem and Ramdas Pophale) SiO2 
 PCOD8196627
Probable space group: P M M M
;
_chemical_formula_sum "Si O2"
_cell_formula_units_Z 44
_cell_length_a 7.914822
_cell_length_b 29.600421
_cell_length_c 9.620712
_cell_angle_alpha 90.000000
_cell_angle_beta 90.000000
_cell_angle_gamma 90.000000
_cell_volume 2253.960258
_symmetry_space_group_name_H-M "P M M M"
_symmetry_group_IT_number 47
_symmetry_cell_setting 'orthorhombic'
loop_
_space_group_symop_operation_xyz
x,y,z
-x,-y,z
x,-y,-z
-x,y,-z
-x,-y,-z
x,y,-z
-x,y,z
x,-y,z
loop_
_atom_site_type_symbol
_atom_site_label
_atom_site_fract_x
_atom_site_fract_y
_atom_site_fract_z
Si Si1 0.695667 0.371368 0.846404
Si Si2 0.800458 0.292016 0.344321
Si Si3 0.000000 0.050453 0.834958
Si Si4 0.688708 0.110345 0.839563
Si Si5 0.298974 0.449814 0.344509
Si Si6 0.804628 0.189694 0.660403
O O1 0.500000 0.381944 0.863422
O O2 0.715548 0.324163 0.767839
O O3 0.780275 0.412409 0.759053
O O4 0.779642 0.368724 0.000000
O O5 0.739336 0.305088 0.500000
O O6 0.745079 0.240862 0.310427
O O7 0.000000 0.296556 0.334990
O O8 0.830209 0.075643 0.782091
O O9 0.000000 0.000000 0.771474
O O10 0.000000 0.047797 0.000000
O O11 0.500000 0.089466 0.821641
O O12 0.694563 0.156908 0.755357
O O13 0.725818 0.121562 0.000000
O O14 0.230119 0.440347 0.500000
O O15 0.500000 0.446475 0.346201
O O16 0.242782 0.500000 0.295696
O O17 0.774456 0.177232 0.500000
O O18 0.000000 0.183779 0.700307
#
# Coordination Sequence:
#
# PCOD8196627 Si02
#       6
#     8   8   4   8   8   8
#     4  10  20  31  45  70 102 131 160 200 252 307
#     4   9  19  35  53  72  95 129 172 210 247 299
#     4   9  18  34  55  79 111 149 185 225 272 317
#     4  10  20  33  53  82 111 141 180 224 270 321
#     4   8  14  26  45  67  90 121 163 207 251 301
#     4   9  18  34  55  76 100 134 175 217 263 316
#
# _framework density 19.521197000000001
#
# number of rings (size 3 to 8) (size 9 to 14) (size 15 to 20)
#    0.000    2.818    0.909    2.182    0.000    4.000 
#    0.000    9.091    0.000    1.636    0.000    5.091 
#    0.000    0.000    0.000    0.000    0.000    0.000 
#
# Total GULP energy -545440.604287 kJ/mol
# GULP energy per Si atom -12396.377370 kJ/mol
# Density = 1.947677 g / cm^3
# Si number density = 19.521197 Si / 1000 Ang^3
#
#
#
# Elastic Constant Matrix: (Units=GPa)
#
#
# Indices 1 2 3 4 5 6 
#
# 1 63.0682 37.7564 27.6119 0.0000 0.0000 0.0000
# 2 37.7564 139.3542 74.4105 0.0000 0.0000 0.0000
# 3 27.6119 74.4105 106.1002 0.0000 0.0000 0.0000
# 4 0.0000 0.0000 0.0000 28.6727 0.0000 0.0000
# 5 0.0000 0.0000 0.0000 0.0000 18.4230 0.0000
# 6 0.0000 0.0000 0.0000 0.0000 0.0000 11.0122
#
#
#
# Elastic Compliance Matrix: (Units=1/GPa)
#
#
# Indices 1 2 3 4 5 6 
#
# 1 0.019230 -0.004057 -0.002159 0.000000 0.000000 0.000000
# 2 -0.004057 0.012328 -0.007590 0.000000 0.000000 0.000000
# 3 -0.002159 -0.007590 0.015310 0.000000 0.000000 0.000000
# 4 0.000000 0.000000 0.000000 0.034876 0.000000 0.000000
# 5 0.000000 0.000000 0.000000 0.000000 0.054280 0.000000
# 6 0.000000 0.000000 0.000000 0.000000 0.000000 0.090809
#
#
# Mechanical properties :
#
#
# Convention : Reuss Voigt Hill
#
# Bulk Modulus (GPa) = 51.93365 65.34224 58.63795
# Shear Modulus (GPa) = 19.16704 22.87116 21.01910
#
# Velocity S-wave (km/s) = 3.13686 3.42659 3.28492
# Velocity P-wave (km/s) = 6.30724 7.01430 6.67015
#
# Compressibility (1/GPa) = 0.01925534
#
# Stress axis : x y z
#
# Youngs Moduli (GPa) = 52.00204 81.11553 65.31664
#
# Poissons Ratio (x) = 0.32911 0.14102
# Poissons Ratio (y) = 0.21099 0.49576
# Poissons Ratio (z) = 0.11227 0.61567
#
# Static dielectric constant tensor:
#      x y z
#    x 3.306820 0.000000 0.000000 
#    y 0.000000 3.680870 0.000000 
#    z 0.000000 0.000000 3.661740 
# 
# 
# High freq. dielectric constant tensor:
#      x y z
#    x 1.740260 0.000000 0.000000 
#    y 0.000000 1.758500 0.000000 
#    z 0.000000 0.000000 1.745930 
# 
# From -- ./inp_files/2150.got.cif
#   From: 2010.03.12/outbox.cif.g09.slc.cpg/sg47_2_cif.got.tgz:2150.got - 2010.04.14 03:12:58.
