data_PCOD8196087
_publ_section_title
;
Structure prediction by ZEFSAII (Michael W. Deem and Ramdas Pophale) SiO2 
 PCOD8196087
Probable space group: P M M M
;
_chemical_formula_sum "Si O2"
_cell_formula_units_Z 52
_cell_length_a 15.467618
_cell_length_b 9.760377
_cell_length_c 18.950991
_cell_angle_alpha 90.000000
_cell_angle_beta 90.000000
_cell_angle_gamma 90.000000
_cell_volume 2861.026998
_symmetry_space_group_name_H-M "P M M M"
_symmetry_group_IT_number 47
_symmetry_cell_setting 'orthorhombic'
loop_
_space_group_symop_operation_xyz
x,y,z
-x,-y,z
x,-y,-z
-x,y,-z
-x,-y,-z
x,y,-z
-x,y,z
x,-y,z
loop_
_atom_site_type_symbol
_atom_site_label
_atom_site_fract_x
_atom_site_fract_y
_atom_site_fract_z
Si Si1 0.401318 0.345142 0.079712
Si Si2 0.123611 0.844161 0.799347
Si Si3 0.260521 0.341234 0.582205
Si Si4 0.094410 0.656312 0.329848
Si Si5 0.674166 0.154043 0.192513
Si Si6 0.000000 0.839673 0.078770
Si Si7 0.600416 0.839779 0.658554
O O1 0.500000 0.297494 0.084714
O O2 0.391334 0.500000 0.106873
O O3 0.344089 0.248322 0.126671
O O4 0.367653 0.332521 0.000000
O O5 0.086124 0.746894 0.739735
O O6 0.225391 0.832530 0.794433
O O7 0.085262 0.797551 0.875624
O O8 0.093741 0.000000 0.784259
O O9 0.246329 0.316901 0.500000
O O10 0.281095 0.500000 0.598924
O O11 0.171660 0.292320 0.619511
O O12 0.341459 0.250060 0.606477
O O13 0.113101 0.500000 0.307182
O O14 0.000000 0.666411 0.368246
O O15 0.621969 0.203600 0.261312
O O16 0.646573 0.000000 0.173259
O O17 0.000000 0.000000 0.065866
O O18 0.000000 0.769650 0.000000
O O19 0.500000 0.808846 0.642869
O O20 0.622028 0.000000 0.646873
#
# Coordination Sequence:
#
# PCOD8196087 Si02
#       7
#     8   8   8   8   8   4   8
#     4   9  19  35  52  72 102 140 179 219 268 325
#     4  10  19  33  56  80 104 142 183 222 265 319
#     4  10  22  39  58  83 114 147 185 228 273 328
#     4  10  20  35  58  85 112 143 178 222 275 330
#     4  10  20  33  53  81 107 135 181 234 276 321
#     4   9  18  32  51  79 112 143 178 220 267 321
#     4  10  21  37  57  82 113 148 186 231 284 336
#
# _framework density 18.175291999999999
#
# number of rings (size 3 to 8) (size 9 to 14) (size 15 to 20)
#    0.000    2.231    2.308    0.923    0.000    4.308 
#    0.000    5.385    0.000    0.923    0.000    2.154 
#    0.000    0.000    0.000    0.000    0.000    0.000 
#
# Total GULP energy -644634.077432 kJ/mol
# GULP energy per Si atom -12396.809181 kJ/mol
# Density = 1.813392 g / cm^3
# Si number density = 18.175292 Si / 1000 Ang^3
#
#
#
# Elastic Constant Matrix: (Units=GPa)
#
#
# Indices 1 2 3 4 5 6 
#
# 1 111.3729 43.2278 54.5132 0.0000 0.0000 0.0000
# 2 43.2278 60.2925 46.6783 0.0000 0.0000 0.0000
# 3 54.5132 46.6783 102.2741 0.0000 0.0000 0.0000
# 4 0.0000 0.0000 0.0000 31.4979 0.0000 0.0000
# 5 0.0000 0.0000 0.0000 0.0000 22.7407 0.0000
# 6 0.0000 0.0000 0.0000 0.0000 0.0000 11.3410
#
#
#
# Elastic Compliance Matrix: (Units=1/GPa)
#
#
# Indices 1 2 3 4 5 6 
#
# 1 0.013572 -0.006387 -0.004319 0.000000 0.000000 0.000000
# 2 -0.006387 0.028654 -0.009674 0.000000 0.000000 0.000000
# 3 -0.004319 -0.009674 0.016495 0.000000 0.000000 0.000000
# 4 0.000000 0.000000 0.000000 0.031748 0.000000 0.000000
# 5 0.000000 0.000000 0.000000 0.000000 0.043974 0.000000
# 6 0.000000 0.000000 0.000000 0.000000 0.000000 0.088176
#
#
# Mechanical properties :
#
#
# Convention : Reuss Voigt Hill
#
# Bulk Modulus (GPa) = 55.67315 62.53090 59.10203
# Shear Modulus (GPa) = 18.56219 21.75060 20.15639
#
# Velocity S-wave (km/s) = 3.19922 3.46311 3.33378
# Velocity P-wave (km/s) = 6.65916 7.10421 6.88528
#
# Compressibility (1/GPa) = 0.01796198
#
# Stress axis : x y z
#
# Youngs Moduli (GPa) = 73.68244 34.89880 60.62512
#
# Poissons Ratio (x) = 0.22289 0.26184
# Poissons Ratio (y) = 0.47059 0.58647
# Poissons Ratio (z) = 0.31823 0.33760
#
# Static dielectric constant tensor:
#      x y z
#    x 3.733480 0.000000 0.000000 
#    y 0.000000 3.322350 0.000000 
#    z 0.000000 0.000000 3.294590 
# 
# 
# High freq. dielectric constant tensor:
#      x y z
#    x 1.716430 0.000000 0.000000 
#    y 0.000000 1.693900 0.000000 
#    z 0.000000 0.000000 1.696220 
# 
# From -- ./inp_files/10998.got.cif
#   From: 2010.03.12/outbox.cif.g09.slc.cpg/sg47_6_cif.got.tgz:10998.got - 2010.04.14 03:12:58.
