data_PCOD8196456
_publ_section_title
;
Structure prediction by ZEFSAII (Michael W. Deem and Ramdas Pophale) SiO2 
 PCOD8196456
Probable space group: P M M M
;
_chemical_formula_sum "Si O2"
_cell_formula_units_Z 64
_cell_length_a 23.903087
_cell_length_b 9.431902
_cell_length_c 19.250955
_cell_angle_alpha 90.000000
_cell_angle_beta 90.000000
_cell_angle_gamma 90.000000
_cell_volume 4340.158107
_symmetry_space_group_name_H-M "P M M M"
_symmetry_group_IT_number 47
_symmetry_cell_setting 'orthorhombic'
loop_
_space_group_symop_operation_xyz
x,y,z
-x,-y,z
x,-y,-z
-x,y,-z
-x,-y,-z
x,y,-z
-x,y,z
x,-y,z
loop_
_atom_site_type_symbol
_atom_site_label
_atom_site_fract_x
_atom_site_fract_y
_atom_site_fract_z
Si Si1 0.271069 0.836455 0.078041
Si Si2 0.385148 0.335736 0.421107
Si Si3 0.061177 0.668329 0.921795
Si Si4 0.172792 0.667007 0.145849
Si Si5 0.666841 0.163683 0.212311
Si Si6 0.741741 0.667536 0.574155
Si Si7 0.235331 0.334151 0.279053
Si Si8 0.437228 0.835720 0.700623
O O1 0.217324 0.742896 0.096621
O O2 0.322646 0.803434 0.130463
O O3 0.252745 0.000000 0.084066
O O4 0.290986 0.799355 0.000000
O O5 0.406202 0.311699 0.500000
O O6 0.389221 0.500000 0.400557
O O7 0.321569 0.279684 0.413736
O O8 0.424159 0.249296 0.369215
O O9 0.060724 0.500000 0.921251
O O10 0.110600 0.724437 0.871761
O O11 0.000000 0.723887 0.896265
O O12 0.072610 0.722759 0.000000
O O13 0.177901 0.500000 0.131301
O O14 0.184550 0.703789 0.226930
O O15 0.708617 0.255248 0.257989
O O16 0.603914 0.204592 0.235184
O O17 0.679645 0.000000 0.228146
O O18 0.764846 0.729715 0.500000
O O19 0.740370 0.500000 0.567163
O O20 0.779414 0.711809 0.641186
O O21 0.249093 0.500000 0.275491
O O22 0.500000 0.799138 0.725424
O O23 0.430947 0.000000 0.681608
#
# Coordination Sequence:
#
# PCOD8196456 Si02
#       8
#     8   8   8   8   8   8   8   8
#     4   9  17  28  42  59  78 100 123 150 189 233
#     4   9  17  29  44  59  75  98 127 155 182 218
#     4   8  13  21  33  50  76 109 136 155 180 216
#     4   9  16  24  38  61  82  99 126 163 192 216
#     4   9  17  29  42  55  74  98 122 148 184 231
#     4   8  13  22  37  55  75  98 120 145 181 223
#     4   9  15  24  40  59  77  95 120 157 193 221
#     4  10  20  31  42  56  75  99 125 155 189 224
#
# _framework density 14.746007000000001
#
# number of rings (size 3 to 8) (size 9 to 14) (size 15 to 20)
#    0.000    3.125    1.250    1.500    0.000    1.500 
#    0.000    1.250    0.000    1.125    0.000    4.375 
#    0.000    0.500    0.000   14.375    0.000    7.750 
#
# Total GULP energy -792899.757739 kJ/mol
# GULP energy per Si atom -12389.058715 kJ/mol
# Density = 1.471244 g / cm^3
# Si number density = 14.746007 Si / 1000 Ang^3
#
#
#
# Elastic Constant Matrix: (Units=GPa)
#
#
# Indices 1 2 3 4 5 6 
#
# 1 102.1250 22.8098 70.7539 0.0000 0.0000 0.0000
# 2 22.8098 22.7752 26.2274 0.0000 0.0000 0.0000
# 3 70.7539 26.2274 137.5585 0.0000 0.0000 0.0000
# 4 0.0000 0.0000 0.0000 16.0906 0.0000 0.0000
# 5 0.0000 0.0000 0.0000 0.0000 22.4203 0.0000
# 6 0.0000 0.0000 0.0000 0.0000 0.0000 11.4209
#
#
#
# Elastic Compliance Matrix: (Units=1/GPa)
#
#
# Indices 1 2 3 4 5 6 
#
# 1 0.016435 -0.008617 -0.006810 0.000000 0.000000 0.000000
# 2 -0.008617 0.060778 -0.007156 0.000000 0.000000 0.000000
# 3 -0.006810 -0.007156 0.012137 0.000000 0.000000 0.000000
# 4 0.000000 0.000000 0.000000 0.062148 0.000000 0.000000
# 5 0.000000 0.000000 0.000000 0.000000 0.044602 0.000000
# 6 0.000000 0.000000 0.000000 0.000000 0.000000 0.087559
#
#
# Mechanical properties :
#
#
# Convention : Reuss Voigt Hill
#
# Bulk Modulus (GPa) = 22.63300 55.78233 39.20767
# Shear Modulus (GPa) = 14.55372 19.49752 17.02562
#
# Velocity S-wave (km/s) = 3.14500 3.64018 3.40162
# Velocity P-wave (km/s) = 5.34508 7.45512 6.48648
#
# Compressibility (1/GPa) = 0.04418326
#
# Stress axis : x y z
#
# Youngs Moduli (GPa) = 60.84591 16.45319 82.39271
#
# Poissons Ratio (x) = 0.14178 0.56113
# Poissons Ratio (y) = 0.52432 0.58960
# Poissons Ratio (z) = 0.41439 0.11774
#
# Static dielectric constant tensor:
#      x y z
#    x 2.873860 0.000000 0.000000 
#    y 0.000000 2.682210 0.000000 
#    z 0.000000 0.000000 3.237130 
# 
# 
# High freq. dielectric constant tensor:
#      x y z
#    x 1.532580 0.000000 0.000000 
#    y 0.000000 1.543520 0.000000 
#    z 0.000000 0.000000 1.568680 
# 
# From -- ./inp_files/11953.got.cif
#   From: 2010.03.12/outbox.cif.g09.slc.cpg/sg47_6_cif.got.tgz:11953.got - 2010.04.14 03:12:58.
