data_PCOD8196264
_publ_section_title
;
Structure prediction by ZEFSAII (Michael W. Deem and Ramdas Pophale) SiO2 
 PCOD8196264
Probable space group: P M M M
;
_chemical_formula_sum "Si O2"
_cell_formula_units_Z 52
_cell_length_a 17.915612
_cell_length_b 9.567018
_cell_length_c 15.709828
_cell_angle_alpha 90.000000
_cell_angle_beta 90.000000
_cell_angle_gamma 90.000000
_cell_volume 2692.648534
_symmetry_space_group_name_H-M "P M M M"
_symmetry_group_IT_number 47
_symmetry_cell_setting 'orthorhombic'
loop_
_space_group_symop_operation_xyz
x,y,z
-x,-y,z
x,-y,-z
-x,y,-z
-x,-y,-z
x,y,-z
-x,y,z
x,-y,z
loop_
_atom_site_type_symbol
_atom_site_label
_atom_site_fract_x
_atom_site_fract_y
_atom_site_fract_z
Si Si1 0.000000 0.653265 0.902451
Si Si2 0.698443 0.834090 0.904085
Si Si3 0.333083 0.837629 0.402347
Si Si4 0.084724 0.154165 0.669856
Si Si5 0.582634 0.835052 0.764638
Si Si6 0.138224 0.157862 0.146719
Si Si7 0.196267 0.652353 0.402430
O O1 0.073826 0.739952 0.882972
O O2 0.000000 0.500000 0.855451
O O3 0.000000 0.620053 0.000000
O O4 0.640045 0.771020 0.834766
O O5 0.782206 0.781264 0.883790
O O6 0.698370 0.000000 0.896715
O O7 0.675943 0.786547 0.000000
O O8 0.357890 0.800449 0.500000
O O9 0.396917 0.799968 0.333810
O O10 0.262054 0.751310 0.368921
O O11 0.310903 0.000000 0.397167
O O12 0.137881 0.154797 0.751587
O O13 0.116509 0.271213 0.606967
O O14 0.000000 0.193032 0.695599
O O15 0.087072 0.000000 0.626982
O O16 0.500000 0.772641 0.781417
O O17 0.581315 0.000000 0.777030
O O18 0.124593 0.000000 0.111164
O O19 0.210867 0.625555 0.500000
O O20 0.196307 0.500000 0.356053
#
# Coordination Sequence:
#
# PCOD8196264 Si02
#       7
#     4   8   8   8   8   8   8
#     4  11  23  35  49  75 108 135 164 211 267 316
#     4   9  17  28  46  73 102 136 176 214 256 311
#     4   9  17  31  52  76 102 135 174 215 260 310
#     4  10  20  34  52  74  99 131 174 220 267 315
#     4   9  17  29  47  74 107 138 169 213 265 314
#     4  10  19  35  55  74  99 135 179 219 258 311
#     4  10  21  35  51  73 102 137 175 214 260 315
#
# _framework density 19.311841000000001
#
# number of rings (size 3 to 8) (size 9 to 14) (size 15 to 20)
#    0.000    2.385    0.769    2.077    0.000    6.462 
#    0.000    4.615    0.000    0.462    0.000    2.154 
#    0.000    0.000    0.000    6.615    0.000    6.769 
#
# Total GULP energy -644391.259731 kJ/mol
# GULP energy per Si atom -12392.139610 kJ/mol
# Density = 1.926789 g / cm^3
# Si number density = 19.311841 Si / 1000 Ang^3
#
#
#
# Elastic Constant Matrix: (Units=GPa)
#
#
# Indices 1 2 3 4 5 6 
#
# 1 151.6187 50.5915 65.2187 0.0000 0.0000 0.0000
# 2 50.5915 77.2881 24.8897 0.0000 0.0000 0.0000
# 3 65.2187 24.8897 82.9181 0.0000 0.0000 0.0000
# 4 0.0000 0.0000 0.0000 12.5589 0.0000 0.0000
# 5 0.0000 0.0000 0.0000 0.0000 26.7425 0.0000
# 6 0.0000 0.0000 0.0000 0.0000 0.0000 6.3541
#
#
#
# Elastic Compliance Matrix: (Units=1/GPa)
#
#
# Indices 1 2 3 4 5 6 
#
# 1 0.011555 -0.005133 -0.007548 0.000000 0.000000 0.000000
# 2 -0.005133 0.016603 -0.000947 0.000000 0.000000 0.000000
# 3 -0.007548 -0.000947 0.018281 0.000000 0.000000 0.000000
# 4 0.000000 0.000000 0.000000 0.079625 0.000000 0.000000
# 5 0.000000 0.000000 0.000000 0.000000 0.037394 0.000000
# 6 0.000000 0.000000 0.000000 0.000000 0.000000 0.157378
#
#
# Mechanical properties :
#
#
# Convention : Reuss Voigt Hill
#
# Bulk Modulus (GPa) = 52.12494 65.91386 59.01940
# Shear Modulus (GPa) = 14.10499 20.53944 17.32222
#
# Velocity S-wave (km/s) = 2.70549 3.26478 2.99820
# Velocity P-wave (km/s) = 6.06707 6.95824 6.52788
#
# Compressibility (1/GPa) = 0.01918468
#
# Stress axis : x y z
#
# Youngs Moduli (GPa) = 86.54368 60.22865 54.70234
#
# Poissons Ratio (x) = 0.30915 0.41287
# Poissons Ratio (y) = 0.44423 0.05178
# Poissons Ratio (z) = 0.65320 0.05701
#
# Static dielectric constant tensor:
#      x y z
#    x 3.595590 0.000000 0.000000 
#    y 0.000000 3.565630 0.000000 
#    z 0.000000 0.000000 3.565170 
# 
# 
# High freq. dielectric constant tensor:
#      x y z
#    x 1.747650 0.000000 0.000000 
#    y 0.000000 1.710910 0.000000 
#    z 0.000000 0.000000 1.749200 
# 
# From -- ./inp_files/28528.got.cif
#   From: 2010.03.12/outbox.cif.g09.slc.cpg/sg47_15_cif.got.tgz:28528.got - 2010.04.14 03:12:58.
