data_PCOD8196622
_publ_section_title
;
Structure prediction by ZEFSAII (Michael W. Deem and Ramdas Pophale) SiO2 
 PCOD8196622
Probable space group: P M M M
;
_chemical_formula_sum "Si O2"
_cell_formula_units_Z 44
_cell_length_a 9.632629
_cell_length_b 9.303463
_cell_length_c 28.318459
_cell_angle_alpha 90.000000
_cell_angle_beta 90.000000
_cell_angle_gamma 90.000000
_cell_volume 2537.809889
_symmetry_space_group_name_H-M "P M M M"
_symmetry_group_IT_number 47
_symmetry_cell_setting 'orthorhombic'
loop_
_space_group_symop_operation_xyz
x,y,z
-x,-y,z
x,-y,-z
-x,y,-z
-x,-y,-z
x,y,-z
-x,y,z
x,-y,z
loop_
_atom_site_type_symbol
_atom_site_label
_atom_site_fract_x
_atom_site_fract_y
_atom_site_fract_z
Si Si1 0.335200 0.161275 0.551937
Si Si2 0.662488 0.667646 0.641631
Si Si3 0.837771 0.833602 0.282178
Si Si4 0.665130 0.662687 0.000000
Si Si5 0.338475 0.167730 0.908896
Si Si6 0.153148 0.170525 0.823630
O O1 0.280461 0.210112 0.500000
O O2 0.500000 0.163838 0.551361
O O3 0.279751 0.267495 0.592386
O O4 0.282334 0.000000 0.563046
O O5 0.500000 0.701444 0.648424
O O6 0.693268 0.500000 0.640599
O O7 0.745109 0.736845 0.684366
O O8 0.801757 0.782263 0.228919
O O9 0.000000 0.809286 0.292818
O O10 0.798091 0.000000 0.289675
O O11 0.720032 0.745196 0.046269
O O12 0.722169 0.500000 0.000000
O O13 0.500000 0.665690 0.000000
O O14 0.500000 0.197031 0.900682
O O15 0.260997 0.227914 0.862505
O O16 0.308656 0.000000 0.917931
O O17 0.000000 0.231919 0.835430
O O18 0.147949 0.000000 0.824694
#
# Coordination Sequence:
#
# PCOD8196622 Si02
#       6
#     8   8   8   4   8   8
#     4   8  14  26  45  68  93 122 156 193 234 279
#     4  10  20  31  45  70 101 129 158 193 233 278
#     4   9  18  33  52  71  92 123 161 197 236 283
#     4   9  17  29  44  63  90 122 150 177 216 264
#     4   9  16  27  46  70  91 113 146 185 221 261
#     4   8  15  29  48  69  91 114 145 187 231 273
#
# _framework density 17.337783999999999
#
# number of rings (size 3 to 8) (size 9 to 14) (size 15 to 20)
#    0.000    3.182    0.000    2.455    0.000    3.636 
#    0.000    5.000    0.000    7.091    0.000    3.818 
#    0.000    0.000    0.000    0.000    0.000    0.000 
#
# Total GULP energy -545395.355885 kJ/mol
# GULP energy per Si atom -12395.348997 kJ/mol
# Density = 1.729832 g / cm^3
# Si number density = 17.337784 Si / 1000 Ang^3
#
#
#
# Elastic Constant Matrix: (Units=GPa)
#
#
# Indices 1 2 3 4 5 6 
#
# 1 49.3687 41.3049 66.5001 0.0000 0.0000 0.0000
# 2 41.3049 85.8049 79.4344 0.0000 0.0000 0.0000
# 3 66.5001 79.4344 183.5566 0.0000 0.0000 0.0000
# 4 0.0000 0.0000 0.0000 5.2040 0.0000 0.0000
# 5 0.0000 0.0000 0.0000 0.0000 1.0905 0.0000
# 6 0.0000 0.0000 0.0000 0.0000 0.0000 16.7866
#
#
#
# Elastic Compliance Matrix: (Units=1/GPa)
#
#
# Indices 1 2 3 4 5 6 
#
# 1 0.044994 -0.010959 -0.011558 0.000000 0.000000 0.000000
# 2 -0.010959 0.022113 -0.005599 0.000000 0.000000 0.000000
# 3 -0.011558 -0.005599 0.012058 0.000000 0.000000 0.000000
# 4 0.000000 0.000000 0.000000 0.192160 0.000000 0.000000
# 5 0.000000 0.000000 0.000000 0.000000 0.917025 0.000000
# 6 0.000000 0.000000 0.000000 0.000000 0.000000 0.059571
#
#
# Mechanical properties :
#
#
# Convention : Reuss Voigt Hill
#
# Bulk Modulus (GPa) = 43.60630 77.02321 60.31476
# Shear Modulus (GPa) = 3.81156 13.38226 8.59691
#
# Velocity S-wave (km/s) = 1.48431 2.78124 2.22918
# Velocity P-wave (km/s) = 5.30502 7.40508 6.44121
#
# Compressibility (1/GPa) = 0.02293247
#
# Stress axis : x y z
#
# Youngs Moduli (GPa) = 22.22535 45.22127 82.93058
#
# Poissons Ratio (x) = 0.49559 0.95851
# Poissons Ratio (y) = 0.24357 0.46435
# Poissons Ratio (z) = 0.25688 0.25320
#
# Static dielectric constant tensor:
#      x y z
#    x 3.007080 0.000000 0.000000 
#    y 0.000000 3.083260 0.000000 
#    z 0.000000 0.000000 3.614830 
# 
# 
# High freq. dielectric constant tensor:
#      x y z
#    x 1.635060 0.000000 0.000000 
#    y 0.000000 1.648440 0.000000 
#    z 0.000000 0.000000 1.685900 
# 
# From -- ./inp_files/2012.got.cif
#   From: 2010.03.12/outbox.cif.g09.slc.cpg/sg47_2_cif.got.tgz:2012.got - 2010.04.14 03:12:58.
