data_PCOD8196730
_publ_section_title
;
Structure prediction by ZEFSAII (Michael W. Deem and Ramdas Pophale) SiO2 
 PCOD8196730
Probable space group: P M M M
;
_chemical_formula_sum "Si O2"
_cell_formula_units_Z 64
_cell_length_a 14.557888
_cell_length_b 13.329340
_cell_length_c 19.069103
_cell_angle_alpha 90.000000
_cell_angle_beta 90.000000
_cell_angle_gamma 90.000000
_cell_volume 3700.302970
_symmetry_space_group_name_H-M "P M M M"
_symmetry_group_IT_number 47
_symmetry_cell_setting 'orthorhombic'
loop_
_space_group_symop_operation_xyz
x,y,z
-x,-y,z
x,-y,-z
-x,y,-z
-x,-y,-z
x,y,-z
-x,y,z
x,-y,z
loop_
_atom_site_type_symbol
_atom_site_label
_atom_site_fract_x
_atom_site_fract_y
_atom_site_fract_z
Si Si1 0.901257 0.384273 0.075406
Si Si2 0.108283 0.310865 0.579471
Si Si3 0.752506 0.385531 0.317130
Si Si4 0.393008 0.616357 0.081752
Si Si5 0.762647 0.710292 0.830837
Si Si6 0.106503 0.892084 0.358704
Si Si7 0.894002 0.884557 0.804606
Si Si8 0.398121 0.619231 0.422577
O O1 0.916194 0.500000 0.065177
O O2 0.828979 0.371942 0.136550
O O3 0.000000 0.335347 0.095578
O O4 0.867518 0.339075 0.000000
O O5 0.133578 0.342349 0.500000
O O6 0.155207 0.384311 0.635791
O O7 0.146081 0.197901 0.593877
O O8 0.000000 0.318233 0.592484
O O9 0.734163 0.500000 0.293361
O O10 0.754419 0.312638 0.251006
O O11 0.671532 0.339316 0.364902
O O12 0.500000 0.637350 0.097169
O O13 0.369635 0.500000 0.100737
O O14 0.335011 0.695790 0.129196
O O15 0.370719 0.635270 0.000000
O O16 0.815424 0.817037 0.843108
O O17 0.121271 0.866901 0.277509
O O18 0.000000 0.902355 0.375323
O O19 0.153426 0.000000 0.377308
O O20 0.000000 0.855447 0.824456
O O21 0.876081 0.000000 0.825604
O O22 0.371201 0.659614 0.500000
O O23 0.500000 0.656275 0.402459
O O24 0.393835 0.500000 0.423421
#
# Coordination Sequence:
#
# PCOD8196730 Si02
#       8
#     8   8   8   8   8   8   8   8
#     4   9  18  31  46  68  99 132 165 199 235 281
#     4  10  20  32  44  61  91 131 169 201 238 291
#     4  11  22  31  42  67  99 127 158 201 246 292
#     4   9  19  36  56  79 109 142 172 202 241 294
#     4  12  20  30  52  77  99 128 166 209 253 303
#     4   8  14  28  48  66  86 115 156 207 255 291
#     4   9  18  33  52  73 100 133 167 208 261 314
#     4   8  15  30  49  63  80 115 159 197 235 280
#
# _framework density 17.295881000000001
#
# number of rings (size 3 to 8) (size 9 to 14) (size 15 to 20)
#    0.000    2.500    1.250    4.125    0.000    3.250 
#    0.000    3.125    0.000    1.875    0.000    5.250 
#    0.000    0.500    0.000    4.250    0.000    0.625 
#
# Total GULP energy -792839.359046 kJ/mol
# GULP energy per Si atom -12388.114985 kJ/mol
# Density = 1.725651 g / cm^3
# Si number density = 17.295881 Si / 1000 Ang^3
#
#
#
# Elastic Constant Matrix: (Units=GPa)
#
#
# Indices 1 2 3 4 5 6 
#
# 1 97.8704 33.6447 53.1262 0.0000 0.0000 0.0000
# 2 33.6447 60.2427 22.9249 0.0000 0.0000 0.0000
# 3 53.1262 22.9249 87.8721 0.0000 0.0000 0.0000
# 4 0.0000 0.0000 0.0000 38.1124 0.0000 0.0000
# 5 0.0000 0.0000 0.0000 0.0000 31.4938 0.0000
# 6 0.0000 0.0000 0.0000 0.0000 0.0000 18.9639
#
#
#
# Elastic Compliance Matrix: (Units=1/GPa)
#
#
# Indices 1 2 3 4 5 6 
#
# 1 0.017083 -0.006229 -0.008703 0.000000 0.000000 0.000000
# 2 -0.006229 0.020700 -0.001635 0.000000 0.000000 0.000000
# 3 -0.008703 -0.001635 0.017068 0.000000 0.000000 0.000000
# 4 0.000000 0.000000 0.000000 0.026238 0.000000 0.000000
# 5 0.000000 0.000000 0.000000 0.000000 0.031752 0.000000
# 6 0.000000 0.000000 0.000000 0.000000 0.000000 0.052732
#
#
# Mechanical properties :
#
#
# Convention : Reuss Voigt Hill
#
# Bulk Modulus (GPa) = 46.04341 51.70851 48.87596
# Shear Modulus (GPa) = 24.27813 26.79999 25.53906
#
# Velocity S-wave (km/s) = 3.75066 3.94064 3.84682
# Velocity P-wave (km/s) = 6.74058 7.11802 6.93187
#
# Compressibility (1/GPa) = 0.02171864
#
# Stress axis : x y z
#
# Youngs Moduli (GPa) = 58.53734 48.30858 58.58764
#
# Poissons Ratio (x) = 0.30090 0.50990
# Poissons Ratio (y) = 0.36461 0.09577
# Poissons Ratio (z) = 0.50946 0.07897
#
# Static dielectric constant tensor:
#      x y z
#    x 3.253410 0.000000 0.000000 
#    y 0.000000 3.374940 0.000000 
#    z 0.000000 0.000000 3.254850 
# 
# 
# High freq. dielectric constant tensor:
#      x y z
#    x 1.654560 0.000000 0.000000 
#    y 0.000000 1.632810 0.000000 
#    z 0.000000 0.000000 1.666810 
# 
# From -- ./inp_files/24089.got.cif
#   From: 2010.03.12/outbox.cif.g09.slc.cpg/sg47_13_cif.got.tgz:24089.got - 2010.04.14 03:12:58.
