data_PCOD8196768
_publ_section_title
;
Structure prediction by ZEFSAII (Michael W. Deem and Ramdas Pophale) SiO2 
 PCOD8196768
Probable space group: P M M M
;
_chemical_formula_sum "Si O2"
_cell_formula_units_Z 52
_cell_length_a 9.025516
_cell_length_b 27.298892
_cell_length_c 12.503845
_cell_angle_alpha 90.000000
_cell_angle_beta 90.000000
_cell_angle_gamma 90.000000
_cell_volume 3080.779688
_symmetry_space_group_name_H-M "P M M M"
_symmetry_group_IT_number 47
_symmetry_cell_setting 'orthorhombic'
loop_
_space_group_symop_operation_xyz
x,y,z
-x,-y,z
x,-y,-z
-x,y,-z
-x,-y,-z
x,y,-z
-x,y,z
x,-y,z
loop_
_atom_site_type_symbol
_atom_site_label
_atom_site_fract_x
_atom_site_fract_y
_atom_site_fract_z
Si Si1 0.830642 0.944058 0.624350
Si Si2 0.832329 0.500000 0.627632
Si Si3 0.674032 0.235247 0.785828
Si Si4 0.671807 0.121357 0.210080
Si Si5 0.332814 0.403928 0.372876
Si Si6 0.168331 0.236515 0.000000
Si Si7 0.833761 0.120029 0.000000
Si Si8 0.827333 0.694327 0.374424
O O1 0.799140 0.936002 0.500000
O O2 0.721925 0.908353 0.686682
O O3 0.000000 0.930711 0.651870
O O4 0.797269 0.000000 0.656578
O O5 0.832400 0.500000 0.500000
O O6 0.748321 0.452167 0.672373
O O7 0.000000 0.500000 0.671265
O O8 0.500000 0.245975 0.790060
O O9 0.709352 0.178100 0.771075
O O10 0.746316 0.261379 0.684411
O O11 0.747153 0.255901 0.894780
O O12 0.500000 0.113339 0.190212
O O13 0.753892 0.100032 0.105844
O O14 0.335172 0.406014 0.500000
O O15 0.500000 0.401777 0.327559
O O16 0.242744 0.356565 0.333747
O O17 0.172291 0.178286 0.000000
O O18 0.000000 0.256305 0.000000
O O19 0.000000 0.099743 0.000000
O O20 0.800538 0.701823 0.500000
O O21 0.000000 0.694067 0.345707
#
# Coordination Sequence:
#
# PCOD8196768 Si02
#       8
#     8   4   8   8   8   4   4   8
#     4   9  19  36  55  73  95 125 160 196 233 275
#     4   9  15  23  37  57  81 112 153 196 233 275
#     4  10  20  33  49  70  97 127 157 191 234 283
#     4  10  20  33  51  75 100 124 153 192 236 281
#     4   9  16  26  40  58  83 117 155 194 237 283
#     4   9  17  31  51  72  92 118 156 197 234 273
#     4   9  17  31  52  74  97 125 154 187 230 279
#     4  10  20  32  45  64  93 128 163 198 237 280
#
# _framework density 16.878844000000001
#
# number of rings (size 3 to 8) (size 9 to 14) (size 15 to 20)
#    0.000    2.538    0.000    3.000    0.000    8.615 
#    0.000    4.231    0.000    2.308    0.000    0.000 
#    0.000    0.615    0.000    6.154    0.000    5.538 
#
# Total GULP energy -644864.691792 kJ/mol
# GULP energy per Si atom -12401.244073 kJ/mol
# Density = 1.684043 g / cm^3
# Si number density = 16.878844 Si / 1000 Ang^3
#
#
#
# Elastic Constant Matrix: (Units=GPa)
#
#
# Indices 1 2 3 4 5 6 
#
# 1 131.1808 61.1582 49.5202 0.0000 0.0000 0.0000
# 2 61.1582 77.8028 45.3753 0.0000 0.0000 0.0000
# 3 49.5202 45.3753 65.2332 0.0000 0.0000 0.0000
# 4 0.0000 0.0000 0.0000 1.5986 0.0000 0.0000
# 5 0.0000 0.0000 0.0000 0.0000 28.5565 0.0000
# 6 0.0000 0.0000 0.0000 0.0000 0.0000 31.9196
#
#
#
# Elastic Compliance Matrix: (Units=1/GPa)
#
#
# Indices 1 2 3 4 5 6 
#
# 1 0.012795 -0.007391 -0.004571 0.000000 0.000000 0.000000
# 2 -0.007391 0.025896 -0.012402 0.000000 0.000000 0.000000
# 3 -0.004571 -0.012402 0.027427 0.000000 0.000000 0.000000
# 4 0.000000 0.000000 0.000000 0.625528 0.000000 0.000000
# 5 0.000000 0.000000 0.000000 0.000000 0.035018 0.000000
# 6 0.000000 0.000000 0.000000 0.000000 0.000000 0.031329
#
#
# Mechanical properties :
#
#
# Convention : Reuss Voigt Hill
#
# Bulk Modulus (GPa) = 57.51174 65.14713 61.32944
# Shear Modulus (GPa) = 6.15371 20.29247 13.22309
#
# Velocity S-wave (km/s) = 1.91147 3.47110 2.80199
# Velocity P-wave (km/s) = 6.24651 7.39901 6.84705
#
# Compressibility (1/GPa) = 0.01738775
#
# Stress axis : x y z
#
# Youngs Moduli (GPa) = 78.15703 38.61589 36.46101
#
# Poissons Ratio (x) = 0.28543 0.16668
# Poissons Ratio (y) = 0.57769 0.45219
# Poissons Ratio (z) = 0.35729 0.47891
#
# Static dielectric constant tensor:
#      x y z
#    x 3.337590 0.000000 0.000000 
#    y 0.000000 3.062850 0.000000 
#    z 0.000000 0.000000 2.938820 
# 
# 
# High freq. dielectric constant tensor:
#      x y z
#    x 1.669860 0.000000 0.000000 
#    y 0.000000 1.636080 0.000000 
#    z 0.000000 0.000000 1.620070 
# 
# From -- ./inp_files/14150.got.cif
#   From: 2010.03.12/outbox.cif.g09.slc.cpg/sg47_8_cif.got.tgz:14150.got - 2010.04.14 03:12:58.
