data_PCOD8196465
_publ_section_title
;
Structure prediction by ZEFSAII (Michael W. Deem and Ramdas Pophale) SiO2 
 PCOD8196465
Probable space group: P M M M
;
_chemical_formula_sum "Si O2"
_cell_formula_units_Z 52
_cell_length_a 26.727031
_cell_length_b 13.697860
_cell_length_c 9.112618
_cell_angle_alpha 90.000000
_cell_angle_beta 90.000000
_cell_angle_gamma 90.000000
_cell_volume 3336.157962
_symmetry_space_group_name_H-M "P M M M"
_symmetry_group_IT_number 47
_symmetry_cell_setting 'orthorhombic'
loop_
_space_group_symop_operation_xyz
x,y,z
-x,-y,z
x,-y,-z
-x,y,-z
-x,-y,-z
x,y,-z
-x,y,z
x,-y,z
loop_
_atom_site_type_symbol
_atom_site_label
_atom_site_fract_x
_atom_site_fract_y
_atom_site_fract_z
Si Si1 0.444571 0.109179 0.174215
Si Si2 0.293605 0.612538 0.669391
Si Si3 0.798424 0.702241 0.826359
Si Si4 0.902300 0.612648 0.171124
Si Si5 0.350029 0.225428 0.826338
Si Si6 0.746387 0.106743 0.827535
Si Si7 0.000000 0.383876 0.665694
O O1 0.500000 0.144362 0.223677
O O2 0.403050 0.184700 0.233100
O O3 0.434284 0.000000 0.235468
O O4 0.441071 0.105291 0.000000
O O5 0.288991 0.642853 0.500000
O O6 0.307982 0.500000 0.687726
O O7 0.240528 0.631430 0.746783
O O8 0.338166 0.673459 0.745019
O O9 0.854266 0.674328 0.777836
O O10 0.788317 0.814607 0.778069
O O11 0.790650 0.687794 0.000000
O O12 0.892485 0.500000 0.211902
O O13 0.950266 0.656053 0.255279
O O14 0.913003 0.624917 0.000000
O O15 0.308150 0.146013 0.782464
O O16 0.350247 0.245042 0.000000
O O17 0.755758 0.000000 0.753976
O O18 0.748817 0.094202 0.000000
O O19 0.000000 0.500000 0.675705
O O20 0.000000 0.345602 0.500000
#
# Coordination Sequence:
#
# PCOD8196465 Si02
#       7
#     8   8   8   8   8   8   4
#     4   8  13  22  40  68  95 112 131 167 213 254
#     4  10  20  31  42  58  82 111 141 174 211 247
#     4   9  17  28  44  65  85 109 140 170 203 246
#     4   9  16  26  40  58  82 109 135 166 203 241
#     4   9  16  26  43  64  84 110 141 169 201 245
#     4   8  13  22  38  61  86 108 132 163 198 238
#     4   9  17  27  39  57  80 107 138 168 201 243
#
# _framework density 15.586793
#
# number of rings (size 3 to 8) (size 9 to 14) (size 15 to 20)
#    0.000    3.154    0.000    3.000    0.000    5.231 
#    0.000    1.538    0.000   12.462    0.000    4.846 
#    0.000    4.308    0.000    0.000    0.000    0.000 
#
# Total GULP energy -644524.460883 kJ/mol
# GULP energy per Si atom -12394.701171 kJ/mol
# Density = 1.555132 g / cm^3
# Si number density = 15.586793 Si / 1000 Ang^3
#
#
#
# Elastic Constant Matrix: (Units=GPa)
#
#
# Indices 1 2 3 4 5 6 
#
# 1 151.6522 66.4965 41.4413 0.0000 0.0000 0.0000
# 2 66.4965 95.4876 31.8237 0.0000 0.0000 0.0000
# 3 41.4413 31.8237 43.5894 0.0000 0.0000 0.0000
# 4 0.0000 0.0000 0.0000 8.9289 0.0000 0.0000
# 5 0.0000 0.0000 0.0000 0.0000 7.6648 0.0000
# 6 0.0000 0.0000 0.0000 0.0000 0.0000 24.9528
#
#
#
# Elastic Compliance Matrix: (Units=1/GPa)
#
#
# Indices 1 2 3 4 5 6 
#
# 1 0.010630 -0.005332 -0.006213 0.000000 0.000000 0.000000
# 2 -0.005332 0.016514 -0.006988 0.000000 0.000000 0.000000
# 3 -0.006213 -0.006988 0.033950 0.000000 0.000000 0.000000
# 4 0.000000 0.000000 0.000000 0.111995 0.000000 0.000000
# 5 0.000000 0.000000 0.000000 0.000000 0.130466 0.000000
# 6 0.000000 0.000000 0.000000 0.000000 0.000000 0.040076
#
#
# Mechanical properties :
#
#
# Convention : Reuss Voigt Hill
#
# Bulk Modulus (GPa) = 41.61722 63.36136 52.48929
# Shear Modulus (GPa) = 12.86316 18.37382 15.61849
#
# Velocity S-wave (km/s) = 2.87585 3.43710 3.16893
# Velocity P-wave (km/s) = 6.14700 7.51601 6.86572
#
# Compressibility (1/GPa) = 0.02402851
#
# Stress axis : x y z
#
# Youngs Moduli (GPa) = 94.07531 60.55331 29.45491
#
# Poissons Ratio (x) = 0.32285 0.18301
# Poissons Ratio (y) = 0.50158 0.20583
# Poissons Ratio (z) = 0.58453 0.42314
#
# Static dielectric constant tensor:
#      x y z
#    x 3.111970 0.000000 0.000000 
#    y 0.000000 3.040520 0.000000 
#    z 0.000000 0.000000 2.731370 
# 
# 
# High freq. dielectric constant tensor:
#      x y z
#    x 1.595220 0.000000 0.000000 
#    y 0.000000 1.579380 0.000000 
#    z 0.000000 0.000000 1.570240 
# 
# From -- ./inp_files/13380.got.cif
#   From: 2010.03.12/outbox.cif.g09.slc.cpg/sg47_7_cif.got.tgz:13380.got - 2010.04.14 03:12:58.
