data_PCOD8196171
_publ_section_title
;
Structure prediction by ZEFSAII (Michael W. Deem and Ramdas Pophale) SiO2 
 PCOD8196171
Probable space group: P M M M
;
_chemical_formula_sum "Si O2"
_cell_formula_units_Z 48
_cell_length_a 15.151177
_cell_length_b 18.629889
_cell_length_c 9.173172
_cell_angle_alpha 90.000000
_cell_angle_beta 90.000000
_cell_angle_gamma 90.000000
_cell_volume 2589.263062
_symmetry_space_group_name_H-M "P M M M"
_symmetry_group_IT_number 47
_symmetry_cell_setting 'orthorhombic'
loop_
_space_group_symop_operation_xyz
x,y,z
-x,-y,z
x,-y,-z
-x,y,-z
-x,-y,-z
x,y,-z
-x,y,z
x,-y,z
loop_
_atom_site_type_symbol
_atom_site_label
_atom_site_fract_x
_atom_site_fract_y
_atom_site_fract_z
Si Si1 0.398597 0.818266 0.831166
Si Si2 0.671341 0.662035 0.170108
Si Si3 0.500000 0.579863 0.826848
Si Si4 0.825813 0.583167 0.328240
Si Si5 0.097149 0.085285 0.835677
Si Si6 0.267110 0.915243 0.667397
Si Si7 0.000000 0.415139 0.836636
O O1 0.500000 0.809247 0.779740
O O2 0.344302 0.745803 0.802605
O O3 0.352897 0.881620 0.741963
O O4 0.395773 0.839238 0.000000
O O5 0.586040 0.620400 0.229465
O O6 0.750952 0.634983 0.267868
O O7 0.689702 0.645507 0.000000
O O8 0.500000 0.500000 0.761768
O O9 0.500000 0.579775 0.000000
O O10 0.836134 0.593469 0.500000
O O11 0.805037 0.500000 0.289406
O O12 0.914645 0.610680 0.251451
O O13 0.175896 0.115626 0.735667
O O14 0.000000 0.112027 0.781351
O O15 0.098276 0.000000 0.831563
O O16 0.113672 0.112686 0.000000
O O17 0.266576 0.892970 0.500000
O O18 0.273955 0.000000 0.690042
O O19 0.000000 0.500000 0.846286
O O20 0.000000 0.381993 0.000000
#
# Coordination Sequence:
#
# PCOD8196171 Si02
#       7
#     8   8   4   8   8   8   4
#     4  10  21  38  58  78 103 138 181 227 273 321
#     4  10  19  34  55  79 105 138 181 224 268 320
#     4   9  16  28  51  81 108 133 168 218 267 309
#     4  10  20  33  51  79 114 147 178 217 267 320
#     4   8  14  27  50  79 108 137 169 208 257 310
#     4  10  21  35  53  80 111 142 178 220 266 320
#     4   9  17  31  53  79 105 139 184 227 266 311
#
# _framework density 18.538094999999998
#
# number of rings (size 3 to 8) (size 9 to 14) (size 15 to 20)
#    0.000    2.500    0.833    2.250    0.000    5.333 
#    0.000    3.750    1.833    1.500    0.000    0.000 
#    0.000    0.000    0.000    0.000    0.000    0.000 
#
# Total GULP energy -595144.835699 kJ/mol
# GULP energy per Si atom -12398.850744 kJ/mol
# Density = 1.849590 g / cm^3
# Si number density = 18.538095 Si / 1000 Ang^3
#
#
#
# Elastic Constant Matrix: (Units=GPa)
#
#
# Indices 1 2 3 4 5 6 
#
# 1 159.3729 40.6431 78.7813 0.0000 0.0000 0.0000
# 2 40.6431 41.6037 37.1555 0.0000 0.0000 0.0000
# 3 78.7813 37.1555 103.0872 0.0000 0.0000 0.0000
# 4 0.0000 0.0000 0.0000 21.6953 0.0000 0.0000
# 5 0.0000 0.0000 0.0000 0.0000 5.7195 0.0000
# 6 0.0000 0.0000 0.0000 0.0000 0.0000 -20.4655
#
#
#
# Elastic Compliance Matrix: (Units=1/GPa)
#
#
# Indices 1 2 3 4 5 6 
#
# 1 0.010655 -0.004626 -0.006476 0.000000 0.000000 0.000000
# 2 -0.004626 0.037455 -0.009964 0.000000 0.000000 0.000000
# 3 -0.006476 -0.009964 0.018241 0.000000 0.000000 0.000000
# 4 0.000000 0.000000 0.000000 0.046093 0.000000 0.000000
# 5 0.000000 0.000000 0.000000 0.000000 0.174839 0.000000
# 6 0.000000 0.000000 0.000000 0.000000 0.000000 -0.048863
#
#
# Mechanical properties :
#
#
# Convention : Reuss Voigt Hill
#
# Bulk Modulus (GPa) = 41.29063 68.58040 54.93551
# Shear Modulus (GPa) = 17.32349 11.22212 14.27281
#
# Velocity S-wave (km/s) = 3.06024 2.46306 2.77775
# Velocity P-wave (km/s) = 5.89988 6.72038 6.32345
#
# Compressibility (1/GPa) = 0.02421857
#
# Stress axis : x y z
#
# Youngs Moduli (GPa) = 93.84908 26.69899 54.82196
#
# Poissons Ratio (x) = 0.12351 0.35501
# Poissons Ratio (y) = 0.43415 0.54627
# Poissons Ratio (z) = 0.60774 0.26604
#
# Static dielectric constant tensor:
#      x y z
#    x 3.702820 0.000000 0.000000 
#    y 0.000000 3.116200 0.000000 
#    z 0.000000 0.000000 3.345890 
# 
# 
# High freq. dielectric constant tensor:
#      x y z
#    x 1.734640 0.000000 0.000000 
#    y 0.000000 1.689050 0.000000 
#    z 0.000000 0.000000 1.709030 
# 
# From -- ./inp_files/6423.got.cif
#   From: 2010.03.12/outbox.cif.g09.slc.cpg/sg47_4_cif.got.tgz:6423.got - 2010.04.14 03:12:58.
