data_PCOD8196040
_publ_section_title
;
Structure prediction by ZEFSAII (Michael W. Deem and Ramdas Pophale) SiO2 
 PCOD8196040
Probable space group: P M M M
;
_chemical_formula_sum "Si O2"
_cell_formula_units_Z 48
_cell_length_a 8.563561
_cell_length_b 18.009516
_cell_length_c 15.594634
_cell_angle_alpha 90.000000
_cell_angle_beta 90.000000
_cell_angle_gamma 90.000000
_cell_volume 2405.091611
_symmetry_space_group_name_H-M "P M M M"
_symmetry_group_IT_number 47
_symmetry_cell_setting 'orthorhombic'
loop_
_space_group_symop_operation_xyz
x,y,z
-x,-y,z
x,-y,-z
-x,y,-z
-x,-y,-z
x,y,-z
-x,y,z
x,-y,z
loop_
_atom_site_type_symbol
_atom_site_label
_atom_site_fract_x
_atom_site_fract_y
_atom_site_fract_z
Si Si1 0.680371 0.833175 0.096574
Si Si2 0.684480 0.917776 0.264376
Si Si3 0.817951 0.316889 0.152607
Si Si4 0.183315 0.500000 0.595411
Si Si5 0.185362 0.418168 0.000000
Si Si6 0.685515 0.197076 0.404527
Si Si7 0.681402 0.350721 0.668069
O O1 0.500000 0.809346 0.109055
O O2 0.727275 0.894673 0.167085
O O3 0.791303 0.763313 0.111490
O O4 0.707871 0.864441 0.000000
O O5 0.500000 0.919932 0.276386
O O6 0.756530 0.860214 0.334282
O O7 0.754530 0.000000 0.280725
O O8 0.756831 0.377024 0.084853
O O9 0.710566 0.328790 0.234379
O O10 0.000000 0.326679 0.175801
O O11 0.257789 0.500000 0.500000
O O12 0.231877 0.573653 0.645490
O O13 0.000000 0.500000 0.589139
O O14 0.258658 0.500000 0.000000
O O15 0.000000 0.419988 0.000000
O O16 0.738864 0.172689 0.500000
O O17 0.500000 0.196835 0.396079
O O18 0.744939 0.281152 0.387899
O O19 0.500000 0.364008 0.651471
#
# Coordination Sequence:
#
# PCOD8196040 Si02
#       7
#     8   8   8   4   4   8   8
#     4  10  19  33  54  79 110 146 186 235 285 339
#     4   9  17  30  49  78 115 148 183 233 290 344
#     4  11  21  35  57  82 109 147 191 233 283 342
#     4  11  25  43  61  86 119 152 191 237 286 344
#     4   9  20  36  53  77 108 141 179 227 280 338
#     4   9  17  30  51  79 110 145 184 228 280 338
#     4  11  22  38  59  84 116 151 191 237 289 341
#
# _framework density 19.957660000000001
#
# number of rings (size 3 to 8) (size 9 to 14) (size 15 to 20)
#    0.000    2.000    2.500    1.750    1.167    2.000 
#    0.000    3.333    0.000    2.500    0.000    1.167 
#    0.000    1.333    0.000    0.000    0.000    0.000 
#
# Total GULP energy -595124.677553 kJ/mol
# GULP energy per Si atom -12398.430782 kJ/mol
# Density = 1.991224 g / cm^3
# Si number density = 19.957660 Si / 1000 Ang^3
#
#
#
# Elastic Constant Matrix: (Units=GPa)
#
#
# Indices 1 2 3 4 5 6 
#
# 1 25.0590 13.8506 8.0853 0.0000 0.0000 0.0000
# 2 13.8506 155.6701 64.2627 0.0000 0.0000 0.0000
# 3 8.0853 64.2627 152.2720 0.0000 0.0000 0.0000
# 4 0.0000 0.0000 0.0000 36.8915 0.0000 0.0000
# 5 0.0000 0.0000 0.0000 0.0000 20.2246 0.0000
# 6 0.0000 0.0000 0.0000 0.0000 0.0000 12.1094
#
#
#
# Elastic Compliance Matrix: (Units=1/GPa)
#
#
# Indices 1 2 3 4 5 6 
#
# 1 0.042048 -0.003414 -0.000792 0.000000 0.000000 0.000000
# 2 -0.003414 0.008056 -0.003219 0.000000 0.000000 0.000000
# 3 -0.000792 -0.003219 0.007968 0.000000 0.000000 0.000000
# 4 0.000000 0.000000 0.000000 0.027107 0.000000 0.000000
# 5 0.000000 0.000000 0.000000 0.000000 0.049445 0.000000
# 6 0.000000 0.000000 0.000000 0.000000 0.000000 0.082580
#
#
# Mechanical properties :
#
#
# Convention : Reuss Voigt Hill
#
# Bulk Modulus (GPa) = 23.13595 56.15539 39.64567
# Shear Modulus (GPa) = 20.28716 30.29859 25.29288
#
# Velocity S-wave (km/s) = 3.19173 3.90056 3.56382
# Velocity P-wave (km/s) = 5.02002 6.96306 6.06979
#
# Compressibility (1/GPa) = 0.04322278
#
# Stress axis : x y z
#
# Youngs Moduli (GPa) = 23.78210 124.12560 125.50821
#
# Poissons Ratio (x) = 0.42381 0.09937
# Poissons Ratio (y) = 0.08120 0.40397
# Poissons Ratio (z) = 0.01883 0.39952
#
# Static dielectric constant tensor:
#      x y z
#    x 3.153850 0.000000 0.000000 
#    y 0.000000 3.839430 0.000000 
#    z 0.000000 0.000000 3.896410 
# 
# 
# High freq. dielectric constant tensor:
#      x y z
#    x 1.733350 0.000000 0.000000 
#    y 0.000000 1.780810 0.000000 
#    z 0.000000 0.000000 1.794690 
# 
# From -- ./inp_files/21071.got.cif
#   From: 2010.03.12/outbox.cif.g09.slc.cpg/sg47_11_cif.got.tgz:21071.got - 2010.04.14 03:12:58.
