data_PCOD8196421
_publ_section_title
;
Structure prediction by ZEFSAII (Michael W. Deem and Ramdas Pophale) SiO2 
 PCOD8196421
Probable space group: P M M M
;
_chemical_formula_sum "Si O2"
_cell_formula_units_Z 56
_cell_length_a 17.458881
_cell_length_b 28.602282
_cell_length_c 9.177248
_cell_angle_alpha 90.000000
_cell_angle_beta 90.000000
_cell_angle_gamma 90.000000
_cell_volume 4582.785781
_symmetry_space_group_name_H-M "P M M M"
_symmetry_group_IT_number 47
_symmetry_cell_setting 'orthorhombic'
loop_
_space_group_symop_operation_xyz
x,y,z
-x,-y,z
x,-y,-z
-x,y,-z
-x,-y,-z
x,y,-z
-x,y,z
x,-y,z
loop_
_atom_site_type_symbol
_atom_site_label
_atom_site_fract_x
_atom_site_fract_y
_atom_site_fract_z
Si Si1 0.084021 0.811302 0.826794
Si Si2 0.500000 0.444226 0.834643
Si Si3 0.799584 0.445063 0.830787
Si Si4 0.091480 0.288896 0.163605
Si Si5 0.351549 0.555620 0.334952
Si Si6 0.909481 0.620970 0.332563
Si Si7 0.091723 0.911308 0.163821
Si Si8 0.908654 0.000000 0.663403
O O1 0.125470 0.762027 0.784099
O O2 0.124561 0.860488 0.779923
O O3 0.000000 0.810794 0.754235
O O4 0.075539 0.812334 0.000000
O O5 0.500000 0.500000 0.835978
O O6 0.425504 0.424926 0.750442
O O7 0.500000 0.425091 0.000000
O O8 0.810894 0.500000 0.808426
O O9 0.723686 0.426740 0.749260
O O10 0.872906 0.420524 0.760464
O O11 0.792644 0.431955 0.000000
O O12 0.120282 0.329098 0.272509
O O13 0.000000 0.285295 0.164349
O O14 0.119920 0.300955 0.000000
O O15 0.351291 0.575174 0.500000
O O16 0.353825 0.500000 0.336573
O O17 0.884465 0.616552 0.500000
O O18 0.000000 0.616374 0.313123
O O19 0.000000 0.909288 0.169620
O O20 0.124433 0.953245 0.261745
O O21 0.119467 0.921417 0.000000
O O22 0.878348 0.000000 0.500000
O O23 0.000000 0.000000 0.673034
#
# Coordination Sequence:
#
# PCOD8196421 Si02
#       8
#     8   4   8   8   8   8   8   4
#     4   7  10  17  30  45  55  64  83 111 140 170
#     4   9  15  23  37  57  79  99 117 133 147 169
#     4  10  20  32  44  56  69  86 109 135 161 190
#     4   8  13  23  38  51  61  73  91 118 151 185
#     4   9  16  26  40  57  76  95 112 130 154 182
#     4  10  20  31  41  53  68  85 105 130 162 199
#     4   8  12  18  27  36  46  63  86 107 128 159
#     4   9  15  19  21  29  47  67  85 105 129 157
#
# _framework density 12.219642
#
# number of rings (size 3 to 8) (size 9 to 14) (size 15 to 20)
#    0.000    3.286    0.000    3.429    0.000    5.429 
#    0.000    2.143    0.000    4.286    0.000    0.000 
#    0.000    0.000    0.000    0.000    0.000    0.000 
#
# Total GULP energy -693756.945537 kJ/mol
# GULP energy per Si atom -12388.516885 kJ/mol
# Density = 1.219183 g / cm^3
# Si number density = 12.219642 Si / 1000 Ang^3
#
#
#
# Elastic Constant Matrix: (Units=GPa)
#
#
# Indices 1 2 3 4 5 6 
#
# 1 27.7095 22.6755 25.4888 0.0000 0.0000 0.0000
# 2 22.6755 68.7384 43.2107 0.0000 0.0000 0.0000
# 3 25.4888 43.2107 91.1028 0.0000 0.0000 0.0000
# 4 0.0000 0.0000 0.0000 9.6196 0.0000 0.0000
# 5 0.0000 0.0000 0.0000 0.0000 15.0769 0.0000
# 6 0.0000 0.0000 0.0000 0.0000 0.0000 0.3237
#
#
#
# Elastic Compliance Matrix: (Units=1/GPa)
#
#
# Indices 1 2 3 4 5 6 
#
# 1 0.054778 -0.012020 -0.009625 0.000000 0.000000 0.000000
# 2 -0.012020 0.023366 -0.007720 0.000000 0.000000 0.000000
# 3 -0.009625 -0.007720 0.017331 0.000000 0.000000 0.000000
# 4 0.000000 0.000000 0.000000 0.103955 0.000000 0.000000
# 5 0.000000 0.000000 0.000000 0.000000 0.066327 0.000000
# 6 0.000000 0.000000 0.000000 0.000000 0.000000 3.089533
#
#
# Mechanical properties :
#
#
# Convention : Reuss Voigt Hill
#
# Bulk Modulus (GPa) = 27.21357 41.14452 34.17905
# Shear Modulus (GPa) = 1.45931 11.41575 6.43753
#
# Velocity S-wave (km/s) = 1.09400 3.05981 2.29774
# Velocity P-wave (km/s) = 4.89024 6.79905 5.92206
#
# Compressibility (1/GPa) = 0.03674637
#
# Stress axis : x y z
#
# Youngs Moduli (GPa) = 18.25538 42.79760 57.70039
#
# Poissons Ratio (x) = 0.51443 0.55535
# Poissons Ratio (y) = 0.21943 0.44542
# Poissons Ratio (z) = 0.17570 0.33038
#
# Static dielectric constant tensor:
#      x y z
#    x 2.107170 0.000000 0.000000 
#    y 0.000000 2.699850 0.000000 
#    z 0.000000 0.000000 2.588950 
# 
# 
# High freq. dielectric constant tensor:
#      x y z
#    x 1.396230 0.000000 0.000000 
#    y 0.000000 1.453920 0.000000 
#    z 0.000000 0.000000 1.468320 
# 
# From -- ./inp_files/8187.got.cif
#   From: 2010.03.12/outbox.cif.g09.slc.cpg/sg47_5_cif.got.tgz:8187.got - 2010.04.14 03:12:58.
