data_PCOD8196682
_publ_section_title
;
Structure prediction by ZEFSAII (Michael W. Deem and Ramdas Pophale) SiO2 
 PCOD8196682
Probable space group: P M M M
;
_chemical_formula_sum "Si O2"
_cell_formula_units_Z 64
_cell_length_a 24.951740
_cell_length_b 14.709580
_cell_length_c 9.547017
_cell_angle_alpha 90.000000
_cell_angle_beta 90.000000
_cell_angle_gamma 90.000000
_cell_volume 3504.037980
_symmetry_space_group_name_H-M "P M M M"
_symmetry_group_IT_number 47
_symmetry_cell_setting 'orthorhombic'
loop_
_space_group_symop_operation_xyz
x,y,z
-x,-y,z
x,-y,-z
-x,y,-z
-x,-y,-z
x,y,-z
-x,y,z
x,-y,z
loop_
_atom_site_type_symbol
_atom_site_label
_atom_site_fract_x
_atom_site_fract_y
_atom_site_fract_z
Si Si1 0.579909 0.899038 0.342596
Si Si2 0.130606 0.760261 0.166084
Si Si3 0.342701 0.602987 0.166503
Si Si4 0.252526 0.740493 0.835572
Si Si5 0.706349 0.101244 0.654605
Si Si6 0.060776 0.106865 0.338939
Si Si7 0.059462 0.401101 0.166386
Si Si8 0.440575 0.726637 0.160994
O O1 0.559527 0.878552 0.500000
O O2 0.643181 0.897746 0.338960
O O3 0.557524 0.822288 0.240707
O O4 0.559825 0.000000 0.296206
O O5 0.190756 0.732606 0.208413
O O6 0.106680 0.848215 0.242932
O O7 0.097525 0.675682 0.226941
O O8 0.125041 0.775748 0.000000
O O9 0.342373 0.500000 0.228181
O O10 0.288899 0.655769 0.218744
O O11 0.395653 0.656991 0.221255
O O12 0.343964 0.597627 0.000000
O O13 0.272091 0.834653 0.774059
O O14 0.259568 0.747854 0.000000
O O15 0.725527 0.133331 0.500000
O O16 0.728291 0.000000 0.684291
O O17 0.070332 0.134743 0.500000
O O18 0.000000 0.135227 0.293383
O O19 0.067727 0.000000 0.319587
O O20 0.080557 0.500000 0.215139
O O21 0.000000 0.384460 0.225578
O O22 0.058791 0.396458 0.000000
O O23 0.500000 0.681982 0.174956
O O24 0.426795 0.748279 0.000000
#
# Coordination Sequence:
#
# PCOD8196682 Si02
#       8
#     8   8   8   8   8   8   8   8
#     4   9  18  33  53  76 102 134 169 204 249 304
#     4  10  20  31  48  77 107 132 165 210 256 302
#     4   9  18  34  54  74 100 135 173 213 259 309
#     4  10  20  33  50  75 104 134 168 207 255 306
#     4   9  18  33  53  74  96 128 169 206 243 294
#     4   9  19  36  55  74 100 138 180 215 251 299
#     4   8  14  26  45  69  97 127 157 193 241 293
#     4  10  20  33  52  79 107 135 171 214 258 306
#
# _framework density 18.264641999999998
#
# number of rings (size 3 to 8) (size 9 to 14) (size 15 to 20)
#    0.000    2.750    1.250    1.875    0.000    3.750 
#    0.000    9.375    0.000    1.875    0.000    4.375 
#    0.000    0.000    0.000    0.000    0.000    0.000 
#
# Total GULP energy -793122.883320 kJ/mol
# GULP energy per Si atom -12392.545052 kJ/mol
# Density = 1.822307 g / cm^3
# Si number density = 18.264642 Si / 1000 Ang^3
#
#
#
# Elastic Constant Matrix: (Units=GPa)
#
#
# Indices 1 2 3 4 5 6 
#
# 1 120.3209 68.7014 34.2172 0.0000 0.0000 0.0000
# 2 68.7014 120.5764 33.8510 0.0000 0.0000 0.0000
# 3 34.2172 33.8510 29.5940 0.0000 0.0000 0.0000
# 4 0.0000 0.0000 0.0000 3.9262 0.0000 0.0000
# 5 0.0000 0.0000 0.0000 0.0000 16.5841 0.0000
# 6 0.0000 0.0000 0.0000 0.0000 0.0000 10.0048
#
#
#
# Elastic Compliance Matrix: (Units=1/GPa)
#
#
# Indices 1 2 3 4 5 6 
#
# 1 0.014269 -0.005153 -0.010604 0.000000 0.000000 0.000000
# 2 -0.005153 0.014078 -0.010144 0.000000 0.000000 0.000000
# 3 -0.010604 -0.010144 0.057654 0.000000 0.000000 0.000000
# 4 0.000000 0.000000 0.000000 0.254702 0.000000 0.000000
# 5 0.000000 0.000000 0.000000 0.000000 0.060299 0.000000
# 6 0.000000 0.000000 0.000000 0.000000 0.000000 0.099952
#
#
# Mechanical properties :
#
#
# Convention : Reuss Voigt Hill
#
# Bulk Modulus (GPa) = 29.24104 60.44783 44.84444
# Shear Modulus (GPa) = 8.86281 15.01779 11.94030
#
# Velocity S-wave (km/s) = 2.20522 2.87057 2.55960
# Velocity P-wave (km/s) = 4.74641 6.64487 5.77420
#
# Compressibility (1/GPa) = 0.03419851
#
# Stress axis : x y z
#
# Youngs Moduli (GPa) = 70.08193 71.03458 17.34476
#
# Poissons Ratio (x) = 0.36606 0.18392
# Poissons Ratio (y) = 0.36115 0.17595
# Poissons Ratio (z) = 0.74312 0.72060
#
# Static dielectric constant tensor:
#      x y z
#    x 3.702480 0.000000 0.000000 
#    y 0.000000 -7.334250 0.000000 
#    z 0.000000 0.000000 3.164950 
# 
# 
# High freq. dielectric constant tensor:
#      x y z
#    x 1.715120 0.000000 0.000000 
#    y 0.000000 1.708330 0.000000 
#    z 0.000000 0.000000 1.671510 
# 
# From -- ./inp_files/12757.got.cif
#   From: 2010.03.12/outbox.cif.g09.slc.cpg/sg47_7_cif.got.tgz:12757.got - 2010.04.14 03:12:58.
