data_PCOD8196559
_publ_section_title
;
Structure prediction by ZEFSAII (Michael W. Deem and Ramdas Pophale) SiO2 
 PCOD8196559
Probable space group: P M M M
;
_chemical_formula_sum "Si O2"
_cell_formula_units_Z 64
_cell_length_a 31.080728
_cell_length_b 8.928482
_cell_length_c 14.121744
_cell_angle_alpha 90.000000
_cell_angle_beta 90.000000
_cell_angle_gamma 90.000000
_cell_volume 3918.836500
_symmetry_space_group_name_H-M "P M M M"
_symmetry_group_IT_number 47
_symmetry_cell_setting 'orthorhombic'
loop_
_space_group_symop_operation_xyz
x,y,z
-x,-y,z
x,-y,-z
-x,y,-z
-x,-y,-z
x,y,-z
-x,y,z
x,-y,z
loop_
_atom_site_type_symbol
_atom_site_label
_atom_site_fract_x
_atom_site_fract_y
_atom_site_fract_z
Si Si1 0.256539 0.825478 0.892533
Si Si2 0.952553 0.177852 0.394067
Si Si3 0.631580 0.828414 0.388143
Si Si4 0.205838 0.325962 0.610084
Si Si5 0.165631 0.674667 0.107341
Si Si6 0.128786 0.822370 0.280532
Si Si7 0.707756 0.324552 0.719505
Si Si8 0.452788 0.331841 0.387600
O O1 0.212195 0.741581 0.871344
O O2 0.291836 0.760199 0.820604
O O3 0.249119 0.000000 0.873859
O O4 0.272138 0.795524 0.000000
O O5 0.944140 0.239868 0.500000
O O6 0.915694 0.239894 0.324830
O O7 0.000000 0.230183 0.358856
O O8 0.950495 0.000000 0.396547
O O9 0.635801 0.803330 0.500000
O O10 0.666234 0.724891 0.337983
O O11 0.584343 0.779405 0.350960
O O12 0.639123 0.000000 0.359827
O O13 0.209988 0.286833 0.500000
O O14 0.195333 0.500000 0.626848
O O15 0.168092 0.227765 0.654053
O O16 0.250404 0.279955 0.659082
O O17 0.168190 0.500000 0.129975
O O18 0.131277 0.752300 0.175884
O O19 0.151026 0.706658 0.000000
O O20 0.129120 0.000000 0.272482
O O21 0.705265 0.500000 0.738647
O O22 0.453169 0.331619 0.500000
O O23 0.500000 0.278493 0.350722
O O24 0.443288 0.500000 0.350846
#
# Coordination Sequence:
#
# PCOD8196559 Si02
#       8
#     8   8   8   8   8   8   8   8
#     4  10  20  34  52  73  95 119 153 199 244 282
#     4   8  15  29  48  71  99 127 154 187 231 282
#     4  10  20  31  44  65  95 131 168 206 246 286
#     4  10  21  34  46  64  94 131 164 193 228 274
#     4  10  20  34  51  70  94 125 158 190 231 284
#     4  11  20  30  50  76  97 120 155 198 241 280
#     4  11  21  33  49  67  93 131 167 195 232 284
#     4   8  14  26  44  64  87 119 161 206 248 291
#
# _framework density 16.331378000000001
#
# number of rings (size 3 to 8) (size 9 to 14) (size 15 to 20)
#    0.000    2.250    1.250    3.375    0.000    4.250 
#    0.000    1.250    0.000    1.875    0.000    7.000 
#    0.000    0.500    0.000    5.250    0.000    2.500 
#
# Total GULP energy -793545.428558 kJ/mol
# GULP energy per Si atom -12399.147321 kJ/mol
# Density = 1.629421 g / cm^3
# Si number density = 16.331378 Si / 1000 Ang^3
#
#
#
# Elastic Constant Matrix: (Units=GPa)
#
#
# Indices 1 2 3 4 5 6 
#
# 1 112.0580 40.7821 47.6849 0.0000 0.0000 0.0000
# 2 40.7821 65.7700 38.4935 0.0000 0.0000 0.0000
# 3 47.6849 38.4935 87.1030 0.0000 0.0000 0.0000
# 4 0.0000 0.0000 0.0000 26.0653 0.0000 0.0000
# 5 0.0000 0.0000 0.0000 0.0000 9.0856 0.0000
# 6 0.0000 0.0000 0.0000 0.0000 0.0000 12.7294
#
#
#
# Elastic Compliance Matrix: (Units=1/GPa)
#
#
# Indices 1 2 3 4 5 6 
#
# 1 0.012823 -0.005183 -0.004729 0.000000 0.000000 0.000000
# 2 -0.005183 0.022604 -0.007152 0.000000 0.000000 0.000000
# 3 -0.004729 -0.007152 0.017230 0.000000 0.000000 0.000000
# 4 0.000000 0.000000 0.000000 0.038365 0.000000 0.000000
# 5 0.000000 0.000000 0.000000 0.000000 0.110064 0.000000
# 6 0.000000 0.000000 0.000000 0.000000 0.000000 0.078558
#
#
# Mechanical properties :
#
#
# Convention : Reuss Voigt Hill
#
# Bulk Modulus (GPa) = 53.97048 57.65020 55.81034
# Shear Modulus (GPa) = 15.62744 18.77410 17.20077
#
# Velocity S-wave (km/s) = 3.09673 3.39421 3.24888
# Velocity P-wave (km/s) = 6.77534 7.12305 6.95137
#
# Compressibility (1/GPa) = 0.01852865
#
# Stress axis : x y z
#
# Youngs Moduli (GPa) = 77.98634 44.23942 58.03678
#
# Poissons Ratio (x) = 0.22930 0.27447
# Poissons Ratio (y) = 0.40421 0.41508
# Poissons Ratio (z) = 0.36882 0.31640
#
# Static dielectric constant tensor:
#      x y z
#    x 3.216700 0.000000 0.000000 
#    y 0.000000 3.065200 0.000000 
#    z 0.000000 0.000000 3.088980 
# 
# 
# High freq. dielectric constant tensor:
#      x y z
#    x 1.617540 0.000000 0.000000 
#    y 0.000000 1.629880 0.000000 
#    z 0.000000 0.000000 1.610820 
# 
# From -- ./inp_files/14283.got.cif
#   From: 2010.03.12/outbox.cif.g09.slc.cpg/sg47_8_cif.got.tgz:14283.got - 2010.04.14 03:12:58.
