data_PCOD8196152
_publ_section_title
;
Structure prediction by ZEFSAII (Michael W. Deem and Ramdas Pophale) SiO2 
 PCOD8196152
Probable space group: P M M M
;
_chemical_formula_sum "Si O2"
_cell_formula_units_Z 52
_cell_length_a 9.187425
_cell_length_b 27.946106
_cell_length_c 11.577656
_cell_angle_alpha 90.000000
_cell_angle_beta 90.000000
_cell_angle_gamma 90.000000
_cell_volume 2972.595050
_symmetry_space_group_name_H-M "P M M M"
_symmetry_group_IT_number 47
_symmetry_cell_setting 'orthorhombic'
loop_
_space_group_symop_operation_xyz
x,y,z
-x,-y,z
x,-y,-z
-x,y,-z
-x,-y,-z
x,y,-z
-x,y,z
x,-y,z
loop_
_atom_site_type_symbol
_atom_site_label
_atom_site_fract_x
_atom_site_fract_y
_atom_site_fract_z
Si Si1 0.668325 0.172456 0.633793
Si Si2 0.829853 0.000000 0.869606
Si Si3 0.336598 0.552661 0.362661
Si Si4 0.673819 0.851317 0.000000
Si Si5 0.162086 0.642311 0.636750
Si Si6 0.827435 0.898012 0.214630
Si Si7 0.328193 0.743840 0.000000
Si Si8 0.671475 0.727588 0.748179
O O1 0.696415 0.183688 0.500000
O O2 0.500000 0.159942 0.657762
O O3 0.766742 0.126739 0.669041
O O4 0.715069 0.219107 0.707279
O O5 0.786072 0.954151 0.792313
O O6 0.000000 0.000000 0.891135
O O7 0.758425 0.000000 0.000000
O O8 0.336943 0.555401 0.500000
O O9 0.500000 0.560692 0.316056
O O10 0.279713 0.500000 0.323489
O O11 0.235579 0.594412 0.310352
O O12 0.741231 0.874597 0.111346
O O13 0.500000 0.856584 0.000000
O O14 0.729822 0.797394 0.000000
O O15 0.158800 0.638625 0.500000
O O16 0.250103 0.689336 0.668951
O O17 0.000000 0.645765 0.687868
O O18 0.000000 0.889751 0.204454
O O19 0.276451 0.718678 0.118896
O O20 0.500000 0.745783 0.000000
O O21 0.500000 0.720262 0.733142
#
# Coordination Sequence:
#
# PCOD8196152 Si02
#       8
#     8   4   8   4   8   8   4   8
#     4  10  21  37  56  77 103 137 173 210 256 307
#     4   9  18  34  53  76 107 135 164 205 253 308
#     4   8  14  26  45  68  94 128 171 213 251 296
#     4  11  19  34  56  79 108 133 163 210 259 308
#     4  10  20  31  44  69 105 139 170 207 249 292
#     4  11  21  35  56  80 105 135 170 209 255 304
#     4   9  18  33  54  76  98 125 162 206 251 297
#     4  10  19  34  54  74  97 131 169 204 247 302
#
# _framework density 17.493133
#
# number of rings (size 3 to 8) (size 9 to 14) (size 15 to 20)
#    0.000    2.231    2.308    2.077    0.000    2.769 
#    0.000    4.231    0.000    2.308    0.000    0.538 
#    0.000    4.308    0.000    0.000    0.000    0.000 
#
# Total GULP energy -644510.970298 kJ/mol
# GULP energy per Si atom -12394.441737 kJ/mol
# Density = 1.745332 g / cm^3
# Si number density = 17.493133 Si / 1000 Ang^3
#
#
#
# Elastic Constant Matrix: (Units=GPa)
#
#
# Indices 1 2 3 4 5 6 
#
# 1 75.4423 52.7722 24.7843 0.0000 0.0000 0.0000
# 2 52.7722 116.9479 19.1143 0.0000 0.0000 0.0000
# 3 24.7843 19.1143 53.0452 0.0000 0.0000 0.0000
# 4 0.0000 0.0000 0.0000 14.2657 0.0000 0.0000
# 5 0.0000 0.0000 0.0000 0.0000 21.5349 0.0000
# 6 0.0000 0.0000 0.0000 0.0000 0.0000 18.3316
#
#
#
# Elastic Compliance Matrix: (Units=1/GPa)
#
#
# Indices 1 2 3 4 5 6 
#
# 1 0.021552 -0.008585 -0.006976 0.000000 0.000000 0.000000
# 2 -0.008585 0.012506 -0.000495 0.000000 0.000000 0.000000
# 3 -0.006976 -0.000495 0.022290 0.000000 0.000000 0.000000
# 4 0.000000 0.000000 0.000000 0.070098 0.000000 0.000000
# 5 0.000000 0.000000 0.000000 0.000000 0.046436 0.000000
# 6 0.000000 0.000000 0.000000 0.000000 0.000000 0.054550
#
#
# Mechanical properties :
#
#
# Convention : Reuss Voigt Hill
#
# Bulk Modulus (GPa) = 41.26307 48.75302 45.00805
# Shear Modulus (GPa) = 18.68291 20.74409 19.71350
#
# Velocity S-wave (km/s) = 3.27159 3.44734 3.36062
# Velocity P-wave (km/s) = 6.15715 6.61633 6.39087
#
# Compressibility (1/GPa) = 0.02423475
#
# Stress axis : x y z
#
# Youngs Moduli (GPa) = 46.39854 79.96324 44.86358
#
# Poissons Ratio (x) = 0.68650 0.31298
# Poissons Ratio (y) = 0.39834 0.02221
# Poissons Ratio (z) = 0.32369 0.03959
#
# Static dielectric constant tensor:
#      x y z
#    x 3.262770 0.000000 0.000000 
#    y 0.000000 3.553820 0.000000 
#    z 0.000000 0.000000 3.170990 
# 
# 
# High freq. dielectric constant tensor:
#      x y z
#    x 1.665880 0.000000 0.000000 
#    y 0.000000 1.680240 0.000000 
#    z 0.000000 0.000000 1.648210 
# 
# From -- ./inp_files/15519.got.cif
#   From: 2010.03.12/outbox.cif.g09.slc.cpg/sg47_8_cif.got.tgz:15519.got - 2010.04.14 03:12:58.
