data_PCOD8196715
_publ_section_title
;
Structure prediction by ZEFSAII (Michael W. Deem and Ramdas Pophale) SiO2 
 PCOD8196715
Probable space group: P M M M
;
_chemical_formula_sum "Si O2"
_cell_formula_units_Z 52
_cell_length_a 20.282769
_cell_length_b 22.783512
_cell_length_c 9.090981
_cell_angle_alpha 90.000000
_cell_angle_beta 90.000000
_cell_angle_gamma 90.000000
_cell_volume 4201.057875
_symmetry_space_group_name_H-M "P M M M"
_symmetry_group_IT_number 47
_symmetry_cell_setting 'orthorhombic'
loop_
_space_group_symop_operation_xyz
x,y,z
-x,-y,z
x,-y,-z
-x,y,-z
-x,-y,-z
x,y,-z
-x,y,z
x,-y,z
loop_
_atom_site_type_symbol
_atom_site_label
_atom_site_fract_x
_atom_site_fract_y
_atom_site_fract_z
Si Si1 0.577446 0.345879 0.670803
Si Si2 0.421545 0.770717 0.833734
Si Si3 0.578577 0.000000 0.833597
Si Si4 0.421372 0.114854 0.333522
Si Si5 0.327948 0.569164 0.830083
Si Si6 0.802044 0.430118 0.335216
Si Si7 0.072577 0.569796 0.165361
O O1 0.595851 0.342310 0.500000
O O2 0.500000 0.354144 0.694972
O O3 0.603482 0.286739 0.748230
O O4 0.611936 0.401525 0.744200
O O5 0.500000 0.772508 0.834363
O O6 0.393822 0.827971 0.750468
O O7 0.394037 0.769800 0.000000
O O8 0.605495 0.057362 0.749826
O O9 0.500000 0.000000 0.834234
O O10 0.605733 0.000000 0.000000
O O11 0.394359 0.114860 0.500000
O O12 0.500000 0.115149 0.333870
O O13 0.336033 0.500000 0.808902
O O14 0.258950 0.591714 0.763032
O O15 0.330043 0.587420 0.000000
O O16 0.793533 0.405624 0.500000
O O17 0.804677 0.500000 0.335376
O O18 0.870157 0.404182 0.269150
O O19 0.076373 0.500000 0.165195
O O20 0.000000 0.589838 0.222250
O O21 0.084068 0.593064 0.000000
#
# Coordination Sequence:
#
# PCOD8196715 Si02
#       7
#     8   8   4   8   8   8   8
#     4  10  20  32  44  56  68  81 100 130 168 208
#     4   9  16  26  39  52  65  81 101 125 154 190
#     4   9  15  21  29  43  63  85 107 127 147 175
#     4   9  15  22  32  46  64  84 104 125 150 180
#     4  10  20  32  44  55  67  84 105 130 163 205
#     4   9  16  25  37  52  69  87 106 128 154 186
#     4   8  13  21  33  49  69  91 111 128 146 172
#
# _framework density 12.377834999999999
#
# number of rings (size 3 to 8) (size 9 to 14) (size 15 to 20)
#    0.000    2.846    0.000    3.000    0.000    8.923 
#    0.000    3.077    0.000    0.000    0.000    0.000 
#    0.000    0.000    0.000    0.000    0.000    0.000 
#
# Total GULP energy -644655.568263 kJ/mol
# GULP energy per Si atom -12397.222467 kJ/mol
# Density = 1.234966 g / cm^3
# Si number density = 12.377835 Si / 1000 Ang^3
#
#
#
# Elastic Constant Matrix: (Units=GPa)
#
#
# Indices 1 2 3 4 5 6 
#
# 1 40.9589 24.7007 37.6492 0.0000 0.0000 0.0000
# 2 24.7007 47.6576 40.7379 0.0000 0.0000 0.0000
# 3 37.6492 40.7379 120.5519 0.0000 0.0000 0.0000
# 4 0.0000 0.0000 0.0000 21.4310 0.0000 0.0000
# 5 0.0000 0.0000 0.0000 0.0000 16.8735 0.0000
# 6 0.0000 0.0000 0.0000 0.0000 0.0000 0.3627
#
#
#
# Elastic Compliance Matrix: (Units=1/GPa)
#
#
# Indices 1 2 3 4 5 6 
#
# 1 0.040052 -0.014156 -0.007725 0.000000 0.000000 0.000000
# 2 -0.014156 0.034509 -0.007241 0.000000 0.000000 0.000000
# 3 -0.007725 -0.007241 0.013155 0.000000 0.000000 0.000000
# 4 0.000000 0.000000 0.000000 0.046661 0.000000 0.000000
# 5 0.000000 0.000000 0.000000 0.000000 0.059264 0.000000
# 6 0.000000 0.000000 0.000000 0.000000 0.000000 2.756762
#
#
# Mechanical properties :
#
#
# Convention : Reuss Voigt Hill
#
# Bulk Modulus (GPa) = 33.92892 46.14934 40.03913
# Shear Modulus (GPa) = 1.65647 14.80550 8.23098
#
# Velocity S-wave (km/s) = 1.15808 3.46226 2.58151
# Velocity P-wave (km/s) = 5.40914 7.30396 6.42676
#
# Compressibility (1/GPa) = 0.02947338
#
# Stress axis : x y z
#
# Youngs Moduli (GPa) = 24.96748 28.97775 76.01895
#
# Poissons Ratio (x) = 0.41019 0.58725
# Poissons Ratio (y) = 0.35343 0.55044
# Poissons Ratio (z) = 0.19287 0.20982
#
# Static dielectric constant tensor:
#      x y z
#    x 2.310020 0.000000 0.000000 
#    y 0.000000 2.364890 0.000000 
#    z 0.000000 0.000000 2.781780 
# 
# 
# High freq. dielectric constant tensor:
#      x y z
#    x 1.421980 0.000000 0.000000 
#    y 0.000000 1.435950 0.000000 
#    z 0.000000 0.000000 1.491910 
# 
# From -- ./inp_files/10117.got.cif
#   From: 2010.03.12/outbox.cif.g09.slc.cpg/sg47_6_cif.got.tgz:10117.got - 2010.04.14 03:12:58.
