data_PCOD8196993
_publ_section_title
;
Structure prediction by ZEFSAII (Michael W. Deem and Ramdas Pophale) SiO2 
 PCOD8196993
Probable space group: P M M M
;
_chemical_formula_sum "Si O2"
_cell_formula_units_Z 52
_cell_length_a 8.985967
_cell_length_b 24.151510
_cell_length_c 14.044389
_cell_angle_alpha 90.000000
_cell_angle_beta 90.000000
_cell_angle_gamma 90.000000
_cell_volume 3047.978914
_symmetry_space_group_name_H-M "P M M M"
_symmetry_group_IT_number 47
_symmetry_cell_setting 'orthorhombic'
loop_
_space_group_symop_operation_xyz
x,y,z
-x,-y,z
x,-y,-z
-x,y,-z
-x,-y,-z
x,y,-z
-x,y,z
x,-y,z
loop_
_atom_site_type_symbol
_atom_site_label
_atom_site_fract_x
_atom_site_fract_y
_atom_site_fract_z
Si Si1 0.669226 0.166534 0.767307
Si Si2 0.174058 0.662483 0.725978
Si Si3 0.666174 0.748270 0.607070
Si Si4 0.823315 0.741255 0.889886
Si Si5 0.177320 0.561825 0.607236
Si Si6 0.823976 0.062678 0.809613
Si Si7 0.664579 0.064987 0.000000
O O1 0.500000 0.155010 0.799808
O O2 0.676556 0.195969 0.666470
O O3 0.747480 0.203205 0.849650
O O4 0.753524 0.108850 0.741385
O O5 0.212395 0.705017 0.642591
O O6 0.232792 0.687461 0.827467
O O7 0.240764 0.603322 0.689740
O O8 0.000000 0.655933 0.734742
O O9 0.705167 0.764515 0.500000
O O10 0.500000 0.722540 0.616682
O O11 0.000000 0.748583 0.879601
O O12 0.776921 0.731906 0.000000
O O13 0.232321 0.578281 0.500000
O O14 0.233955 0.500000 0.632281
O O15 0.000000 0.563534 0.607558
O O16 0.759960 0.083533 0.910146
O O17 0.000000 0.065911 0.811157
O O18 0.772379 0.000000 0.783406
O O19 0.500000 0.092583 0.000000
O O20 0.645960 0.000000 0.000000
#
# Coordination Sequence:
#
# PCOD8196993 Si02
#       7
#     8   8   8   8   8   8   4
#     4  10  20  32  48  69  90 115 149 186 223 269
#     4   9  16  27  45  67  88 116 156 190 219 265
#     4   9  18  32  48  67  92 118 144 182 233 278
#     4   9  18  31  45  62  88 120 150 185 229 271
#     4   8  13  21  36  62  93 119 145 184 231 271
#     4  10  20  33  48  66  91 121 149 180 223 271
#     4   9  17  29  45  65  87 113 147 181 212 253
#
# _framework density 17.060486000000001
#
# number of rings (size 3 to 8) (size 9 to 14) (size 15 to 20)
#    0.000    2.846    0.000    2.077    1.077    3.692 
#    0.000    0.000    0.000    1.385    0.000    8.615 
#    0.000    0.000    0.000    7.692    0.000    8.308 
#
# Total GULP energy -644207.646691 kJ/mol
# GULP energy per Si atom -12388.608590 kJ/mol
# Density = 1.702166 g / cm^3
# Si number density = 17.060486 Si / 1000 Ang^3
#
#
#
# Elastic Constant Matrix: (Units=GPa)
#
#
# Indices 1 2 3 4 5 6 
#
# 1 34.0714 28.0829 19.6457 0.0000 0.0000 0.0000
# 2 28.0829 120.1395 53.2809 0.0000 0.0000 0.0000
# 3 19.6457 53.2809 105.0869 0.0000 0.0000 0.0000
# 4 0.0000 0.0000 0.0000 18.5564 0.0000 0.0000
# 5 0.0000 0.0000 0.0000 0.0000 16.6652 0.0000
# 6 0.0000 0.0000 0.0000 0.0000 0.0000 12.1562
#
#
#
# Elastic Compliance Matrix: (Units=1/GPa)
#
#
# Indices 1 2 3 4 5 6 
#
# 1 0.037213 -0.007242 -0.003285 0.000000 0.000000 0.000000
# 2 -0.007242 0.012147 -0.004805 0.000000 0.000000 0.000000
# 3 -0.003285 -0.004805 0.012566 0.000000 0.000000 0.000000
# 4 0.000000 0.000000 0.000000 0.053890 0.000000 0.000000
# 5 0.000000 0.000000 0.000000 0.000000 0.060005 0.000000
# 6 0.000000 0.000000 0.000000 0.000000 0.000000 0.082262
#
#
# Mechanical properties :
#
#
# Convention : Reuss Voigt Hill
#
# Bulk Modulus (GPa) = 31.98674 51.25741 41.62208
# Shear Modulus (GPa) = 16.71292 20.02812 18.37052
#
# Velocity S-wave (km/s) = 3.13330 3.43001 3.28500
# Velocity P-wave (km/s) = 5.64622 6.76730 6.23202
#
# Compressibility (1/GPa) = 0.03126295
#
# Stress axis : x y z
#
# Youngs Moduli (GPa) = 26.87210 82.32158 79.57730
#
# Poissons Ratio (x) = 0.59615 0.26143
# Poissons Ratio (y) = 0.19460 0.38238
# Poissons Ratio (z) = 0.08828 0.39557
#
# Static dielectric constant tensor:
#      x y z
#    x 3.110800 0.000000 0.000000 
#    y 0.000000 3.443150 0.000000 
#    z 0.000000 0.000000 3.332780 
# 
# 
# High freq. dielectric constant tensor:
#      x y z
#    x 1.645560 0.000000 0.000000 
#    y 0.000000 1.655470 0.000000 
#    z 0.000000 0.000000 1.639070 
# 
# From -- ./inp_files/21766.got.cif
#   From: 2010.03.12/outbox.cif.g09.slc.cpg/sg47_11_cif.got.tgz:21766.got - 2010.04.14 03:12:58.
