data_PCOD8196352
_publ_section_title
;
Structure prediction by ZEFSAII (Michael W. Deem and Ramdas Pophale) SiO2 
 PCOD8196352
Probable space group: P M M M
;
_chemical_formula_sum "Si O2"
_cell_formula_units_Z 56
_cell_length_a 22.679262
_cell_length_b 8.906491
_cell_length_c 14.637494
_cell_angle_alpha 90.000000
_cell_angle_beta 90.000000
_cell_angle_gamma 90.000000
_cell_volume 2956.666098
_symmetry_space_group_name_H-M "P M M M"
_symmetry_group_IT_number 47
_symmetry_cell_setting 'orthorhombic'
loop_
_space_group_symop_operation_xyz
x,y,z
-x,-y,z
x,-y,-z
-x,y,-z
-x,-y,-z
x,y,-z
-x,y,z
x,-y,z
loop_
_atom_site_type_symbol
_atom_site_label
_atom_site_fract_x
_atom_site_fract_y
_atom_site_fract_z
Si Si1 0.569289 0.833617 0.000000
Si Si2 0.874714 0.670706 0.597730
Si Si3 0.321670 0.824882 0.762517
Si Si4 0.109272 0.679228 0.202927
Si Si5 0.433100 0.677542 0.184173
Si Si6 0.230290 0.677093 0.106154
Si Si7 0.264620 0.332576 0.601621
Si Si8 0.000000 0.828810 0.107876
O O1 0.589101 0.738958 0.086963
O O2 0.500000 0.851967 0.000000
O O3 0.598573 0.000000 0.000000
O O4 0.895670 0.746574 0.500000
O O5 0.896690 0.500000 0.595307
O O6 0.898128 0.743256 0.692601
O O7 0.805005 0.677330 0.601843
O O8 0.386177 0.749787 0.746868
O O9 0.286492 0.756022 0.848222
O O10 0.288220 0.794755 0.668311
O O11 0.329232 0.000000 0.779093
O O12 0.105167 0.500000 0.202102
O O13 0.171273 0.730471 0.158848
O O14 0.057759 0.746598 0.143087
O O15 0.500000 0.729235 0.207827
O O16 0.428894 0.500000 0.184493
O O17 0.238768 0.500000 0.116325
O O18 0.225975 0.724849 0.000000
O O19 0.289359 0.302403 0.500000
O O20 0.283498 0.500000 0.634852
O O21 0.000000 0.000000 0.141749
O O22 0.000000 0.817456 0.000000
#
# Coordination Sequence:
#
# PCOD8196352 Si02
#       8
#     4   8   8   8   8   8   8   4
#     4   9  17  31  51  75 103 135 175 224 279 334
#     4   8  14  28  55  87 113 138 173 223 278 326
#     4  12  24  35  53  82 118 151 182 227 283 345
#     4  10  19  36  62  86 109 141 189 239 276 321
#     4  10  21  37  56  75 101 144 195 239 277 327
#     4  10  21  37  57  81 111 146 188 239 284 328
#     4   9  17  34  60  85 111 144 184 229 275 332
#     4  11  25  41  56  77 110 152 193 233 280 337
#
# _framework density 18.940252000000001
#
# number of rings (size 3 to 8) (size 9 to 14) (size 15 to 20)
#    0.000    2.143    1.429    3.429    1.000    4.000 
#    0.000    0.357    0.000    3.000    0.000    3.000 
#    0.000    0.000    0.000    0.000    0.000    0.000 
#
# Total GULP energy -694024.802787 kJ/mol
# GULP energy per Si atom -12393.300050 kJ/mol
# Density = 1.889714 g / cm^3
# Si number density = 18.940252 Si / 1000 Ang^3
#
#
#
# Elastic Constant Matrix: (Units=GPa)
#
#
# Indices 1 2 3 4 5 6 
#
# 1 81.6895 32.4890 26.6019 0.0000 0.0000 0.0000
# 2 32.4890 60.0007 25.2381 0.0000 0.0000 0.0000
# 3 26.6019 25.2381 108.6117 0.0000 0.0000 0.0000
# 4 0.0000 0.0000 0.0000 18.6986 0.0000 0.0000
# 5 0.0000 0.0000 0.0000 0.0000 90.1164 0.0000
# 6 0.0000 0.0000 0.0000 0.0000 0.0000 13.3468
#
#
#
# Elastic Compliance Matrix: (Units=1/GPa)
#
#
# Indices 1 2 3 4 5 6 
#
# 1 0.016028 -0.007789 -0.002116 0.000000 0.000000 0.000000
# 2 -0.007789 0.022257 -0.003264 0.000000 0.000000 0.000000
# 3 -0.002116 -0.003264 0.010484 0.000000 0.000000 0.000000
# 4 0.000000 0.000000 0.000000 0.053480 0.000000 0.000000
# 5 0.000000 0.000000 0.000000 0.000000 0.011097 0.000000
# 6 0.000000 0.000000 0.000000 0.000000 0.000000 0.074924
#
#
# Mechanical properties :
#
#
# Convention : Reuss Voigt Hill
#
# Bulk Modulus (GPa) = 44.58065 46.55108 45.56586
# Shear Modulus (GPa) = 22.51388 35.49721 29.00555
#
# Velocity S-wave (km/s) = 3.45146 4.33386 3.91759
# Velocity P-wave (km/s) = 6.28268 7.04800 6.67632
#
# Compressibility (1/GPa) = 0.02243126
#
# Stress axis : x y z
#
# Youngs Moduli (GPa) = 62.38985 44.92970 95.38505
#
# Poissons Ratio (x) = 0.34995 0.20182
# Poissons Ratio (y) = 0.48595 0.31135
# Poissons Ratio (z) = 0.13201 0.14666
#
# Static dielectric constant tensor:
#      x y z
#    x 3.406150 0.000000 0.000000 
#    y 0.000000 3.285000 0.000000 
#    z 0.000000 0.000000 3.801890 
# 
# 
# High freq. dielectric constant tensor:
#      x y z
#    x 1.725360 0.000000 0.000000 
#    y 0.000000 1.712610 0.000000 
#    z 0.000000 0.000000 1.742220 
# 
# From -- ./inp_files/25183.got.cif
#   From: 2010.03.12/outbox.cif.g09.slc.cpg/sg47_13_cif.got.tgz:25183.got - 2010.04.14 03:12:58.
