data_PCOD8196578
_publ_section_title
;
Structure prediction by ZEFSAII (Michael W. Deem and Ramdas Pophale) SiO2 
 PCOD8196578
Probable space group: P M M M
;
_chemical_formula_sum "Si O2"
_cell_formula_units_Z 52
_cell_length_a 15.167634
_cell_length_b 21.720797
_cell_length_c 9.243341
_cell_angle_alpha 90.000000
_cell_angle_beta 90.000000
_cell_angle_gamma 90.000000
_cell_volume 3045.247338
_symmetry_space_group_name_H-M "P M M M"
_symmetry_group_IT_number 47
_symmetry_cell_setting 'orthorhombic'
loop_
_space_group_symop_operation_xyz
x,y,z
-x,-y,z
x,-y,-z
-x,y,-z
-x,-y,-z
x,y,-z
-x,y,z
x,-y,z
loop_
_atom_site_type_symbol
_atom_site_label
_atom_site_fract_x
_atom_site_fract_y
_atom_site_fract_z
Si Si1 0.902491 0.204086 0.337206
Si Si2 0.262778 0.649163 0.834945
Si Si3 0.096558 0.649625 0.337763
Si Si4 0.395440 0.000000 0.163909
Si Si5 0.602280 0.430332 0.333558
Si Si6 0.734023 0.205186 0.833118
Si Si7 0.396378 0.878880 0.330761
O O1 0.882190 0.180645 0.500000
O O2 0.902004 0.277199 0.335202
O O3 0.827184 0.179352 0.228749
O O4 0.000000 0.180599 0.288127
O O5 0.172760 0.623206 0.764587
O O6 0.346593 0.617866 0.763692
O O7 0.271852 0.721893 0.814759
O O8 0.259755 0.629440 0.000000
O O9 0.114296 0.625714 0.500000
O O10 0.000000 0.626638 0.284390
O O11 0.362215 0.059705 0.250652
O O12 0.500000 0.000000 0.159567
O O13 0.357357 0.000000 0.000000
O O14 0.621899 0.415188 0.500000
O O15 0.500000 0.421834 0.298443
O O16 0.631733 0.500000 0.297468
O O17 0.653579 0.178361 0.740582
O O18 0.726105 0.185069 0.000000
O O19 0.373671 0.884032 0.500000
O O20 0.500000 0.868408 0.306509
#
# Coordination Sequence:
#
# PCOD8196578 Si02
#       7
#     8   8   8   4   8   8   8
#     4   8  14  26  44  65  90 121 157 195 232 272
#     4  10  20  31  46  71 100 127 153 188 237 286
#     4   8  14  26  45  67  91 122 157 189 224 271
#     4   9  17  31  51  71  92 121 156 195 239 283
#     4   9  19  36  55  71  87 114 156 200 237 278
#     4  10  20  31  44  68 101 131 158 190 233 283
#     4  10  20  33  49  69  94 126 164 201 234 273
#
# _framework density 17.075787999999999
#
# number of rings (size 3 to 8) (size 9 to 14) (size 15 to 20)
#    0.000    2.846    0.000    3.000    0.000    5.538 
#    0.000    6.923    0.000    0.462    0.000    3.769 
#    0.000    4.308    0.000    0.000    0.000    0.000 
#
# Total GULP energy -644627.361840 kJ/mol
# GULP energy per Si atom -12396.680035 kJ/mol
# Density = 1.703692 g / cm^3
# Si number density = 17.075788 Si / 1000 Ang^3
#
#
#
# Elastic Constant Matrix: (Units=GPa)
#
#
# Indices 1 2 3 4 5 6 
#
# 1 97.1898 35.2665 72.1077 0.0000 0.0000 0.0000
# 2 35.2665 32.7331 39.5340 0.0000 0.0000 0.0000
# 3 72.1077 39.5340 132.7858 0.0000 0.0000 0.0000
# 4 0.0000 0.0000 0.0000 25.2148 0.0000 0.0000
# 5 0.0000 0.0000 0.0000 0.0000 21.3630 0.0000
# 6 0.0000 0.0000 0.0000 0.0000 0.0000 2.1226
#
#
#
# Elastic Compliance Matrix: (Units=1/GPa)
#
#
# Indices 1 2 3 4 5 6 
#
# 1 0.020429 -0.013447 -0.007090 0.000000 0.000000 0.000000
# 2 -0.013447 0.056555 -0.009536 0.000000 0.000000 0.000000
# 3 -0.007090 -0.009536 0.014220 0.000000 0.000000 0.000000
# 4 0.000000 0.000000 0.000000 0.039659 0.000000 0.000000
# 5 0.000000 0.000000 0.000000 0.000000 0.046810 0.000000
# 6 0.000000 0.000000 0.000000 0.000000 0.000000 0.471126
#
#
# Mechanical properties :
#
#
# Convention : Reuss Voigt Hill
#
# Bulk Modulus (GPa) = 32.19749 61.83615 47.01682
# Shear Modulus (GPa) = 6.95123 17.46011 12.20567
#
# Velocity S-wave (km/s) = 2.01981 3.20113 2.67646
# Velocity P-wave (km/s) = 4.93316 7.06784 6.09469
#
# Compressibility (1/GPa) = 0.03105832
#
# Stress axis : x y z
#
# Youngs Moduli (GPa) = 48.95048 17.68204 70.32223
#
# Poissons Ratio (x) = 0.23776 0.49860
# Poissons Ratio (y) = 0.65822 0.67058
# Poissons Ratio (z) = 0.34707 0.16861
#
# Static dielectric constant tensor:
#      x y z
#    x 3.352150 0.000000 0.000000 
#    y 0.000000 2.843900 0.000000 
#    z 0.000000 0.000000 3.347010 
# 
# 
# High freq. dielectric constant tensor:
#      x y z
#    x 1.660260 0.000000 0.000000 
#    y 0.000000 1.617000 0.000000 
#    z 0.000000 0.000000 1.667270 
# 
# From -- ./inp_files/6985.got.cif
#   From: 2010.03.12/outbox.cif.g09.slc.cpg/sg47_4_cif.got.tgz:6985.got - 2010.04.14 03:12:58.
