data_PCOD8196686
_publ_section_title
;
Structure prediction by ZEFSAII (Michael W. Deem and Ramdas Pophale) SiO2 
 PCOD8196686
Probable space group: P M M M
;
_chemical_formula_sum "Si O2"
_cell_formula_units_Z 56
_cell_length_a 15.088973
_cell_length_b 24.034156
_cell_length_c 7.994484
_cell_angle_alpha 90.000000
_cell_angle_beta 90.000000
_cell_angle_gamma 90.000000
_cell_volume 2899.205466
_symmetry_space_group_name_H-M "P M M M"
_symmetry_group_IT_number 47
_symmetry_cell_setting 'orthorhombic'
loop_
_space_group_symop_operation_xyz
x,y,z
-x,-y,z
x,-y,-z
-x,y,-z
-x,-y,-z
x,y,-z
-x,y,z
x,-y,z
loop_
_atom_site_type_symbol
_atom_site_label
_atom_site_fract_x
_atom_site_fract_y
_atom_site_fract_z
Si Si1 0.173336 0.137891 0.312325
Si Si2 0.598217 0.304910 0.304362
Si Si3 0.594235 0.103496 0.000000
Si Si4 0.901658 0.251895 0.305829
Si Si5 0.096739 0.439399 0.306897
Si Si6 0.368613 0.821531 0.311218
Si Si7 0.779962 0.654218 0.813995
Si Si8 0.788573 0.063494 0.000000
O O1 0.156836 0.112084 0.500000
O O2 0.102206 0.185612 0.268490
O O3 0.264058 0.171618 0.311791
O O4 0.171722 0.090922 0.168678
O O5 0.609628 0.312204 0.500000
O O6 0.500000 0.325178 0.246045
O O7 0.608072 0.240544 0.255423
O O8 0.675114 0.341523 0.221399
O O9 0.590491 0.139038 0.170416
O O10 0.500000 0.069751 0.000000
O O11 0.681255 0.065021 0.000000
O O12 0.883901 0.263171 0.500000
O O13 0.827306 0.286104 0.207767
O O14 0.000000 0.272016 0.253555
O O15 0.082885 0.447992 0.500000
O O16 0.124166 0.500000 0.229471
O O17 0.172934 0.393517 0.291022
O O18 0.000000 0.420741 0.231462
O O19 0.405663 0.834509 0.500000
O O20 0.792013 0.633632 0.000000
O O21 0.819655 0.000000 0.000000
#
# Coordination Sequence:
#
# PCOD8196686 Si02
#       8
#     8   8   4   8   8   8   8   4
#     4   9  18  34  56  78 105 140 178 224 277 330
#     4  10  20  34  53  75 105 147 190 231 274 325
#     4  10  20  31  50  75 103 136 174 226 275 327
#     4  10  20  35  56  81 111 147 183 223 276 337
#     4   9  19  38  62  83 107 148 199 241 276 323
#     4   9  17  31  50  73 103 139 179 220 269 330
#     4  12  24  33  51  83 122 154 180 225 282 340
#     4  10  22  37  55  76 102 141 185 226 275 333
#
# _framework density 19.315635
#
# number of rings (size 3 to 8) (size 9 to 14) (size 15 to 20)
#    0.000    2.143    1.429    2.571    2.000    4.143 
#    0.000    0.714    0.000    1.286    0.000    9.000 
#    0.000    0.000    0.000    0.000    0.000    0.000 
#
# Total GULP energy -693840.896146 kJ/mol
# GULP energy per Si atom -12390.016003 kJ/mol
# Density = 1.927167 g / cm^3
# Si number density = 19.315635 Si / 1000 Ang^3
#
#
#
# Elastic Constant Matrix: (Units=GPa)
#
#
# Indices 1 2 3 4 5 6 
#
# 1 95.2203 37.6152 19.4703 0.0000 0.0000 0.0000
# 2 37.6152 92.6158 35.0557 0.0000 0.0000 0.0000
# 3 19.4703 35.0557 81.6823 0.0000 0.0000 0.0000
# 4 0.0000 0.0000 0.0000 2401.3888 0.0000 0.0000
# 5 0.0000 0.0000 0.0000 0.0000 0.6319 0.0000
# 6 0.0000 0.0000 0.0000 0.0000 0.0000 7.9461
#
#
#
# Elastic Compliance Matrix: (Units=1/GPa)
#
#
# Indices 1 2 3 4 5 6 
#
# 1 0.012572 -0.004742 -0.000962 0.000000 0.000000 0.000000
# 2 -0.004742 0.014680 -0.005170 0.000000 0.000000 0.000000
# 3 -0.000962 -0.005170 0.014691 0.000000 0.000000 0.000000
# 4 0.000000 0.000000 0.000000 0.000416 0.000000 0.000000
# 5 0.000000 0.000000 0.000000 0.000000 1.582585 0.000000
# 6 0.000000 0.000000 0.000000 0.000000 0.000000 0.125847
#
#
# Mechanical properties :
#
#
# Convention : Reuss Voigt Hill
#
# Bulk Modulus (GPa) = 49.51609 50.42230 49.96920
# Shear Modulus (GPa) = 2.81014 493.81851 248.31433
#
# Velocity S-wave (km/s) = 1.20748 16.00664 11.35056
# Velocity P-wave (km/s) = 5.25689 19.17753 14.06081
#
# Compressibility (1/GPa) = 0.02019546
#
# Stress axis : x y z
#
# Youngs Moduli (GPa) = 79.54296 68.11959 68.07095
#
# Poissons Ratio (x) = 0.32302 0.06546
# Poissons Ratio (y) = 0.37719 0.35192
# Poissons Ratio (z) = 0.07649 0.35217
#
# Static dielectric constant tensor:
#      x y z
#    x 3.670350 0.000000 0.000000 
#    y 0.000000 3.164510 0.000000 
#    z 0.000000 0.000000 3.633250 
# 
# 
# High freq. dielectric constant tensor:
#      x y z
#    x 1.754510 0.000000 0.000000 
#    y 0.000000 1.712390 0.000000 
#    z 0.000000 0.000000 1.752630 
# 
# From -- ./inp_files/7378.got.cif
#   From: 2010.03.12/outbox.cif.g09.slc.cpg/sg47_4_cif.got.tgz:7378.got - 2010.04.14 03:12:58.
