data_PCOD8196599
_publ_section_title
;
Structure prediction by ZEFSAII (Michael W. Deem and Ramdas Pophale) SiO2 
 PCOD8196599
Probable space group: P M M M
;
_chemical_formula_sum "Si O2"
_cell_formula_units_Z 40
_cell_length_a 9.261058
_cell_length_b 7.766210
_cell_length_c 27.863391
_cell_angle_alpha 90.000000
_cell_angle_beta 90.000000
_cell_angle_gamma 90.000000
_cell_volume 2004.027622
_symmetry_space_group_name_H-M "P M M M"
_symmetry_group_IT_number 47
_symmetry_cell_setting 'orthorhombic'
loop_
_space_group_symop_operation_xyz
x,y,z
-x,-y,z
x,-y,-z
-x,y,-z
-x,-y,-z
x,y,-z
-x,y,z
x,-y,z
loop_
_atom_site_type_symbol
_atom_site_label
_atom_site_fract_x
_atom_site_fract_y
_atom_site_fract_z
Si Si1 0.171700 0.188753 0.000000
Si Si2 0.669003 0.697484 0.622363
Si Si3 0.836211 0.297912 0.718057
Si Si4 0.837754 0.206801 0.897134
Si Si5 0.670791 0.000000 0.446687
Si Si6 0.341448 0.198325 0.190834
O O1 0.216140 0.280197 0.050524
O O2 0.000000 0.170545 0.000000
O O3 0.243346 0.000000 0.000000
O O4 0.500000 0.720353 0.633659
O O5 0.703564 0.500000 0.607251
O O6 0.756011 0.754130 0.669310
O O7 0.720793 0.825720 0.580278
O O8 0.832556 0.500000 0.725660
O O9 0.754304 0.212448 0.761954
O O10 0.000000 0.228261 0.715974
O O11 0.737050 0.284442 0.855115
O O12 0.000000 0.271064 0.886295
O O13 0.835391 0.000000 0.898480
O O14 0.500000 0.000000 0.450597
O O15 0.739720 0.000000 0.500000
O O16 0.500000 0.283961 0.198346
O O17 0.361677 0.000000 0.178893
#
# Coordination Sequence:
#
# PCOD8196599 Si02
#       6
#     4   8   8   8   4   8
#     4   7  10  18  35  57  82 117 158 199 242 290
#     4   9  18  33  53  77 107 141 176 218 265 309
#     4  10  21  36  53  73  97 128 168 211 255 305
#     4   8  13  23  39  60  88 122 161 202 245 294
#     4   9  18  32  53  83 113 141 179 220 257 306
#     4  10  20  31  45  69 100 130 161 201 250 304
#
# _framework density 19.959803999999998
#
# number of rings (size 3 to 8) (size 9 to 14) (size 15 to 20)
#    0.000    3.000    0.000    2.400    1.400    2.800 
#    0.000    2.500    0.000    4.200    0.000    3.500 
#    0.000    5.600    0.000    0.000    0.000    0.000 
#
# Total GULP energy -495647.821112 kJ/mol
# GULP energy per Si atom -12391.195528 kJ/mol
# Density = 1.991437 g / cm^3
# Si number density = 19.959804 Si / 1000 Ang^3
#
#
#
# Elastic Constant Matrix: (Units=GPa)
#
#
# Indices 1 2 3 4 5 6 
#
# 1 107.8173 22.2202 78.0528 0.0000 0.0000 0.0000
# 2 22.2202 48.1462 47.7350 0.0000 0.0000 0.0000
# 3 78.0528 47.7350 196.5551 0.0000 0.0000 0.0000
# 4 0.0000 0.0000 0.0000 -28.4416 0.0000 0.0000
# 5 0.0000 0.0000 0.0000 0.0000 26.1844 0.0000
# 6 0.0000 0.0000 0.0000 0.0000 0.0000 12.1616
#
#
#
# Elastic Compliance Matrix: (Units=1/GPa)
#
#
# Indices 1 2 3 4 5 6 
#
# 1 0.013067 -0.001167 -0.004905 0.000000 0.000000 0.000000
# 2 -0.001167 0.027461 -0.006206 0.000000 0.000000 0.000000
# 3 -0.004905 -0.006206 0.008543 0.000000 0.000000 0.000000
# 4 0.000000 0.000000 0.000000 -0.035160 0.000000 0.000000
# 5 0.000000 0.000000 0.000000 0.000000 0.038191 0.000000
# 6 0.000000 0.000000 0.000000 0.000000 0.000000 0.082226
#
#
# Mechanical properties :
#
#
# Convention : Reuss Voigt Hill
#
# Bulk Modulus (GPa) = 40.79227 72.05940 56.42584
# Shear Modulus (GPa) = 29.93018 15.61491 22.77254
#
# Velocity S-wave (km/s) = 3.87657 2.80003 3.38142
# Velocity P-wave (km/s) = 6.36542 6.82892 6.60124
#
# Compressibility (1/GPa) = 0.02451445
#
# Stress axis : x y z
#
# Youngs Moduli (GPa) = 76.53067 36.41465 117.05858
#
# Poissons Ratio (x) = 0.04249 0.57422
# Poissons Ratio (y) = 0.08931 0.72645
# Poissons Ratio (z) = 0.37542 0.22598
#
# Static dielectric constant tensor:
#      x y z
#    x 3.669130 0.000000 0.000000 
#    y 0.000000 3.315020 0.000000 
#    z 0.000000 0.000000 3.956110 
# 
# 
# High freq. dielectric constant tensor:
#      x y z
#    x 1.753110 0.000000 0.000000 
#    y 0.000000 1.749460 0.000000 
#    z 0.000000 0.000000 1.788650 
# 
# From -- ./inp_files/1779.got.cif
#   From: 2010.03.12/outbox.cif.g09.slc.cpg/sg47_1_cif.got.tgz:1779.got - 2010.04.14 03:12:58.
