data_PCOD8196215
_publ_section_title
;
Structure prediction by ZEFSAII (Michael W. Deem and Ramdas Pophale) SiO2 
 PCOD8196215
Probable space group: P M M M
;
_chemical_formula_sum "Si O2"
_cell_formula_units_Z 56
_cell_length_a 9.031879
_cell_length_b 15.386742
_cell_length_c 20.247858
_cell_angle_alpha 90.000000
_cell_angle_beta 90.000000
_cell_angle_gamma 90.000000
_cell_volume 2813.868961
_symmetry_space_group_name_H-M "P M M M"
_symmetry_group_IT_number 47
_symmetry_cell_setting 'orthorhombic'
loop_
_space_group_symop_operation_xyz
x,y,z
-x,-y,z
x,-y,-z
-x,y,-z
-x,-y,-z
x,y,-z
-x,y,z
x,-y,z
loop_
_atom_site_type_symbol
_atom_site_label
_atom_site_fract_x
_atom_site_fract_y
_atom_site_fract_z
Si Si1 0.824621 0.174407 0.136076
Si Si2 0.175538 0.902659 0.000000
Si Si3 0.661403 0.098610 0.250622
Si Si4 0.670053 0.738030 0.573521
Si Si5 0.675391 0.403250 0.321756
Si Si6 0.675187 0.351567 0.826146
Si Si7 0.824922 0.899505 0.379241
Si Si8 0.324815 0.500000 0.925195
O O1 0.753943 0.102924 0.183633
O O2 0.763535 0.265541 0.158935
O O3 0.000000 0.171501 0.141617
O O4 0.768649 0.151184 0.062962
O O5 0.000000 0.909988 0.000000
O O6 0.243309 0.000000 0.000000
O O7 0.500000 0.146854 0.246082
O O8 0.759327 0.136050 0.310020
O O9 0.629894 0.000000 0.266958
O O10 0.681930 0.697150 0.500000
O O11 0.500000 0.759143 0.591660
O O12 0.737498 0.668306 0.626151
O O13 0.758853 0.829663 0.569901
O O14 0.500000 0.403805 0.326849
O O15 0.735919 0.500000 0.339586
O O16 0.723650 0.382630 0.246614
O O17 0.500000 0.336430 0.829612
O O18 0.728477 0.417244 0.883252
O O19 0.000000 0.892059 0.376990
O O20 0.780020 0.000000 0.396262
O O21 0.500000 0.500000 0.930281
O O22 0.257084 0.500000 0.000000
#
# Coordination Sequence:
#
# PCOD8196215 Si02
#       8
#     8   4   8   8   8   8   8   4
#     4  11  22  35  54  79 109 146 189 233 283 341
#     4   9  20  38  55  72 103 150 196 235 279 335
#     4  10  20  35  56  82 110 140 179 230 283 333
#     4  10  21  35  54  83 116 149 188 239 293 339
#     4   9  17  33  57  82 109 144 189 235 282 343
#     4  10  19  34  57  82 108 143 187 235 288 341
#     4  10  21  37  58  83 112 149 190 231 281 345
#     4   9  18  32  53  81 110 142 182 233 291 348
#
# _framework density 19.901423999999999
#
# number of rings (size 3 to 8) (size 9 to 14) (size 15 to 20)
#    0.000    2.143    0.714    2.571    1.000    4.286 
#    0.000    4.286    0.000    4.286    0.000    1.000 
#    0.000    0.000    0.000    0.000    0.000    0.000 
#
# Total GULP energy -694074.409939 kJ/mol
# GULP energy per Si atom -12394.185892 kJ/mol
# Density = 1.985613 g / cm^3
# Si number density = 19.901424 Si / 1000 Ang^3
#
#
#
# Elastic Constant Matrix: (Units=GPa)
#
#
# Indices 1 2 3 4 5 6 
#
# 1 60.1201 33.9396 30.7929 0.0000 0.0000 0.0000
# 2 33.9396 113.6630 51.4663 0.0000 0.0000 0.0000
# 3 30.7929 51.4663 136.9131 0.0000 0.0000 0.0000
# 4 0.0000 0.0000 0.0000 43.3836 0.0000 0.0000
# 5 0.0000 0.0000 0.0000 0.0000 20.6224 0.0000
# 6 0.0000 0.0000 0.0000 0.0000 0.0000 18.1165
#
#
#
# Elastic Compliance Matrix: (Units=1/GPa)
#
#
# Indices 1 2 3 4 5 6 
#
# 1 0.020881 -0.004951 -0.002835 0.000000 0.000000 0.000000
# 2 -0.004951 0.011777 -0.003313 0.000000 0.000000 0.000000
# 3 -0.002835 -0.003313 0.009187 0.000000 0.000000 0.000000
# 4 0.000000 0.000000 0.000000 0.023050 0.000000 0.000000
# 5 0.000000 0.000000 0.000000 0.000000 0.048491 0.000000
# 6 0.000000 0.000000 0.000000 0.000000 0.000000 0.055198
#
#
# Mechanical properties :
#
#
# Convention : Reuss Voigt Hill
#
# Bulk Modulus (GPa) = 50.90334 60.34375 55.62354
# Shear Modulus (GPa) = 25.33815 29.39101 27.36458
#
# Velocity S-wave (km/s) = 3.57204 3.84712 3.71213
# Velocity P-wave (km/s) = 6.53038 7.07962 6.81054
#
# Compressibility (1/GPa) = 0.01964508
#
# Stress axis : x y z
#
# Youngs Moduli (GPa) = 47.89150 84.91397 108.84921
#
# Poissons Ratio (x) = 0.42043 0.30859
# Poissons Ratio (y) = 0.23712 0.36065
# Poissons Ratio (z) = 0.13577 0.28135
#
# Static dielectric constant tensor:
#      x y z
#    x 3.346150 0.000000 0.000000 
#    y 0.000000 3.519960 0.000000 
#    z 0.000000 0.000000 3.929750 
# 
# 
# High freq. dielectric constant tensor:
#      x y z
#    x 1.741900 0.000000 0.000000 
#    y 0.000000 1.780190 0.000000 
#    z 0.000000 0.000000 1.785590 
# 
# From -- ./inp_files/11335.got.cif
#   From: 2010.03.12/outbox.cif.g09.slc.cpg/sg47_6_cif.got.tgz:11335.got - 2010.04.14 03:12:58.
