data_PCOD8196676
_publ_section_title
;
Structure prediction by ZEFSAII (Michael W. Deem and Ramdas Pophale) SiO2 
 PCOD8196676
Probable space group: P M M M
;
_chemical_formula_sum "Si O2"
_cell_formula_units_Z 48
_cell_length_a 34.051534
_cell_length_b 7.607639
_cell_length_c 9.242624
_cell_angle_alpha 90.000000
_cell_angle_beta 90.000000
_cell_angle_gamma 90.000000
_cell_volume 2394.318181
_symmetry_space_group_name_H-M "P M M M"
_symmetry_group_IT_number 47
_symmetry_cell_setting 'orthorhombic'
loop_
_space_group_symop_operation_xyz
x,y,z
-x,-y,z
x,-y,-z
-x,y,-z
-x,-y,-z
x,y,-z
-x,y,z
x,-y,z
loop_
_atom_site_type_symbol
_atom_site_label
_atom_site_fract_x
_atom_site_fract_y
_atom_site_fract_z
Si Si1 0.043277 0.290979 0.338085
Si Si2 0.408750 0.500000 0.327953
Si Si3 0.733317 0.798659 0.833284
Si Si4 0.885357 0.298170 0.841782
Si Si5 0.454236 0.201880 0.165957
Si Si6 0.672005 0.500000 0.167056
Si Si7 0.809956 0.207371 0.336537
O O1 0.049452 0.217462 0.500000
O O2 0.046536 0.500000 0.341516
O O3 0.077397 0.207506 0.237810
O O4 0.000000 0.234583 0.280557
O O5 0.409648 0.500000 0.500000
O O6 0.429920 0.325026 0.271882
O O7 0.364431 0.500000 0.273617
O O8 0.696500 0.675553 0.798034
O O9 0.769759 0.731268 0.738537
O O10 0.721751 0.000000 0.796023
O O11 0.745942 0.779976 0.000000
O O12 0.895789 0.500000 0.863674
O O13 0.846377 0.286373 0.747836
O O14 0.879279 0.209451 0.000000
O O15 0.500000 0.236710 0.192634
O O16 0.443614 0.000000 0.200759
O O17 0.443390 0.245999 0.000000
O O18 0.658167 0.500000 0.000000
O O19 0.810291 0.279688 0.500000
O O20 0.813324 0.000000 0.332074
#
# Coordination Sequence:
#
# PCOD8196676 Si02
#       7
#     8   4   8   8   8   4   8
#     4   8  14  26  44  66  95 130 165 202 247 300
#     4  12  25  37  54  87 128 164 198 243 303 360
#     4   9  19  37  59  81 106 138 180 233 286 333
#     4  10  20  31  47  74 103 131 166 207 251 301
#     4   9  19  38  64  90 117 157 209 258 302 352
#     4  10  22  39  59  82 110 151 201 241 280 342
#     4  10  21  36  54  76 102 133 167 207 262 323
#
# _framework density 20.047460000000001
#
# number of rings (size 3 to 8) (size 9 to 14) (size 15 to 20)
#    0.000    2.500    0.000    3.000    1.167    5.333 
#    0.000    4.167    0.000    0.500    0.000    3.500 
#    0.000    0.000    0.000    0.000    0.000    0.000 
#
# Total GULP energy -595121.762558 kJ/mol
# GULP energy per Si atom -12398.370053 kJ/mol
# Density = 2.000183 g / cm^3
# Si number density = 20.047460 Si / 1000 Ang^3
#
#
#
# Elastic Constant Matrix: (Units=GPa)
#
#
# Indices 1 2 3 4 5 6 
#
# 1 146.8254 55.2898 97.9089 0.0000 0.0000 0.0000
# 2 55.2898 72.5378 48.2189 0.0000 0.0000 0.0000
# 3 97.9089 48.2189 160.9548 0.0000 0.0000 0.0000
# 4 0.0000 0.0000 0.0000 17.6575 0.0000 0.0000
# 5 0.0000 0.0000 0.0000 0.0000 31.8012 0.0000
# 6 0.0000 0.0000 0.0000 0.0000 0.0000 -88.2920
#
#
#
# Elastic Compliance Matrix: (Units=1/GPa)
#
#
# Indices 1 2 3 4 5 6 
#
# 1 0.013216 -0.005905 -0.006270 0.000000 0.000000 0.000000
# 2 -0.005905 0.019853 -0.002355 0.000000 0.000000 0.000000
# 3 -0.006270 -0.002355 0.010733 0.000000 0.000000 0.000000
# 4 0.000000 0.000000 0.000000 0.056633 0.000000 0.000000
# 5 0.000000 0.000000 0.000000 0.000000 0.031445 0.000000
# 6 0.000000 0.000000 0.000000 0.000000 0.000000 -0.011326
#
#
# Mechanical properties :
#
#
# Convention : Reuss Voigt Hill
#
# Bulk Modulus (GPa) = 67.84361 87.01701 77.43031
# Shear Modulus (GPa) = 32.35669 4.16005 18.25837
#
# Velocity S-wave (km/s) = 4.02183 1.44208 3.02115
# Velocity P-wave (km/s) = 7.44861 6.80239 7.13282
#
# Compressibility (1/GPa) = 0.01473978
#
# Stress axis : x y z
#
# Youngs Moduli (GPa) = 75.66805 50.37095 93.17463
#
# Poissons Ratio (x) = 0.29746 0.58420
# Poissons Ratio (y) = 0.44684 0.21945
# Poissons Ratio (z) = 0.47444 0.11864
#
# Static dielectric constant tensor:
#      x y z
#    x 3.617860 0.000000 0.000000 
#    y 0.000000 3.549580 0.000000 
#    z 0.000000 0.000000 3.861500 
# 
# 
# High freq. dielectric constant tensor:
#      x y z
#    x 1.781870 0.000000 0.000000 
#    y 0.000000 1.774060 0.000000 
#    z 0.000000 0.000000 1.779100 
# 
# From -- ./inp_files/13990.got.cif
#   From: 2010.03.12/outbox.cif.g09.slc.cpg/sg47_7_cif.got.tgz:13990.got - 2010.04.14 03:12:58.
