data_PCOD8196726
_publ_section_title
;
Structure prediction by ZEFSAII (Michael W. Deem and Ramdas Pophale) SiO2 
 PCOD8196726
Probable space group: P M M M
;
_chemical_formula_sum "Si O2"
_cell_formula_units_Z 40
_cell_length_a 14.003598
_cell_length_b 20.894528
_cell_length_c 8.922058
_cell_angle_alpha 90.000000
_cell_angle_beta 90.000000
_cell_angle_gamma 90.000000
_cell_volume 2610.581417
_symmetry_space_group_name_H-M "P M M M"
_symmetry_group_IT_number 47
_symmetry_cell_setting 'orthorhombic'
loop_
_space_group_symop_operation_xyz
x,y,z
-x,-y,z
x,-y,-z
-x,y,-z
-x,-y,-z
x,y,-z
-x,y,z
x,-y,z
loop_
_atom_site_type_symbol
_atom_site_label
_atom_site_fract_x
_atom_site_fract_y
_atom_site_fract_z
Si Si1 0.391809 0.574325 0.672948
Si Si2 0.886167 0.136789 0.832114
Si Si3 0.887773 0.736536 0.327199
Si Si4 0.895350 0.000000 0.178113
Si Si5 0.789007 0.619496 0.176350
Si Si6 0.112884 0.500000 0.328581
O O1 0.378367 0.593169 0.500000
O O2 0.500000 0.588353 0.724520
O O3 0.366612 0.500000 0.696839
O O4 0.321482 0.616480 0.773957
O O5 0.853152 0.192506 0.719600
O O6 0.000000 0.130693 0.833791
O O7 0.843577 0.067363 0.776484
O O8 0.849716 0.153163 0.000000
O O9 0.862214 0.724986 0.500000
O O10 0.831611 0.686920 0.225231
O O11 0.000000 0.727889 0.297255
O O12 0.000000 0.000000 0.253454
O O13 0.905887 0.000000 0.000000
O O14 0.848902 0.563352 0.251419
O O15 0.796620 0.612075 0.000000
O O16 0.147918 0.500000 0.500000
O O17 0.000000 0.500000 0.316596
#
# Coordination Sequence:
#
# PCOD8196726 Si02
#       6
#     8   8   8   4   8   4
#     4   9  18  34  55  73  89 111 137 169 215 270
#     4   8  13  23  39  58  80 108 144 183 219 257
#     4  10  20  32  44  59  84 120 156 187 221 261
#     4   7  10  18  35  57  79 105 138 177 220 259
#     4  12  23  33  48  69  89 112 143 183 224 262
#     4  11  23  37  50  63  84 115 149 184 220 259
#
# _framework density 15.322255999999999
#
# number of rings (size 3 to 8) (size 9 to 14) (size 15 to 20)
#    0.000    2.400    1.000    5.100    0.000    4.800 
#    0.000    1.500    0.000    3.000    0.000    0.000 
#    0.000    0.000    0.000    0.900    0.000   17.500 
#
# Total GULP energy -495779.107766 kJ/mol
# GULP energy per Si atom -12394.477694 kJ/mol
# Density = 1.528738 g / cm^3
# Si number density = 15.322256 Si / 1000 Ang^3
#
#
#
# Elastic Constant Matrix: (Units=GPa)
#
#
# Indices 1 2 3 4 5 6 
#
# 1 50.6655 35.7448 37.0139 0.0000 0.0000 0.0000
# 2 35.7448 115.0117 45.9071 0.0000 0.0000 0.0000
# 3 37.0139 45.9071 94.4768 0.0000 0.0000 0.0000
# 4 0.0000 0.0000 0.0000 2.9738 0.0000 0.0000
# 5 0.0000 0.0000 0.0000 0.0000 14.5872 0.0000
# 6 0.0000 0.0000 0.0000 0.0000 0.0000 1.7082
#
#
#
# Elastic Compliance Matrix: (Units=1/GPa)
#
#
# Indices 1 2 3 4 5 6 
#
# 1 0.030523 -0.005847 -0.009117 0.000000 0.000000 0.000000
# 2 -0.005847 0.011907 -0.003495 0.000000 0.000000 0.000000
# 3 -0.009117 -0.003495 0.015855 0.000000 0.000000 0.000000
# 4 0.000000 0.000000 0.000000 0.336267 0.000000 0.000000
# 5 0.000000 0.000000 0.000000 0.000000 0.068553 0.000000
# 6 0.000000 0.000000 0.000000 0.000000 0.000000 0.585406
#
#
# Mechanical properties :
#
#
# Convention : Reuss Voigt Hill
#
# Bulk Modulus (GPa) = 46.80253 55.27618 51.03936
# Shear Modulus (GPa) = 4.57644 13.28639 8.93142
#
# Velocity S-wave (km/s) = 1.73011 2.94790 2.41696
# Velocity P-wave (km/s) = 5.88241 6.90948 6.41653
#
# Compressibility (1/GPa) = 0.02136637
#
# Stress axis : x y z
#
# Youngs Moduli (GPa) = 32.76215 83.98376 63.07295
#
# Poissons Ratio (x) = 0.49108 0.57504
# Poissons Ratio (y) = 0.19157 0.22043
# Poissons Ratio (z) = 0.29869 0.29352
#
# Static dielectric constant tensor:
#      x y z
#    x 2.675030 0.000000 0.000000 
#    y 0.000000 3.249740 0.000000 
#    z 0.000000 0.000000 2.914120 
# 
# 
# High freq. dielectric constant tensor:
#      x y z
#    x 1.539390 0.000000 0.000000 
#    y 0.000000 1.590740 0.000000 
#    z 0.000000 0.000000 1.586430 
# 
# From -- ./inp_files/6691.got.cif
#   From: 2010.03.12/outbox.cif.g09.slc.cpg/sg47_4_cif.got.tgz:6691.got - 2010.04.14 03:12:58.
