data_PCOD8196110
_publ_section_title
;
Structure prediction by ZEFSAII (Michael W. Deem and Ramdas Pophale) SiO2 
 PCOD8196110
Probable space group: P M M M
;
_chemical_formula_sum "Si O2"
_cell_formula_units_Z 48
_cell_length_a 9.708347
_cell_length_b 19.249474
_cell_length_c 13.861915
_cell_angle_alpha 90.000000
_cell_angle_beta 90.000000
_cell_angle_gamma 90.000000
_cell_volume 2590.522620
_symmetry_space_group_name_H-M "P M M M"
_symmetry_group_IT_number 47
_symmetry_cell_setting 'orthorhombic'
loop_
_space_group_symop_operation_xyz
x,y,z
-x,-y,z
x,-y,-z
-x,y,-z
-x,-y,-z
x,y,-z
-x,y,z
x,-y,z
loop_
_atom_site_type_symbol
_atom_site_label
_atom_site_fract_x
_atom_site_fract_y
_atom_site_fract_z
Si Si1 0.756362 0.657718 0.199446
Si Si2 0.658514 0.849004 0.610385
Si Si3 0.500000 0.417187 0.886668
Si Si4 0.156740 0.078526 0.755784
Si Si5 0.839911 0.795357 0.110125
Si Si6 0.160035 0.712531 0.608643
Si Si7 0.000000 0.575757 0.887751
O O1 0.622393 0.615618 0.173402
O O2 0.749711 0.738134 0.166425
O O3 0.789734 0.654786 0.314338
O O4 0.869312 0.619228 0.138779
O O5 0.661259 0.873069 0.500000
O O6 0.500000 0.837804 0.644524
O O7 0.733940 0.908983 0.670547
O O8 0.745163 0.779124 0.625167
O O9 0.500000 0.500000 0.877060
O O10 0.500000 0.395797 0.000000
O O11 0.189641 0.129455 0.844569
O O12 0.000000 0.090465 0.718133
O O13 0.175480 0.000000 0.793321
O O14 0.000000 0.774849 0.119088
O O15 0.791343 0.798168 0.000000
O O16 0.178688 0.682987 0.500000
O O17 0.000000 0.732470 0.627834
O O18 0.000000 0.500000 0.836455
O O19 0.000000 0.563703 0.000000
#
# Coordination Sequence:
#
# PCOD8196110 Si02
#       7
#     8   8   4   8   8   8   4
#     4  12  21  37  62  89 118 157 200 245 295 349
#     4  10  21  36  56  83 114 151 195 244 301 360
#     4  11  26  44  61  89 130 166 194 235 299 365
#     4  10  21  36  55  80 115 157 197 244 300 353
#     4  10  19  33  56  85 114 146 193 246 290 342
#     4  10  20  36  60  91 123 155 196 251 305 352
#     4  11  22  36  59  89 118 150 192 241 297 355
#
# _framework density 18.529078999999999
#
# number of rings (size 3 to 8) (size 9 to 14) (size 15 to 20)
#    0.000    1.500    3.333    2.500    1.167    3.333 
#    0.000    3.333    0.000    3.000    0.000    1.167 
#    0.000    0.000    0.000    0.000    0.000    0.000 
#
# Total GULP energy -595097.333397 kJ/mol
# GULP energy per Si atom -12397.861112 kJ/mol
# Density = 1.848691 g / cm^3
# Si number density = 18.529079 Si / 1000 Ang^3
#
#
#
# Elastic Constant Matrix: (Units=GPa)
#
#
# Indices 1 2 3 4 5 6 
#
# 1 124.3699 45.2832 48.0474 0.0000 0.0000 0.0000
# 2 45.2832 101.5945 49.4569 0.0000 0.0000 0.0000
# 3 48.0474 49.4569 121.6887 0.0000 0.0000 0.0000
# 4 0.0000 0.0000 0.0000 21.2433 0.0000 0.0000
# 5 0.0000 0.0000 0.0000 0.0000 25.3210 0.0000
# 6 0.0000 0.0000 0.0000 0.0000 0.0000 29.5628
#
#
#
# Elastic Compliance Matrix: (Units=1/GPa)
#
#
# Indices 1 2 3 4 5 6 
#
# 1 0.010282 -0.003250 -0.002739 0.000000 0.000000 0.000000
# 2 -0.003250 0.013298 -0.004121 0.000000 0.000000 0.000000
# 3 -0.002739 -0.004121 0.010974 0.000000 0.000000 0.000000
# 4 0.000000 0.000000 0.000000 0.047074 0.000000 0.000000
# 5 0.000000 0.000000 0.000000 0.000000 0.039493 0.000000
# 6 0.000000 0.000000 0.000000 0.000000 0.000000 0.033826
#
#
# Mechanical properties :
#
#
# Convention : Reuss Voigt Hill
#
# Bulk Modulus (GPa) = 69.76480 70.35868 70.06174
# Shear Modulus (GPa) = 27.78633 28.88313 28.33473
#
# Velocity S-wave (km/s) = 3.87668 3.95245 3.91475
# Velocity P-wave (km/s) = 7.60075 7.67356 7.63724
#
# Compressibility (1/GPa) = 0.01433388
#
# Stress axis : x y z
#
# Youngs Moduli (GPa) = 97.25902 75.20032 91.12269
#
# Poissons Ratio (x) = 0.24436 0.24958
# Poissons Ratio (y) = 0.31604 0.37556
# Poissons Ratio (z) = 0.26639 0.30994
#
# Static dielectric constant tensor:
#      x y z
#    x 3.376550 0.000000 0.000000 
#    y 0.000000 3.385110 0.000000 
#    z 0.000000 0.000000 3.596830 
# 
# 
# High freq. dielectric constant tensor:
#      x y z
#    x 1.717050 0.000000 0.000000 
#    y 0.000000 1.708030 0.000000 
#    z 0.000000 0.000000 1.723130 
# 
# From -- ./inp_files/9206.got.cif
#   From: 2010.03.12/outbox.cif.g09.slc.cpg/sg47_5_cif.got.tgz:9206.got - 2010.04.14 03:12:58.
