data_PCOD8196623
_publ_section_title
;
Structure prediction by ZEFSAII (Michael W. Deem and Ramdas Pophale) SiO2 
 PCOD8196623
Probable space group: P M M M
;
_chemical_formula_sum "Si O2"
_cell_formula_units_Z 52
_cell_length_a 8.930401
_cell_length_b 20.709090
_cell_length_c 14.601199
_cell_angle_alpha 90.000000
_cell_angle_beta 90.000000
_cell_angle_gamma 90.000000
_cell_volume 2700.352723
_symmetry_space_group_name_H-M "P M M M"
_symmetry_group_IT_number 47
_symmetry_cell_setting 'orthorhombic'
loop_
_space_group_symop_operation_xyz
x,y,z
-x,-y,z
x,-y,-z
-x,y,-z
-x,-y,-z
x,y,-z
-x,y,z
x,-y,z
loop_
_atom_site_type_symbol
_atom_site_label
_atom_site_fract_x
_atom_site_fract_y
_atom_site_fract_z
Si Si1 0.675324 0.116960 0.711146
Si Si2 0.677770 0.173021 0.101515
Si Si3 0.323157 0.683259 0.897038
Si Si4 0.172766 0.374085 0.396248
Si Si5 0.829565 0.225374 0.605754
Si Si6 0.177354 0.000000 0.605402
Si Si7 0.676895 0.571071 0.770897
O O1 0.500000 0.101488 0.702948
O O2 0.725277 0.122712 0.818567
O O3 0.711021 0.184907 0.663973
O O4 0.767119 0.062120 0.659958
O O5 0.500000 0.177887 0.098699
O O6 0.740859 0.244926 0.124904
O O7 0.735428 0.150652 0.000000
O O8 0.500000 0.683949 0.883264
O O9 0.250220 0.628096 0.832588
O O10 0.280330 0.664092 0.000000
O O11 0.209200 0.393364 0.500000
O O12 0.213165 0.299497 0.379098
O O13 0.273457 0.419237 0.333384
O O14 0.000000 0.386481 0.373714
O O15 0.813243 0.205734 0.500000
O O16 0.000000 0.211312 0.637665
O O17 0.236746 0.000000 0.500000
O O18 0.000000 0.000000 0.605197
O O19 0.500000 0.574678 0.776376
O O20 0.730961 0.500000 0.804215
#
# Coordination Sequence:
#
# PCOD8196623 Si02
#       7
#     8   8   8   8   8   4   8
#     4  11  21  33  55  84 109 135 170 212 252 291
#     4   8  15  29  50  77 106 133 163 203 254 306
#     4   8  14  27  48  73 102 134 165 200 247 306
#     4   9  19  35  52  69  92 128 173 213 251 306
#     4   9  18  33  52  74 101 132 165 205 258 314
#     4  11  25  43  58  73 104 150 185 207 242 293
#     4  10  20  31  45  70 101 130 165 213 265 308
#
# _framework density 19.256744000000001
#
# number of rings (size 3 to 8) (size 9 to 14) (size 15 to 20)
#    0.000    2.692    0.000    3.923    0.000    5.846 
#    0.000    5.000    0.000    4.615    0.000    7.538 
#    0.000    0.000    0.000    0.000    0.000    0.000 
#
# Total GULP energy -644505.204968 kJ/mol
# GULP energy per Si atom -12394.330865 kJ/mol
# Density = 1.921291 g / cm^3
# Si number density = 19.256744 Si / 1000 Ang^3
#
#
#
# Elastic Constant Matrix: (Units=GPa)
#
#
# Indices 1 2 3 4 5 6 
#
# 1 22.3838 19.7073 22.5623 0.0000 0.0000 0.0000
# 2 19.7073 78.1184 64.8180 0.0000 0.0000 0.0000
# 3 22.5623 64.8180 128.1744 0.0000 0.0000 0.0000
# 4 0.0000 0.0000 0.0000 27.4390 0.0000 0.0000
# 5 0.0000 0.0000 0.0000 0.0000 3.0071 0.0000
# 6 0.0000 0.0000 0.0000 0.0000 0.0000 23.5813
#
#
#
# Elastic Compliance Matrix: (Units=1/GPa)
#
#
# Indices 1 2 3 4 5 6 
#
# 1 0.059194 -0.010833 -0.004942 0.000000 0.000000 0.000000
# 2 -0.010833 0.024038 -0.010249 0.000000 0.000000 0.000000
# 3 -0.004942 -0.010249 0.013855 0.000000 0.000000 0.000000
# 4 0.000000 0.000000 0.000000 0.036445 0.000000 0.000000
# 5 0.000000 0.000000 0.000000 0.000000 0.332541 0.000000
# 6 0.000000 0.000000 0.000000 0.000000 0.000000 0.042406
#
#
# Mechanical properties :
#
#
# Convention : Reuss Voigt Hill
#
# Bulk Modulus (GPa) = 22.20281 49.20576 35.70428
# Shear Modulus (GPa) = 8.68750 18.91142 13.79946
#
# Velocity S-wave (km/s) = 2.12631 3.13720 2.67985
# Velocity P-wave (km/s) = 4.19323 6.22339 5.30631
#
# Compressibility (1/GPa) = 0.04503934
#
# Stress axis : x y z
#
# Youngs Moduli (GPa) = 16.89365 41.60059 72.17728
#
# Poissons Ratio (x) = 0.45065 0.35667
# Poissons Ratio (y) = 0.18301 0.73976
# Poissons Ratio (z) = 0.08348 0.42637
#
# Static dielectric constant tensor:
#      x y z
#    x 3.088000 0.000000 0.000000 
#    y 0.000000 3.682840 0.000000 
#    z 0.000000 0.000000 3.819710 
# 
# 
# High freq. dielectric constant tensor:
#      x y z
#    x 1.708480 0.000000 0.000000 
#    y 0.000000 1.744930 0.000000 
#    z 0.000000 0.000000 1.758640 
# 
# From -- ./inp_files/7104.got.cif
#   From: 2010.03.12/outbox.cif.g09.slc.cpg/sg47_4_cif.got.tgz:7104.got - 2010.04.14 03:12:58.
