data_PCOD8196535
_publ_section_title
;
Structure prediction by ZEFSAII (Michael W. Deem and Ramdas Pophale) SiO2 
 PCOD8196535
Probable space group: P M M M
;
_chemical_formula_sum "Si O2"
_cell_formula_units_Z 48
_cell_length_a 7.775628
_cell_length_b 22.302352
_cell_length_c 23.667102
_cell_angle_alpha 90.000000
_cell_angle_beta 90.000000
_cell_angle_gamma 90.000000
_cell_volume 4104.225587
_symmetry_space_group_name_H-M "P M M M"
_symmetry_group_IT_number 47
_symmetry_cell_setting 'orthorhombic'
loop_
_space_group_symop_operation_xyz
x,y,z
-x,-y,z
x,-y,-z
-x,y,-z
-x,-y,-z
x,y,-z
-x,y,z
x,-y,z
loop_
_atom_site_type_symbol
_atom_site_label
_atom_site_fract_x
_atom_site_fract_y
_atom_site_fract_z
Si Si1 0.307195 0.928588 0.858648
Si Si2 0.807381 0.928869 0.736751
Si Si3 0.698455 0.374910 0.436249
Si Si4 0.500000 0.070888 0.656294
Si Si5 0.189738 0.749851 0.433270
Si Si6 0.500000 0.168321 0.567091
Si Si7 0.201518 0.500000 0.436667
Si Si8 0.000000 0.928514 0.936434
O O1 0.500000 0.905714 0.873443
O O2 0.250484 0.903267 0.797581
O O3 0.171789 0.904631 0.905120
O O4 0.304638 0.000000 0.857266
O O5 0.670186 0.907982 0.690018
O O6 0.000000 0.905462 0.721735
O O7 0.807426 0.000000 0.740021
O O8 0.770480 0.381963 0.500000
O O9 0.500000 0.359193 0.435756
O O10 0.789697 0.317380 0.407085
O O11 0.735540 0.438807 0.405099
O O12 0.500000 0.103245 0.595841
O O13 0.500000 0.000000 0.645346
O O14 0.217446 0.743728 0.500000
O O15 0.332269 0.795898 0.410713
O O16 0.000000 0.774515 0.417939
O O17 0.500000 0.158152 0.500000
O O18 0.282095 0.500000 0.500000
O O19 0.000000 0.500000 0.438041
O O20 0.000000 0.000000 0.936492
O O21 0.000000 0.902988 0.000000
#
# Coordination Sequence:
#
# PCOD8196535 Si02
#       8
#     8   8   8   4   8   4   4   4
#     4   9  14  21  34  48  64  87 110 130 150 171
#     4   9  15  25  41  57  69  81  99 124 155 191
#     4   9  14  21  32  47  66  87 110 131 148 168
#     4  10  20  31  44  60  70  77  96 127 166 215
#     4   9  16  27  42  54  65  85 109 126 144 182
#     4  10  20  33  44  55  70  83  98 123 160 211
#     4   9  15  19  25  43  69  91 109 130 153 167
#     4   9  16  22  28  44  70  96 117 131 143 163
#
# _framework density 11.695264
#
# number of rings (size 3 to 8) (size 9 to 14) (size 15 to 20)
#    0.000    2.833    2.500    0.750    0.000    4.167 
#    0.000    1.667    0.000    0.000    0.000    4.667 
#    0.000    0.000    0.000    0.000    0.000    0.000 
#
# Total GULP energy -594724.013631 kJ/mol
# GULP energy per Si atom -12390.083617 kJ/mol
# Density = 1.166865 g / cm^3
# Si number density = 11.695264 Si / 1000 Ang^3
#
#
#
# Elastic Constant Matrix: (Units=GPa)
#
#
# Indices 1 2 3 4 5 6 
#
# 1 103.8104 24.2295 28.1695 0.0000 0.0000 0.0000
# 2 24.2295 40.5840 21.9964 0.0000 0.0000 0.0000
# 3 28.1695 21.9964 41.6552 0.0000 0.0000 0.0000
# 4 0.0000 0.0000 0.0000 0.5280 0.0000 0.0000
# 5 0.0000 0.0000 0.0000 0.0000 11.0271 0.0000
# 6 0.0000 0.0000 0.0000 0.0000 0.0000 7.3247
#
#
#
# Elastic Compliance Matrix: (Units=1/GPa)
#
#
# Indices 1 2 3 4 5 6 
#
# 1 0.012234 -0.003950 -0.006187 0.000000 0.000000 0.000000
# 2 -0.003950 0.035796 -0.016231 0.000000 0.000000 0.000000
# 3 -0.006187 -0.016231 0.036761 0.000000 0.000000 0.000000
# 4 0.000000 0.000000 0.000000 1.893788 0.000000 0.000000
# 5 0.000000 0.000000 0.000000 0.000000 0.090686 0.000000
# 6 0.000000 0.000000 0.000000 0.000000 0.000000 0.136524
#
#
# Mechanical properties :
#
#
# Convention : Reuss Voigt Hill
#
# Bulk Modulus (GPa) = 31.19691 37.20447 34.20069
# Shear Modulus (GPa) = 2.20341 11.21959 6.71150
#
# Velocity S-wave (km/s) = 1.37408 3.10066 2.39815
# Velocity P-wave (km/s) = 5.40835 6.68576 6.08069
#
# Compressibility (1/GPa) = 0.03205446
#
# Stress axis : x y z
#
# Youngs Moduli (GPa) = 81.74004 27.93623 27.20239
#
# Poissons Ratio (x) = 0.11036 0.16830
# Poissons Ratio (y) = 0.32291 0.44151
# Poissons Ratio (z) = 0.50574 0.45343
#
# Static dielectric constant tensor:
#      x y z
#    x 2.696820 0.000000 0.000000 
#    y 0.000000 2.215710 0.000000 
#    z 0.000000 0.000000 2.123940 
# 
# 
# High freq. dielectric constant tensor:
#      x y z
#    x 1.467510 0.000000 0.000000 
#    y 0.000000 1.401680 0.000000 
#    z 0.000000 0.000000 1.386090 
# 
# From -- ./inp_files/26929.got.cif
#   From: 2010.03.12/outbox.cif.g09.slc.cpg/sg47_14_cif.got.tgz:26929.got - 2010.04.14 03:12:58.
