data_PCOD8196453
_publ_section_title
;
Structure prediction by ZEFSAII (Michael W. Deem and Ramdas Pophale) SiO2 
 PCOD8196453
Probable space group: P M M M
;
_chemical_formula_sum "Si O2"
_cell_formula_units_Z 52
_cell_length_a 27.940455
_cell_length_b 9.309081
_cell_length_c 14.895004
_cell_angle_alpha 90.000000
_cell_angle_beta 90.000000
_cell_angle_gamma 90.000000
_cell_volume 3874.189926
_symmetry_space_group_name_H-M "P M M M"
_symmetry_group_IT_number 47
_symmetry_cell_setting 'orthorhombic'
loop_
_space_group_symop_operation_xyz
x,y,z
-x,-y,z
x,-y,-z
-x,y,-z
-x,-y,-z
x,y,-z
-x,y,z
x,-y,z
loop_
_atom_site_type_symbol
_atom_site_label
_atom_site_fract_x
_atom_site_fract_y
_atom_site_fract_z
Si Si1 0.376515 0.165046 0.606258
Si Si2 0.819510 0.661537 0.606767
Si Si3 0.000000 0.337335 0.606967
Si Si4 0.443360 0.334905 0.731567
Si Si5 0.556848 0.838739 0.900977
Si Si6 0.286210 0.661047 0.606632
Si Si7 0.091286 0.838018 0.607139
O O1 0.380959 0.182807 0.500000
O O2 0.420668 0.250021 0.648740
O O3 0.326509 0.230476 0.643046
O O4 0.378675 0.000000 0.635895
O O5 0.821164 0.664072 0.500000
O O6 0.830406 0.500000 0.640501
O O7 0.766608 0.710347 0.640148
O O8 0.859719 0.768640 0.645456
O O9 0.953290 0.254636 0.643376
O O10 0.000000 0.500000 0.644259
O O11 0.000000 0.338949 0.500000
O O12 0.500000 0.316795 0.723234
O O13 0.427646 0.500000 0.727422
O O14 0.423672 0.269644 0.825364
O O15 0.500000 0.836363 0.900770
O O16 0.574952 0.000000 0.879405
O O17 0.575317 0.790756 0.000000
O O18 0.286596 0.661492 0.500000
O O19 0.297363 0.500000 0.641524
O O20 0.091427 0.838007 0.500000
O O21 0.087076 0.000000 0.644037
#
# Coordination Sequence:
#
# PCOD8196453 Si02
#       7
#     8   8   4   8   8   8   8
#     4  10  20  31  42  55  71  93 120 149 180 213
#     4   8  13  21  32  44  56  71  92 118 151 191
#     4   9  15  21  27  33  45  67  91 113 141 183
#     4  10  20  31  43  59  77  97 120 145 172 205
#     4   8  14  26  44  63  81  99 116 136 165 200
#     4   8  14  25  39  51  63  80 103 133 167 202
#     4   9  15  20  26  37  52  68  87 114 147 183
#
# _framework density 13.42216
#
# number of rings (size 3 to 8) (size 9 to 14) (size 15 to 20)
#    0.000    3.154    0.000    3.000    0.000    5.846 
#    0.000    6.154    0.000    0.000    0.000    0.000 
#    0.000    0.000    0.000    0.000    0.000    0.000 
#
# Total GULP energy -644460.198154 kJ/mol
# GULP energy per Si atom -12393.465349 kJ/mol
# Density = 1.339161 g / cm^3
# Si number density = 13.422160 Si / 1000 Ang^3
#
#
#
# Elastic Constant Matrix: (Units=GPa)
#
#
# Indices 1 2 3 4 5 6 
#
# 1 69.5450 55.1139 21.1701 0.0000 0.0000 0.0000
# 2 55.1139 118.2020 27.6125 0.0000 0.0000 0.0000
# 3 21.1701 27.6125 24.4299 0.0000 0.0000 0.0000
# 4 0.0000 0.0000 0.0000 13.2110 0.0000 0.0000
# 5 0.0000 0.0000 0.0000 0.0000 0.5266 0.0000
# 6 0.0000 0.0000 0.0000 0.0000 0.0000 23.5738
#
#
#
# Elastic Compliance Matrix: (Units=1/GPa)
#
#
# Indices 1 2 3 4 5 6 
#
# 1 0.024988 -0.008958 -0.011528 0.000000 0.000000 0.000000
# 2 -0.008958 0.014707 -0.008860 0.000000 0.000000 0.000000
# 3 -0.011528 -0.008860 0.060938 0.000000 0.000000 0.000000
# 4 0.000000 0.000000 0.000000 0.075694 0.000000 0.000000
# 5 0.000000 0.000000 0.000000 0.000000 1.898832 0.000000
# 6 0.000000 0.000000 0.000000 0.000000 0.000000 0.042420
#
#
# Mechanical properties :
#
#
# Convention : Reuss Voigt Hill
#
# Bulk Modulus (GPa) = 23.84398 46.66332 35.25365
# Shear Modulus (GPa) = 2.28284 14.68099 8.48192
#
# Velocity S-wave (km/s) = 1.30556 3.31083 2.51656
# Velocity P-wave (km/s) = 4.48061 7.03256 5.89630
#
# Compressibility (1/GPa) = 0.04193930
#
# Stress axis : x y z
#
# Youngs Moduli (GPa) = 40.01999 67.99692 16.41021
#
# Poissons Ratio (x) = 0.60910 0.18919
# Poissons Ratio (y) = 0.35849 0.14539
# Poissons Ratio (z) = 0.46137 0.60245
#
# Static dielectric constant tensor:
#      x y z
#    x 2.798790 0.000000 0.000000 
#    y 0.000000 2.898520 0.000000 
#    z 0.000000 0.000000 2.247890 
# 
# 
# High freq. dielectric constant tensor:
#      x y z
#    x 1.505260 0.000000 0.000000 
#    y 0.000000 1.525740 0.000000 
#    z 0.000000 0.000000 1.435310 
# 
# From -- ./inp_files/21994.got.cif
#   From: 2010.03.12/outbox.cif.g09.slc.cpg/sg47_11_cif.got.tgz:21994.got - 2010.04.14 03:12:58.
