data_PCOD8196873
_publ_section_title
;
Structure prediction by ZEFSAII (Michael W. Deem and Ramdas Pophale) SiO2 
 PCOD8196873
Probable space group: P M M M
;
_chemical_formula_sum "Si O2"
_cell_formula_units_Z 52
_cell_length_a 14.529338
_cell_length_b 25.041118
_cell_length_c 7.899841
_cell_angle_alpha 90.000000
_cell_angle_beta 90.000000
_cell_angle_gamma 90.000000
_cell_volume 2874.206003
_symmetry_space_group_name_H-M "P M M M"
_symmetry_group_IT_number 47
_symmetry_cell_setting 'orthorhombic'
loop_
_space_group_symop_operation_xyz
x,y,z
-x,-y,z
x,-y,-z
-x,y,-z
-x,-y,-z
x,y,-z
-x,y,z
x,-y,z
loop_
_atom_site_type_symbol
_atom_site_label
_atom_site_fract_x
_atom_site_fract_y
_atom_site_fract_z
Si Si1 0.899007 0.157135 0.305019
Si Si2 0.599710 0.107083 0.298849
Si Si3 0.785167 0.941081 0.702142
Si Si4 0.108925 0.440537 0.500000
Si Si5 0.397934 0.771957 0.300226
Si Si6 0.207243 0.741562 0.807494
Si Si7 0.108134 0.365947 0.805057
O O1 0.912375 0.144216 0.500000
O O2 0.852455 0.104395 0.221635
O O3 0.833806 0.208479 0.293241
O O4 0.000000 0.166905 0.221593
O O5 0.599877 0.107611 0.500000
O O6 0.500000 0.085897 0.233816
O O7 0.681721 0.070118 0.229139
O O8 0.614806 0.167555 0.235208
O O9 0.784626 0.938606 0.500000
O O10 0.815914 0.000000 0.765021
O O11 0.151987 0.500000 0.500000
O O12 0.140985 0.411458 0.673463
O O13 0.000000 0.443965 0.500000
O O14 0.386603 0.768508 0.500000
O O15 0.500000 0.750978 0.246805
O O16 0.317473 0.736621 0.216368
O O17 0.160880 0.687056 0.744890
O O18 0.180490 0.751180 0.000000
O O19 0.000000 0.354752 0.787678
O O20 0.132662 0.382129 0.000000
#
# Coordination Sequence:
#
# PCOD8196873 Si02
#       7
#     8   8   8   4   8   8   8
#     4  10  20  32  47  66  88 121 162 203 253 306
#     4   8  13  23  40  62  87 112 142 186 242 301
#     4   9  16  26  41  63  89 113 147 199 252 303
#     4   9  18  32  52  78 107 147 190 218 250 295
#     4   9  17  30  49  71  96 126 158 195 243 301
#     4  11  21  32  49  72 100 131 163 204 251 300
#     4   9  19  33  48  74 110 143 178 220 260 297
#
# _framework density 18.091953
#
# number of rings (size 3 to 8) (size 9 to 14) (size 15 to 20)
#    0.000    2.692    1.538    1.846    2.154    2.154 
#    0.000    4.615    0.000    0.462    0.000    1.077 
#    0.000    3.692    0.000    3.385    0.000    0.154 
#
# Total GULP energy -644408.121606 kJ/mol
# GULP energy per Si atom -12392.463877 kJ/mol
# Density = 1.805077 g / cm^3
# Si number density = 18.091953 Si / 1000 Ang^3
#
#
#
# Elastic Constant Matrix: (Units=GPa)
#
#
# Indices 1 2 3 4 5 6 
#
# 1 111.5123 54.5098 16.1714 0.0000 0.0000 0.0000
# 2 54.5098 128.0530 35.5812 0.0000 0.0000 0.0000
# 3 16.1714 35.5812 42.1510 0.0000 0.0000 0.0000
# 4 0.0000 0.0000 0.0000 -3.1203 0.0000 0.0000
# 5 0.0000 0.0000 0.0000 0.0000 12.2145 0.0000
# 6 0.0000 0.0000 0.0000 0.0000 0.0000 16.9473
#
#
#
# Elastic Compliance Matrix: (Units=1/GPa)
#
#
# Indices 1 2 3 4 5 6 
#
# 1 0.011328 -0.004722 -0.000360 0.000000 0.000000 0.000000
# 2 -0.004722 0.012171 -0.008462 0.000000 0.000000 0.000000
# 3 -0.000360 -0.008462 0.031005 0.000000 0.000000 0.000000
# 4 0.000000 0.000000 0.000000 -0.320478 0.000000 0.000000
# 5 0.000000 0.000000 0.000000 0.000000 0.081870 0.000000
# 6 0.000000 0.000000 0.000000 0.000000 0.000000 0.059007
#
#
# Mechanical properties :
#
#
# Convention : Reuss Voigt Hill
#
# Bulk Modulus (GPa) = 36.47509 54.91568 45.69539
# Shear Modulus (GPa) = -56.26157 16.90521 -19.67818
#
# Velocity S-wave (km/s) = -5.58257 3.06012 -3.30157
# Velocity P-wave (km/s) = 4.62047 6.55022 3.28303
#
# Compressibility (1/GPa) = 0.02741597
#
# Stress axis : x y z
#
# Youngs Moduli (GPa) = 88.27591 82.16452 32.25237
#
# Poissons Ratio (x) = 0.38799 0.01161
# Poissons Ratio (y) = 0.41685 0.27292
# Poissons Ratio (z) = 0.03177 0.69528
#
# Static dielectric constant tensor:
#      x y z
#    x 3.648690 0.000000 0.000000 
#    y 0.000000 3.261660 0.000000 
#    z 0.000000 0.000000 3.064910 
# 
# 
# High freq. dielectric constant tensor:
#      x y z
#    x 1.696940 0.000000 0.000000 
#    y 0.000000 1.666050 0.000000 
#    z 0.000000 0.000000 1.678510 
# 
# From -- ./inp_files/7014.got.cif
#   From: 2010.03.12/outbox.cif.g09.slc.cpg/sg47_4_cif.got.tgz:7014.got - 2010.04.14 03:12:58.
