data_PCOD8196991
_publ_section_title
;
Structure prediction by ZEFSAII (Michael W. Deem and Ramdas Pophale) SiO2 
 PCOD8196991
Probable space group: P M M M
;
_chemical_formula_sum "Si O2"
_cell_formula_units_Z 52
_cell_length_a 9.378627
_cell_length_b 24.122828
_cell_length_c 16.974284
_cell_angle_alpha 90.000000
_cell_angle_beta 90.000000
_cell_angle_gamma 90.000000
_cell_volume 3840.245140
_symmetry_space_group_name_H-M "P M M M"
_symmetry_group_IT_number 47
_symmetry_cell_setting 'orthorhombic'
loop_
_space_group_symop_operation_xyz
x,y,z
-x,-y,z
x,-y,-z
-x,y,-z
-x,-y,-z
x,y,-z
-x,y,z
x,-y,z
loop_
_atom_site_type_symbol
_atom_site_label
_atom_site_fract_x
_atom_site_fract_y
_atom_site_fract_z
Si Si1 0.335854 0.934540 0.500000
Si Si2 0.244978 0.065554 0.196257
Si Si3 0.333963 0.228860 0.593185
Si Si4 0.660020 0.438426 0.406298
Si Si5 0.827316 0.878052 0.640954
Si Si6 0.500000 0.934370 0.910590
Si Si7 0.000000 0.065534 0.914273
Si Si8 0.839382 0.336501 0.593538
O O1 0.500000 0.910598 0.500000
O O2 0.247142 0.915496 0.424715
O O3 0.344200 0.000000 0.500000
O O4 0.224629 0.097185 0.277163
O O5 0.376136 0.086262 0.145562
O O6 0.129563 0.086361 0.135766
O O7 0.243847 0.000000 0.214308
O O8 0.322155 0.219108 0.500000
O O9 0.500000 0.226519 0.619730
O O10 0.236432 0.183345 0.635795
O O11 0.265098 0.286947 0.619461
O O12 0.659532 0.435570 0.500000
O O13 0.500000 0.425333 0.375709
O O14 0.707293 0.500000 0.378435
O O15 0.771004 0.393301 0.372336
O O16 0.000000 0.878221 0.632100
O O17 0.500000 0.000000 0.921111
O O18 0.500000 0.908756 0.000000
O O19 0.000000 0.000000 0.924751
O O20 0.000000 0.093989 0.000000
O O21 0.847096 0.338903 0.500000
O O22 0.000000 0.329042 0.627610
#
# Coordination Sequence:
#
# PCOD8196991 Si02
#       8
#     4   8   8   8   8   4   4   8
#     4  11  25  39  51  63  79 107 138 171 212 259
#     4  10  20  32  48  69  90 109 131 161 200 250
#     4  10  20  33  47  58  73 101 139 177 214 253
#     4   8  13  21  33  50  73  99 125 155 197 247
#     4  12  23  35  49  65  85 107 137 175 214 252
#     4   9  18  32  50  71  91 111 131 154 191 242
#     4   9  16  30  50  69  89 109 127 150 189 248
#     4   9  16  25  38  55  74  95 126 166 208 250
#
# _framework density 13.540801999999999
#
# number of rings (size 3 to 8) (size 9 to 14) (size 15 to 20)
#    0.000    2.231    1.538    3.000    2.154    5.846 
#    0.000    1.538    0.000    0.000    0.000    0.000 
#    0.000    0.000    0.000    0.000    0.000    0.000 
#
# Total GULP energy -644186.969946 kJ/mol
# GULP energy per Si atom -12388.210960 kJ/mol
# Density = 1.350998 g / cm^3
# Si number density = 13.540802 Si / 1000 Ang^3
#
#
#
# Elastic Constant Matrix: (Units=GPa)
#
#
# Indices 1 2 3 4 5 6 
#
# 1 135.2852 48.4122 47.5147 0.0000 0.0000 0.0000
# 2 48.4122 79.4820 29.9419 0.0000 0.0000 0.0000
# 3 47.5147 29.9419 82.5377 0.0000 0.0000 0.0000
# 4 0.0000 0.0000 0.0000 9.0620 0.0000 0.0000
# 5 0.0000 0.0000 0.0000 0.0000 26.5929 0.0000
# 6 0.0000 0.0000 0.0000 0.0000 0.0000 23.1192
#
#
#
# Elastic Compliance Matrix: (Units=1/GPa)
#
#
# Indices 1 2 3 4 5 6 
#
# 1 0.010665 -0.004845 -0.004382 0.000000 0.000000 0.000000
# 2 -0.004845 0.016774 -0.003296 0.000000 0.000000 0.000000
# 3 -0.004382 -0.003296 0.015834 0.000000 0.000000 0.000000
# 4 0.000000 0.000000 0.000000 0.110351 0.000000 0.000000
# 5 0.000000 0.000000 0.000000 0.000000 0.037604 0.000000
# 6 0.000000 0.000000 0.000000 0.000000 0.000000 0.043254
#
#
# Mechanical properties :
#
#
# Convention : Reuss Voigt Hill
#
# Bulk Modulus (GPa) = 54.86332 61.00474 57.93403
# Shear Modulus (GPa) = 18.82511 23.18391 21.00451
#
# Velocity S-wave (km/s) = 3.73265 4.14230 3.94280
# Velocity P-wave (km/s) = 7.69298 8.24794 7.97529
#
# Compressibility (1/GPa) = 0.01822711
#
# Stress axis : x y z
#
# Youngs Moduli (GPa) = 93.76867 59.61532 63.15634
#
# Poissons Ratio (x) = 0.28884 0.27673
# Poissons Ratio (y) = 0.45432 0.20816
# Poissons Ratio (z) = 0.41086 0.19649
#
# Static dielectric constant tensor:
#      x y z
#    x 2.979830 0.000000 0.000000 
#    y 0.000000 2.683640 0.000000 
#    z 0.000000 0.000000 2.398110 
# 
# 
# High freq. dielectric constant tensor:
#      x y z
#    x 1.541060 0.000000 0.000000 
#    y 0.000000 1.497260 0.000000 
#    z 0.000000 0.000000 1.467440 
# 
# From -- ./inp_files/21825.got.cif
#   From: 2010.03.12/outbox.cif.g09.slc.cpg/sg47_11_cif.got.tgz:21825.got - 2010.04.14 03:12:58.
