data_PCOD8196336
_publ_section_title
;
Structure prediction by ZEFSAII (Michael W. Deem and Ramdas Pophale) SiO2 
 PCOD8196336
Probable space group: P M M M
;
_chemical_formula_sum "Si O2"
_cell_formula_units_Z 48
_cell_length_a 14.440662
_cell_length_b 11.551398
_cell_length_c 14.380480
_cell_angle_alpha 90.000000
_cell_angle_beta 90.000000
_cell_angle_gamma 90.000000
_cell_volume 2398.805484
_symmetry_space_group_name_H-M "P M M M"
_symmetry_group_IT_number 47
_symmetry_cell_setting 'orthorhombic'
loop_
_space_group_symop_operation_xyz
x,y,z
-x,-y,z
x,-y,-z
-x,y,-z
-x,-y,-z
x,y,-z
-x,y,z
x,-y,z
loop_
_atom_site_type_symbol
_atom_site_label
_atom_site_fract_x
_atom_site_fract_y
_atom_site_fract_z
Si Si1 0.342908 0.787500 0.676442
Si Si2 0.158530 0.134583 0.396111
Si Si3 0.393775 0.362606 0.000000
Si Si4 0.601219 0.000000 0.202976
Si Si5 0.262538 0.363826 0.166187
Si Si6 0.894451 0.785865 0.200879
Si Si7 0.207560 0.000000 0.109150
Si Si8 0.500000 0.626814 0.604928
O O1 0.269309 0.846661 0.607419
O O2 0.287771 0.699224 0.740220
O O3 0.412010 0.705619 0.622520
O O4 0.394956 0.886481 0.733202
O O5 0.124279 0.172243 0.500000
O O6 0.108086 0.207488 0.314178
O O7 0.135623 0.000000 0.379786
O O8 0.334691 0.318437 0.088066
O O9 0.398927 0.500000 0.000000
O O10 0.500000 0.313017 0.000000
O O11 0.681915 0.000000 0.125958
O O12 0.500000 0.000000 0.153672
O O13 0.269539 0.500000 0.175153
O O14 0.154586 0.326962 0.153769
O O15 0.000000 0.787140 0.166738
O O16 0.836858 0.891316 0.159252
O O17 0.186486 0.000000 0.000000
O O18 0.500000 0.500000 0.659200
O O19 0.500000 0.590443 0.500000
#
# Coordination Sequence:
#
# PCOD8196336 Si02
#       8
#     8   8   4   4   8   8   4   4
#     4  11  20  38  58  85 121 164 202 248 312 368
#     4  10  19  35  61  90 121 153 195 253 313 367
#     4   9  20  38  61  90 119 156 207 256 305 362
#     4  12  22  40  64  91 123 161 203 256 309 377
#     4  10  22  39  61  89 123 162 207 259 308 367
#     4  11  23  41  64  90 124 162 206 256 310 376
#     4  12  25  45  64  89 127 163 205 255 313 379
#     4  11  24  37  53  84 121 163 216 255 293 367
#
# _framework density 20.00996
#
# number of rings (size 3 to 8) (size 9 to 14) (size 15 to 20)
#    0.000    1.333    5.833    1.250    2.333    1.500 
#    0.000    1.250    0.000    6.000    0.000    4.667 
#    0.000    0.000    0.000    0.000    0.000    0.000 
#
# Total GULP energy -594786.220711 kJ/mol
# GULP energy per Si atom -12391.379598 kJ/mol
# Density = 1.996442 g / cm^3
# Si number density = 20.009960 Si / 1000 Ang^3
#
#
#
# Elastic Constant Matrix: (Units=GPa)
#
#
# Indices 1 2 3 4 5 6 
#
# 1 142.1604 25.4783 26.3132 0.0000 0.0000 0.0000
# 2 25.4783 80.5831 19.6640 0.0000 0.0000 0.0000
# 3 26.3132 19.6640 93.0632 0.0000 0.0000 0.0000
# 4 0.0000 0.0000 0.0000 19.8046 0.0000 0.0000
# 5 0.0000 0.0000 0.0000 0.0000 32.1935 0.0000
# 6 0.0000 0.0000 0.0000 0.0000 0.0000 87.7046
#
#
#
# Elastic Compliance Matrix: (Units=1/GPa)
#
#
# Indices 1 2 3 4 5 6 
#
# 1 0.007720 -0.002012 -0.001758 0.000000 0.000000 0.000000
# 2 -0.002012 0.013609 -0.002307 0.000000 0.000000 0.000000
# 3 -0.001758 -0.002307 0.011730 0.000000 0.000000 0.000000
# 4 0.000000 0.000000 0.000000 0.050493 0.000000 0.000000
# 5 0.000000 0.000000 0.000000 0.000000 0.031062 0.000000
# 6 0.000000 0.000000 0.000000 0.000000 0.000000 0.011402
#
#
# Mechanical properties :
#
#
# Convention : Reuss Voigt Hill
#
# Bulk Modulus (GPa) = 47.83334 50.96865 49.40099
# Shear Modulus (GPa) = 34.45017 44.23062 39.34040
#
# Velocity S-wave (km/s) = 4.15378 4.70662 4.43882
# Velocity P-wave (km/s) = 6.85287 7.42047 7.14231
#
# Compressibility (1/GPa) = 0.02090592
#
# Stress axis : x y z
#
# Youngs Moduli (GPa) = 129.52938 73.48317 85.25337
#
# Poissons Ratio (x) = 0.14785 0.14985
# Poissons Ratio (y) = 0.26062 0.19664
# Poissons Ratio (z) = 0.22768 0.16949
#
# Static dielectric constant tensor:
#      x y z
#    x 9.355730 0.000000 0.000000 
#    y 0.000000 4.067950 0.000000 
#    z 0.000000 0.000000 3.625520 
# 
# 
# High freq. dielectric constant tensor:
#      x y z
#    x 1.785730 0.000000 0.000000 
#    y 0.000000 1.775560 0.000000 
#    z 0.000000 0.000000 1.771720 
# 
# From -- ./inp_files/23642.got.cif
#   From: 2010.03.12/outbox.cif.g09.slc.cpg/sg47_12_cif.got.tgz:23642.got - 2010.04.14 03:12:58.
