data_PCOD8196670
_publ_section_title
;
Structure prediction by ZEFSAII (Michael W. Deem and Ramdas Pophale) SiO2 
 PCOD8196670
Probable space group: P M M M
;
_chemical_formula_sum "Si O2"
_cell_formula_units_Z 52
_cell_length_a 23.527388
_cell_length_b 13.742324
_cell_length_c 9.363692
_cell_angle_alpha 90.000000
_cell_angle_beta 90.000000
_cell_angle_gamma 90.000000
_cell_volume 3027.478156
_symmetry_space_group_name_H-M "P M M M"
_symmetry_group_IT_number 47
_symmetry_cell_setting 'orthorhombic'
loop_
_space_group_symop_operation_xyz
x,y,z
-x,-y,z
x,-y,-z
-x,y,-z
-x,-y,-z
x,y,-z
-x,y,z
x,-y,z
loop_
_atom_site_type_symbol
_atom_site_label
_atom_site_fract_x
_atom_site_fract_y
_atom_site_fract_z
Si Si1 0.067194 0.500000 0.340445
Si Si2 0.342396 0.715741 0.338467
Si Si3 0.434836 0.609826 0.833502
Si Si4 0.176121 0.221122 0.164873
Si Si5 0.229532 0.388776 0.661422
Si Si6 0.736269 0.890034 0.333416
Si Si7 0.064027 0.685813 0.836007
O O1 0.093623 0.500000 0.500000
O O2 0.087355 0.403234 0.259378
O O3 0.000000 0.500000 0.346266
O O4 0.363712 0.729540 0.500000
O O5 0.396671 0.689961 0.244237
O O6 0.297089 0.628537 0.326213
O O7 0.313471 0.816622 0.283248
O O8 0.500000 0.636501 0.801527
O O9 0.422042 0.500000 0.778935
O O10 0.421604 0.616242 0.000000
O O11 0.198144 0.324205 0.222148
O O12 0.204746 0.132875 0.251484
O O13 0.107295 0.223140 0.184636
O O14 0.193129 0.209962 0.000000
O O15 0.210178 0.361102 0.500000
O O16 0.215152 0.500000 0.696410
O O17 0.748829 0.873929 0.500000
O O18 0.717247 0.000000 0.299356
O O19 0.000000 0.718015 0.791527
O O20 0.064720 0.650476 0.000000
#
# Coordination Sequence:
#
# PCOD8196670 Si02
#       7
#     4   8   8   8   8   8   8
#     4   9  17  27  41  63  87 117 161 201 226 259
#     4   9  17  30  49  72  94 119 159 201 236 279
#     4   9  18  31  46  68 102 141 172 195 225 267
#     4  10  20  31  47  72  95 118 156 200 238 284
#     4   9  18  31  45  64  95 132 161 192 238 286
#     4   9  19  37  57  73  93 122 153 192 249 305
#     4   9  18  32  46  61  90 129 160 190 234 284
#
# _framework density 17.176010000000002
#
# number of rings (size 3 to 8) (size 9 to 14) (size 15 to 20)
#    0.000    2.846    0.000    2.538    1.077    6.462 
#    0.000    0.769    0.000    0.923    0.000    6.462 
#    0.000    0.000    0.000    0.000    0.000    0.000 
#
# Total GULP energy -644577.886990 kJ/mol
# GULP energy per Si atom -12395.728596 kJ/mol
# Density = 1.713692 g / cm^3
# Si number density = 17.176010 Si / 1000 Ang^3
#
#
#
# Elastic Constant Matrix: (Units=GPa)
#
#
# Indices 1 2 3 4 5 6 
#
# 1 87.4711 39.6192 42.7840 0.0000 0.0000 0.0000
# 2 39.6192 87.3622 33.4618 0.0000 0.0000 0.0000
# 3 42.7840 33.4618 69.0490 0.0000 0.0000 0.0000
# 4 0.0000 0.0000 0.0000 21.8759 0.0000 0.0000
# 5 0.0000 0.0000 0.0000 0.0000 22.0833 0.0000
# 6 0.0000 0.0000 0.0000 0.0000 0.0000 20.3807
#
#
#
# Elastic Compliance Matrix: (Units=1/GPa)
#
#
# Indices 1 2 3 4 5 6 
#
# 1 0.017874 -0.004745 -0.008776 0.000000 0.000000 0.000000
# 2 -0.004745 0.015315 -0.004482 0.000000 0.000000 0.000000
# 3 -0.008776 -0.004482 0.022092 0.000000 0.000000 0.000000
# 4 0.000000 0.000000 0.000000 0.045712 0.000000 0.000000
# 5 0.000000 0.000000 0.000000 0.000000 0.045283 0.000000
# 6 0.000000 0.000000 0.000000 0.000000 0.000000 0.049066
#
#
# Mechanical properties :
#
#
# Convention : Reuss Voigt Hill
#
# Bulk Modulus (GPa) = 51.87687 52.84580 52.36134
# Shear Modulus (GPa) = 21.02856 21.40248 21.21552
#
# Velocity S-wave (km/s) = 3.50279 3.53380 3.51833
# Velocity P-wave (km/s) = 6.82848 6.89089 6.85975
#
# Compressibility (1/GPa) = 0.01927641
#
# Stress axis : x y z
#
# Youngs Moduli (GPa) = 55.94818 65.29557 45.26517
#
# Poissons Ratio (x) = 0.30980 0.39723
# Poissons Ratio (y) = 0.26545 0.20288
# Poissons Ratio (z) = 0.49098 0.29265
#
# Static dielectric constant tensor:
#      x y z
#    x 3.184350 0.000000 0.000000 
#    y 0.000000 3.032330 0.000000 
#    z 0.000000 0.000000 3.222470 
# 
# 
# High freq. dielectric constant tensor:
#      x y z
#    x 1.659190 0.000000 0.000000 
#    y 0.000000 1.631340 0.000000 
#    z 0.000000 0.000000 1.664280 
# 
# From -- ./inp_files/12512.got.cif
#   From: 2010.03.12/outbox.cif.g09.slc.cpg/sg47_7_cif.got.tgz:12512.got - 2010.04.14 03:12:58.
