data_PCOD8196396
_publ_section_title
;
Structure prediction by ZEFSAII (Michael W. Deem and Ramdas Pophale) SiO2 
 PCOD8196396
Probable space group: P M M M
;
_chemical_formula_sum "Si O2"
_cell_formula_units_Z 64
_cell_length_a 28.368624
_cell_length_b 9.066719
_cell_length_c 14.302704
_cell_angle_alpha 90.000000
_cell_angle_beta 90.000000
_cell_angle_gamma 90.000000
_cell_volume 3678.803391
_symmetry_space_group_name_H-M "P M M M"
_symmetry_group_IT_number 47
_symmetry_cell_setting 'orthorhombic'
loop_
_space_group_symop_operation_xyz
x,y,z
-x,-y,z
x,-y,-z
-x,y,-z
-x,-y,-z
x,y,-z
-x,y,z
x,-y,z
loop_
_atom_site_type_symbol
_atom_site_label
_atom_site_fract_x
_atom_site_fract_y
_atom_site_fract_z
Si Si1 0.947983 0.175564 0.395942
Si Si2 0.769258 0.825166 0.767121
Si Si3 0.627415 0.334124 0.274141
Si Si4 0.306104 0.325577 0.108609
Si Si5 0.051124 0.824780 0.102815
Si Si6 0.124579 0.824197 0.246852
Si Si7 0.718202 0.332951 0.393010
Si Si8 0.446028 0.826554 0.395456
O O1 0.940593 0.236241 0.500000
O O2 0.903675 0.237289 0.337023
O O3 0.000000 0.226406 0.358830
O O4 0.946885 0.000000 0.393722
O O5 0.741329 0.751925 0.853699
O O6 0.822653 0.763997 0.765123
O O7 0.748809 0.780286 0.666823
O O8 0.766368 0.000000 0.779489
O O9 0.609457 0.500000 0.258514
O O10 0.650095 0.275913 0.175535
O O11 0.664970 0.326085 0.357316
O O12 0.583468 0.239243 0.309233
O O13 0.298609 0.500000 0.119359
O O14 0.315487 0.281419 0.000000
O O15 0.094257 0.760377 0.161241
O O16 0.000000 0.780831 0.145751
O O17 0.054785 0.000000 0.099876
O O18 0.055752 0.757310 0.000000
O O19 0.126209 0.000000 0.249375
O O20 0.719846 0.280403 0.500000
O O21 0.737525 0.500000 0.381756
O O22 0.430901 0.770471 0.500000
O O23 0.500000 0.781789 0.377718
O O24 0.439277 0.000000 0.391691
#
# Coordination Sequence:
#
# PCOD8196396 Si02
#       8
#     8   8   8   8   8   8   8   8
#     4   8  13  21  33  48  69 105 150 183 208 252
#     4  10  20  30  43  69  99 122 148 187 236 287
#     4   9  17  30  50  74  93 114 156 207 243 271
#     4   9  19  37  56  69  88 123 163 202 243 286
#     4   8  13  21  33  48  68 100 139 170 202 256
#     4   9  16  24  34  52  82 114 138 169 219 272
#     4   9  18  33  50  66  90 126 163 197 232 273
#     4   9  18  31  46  69 105 143 168 186 220 275
#
# _framework density 17.396961000000001
#
# number of rings (size 3 to 8) (size 9 to 14) (size 15 to 20)
#    0.000    3.125    0.000    3.000    0.000    6.000 
#    0.000    3.125    0.000    0.375    0.000    2.625 
#    0.000    8.000    0.000   22.000    0.000   18.000 
#
# Total GULP energy -792916.111598 kJ/mol
# GULP energy per Si atom -12389.314244 kJ/mol
# Density = 1.735736 g / cm^3
# Si number density = 17.396961 Si / 1000 Ang^3
#
#
#
# Elastic Constant Matrix: (Units=GPa)
#
#
# Indices 1 2 3 4 5 6 
#
# 1 122.5009 31.7412 69.6576 0.0000 0.0000 0.0000
# 2 31.7412 28.7441 25.4133 0.0000 0.0000 0.0000
# 3 69.6576 25.4133 137.5409 0.0000 0.0000 0.0000
# 4 0.0000 0.0000 0.0000 19.4045 0.0000 0.0000
# 5 0.0000 0.0000 0.0000 0.0000 40.5607 0.0000
# 6 0.0000 0.0000 0.0000 0.0000 0.0000 -2.4742
#
#
#
# Elastic Compliance Matrix: (Units=1/GPa)
#
#
# Indices 1 2 3 4 5 6 
#
# 1 0.013809 -0.010836 -0.004992 0.000000 0.000000 0.000000
# 2 -0.010836 0.050086 -0.003766 0.000000 0.000000 0.000000
# 3 -0.004992 -0.003766 0.010494 0.000000 0.000000 0.000000
# 4 0.000000 0.000000 0.000000 0.051534 0.000000 0.000000
# 5 0.000000 0.000000 0.000000 0.000000 0.024654 0.000000
# 6 0.000000 0.000000 0.000000 0.000000 0.000000 -0.404176
#
#
# Mechanical properties :
#
#
# Convention : Reuss Voigt Hill
#
# Bulk Modulus (GPa) = 28.40793 60.26778 44.33786
# Shear Modulus (GPa) = -24.66993 22.29646 -1.18673
#
# Velocity S-wave (km/s) = -3.76980 3.58387 -0.82682
# Velocity P-wave (km/s) = 1.60742 7.20024 4.96284
#
# Compressibility (1/GPa) = 0.03520144
#
# Stress axis : x y z
#
# Youngs Moduli (GPa) = 72.41514 19.96582 95.28854
#
# Poissons Ratio (x) = 0.21635 0.47564
# Poissons Ratio (y) = 0.78469 0.35889
# Poissons Ratio (z) = 0.36146 0.07520
#
# Static dielectric constant tensor:
#      x y z
#    x 3.321970 0.000000 0.000000 
#    y 0.000000 2.808050 0.000000 
#    z 0.000000 0.000000 3.482680 
# 
# 
# High freq. dielectric constant tensor:
#      x y z
#    x 1.667990 0.000000 0.000000 
#    y 0.000000 1.626250 0.000000 
#    z 0.000000 0.000000 1.675170 
# 
# From -- ./inp_files/25855.got.cif
#   From: 2010.03.12/outbox.cif.g09.slc.cpg/sg47_13_cif.got.tgz:25855.got - 2010.04.14 03:12:58.
