data_PCOD8196240
_publ_section_title
;
Structure prediction by ZEFSAII (Michael W. Deem and Ramdas Pophale) SiO2 
 PCOD8196240
Probable space group: P M M M
;
_chemical_formula_sum "Si O2"
_cell_formula_units_Z 32
_cell_length_a 7.811374
_cell_length_b 8.100622
_cell_length_c 23.923532
_cell_angle_alpha 90.000000
_cell_angle_beta 90.000000
_cell_angle_gamma 90.000000
_cell_volume 1513.809049
_symmetry_space_group_name_H-M "P M M M"
_symmetry_group_IT_number 47
_symmetry_cell_setting 'orthorhombic'
loop_
_space_group_symop_operation_xyz
x,y,z
-x,-y,z
x,-y,-z
-x,y,-z
-x,-y,-z
x,y,-z
-x,y,z
x,-y,z
loop_
_atom_site_type_symbol
_atom_site_label
_atom_site_fract_x
_atom_site_fract_y
_atom_site_fract_z
Si Si1 0.691788 0.694326 0.637083
Si Si2 0.698294 0.180699 0.126995
Si Si3 0.000000 0.192004 0.561599
Si Si4 0.704283 0.500000 0.063776
Si Si5 0.202400 0.687852 0.757317
O O1 0.500000 0.745773 0.618281
O O2 0.714821 0.500000 0.639455
O O3 0.727738 0.763465 0.699249
O O4 0.827448 0.761129 0.593343
O O5 0.500000 0.177416 0.112173
O O6 0.782070 0.334708 0.093170
O O7 0.723373 0.202924 0.192958
O O8 0.776676 0.000000 0.110102
O O9 0.000000 0.276398 0.500000
O O10 0.000000 0.000000 0.553789
O O11 0.500000 0.500000 0.069078
O O12 0.765718 0.500000 0.000000
O O13 0.266465 0.500000 0.765676
O O14 0.000000 0.697587 0.756704
#
# Coordination Sequence:
#
# PCOD8196240 Si02
#       5
#     8   8   4   4   8
#     4  10  21  39  65  93 120 156 204 259 315 369
#     4  10  20  33  53  82 113 150 196 243 301 370
#     4  11  25  43  61  85 125 171 209 252 305 366
#     4   9  18  34  55  79 113 153 193 248 305 353
#     4  10  19  34  58  85 117 153 190 241 308 372
#
# _framework density 21.138729000000001
#
# number of rings (size 3 to 8) (size 9 to 14) (size 15 to 20)
#    0.000    2.000    2.500    1.125    0.000    5.000 
#    0.000    5.000    0.000    1.500    0.000    1.750 
#    0.000    0.000    0.000    0.000    0.000    0.000 
#
# Total GULP energy -396687.473917 kJ/mol
# GULP energy per Si atom -12396.483560 kJ/mol
# Density = 2.109062 g / cm^3
# Si number density = 21.138729 Si / 1000 Ang^3
#
#
#
# Elastic Constant Matrix: (Units=GPa)
#
#
# Indices 1 2 3 4 5 6 
#
# 1 62.4833 30.1753 37.1267 0.0000 0.0000 0.0000
# 2 30.1753 133.0156 72.6294 0.0000 0.0000 0.0000
# 3 37.1267 72.6294 168.4845 0.0000 0.0000 0.0000
# 4 0.0000 0.0000 0.0000 42.0595 0.0000 0.0000
# 5 0.0000 0.0000 0.0000 0.0000 88.9115 0.0000
# 6 0.0000 0.0000 0.0000 0.0000 0.0000 11.4954
#
#
#
# Elastic Compliance Matrix: (Units=1/GPa)
#
#
# Indices 1 2 3 4 5 6 
#
# 1 0.019110 -0.002663 -0.003063 0.000000 0.000000 0.000000
# 2 -0.002663 0.010203 -0.003812 0.000000 0.000000 0.000000
# 3 -0.003063 -0.003812 0.008253 0.000000 0.000000 0.000000
# 4 0.000000 0.000000 0.000000 0.023776 0.000000 0.000000
# 5 0.000000 0.000000 0.000000 0.000000 0.011247 0.000000
# 6 0.000000 0.000000 0.000000 0.000000 0.000000 0.086991
#
#
# Mechanical properties :
#
#
# Convention : Reuss Voigt Hill
#
# Bulk Modulus (GPa) = 54.07806 71.53845 62.80826
# Shear Modulus (GPa) = 27.05331 43.43008 35.24170
#
# Velocity S-wave (km/s) = 3.58131 4.53761 4.08752
# Velocity P-wave (km/s) = 6.53751 7.83384 7.21485
#
# Compressibility (1/GPa) = 0.01849179
#
# Stress axis : x y z
#
# Youngs Moduli (GPa) = 52.32775 98.00882 121.16272
#
# Poissons Ratio (x) = 0.26096 0.37116
# Poissons Ratio (y) = 0.13933 0.46182
# Poissons Ratio (z) = 0.16029 0.37357
#
# Static dielectric constant tensor:
#      x y z
#    x 3.633770 0.000000 0.000000 
#    y 0.000000 4.043170 0.000000 
#    z 0.000000 0.000000 4.247410 
# 
# 
# High freq. dielectric constant tensor:
#      x y z
#    x 1.815500 0.000000 0.000000 
#    y 0.000000 1.826060 0.000000 
#    z 0.000000 0.000000 1.824180 
# 
# From -- ./inp_files/31604.got.cif
#   From: 2010.03.12/outbox.cif.g09.slc.cpg/sg47_16_cif.got.tgz:31604.got - 2010.04.14 03:12:58.
