data_PCOD8196056
_publ_section_title
;
Structure prediction by ZEFSAII (Michael W. Deem and Ramdas Pophale) SiO2 
 PCOD8196056
Probable space group: P M M M
;
_chemical_formula_sum "Si O2"
_cell_formula_units_Z 52
_cell_length_a 8.746707
_cell_length_b 28.028154
_cell_length_c 11.629074
_cell_angle_alpha 90.000000
_cell_angle_beta 90.000000
_cell_angle_gamma 90.000000
_cell_volume 2850.914598
_symmetry_space_group_name_H-M "P M M M"
_symmetry_group_IT_number 47
_symmetry_cell_setting 'orthorhombic'
loop_
_space_group_symop_operation_xyz
x,y,z
-x,-y,z
x,-y,-z
-x,y,-z
-x,-y,-z
x,y,-z
-x,y,z
x,-y,z
loop_
_atom_site_type_symbol
_atom_site_label
_atom_site_fract_x
_atom_site_fract_y
_atom_site_fract_z
Si Si1 0.181456 0.446854 0.871668
Si Si2 0.819877 0.214693 0.500000
Si Si3 0.825663 0.266865 0.132499
Si Si4 0.672074 0.000000 0.136453
Si Si5 0.321707 0.816065 0.731138
Si Si6 0.177286 0.902536 0.135392
Si Si7 0.321461 0.319268 0.500000
Si Si8 0.823443 0.360198 0.722322
O O1 0.231170 0.500000 0.831913
O O2 0.243362 0.408379 0.780198
O O3 0.000000 0.442628 0.876618
O O4 0.246174 0.436539 0.000000
O O5 0.765377 0.185651 0.610593
O O6 0.761524 0.268661 0.500000
O O7 0.000000 0.217648 0.500000
O O8 0.713198 0.230905 0.195684
O O9 0.804506 0.319027 0.183879
O O10 0.000000 0.248785 0.148196
O O11 0.779169 0.269098 0.000000
O O12 0.762047 0.953474 0.180097
O O13 0.500000 0.000000 0.186533
O O14 0.667945 0.000000 0.000000
O O15 0.500000 0.818411 0.705725
O O16 0.271805 0.862328 0.800536
O O17 0.000000 0.898028 0.166686
O O18 0.205161 0.896286 0.000000
O O19 0.500000 0.308971 0.500000
O O20 0.276762 0.349748 0.389042
O O21 0.000000 0.365622 0.684884
#
# Coordination Sequence:
#
# PCOD8196056 Si02
#       8
#     8   4   8   4   8   8   4   8
#     4   8  14  27  51  84 115 139 172 223 276 323
#     4  12  24  42  62  78 102 142 188 231 275 332
#     4  10  20  33  51  77 109 144 181 221 269 328
#     4   9  17  31  53  82 115 150 189 235 286 333
#     4  12  24  37  55  81 112 145 183 229 278 328
#     4  10  20  35  56  83 116 154 193 231 275 330
#     4  12  24  38  55  77 105 140 182 230 275 324
#     4  10  19  33  55  79 106 143 183 224 272 326
#
# _framework density 18.239761000000001
#
# number of rings (size 3 to 8) (size 9 to 14) (size 15 to 20)
#    0.000    1.769    1.538    4.846    0.000    5.846 
#    0.000    0.385    0.000    4.615    0.000    4.308 
#    0.000    0.000    0.000    0.000    0.000    0.000 
#
# Total GULP energy -644918.186646 kJ/mol
# GULP energy per Si atom -12402.272820 kJ/mol
# Density = 1.819825 g / cm^3
# Si number density = 18.239761 Si / 1000 Ang^3
#
#
#
# Elastic Constant Matrix: (Units=GPa)
#
#
# Indices 1 2 3 4 5 6 
#
# 1 108.6885 41.7247 42.0282 0.0000 0.0000 0.0000
# 2 41.7247 105.0292 26.5535 0.0000 0.0000 0.0000
# 3 42.0282 26.5535 81.7894 0.0000 0.0000 0.0000
# 4 0.0000 0.0000 0.0000 19.2487 0.0000 0.0000
# 5 0.0000 0.0000 0.0000 0.0000 14.3255 0.0000
# 6 0.0000 0.0000 0.0000 0.0000 0.0000 2.0753
#
#
#
# Elastic Compliance Matrix: (Units=1/GPa)
#
#
# Indices 1 2 3 4 5 6 
#
# 1 0.012672 -0.003691 -0.005313 0.000000 0.000000 0.000000
# 2 -0.003691 0.011448 -0.001820 0.000000 0.000000 0.000000
# 3 -0.005313 -0.001820 0.015548 0.000000 0.000000 0.000000
# 4 0.000000 0.000000 0.000000 0.051952 0.000000 0.000000
# 5 0.000000 0.000000 0.000000 0.000000 0.069806 0.000000
# 6 0.000000 0.000000 0.000000 0.000000 0.000000 0.481862
#
#
# Mechanical properties :
#
#
# Convention : Reuss Voigt Hill
#
# Bulk Modulus (GPa) = 55.49718 57.34665 56.42192
# Shear Modulus (GPa) = 7.45222 19.47660 13.46441
#
# Velocity S-wave (km/s) = 2.02350 3.27128 2.71991
# Velocity P-wave (km/s) = 5.99600 6.76588 6.39254
#
# Compressibility (1/GPa) = 0.01801893
#
# Stress axis : x y z
#
# Youngs Moduli (GPa) = 78.91335 87.35490 64.31810
#
# Poissons Ratio (x) = 0.32242 0.34175
# Poissons Ratio (y) = 0.29126 0.11706
# Poissons Ratio (z) = 0.41930 0.15898
#
# Static dielectric constant tensor:
#      x y z
#    x 3.282390 0.000000 0.000000 
#    y 0.000000 3.561020 0.000000 
#    z 0.000000 0.000000 3.405040 
# 
# 
# High freq. dielectric constant tensor:
#      x y z
#    x 1.695960 0.000000 0.000000 
#    y 0.000000 1.713040 0.000000 
#    z 0.000000 0.000000 1.697940 
# 
# From -- ./inp_files/15564.got.cif
#   From: 2010.03.12/outbox.cif.g09.slc.cpg/sg47_8_cif.got.tgz:15564.got - 2010.04.14 03:12:58.
