data_PCOD8196754
_publ_section_title
;
Structure prediction by ZEFSAII (Michael W. Deem and Ramdas Pophale) SiO2 
 PCOD8196754
Probable space group: P M M M
;
_chemical_formula_sum "Si O2"
_cell_formula_units_Z 44
_cell_length_a 9.179935
_cell_length_b 14.321775
_cell_length_c 20.723031
_cell_angle_alpha 90.000000
_cell_angle_beta 90.000000
_cell_angle_gamma 90.000000
_cell_volume 2724.518300
_symmetry_space_group_name_H-M "P M M M"
_symmetry_group_IT_number 47
_symmetry_cell_setting 'orthorhombic'
loop_
_space_group_symop_operation_xyz
x,y,z
-x,-y,z
x,-y,-z
-x,y,-z
-x,-y,-z
x,y,-z
-x,y,z
x,-y,z
loop_
_atom_site_type_symbol
_atom_site_label
_atom_site_fract_x
_atom_site_fract_y
_atom_site_fract_z
Si Si1 0.171336 0.794795 0.312092
Si Si2 0.333344 0.109730 0.573346
Si Si3 0.157400 0.609625 0.500000
Si Si4 0.667572 0.889704 0.194469
Si Si5 0.827040 0.397286 0.362211
Si Si6 0.836428 0.110900 0.929041
O O1 0.223926 0.838519 0.379094
O O2 0.249221 0.841180 0.252167
O O3 0.211495 0.683932 0.311239
O O4 0.000000 0.811957 0.305638
O O5 0.299773 0.141878 0.500000
O O6 0.500000 0.133876 0.591732
O O7 0.307238 0.000000 0.580349
O O8 0.131126 0.500000 0.500000
O O9 0.241142 0.632873 0.432558
O O10 0.000000 0.661307 0.500000
O O11 0.500000 0.861555 0.198028
O O12 0.729751 0.851166 0.126486
O O13 0.690698 0.000000 0.201016
O O14 0.768727 0.500000 0.339476
O O15 0.000000 0.403167 0.371779
O O16 0.000000 0.146788 0.914928
O O17 0.834437 0.000000 0.928819
O O18 0.784901 0.146587 0.000000
#
# Coordination Sequence:
#
# PCOD8196754 Si02
#       6
#     8   8   4   8   8   8
#     4  11  21  29  45  69  89 111 145 190 231 265
#     4   9  19  35  49  59  79 115 152 183 221 270
#     4   7  10  20  38  56  76 101 126 160 213 273
#     4  10  20  32  45  62  90 128 161 184 211 257
#     4   8  15  27  42  62  87 111 136 174 228 284
#     4   8  14  26  45  68  93 119 147 183 223 255
#
# _framework density 16.149643000000001
#
# number of rings (size 3 to 8) (size 9 to 14) (size 15 to 20)
#    0.000    3.000    0.000    3.818    1.273    4.364 
#    0.000    2.727    0.000    2.182    0.000    1.273 
#    0.000    0.727    0.000    8.364    0.000    2.727 
#
# Total GULP energy -545120.007255 kJ/mol
# GULP energy per Si atom -12389.091074 kJ/mol
# Density = 1.611289 g / cm^3
# Si number density = 16.149643 Si / 1000 Ang^3
#
#
#
# Elastic Constant Matrix: (Units=GPa)
#
#
# Indices 1 2 3 4 5 6 
#
# 1 84.6727 38.8736 65.2669 0.0000 0.0000 0.0000
# 2 38.8736 47.0401 43.8936 0.0000 0.0000 0.0000
# 3 65.2669 43.8936 117.7525 0.0000 0.0000 0.0000
# 4 0.0000 0.0000 0.0000 4.4166 0.0000 0.0000
# 5 0.0000 0.0000 0.0000 0.0000 26.7873 0.0000
# 6 0.0000 0.0000 0.0000 0.0000 0.0000 6.2129
#
#
#
# Elastic Compliance Matrix: (Units=1/GPa)
#
#
# Indices 1 2 3 4 5 6 
#
# 1 0.024038 -0.011396 -0.009075 0.000000 0.000000 0.000000
# 2 -0.011396 0.037999 -0.007848 0.000000 0.000000 0.000000
# 3 -0.009075 -0.007848 0.016448 0.000000 0.000000 0.000000
# 4 0.000000 0.000000 0.000000 0.226420 0.000000 0.000000
# 5 0.000000 0.000000 0.000000 0.000000 0.037331 0.000000
# 6 0.000000 0.000000 0.000000 0.000000 0.000000 0.160955
#
#
# Mechanical properties :
#
#
# Convention : Reuss Voigt Hill
#
# Bulk Modulus (GPa) = 45.77550 60.61483 53.19517
# Shear Modulus (GPa) = 8.81660 14.24543 11.53102
#
# Velocity S-wave (km/s) = 2.33905 2.97322 2.67500
# Velocity P-wave (km/s) = 5.97503 7.02862 6.52313
#
# Compressibility (1/GPa) = 0.02184574
#
# Stress axis : x y z
#
# Youngs Moduli (GPa) = 41.60143 26.31627 60.79759
#
# Poissons Ratio (x) = 0.29991 0.55176
# Poissons Ratio (y) = 0.47410 0.47714
# Poissons Ratio (z) = 0.37755 0.20653
#
# Static dielectric constant tensor:
#      x y z
#    x 2.926120 0.000000 0.000000 
#    y 0.000000 2.954060 0.000000 
#    z 0.000000 0.000000 3.318850 
# 
# 
# High freq. dielectric constant tensor:
#      x y z
#    x 1.602970 0.000000 0.000000 
#    y 0.000000 1.588290 0.000000 
#    z 0.000000 0.000000 1.616350 
# 
# From -- ./inp_files/29446.got.cif
#   From: 2010.03.12/outbox.cif.g09.slc.cpg/sg47_15_cif.got.tgz:29446.got - 2010.04.14 03:12:58.
