data_PCOD8196555
_publ_section_title
;
Structure prediction by ZEFSAII (Michael W. Deem and Ramdas Pophale) SiO2 
 PCOD8196555
Probable space group: P M M M
;
_chemical_formula_sum "Si O2"
_cell_formula_units_Z 64
_cell_length_a 17.810838
_cell_length_b 9.400965
_cell_length_c 22.827433
_cell_angle_alpha 90.000000
_cell_angle_beta 90.000000
_cell_angle_gamma 90.000000
_cell_volume 3822.204030
_symmetry_space_group_name_H-M "P M M M"
_symmetry_group_IT_number 47
_symmetry_cell_setting 'orthorhombic'
loop_
_space_group_symop_operation_xyz
x,y,z
-x,-y,z
x,-y,-z
-x,y,-z
-x,-y,-z
x,y,-z
-x,y,z
x,-y,z
loop_
_atom_site_type_symbol
_atom_site_label
_atom_site_fract_x
_atom_site_fract_y
_atom_site_fract_z
Si Si1 0.202836 0.665373 0.433099
Si Si2 0.705689 0.160467 0.837389
Si Si3 0.224495 0.665770 0.931962
Si Si4 0.201053 0.159096 0.267696
Si Si5 0.915849 0.163795 0.357833
Si Si6 0.584928 0.834036 0.740144
Si Si7 0.684783 0.335369 0.337365
Si Si8 0.917391 0.841432 0.930610
O O1 0.210123 0.714300 0.500000
O O2 0.181532 0.500000 0.427272
O O3 0.135997 0.752905 0.403348
O O4 0.284633 0.693470 0.403276
O O5 0.709242 0.262186 0.893950
O O6 0.785606 0.171464 0.802153
O O7 0.637352 0.209115 0.795157
O O8 0.691857 0.000000 0.859560
O O9 0.223209 0.500000 0.918912
O O10 0.145114 0.729486 0.910248
O O11 0.240364 0.698844 0.000000
O O12 0.115763 0.177781 0.290779
O O13 0.248076 0.285324 0.295965
O O14 0.230188 0.000000 0.286867
O O15 0.000000 0.226896 0.358604
O O16 0.916363 0.000000 0.377549
O O17 0.500000 0.789816 0.755388
O O18 0.610562 0.753028 0.680589
O O19 0.592007 0.000000 0.726889
O O20 0.667285 0.500000 0.326592
O O21 0.000000 0.797582 0.906149
O O22 0.895896 0.000000 0.908126
O O23 0.920997 0.842647 0.000000
#
# Coordination Sequence:
#
# PCOD8196555 Si02
#       8
#     8   8   8   8   8   8   8   8
#     4   9  18  31  45  63  91 128 165 197 230 269
#     4   9  17  30  49  70  90 115 149 186 223 270
#     4  10  20  31  44  65  94 127 158 188 226 271
#     4   8  15  29  46  63  86 117 151 188 235 281
#     4   9  17  29  45  65  90 120 156 200 244 281
#     4   9  18  33  53  76  99 119 141 177 228 280
#     4   9  16  27  46  70  92 116 151 190 224 264
#     4   8  14  26  44  63  82 108 146 189 226 259
#
# _framework density 16.744266
#
# number of rings (size 3 to 8) (size 9 to 14) (size 15 to 20)
#    0.000    3.125    0.000    1.875    0.000    4.500 
#    0.000    3.125    0.000    3.000    0.000    5.250 
#    0.000    0.000    0.000    0.000    0.000    0.000 
#
# Total GULP energy -792878.730806 kJ/mol
# GULP energy per Si atom -12388.730169 kJ/mol
# Density = 1.670616 g / cm^3
# Si number density = 16.744266 Si / 1000 Ang^3
#
#
#
# Elastic Constant Matrix: (Units=GPa)
#
#
# Indices 1 2 3 4 5 6 
#
# 1 108.0184 49.4559 55.2806 0.0000 0.0000 0.0000
# 2 49.4559 70.7831 45.4629 0.0000 0.0000 0.0000
# 3 55.2806 45.4629 79.1122 0.0000 0.0000 0.0000
# 4 0.0000 0.0000 0.0000 23.7454 0.0000 0.0000
# 5 0.0000 0.0000 0.0000 0.0000 18.9051 0.0000
# 6 0.0000 0.0000 0.0000 0.0000 0.0000 20.4269
#
#
#
# Elastic Compliance Matrix: (Units=1/GPa)
#
#
# Indices 1 2 3 4 5 6 
#
# 1 0.016030 -0.006349 -0.007552 0.000000 0.000000 0.000000
# 2 -0.006349 0.024908 -0.009877 0.000000 0.000000 0.000000
# 3 -0.007552 -0.009877 0.023593 0.000000 0.000000 0.000000
# 4 0.000000 0.000000 0.000000 0.042113 0.000000 0.000000
# 5 0.000000 0.000000 0.000000 0.000000 0.052896 0.000000
# 6 0.000000 0.000000 0.000000 0.000000 0.000000 0.048955
#
#
# Mechanical properties :
#
#
# Convention : Reuss Voigt Hill
#
# Bulk Modulus (GPa) = 58.91384 62.03473 60.47428
# Shear Modulus (GPa) = 19.10514 19.79644 19.45079
#
# Velocity S-wave (km/s) = 3.38153 3.44216 3.41198
# Velocity P-wave (km/s) = 7.10684 7.27508 7.19145
#
# Compressibility (1/GPa) = 0.01697394
#
# Stress axis : x y z
#
# Youngs Moduli (GPa) = 62.38440 40.14837 42.38472
#
# Poissons Ratio (x) = 0.25491 0.32010
# Poissons Ratio (y) = 0.39609 0.41863
# Poissons Ratio (z) = 0.47114 0.39654
#
# Static dielectric constant tensor:
#      x y z
#    x 3.182840 0.000000 0.000000 
#    y 0.000000 3.151490 0.000000 
#    z 0.000000 0.000000 3.077570 
# 
# 
# High freq. dielectric constant tensor:
#      x y z
#    x 1.624630 0.000000 0.000000 
#    y 0.000000 1.646350 0.000000 
#    z 0.000000 0.000000 1.624840 
# 
# From -- ./inp_files/28895.got.cif
#   From: 2010.03.12/outbox.cif.g09.slc.cpg/sg47_15_cif.got.tgz:28895.got - 2010.04.14 03:12:58.
