data_PCOD8196071
_publ_section_title
;
Structure prediction by ZEFSAII (Michael W. Deem and Ramdas Pophale) SiO2 
 PCOD8196071
Probable space group: P M M M
;
_chemical_formula_sum "Si O2"
_cell_formula_units_Z 48
_cell_length_a 16.800245
_cell_length_b 16.020105
_cell_length_c 9.103091
_cell_angle_alpha 90.000000
_cell_angle_beta 90.000000
_cell_angle_gamma 90.000000
_cell_volume 2450.021286
_symmetry_space_group_name_H-M "P M M M"
_symmetry_group_IT_number 47
_symmetry_cell_setting 'orthorhombic'
loop_
_space_group_symop_operation_xyz
x,y,z
-x,-y,z
x,-y,-z
-x,y,-z
-x,-y,-z
x,y,-z
-x,y,z
x,-y,z
loop_
_atom_site_type_symbol
_atom_site_label
_atom_site_fract_x
_atom_site_fract_y
_atom_site_fract_z
Si Si1 0.907587 0.753426 0.172370
Si Si2 0.819976 0.590810 0.828975
Si Si3 0.826050 0.093643 0.331251
Si Si4 0.653752 0.337675 0.169655
Si Si5 0.500000 0.404646 0.673371
Si Si6 0.662560 0.173899 0.669044
Si Si7 0.500000 0.907906 0.325691
O O1 0.866277 0.669958 0.241788
O O2 0.873983 0.838117 0.240313
O O3 0.000000 0.746922 0.209551
O O4 0.890372 0.758229 0.000000
O O5 0.846013 0.500000 0.762148
O O6 0.725030 0.597214 0.805561
O O7 0.841027 0.590997 0.000000
O O8 0.851458 0.104174 0.500000
O O9 0.730992 0.104697 0.314605
O O10 0.847042 0.000000 0.275734
O O11 0.577900 0.361316 0.264754
O O12 0.687179 0.249691 0.226177
O O13 0.628854 0.332341 0.000000
O O14 0.500000 0.500000 0.723959
O O15 0.500000 0.393750 0.500000
O O16 0.654991 0.203718 0.500000
O O17 0.578814 0.139073 0.728765
O O18 0.500000 0.914292 0.500000
O O19 0.500000 0.000000 0.256111
#
# Coordination Sequence:
#
# PCOD8196071 Si02
#       7
#     8   8   8   8   4   8   4
#     4  10  21  38  60  86 115 146 186 239 295 350
#     4   9  18  34  57  85 115 147 185 231 285 345
#     4  10  21  37  58  84 116 156 198 237 282 342
#     4  11  21  35  57  82 113 151 191 234 284 340
#     4  11  24  39  54  78 114 153 196 242 285 331
#     4  10  19  33  55  81 111 147 189 234 282 337
#     4   9  17  30  50  76 104 137 182 232 275 321
#
# _framework density 19.591666
#
# number of rings (size 3 to 8) (size 9 to 14) (size 15 to 20)
#    0.000    2.000    1.667    2.250    0.000    5.333 
#    0.000    3.333    0.000    3.500    0.000    1.167 
#    0.000    0.000    0.000    0.000    0.000    0.000 
#
# Total GULP energy -595116.409704 kJ/mol
# GULP energy per Si atom -12398.258536 kJ/mol
# Density = 1.954707 g / cm^3
# Si number density = 19.591666 Si / 1000 Ang^3
#
#
#
# Elastic Constant Matrix: (Units=GPa)
#
#
# Indices 1 2 3 4 5 6 
#
# 1 97.1048 59.2610 32.0781 0.0000 0.0000 0.0000
# 2 59.2610 167.3855 34.7589 0.0000 0.0000 0.0000
# 3 32.0781 34.7589 36.2748 0.0000 0.0000 0.0000
# 4 0.0000 0.0000 0.0000 25.2698 0.0000 0.0000
# 5 0.0000 0.0000 0.0000 0.0000 0.2082 0.0000
# 6 0.0000 0.0000 0.0000 0.0000 0.0000 20.6902
#
#
#
# Elastic Compliance Matrix: (Units=1/GPa)
#
#
# Indices 1 2 3 4 5 6 
#
# 1 0.015957 -0.003395 -0.010858 0.000000 0.000000 0.000000
# 2 -0.003395 0.008180 -0.004837 0.000000 0.000000 0.000000
# 3 -0.010858 -0.004837 0.041804 0.000000 0.000000 0.000000
# 4 0.000000 0.000000 0.000000 0.039573 0.000000 0.000000
# 5 0.000000 0.000000 0.000000 0.000000 4.802768 0.000000
# 6 0.000000 0.000000 0.000000 0.000000 0.000000 0.048332
#
#
# Mechanical properties :
#
#
# Convention : Reuss Voigt Hill
#
# Bulk Modulus (GPa) = 36.01992 61.44011 48.73002
# Shear Modulus (GPa) = 0.99919 20.87811 10.93865
#
# Velocity S-wave (km/s) = 0.71492 3.26799 2.36547
# Velocity P-wave (km/s) = 4.37112 6.75782 5.69099
#
# Compressibility (1/GPa) = 0.02776241
#
# Stress axis : x y z
#
# Youngs Moduli (GPa) = 62.66992 122.24306 23.92130
#
# Poissons Ratio (x) = 0.41496 0.25973
# Poissons Ratio (y) = 0.21274 0.11570
# Poissons Ratio (z) = 0.68046 0.59126
#
# Static dielectric constant tensor:
#      x y z
#    x 3.683550 0.000000 0.000000 
#    y 0.000000 3.859570 0.000000 
#    z 0.000000 0.000000 3.265420 
# 
# 
# High freq. dielectric constant tensor:
#      x y z
#    x 1.767550 0.000000 0.000000 
#    y 0.000000 1.778730 0.000000 
#    z 0.000000 0.000000 1.727730 
# 
# From -- ./inp_files/9234.got.cif
#   From: 2010.03.12/outbox.cif.g09.slc.cpg/sg47_5_cif.got.tgz:9234.got - 2010.04.14 03:12:58.
