data_PCOD8196511
_publ_section_title
;
Structure prediction by ZEFSAII (Michael W. Deem and Ramdas Pophale) SiO2 
 PCOD8196511
Probable space group: P M M M
;
_chemical_formula_sum "Si O2"
_cell_formula_units_Z 64
_cell_length_a 31.385034
_cell_length_b 9.154351
_cell_length_c 14.227240
_cell_angle_alpha 90.000000
_cell_angle_beta 90.000000
_cell_angle_gamma 90.000000
_cell_volume 4087.622881
_symmetry_space_group_name_H-M "P M M M"
_symmetry_group_IT_number 47
_symmetry_cell_setting 'orthorhombic'
loop_
_space_group_symop_operation_xyz
x,y,z
-x,-y,z
x,-y,-z
-x,y,-z
-x,-y,-z
x,y,-z
-x,y,z
x,-y,z
loop_
_atom_site_type_symbol
_atom_site_label
_atom_site_fract_x
_atom_site_fract_y
_atom_site_fract_z
Si Si1 0.877586 0.831050 0.107899
Si Si2 0.281576 0.666557 0.111498
Si Si3 0.182860 0.669834 0.393877
Si Si4 0.952003 0.672846 0.793088
Si Si5 0.793149 0.827056 0.784035
Si Si6 0.085737 0.673220 0.601558
Si Si7 0.636256 0.164600 0.887651
Si Si8 0.454892 0.173554 0.894754
O O1 0.920053 0.742514 0.132519
O O2 0.838066 0.777216 0.170805
O O3 0.887278 0.000000 0.126346
O O4 0.865702 0.800936 0.000000
O O5 0.277356 0.500000 0.145501
O O6 0.244081 0.762467 0.153301
O O7 0.326624 0.729078 0.148858
O O8 0.278837 0.679434 0.000000
O O9 0.199396 0.697827 0.500000
O O10 0.187067 0.500000 0.367487
O O11 0.210707 0.764392 0.321486
O O12 0.134264 0.723795 0.384312
O O13 0.945741 0.500000 0.796413
O O14 0.942506 0.733107 0.687632
O O15 0.000000 0.717742 0.820334
O O16 0.788457 0.000000 0.782678
O O17 0.068848 0.732589 0.500000
O O18 0.084083 0.500000 0.599136
O O19 0.590121 0.223603 0.847496
O O20 0.645850 0.000000 0.851920
O O21 0.633822 0.165055 0.000000
O O22 0.500000 0.221761 0.843842
O O23 0.452750 0.000000 0.899100
O O24 0.456758 0.237035 0.000000
#
# Coordination Sequence:
#
# PCOD8196511 Si02
#       8
#     8   8   8   8   8   8   8   8
#     4  10  22  38  52  66  86 115 147 178 215 256
#     4  10  20  31  43  61  86 117 151 187 229 273
#     4   9  17  31  52  74  95 118 141 167 204 254
#     4  10  20  33  51  74  95 114 141 176 208 244
#     4  11  21  33  51  71  90 112 143 184 221 259
#     4   8  14  27  48  72  96 118 137 161 197 242
#     4   8  13  22  36  53  76 107 143 185 228 266
#     4   7   9  14  27  48  71  97 135 182 226 264
#
# _framework density 15.657021
#
# number of rings (size 3 to 8) (size 9 to 14) (size 15 to 20)
#    0.000    2.875    1.250    3.000    0.000    3.000 
#    0.000    2.500    0.000    0.750    0.000    3.500 
#    0.000    0.000    0.000    0.000    0.000    0.625 
#
# Total GULP energy -792991.289690 kJ/mol
# GULP energy per Si atom -12390.488901 kJ/mol
# Density = 1.562138 g / cm^3
# Si number density = 15.657021 Si / 1000 Ang^3
#
#
#
# Elastic Constant Matrix: (Units=GPa)
#
#
# Indices 1 2 3 4 5 6 
#
# 1 109.8861 42.1084 26.5709 0.0000 0.0000 0.0000
# 2 42.1084 52.7321 25.2653 0.0000 0.0000 0.0000
# 3 26.5709 25.2653 50.2395 0.0000 0.0000 0.0000
# 4 0.0000 0.0000 0.0000 17.7297 0.0000 0.0000
# 5 0.0000 0.0000 0.0000 0.0000 3.2915 0.0000
# 6 0.0000 0.0000 0.0000 0.0000 0.0000 15.4371
#
#
#
# Elastic Compliance Matrix: (Units=1/GPa)
#
#
# Indices 1 2 3 4 5 6 
#
# 1 0.013300 -0.009552 -0.002231 0.000000 0.000000 0.000000
# 2 -0.009552 0.031843 -0.010962 0.000000 0.000000 0.000000
# 3 -0.002231 -0.010962 0.026597 0.000000 0.000000 0.000000
# 4 0.000000 0.000000 0.000000 0.056403 0.000000 0.000000
# 5 0.000000 0.000000 0.000000 0.000000 0.303815 0.000000
# 6 0.000000 0.000000 0.000000 0.000000 0.000000 0.064779
#
#
# Mechanical properties :
#
#
# Convention : Reuss Voigt Hill
#
# Bulk Modulus (GPa) = 38.09299 44.52744 41.31022
# Shear Modulus (GPa) = 9.07480 15.21920 12.14700
#
# Velocity S-wave (km/s) = 2.41010 3.12113 2.78837
# Velocity P-wave (km/s) = 5.66809 6.44125 6.06700
#
# Compressibility (1/GPa) = 0.02625155
#
# Stress axis : x y z
#
# Youngs Moduli (GPa) = 75.18844 31.40362 37.59787
#
# Poissons Ratio (x) = 0.29996 0.08387
# Poissons Ratio (y) = 0.71818 0.41216
# Poissons Ratio (z) = 0.16771 0.34425
#
# Static dielectric constant tensor:
#      x y z
#    x 3.253780 0.000000 0.000000 
#    y 0.000000 2.794880 0.000000 
#    z 0.000000 0.000000 2.846350 
# 
# 
# High freq. dielectric constant tensor:
#      x y z
#    x 1.600400 0.000000 0.000000 
#    y 0.000000 1.580360 0.000000 
#    z 0.000000 0.000000 1.562790 
# 
# From -- ./inp_files/25901.got.cif
#   From: 2010.03.12/outbox.cif.g09.slc.cpg/sg47_13_cif.got.tgz:25901.got - 2010.04.14 03:12:58.
