data_PCOD8196675
_publ_section_title
;
Structure prediction by ZEFSAII (Michael W. Deem and Ramdas Pophale) SiO2 
 PCOD8196675
Probable space group: P M M M
;
_chemical_formula_sum "Si O2"
_cell_formula_units_Z 48
_cell_length_a 7.884037
_cell_length_b 9.302432
_cell_length_c 34.650076
_cell_angle_alpha 90.000000
_cell_angle_beta 90.000000
_cell_angle_gamma 90.000000
_cell_volume 2541.261455
_symmetry_space_group_name_H-M "P M M M"
_symmetry_group_IT_number 47
_symmetry_cell_setting 'orthorhombic'
loop_
_space_group_symop_operation_xyz
x,y,z
-x,-y,z
x,-y,-z
-x,y,-z
-x,-y,-z
x,y,-z
-x,y,z
x,-y,z
loop_
_atom_site_type_symbol
_atom_site_label
_atom_site_fract_x
_atom_site_fract_y
_atom_site_fract_z
Si Si1 0.192565 0.162393 0.622577
Si Si2 0.305649 0.657555 0.692405
Si Si3 0.000000 0.829966 0.179916
Si Si4 0.000000 0.827951 0.093385
Si Si5 0.688298 0.829138 0.956606
Si Si6 0.693072 0.829876 0.458487
Si Si7 0.303572 0.168895 0.765847
O O1 0.292459 0.264029 0.651458
O O2 0.205038 0.226073 0.578928
O O3 0.000000 0.161818 0.636071
O O4 0.268136 0.000000 0.624223
O O5 0.500000 0.633647 0.701516
O O6 0.215737 0.500000 0.691091
O O7 0.233926 0.754227 0.727172
O O8 0.174349 0.779325 0.200704
O O9 0.000000 0.765786 0.136772
O O10 0.000000 0.000000 0.177874
O O11 0.831961 0.767532 0.071982
O O12 0.000000 0.000000 0.093181
O O13 0.500000 0.777965 0.943218
O O14 0.695127 0.000000 0.956334
O O15 0.725082 0.773604 0.000000
O O16 0.763236 0.769913 0.500000
O O17 0.500000 0.780159 0.453421
O O18 0.707576 0.000000 0.459940
O O19 0.500000 0.207976 0.776545
O O20 0.287444 0.000000 0.758182
#
# Coordination Sequence:
#
# PCOD8196675 Si02
#       7
#     8   8   4   4   8   8   8
#     4  10  20  31  47  74 103 129 155 187 231 280
#     4  10  21  36  53  72  93 119 155 198 240 284
#     4   9  18  29  43  64  87 115 155 199 242 292
#     4   9  15  22  33  51  75 105 144 193 239 274
#     4   8  13  20  30  46  71 106 147 189 232 276
#     4   8  14  26  45  68  94 125 159 191 222 262
#     4   9  18  33  51  69  92 122 154 194 244 294
#
# _framework density 18.888258
#
# number of rings (size 3 to 8) (size 9 to 14) (size 15 to 20)
#    0.000    3.000    0.000    2.250    1.167    4.000 
#    0.000    5.000    0.000    0.500    0.000    3.500 
#    0.000    0.000    0.000    0.000    0.000    6.667 
#
# Total GULP energy -594710.776104 kJ/mol
# GULP energy per Si atom -12389.807836 kJ/mol
# Density = 1.884527 g / cm^3
# Si number density = 18.888258 Si / 1000 Ang^3
#
#
#
# Elastic Constant Matrix: (Units=GPa)
#
#
# Indices 1 2 3 4 5 6 
#
# 1 95.6042 20.4819 68.3336 0.0000 0.0000 0.0000
# 2 20.4819 41.7902 36.7528 0.0000 0.0000 0.0000
# 3 68.3336 36.7528 168.0775 0.0000 0.0000 0.0000
# 4 0.0000 0.0000 0.0000 1.0404 0.0000 0.0000
# 5 0.0000 0.0000 0.0000 0.0000 29.7138 0.0000
# 6 0.0000 0.0000 0.0000 0.0000 0.0000 6.3710
#
#
#
# Elastic Compliance Matrix: (Units=1/GPa)
#
#
# Indices 1 2 3 4 5 6 
#
# 1 0.014945 -0.002453 -0.005540 0.000000 0.000000 0.000000
# 2 -0.002453 0.030029 -0.005569 0.000000 0.000000 0.000000
# 3 -0.005540 -0.005569 0.009420 0.000000 0.000000 0.000000
# 4 0.000000 0.000000 0.000000 0.961152 0.000000 0.000000
# 5 0.000000 0.000000 0.000000 0.000000 0.033654 0.000000
# 6 0.000000 0.000000 0.000000 0.000000 0.000000 0.156961
#
#
# Mechanical properties :
#
#
# Convention : Reuss Voigt Hill
#
# Bulk Modulus (GPa) = 36.66979 61.84536 49.25757
# Shear Modulus (GPa) = 4.02455 19.41862 11.72159
#
# Velocity S-wave (km/s) = 1.46128 3.20985 2.49384
# Velocity P-wave (km/s) = 4.72264 6.82285 5.86748
#
# Compressibility (1/GPa) = 0.02727041
#
# Stress axis : x y z
#
# Youngs Moduli (GPa) = 66.91332 33.30111 106.16174
#
# Poissons Ratio (x) = 0.08168 0.58809
# Poissons Ratio (y) = 0.16412 0.59123
# Poissons Ratio (z) = 0.37067 0.18546
#
# Static dielectric constant tensor:
#      x y z
#    x 3.562520 0.000000 0.000000 
#    y 0.000000 3.018290 0.000000 
#    z 0.000000 0.000000 2.995800 
# 
# 
# High freq. dielectric constant tensor:
#      x y z
#    x 1.734850 0.000000 0.000000 
#    y 0.000000 1.662400 0.000000 
#    z 0.000000 0.000000 1.740040 
# 
# From -- ./inp_files/34197.got.cif
#   From: 2010.03.12/outbox.cif.g09.slc.cpg/sg47_18_cif.got.tgz:34197.got - 2010.04.14 03:12:58.
