data_PCOD8196775
_publ_section_title
;
Structure prediction by ZEFSAII (Michael W. Deem and Ramdas Pophale) SiO2 
 PCOD8196775
Probable space group: P M M M
;
_chemical_formula_sum "Si O2"
_cell_formula_units_Z 36
_cell_length_a 20.780703
_cell_length_b 8.772024
_cell_length_c 11.705644
_cell_angle_alpha 90.000000
_cell_angle_beta 90.000000
_cell_angle_gamma 90.000000
_cell_volume 2133.808096
_symmetry_space_group_name_H-M "P M M M"
_symmetry_group_IT_number 47
_symmetry_cell_setting 'orthorhombic'
loop_
_space_group_symop_operation_xyz
x,y,z
-x,-y,z
x,-y,-z
-x,y,-z
-x,-y,-z
x,y,-z
-x,y,z
x,-y,z
loop_
_atom_site_type_symbol
_atom_site_label
_atom_site_fract_x
_atom_site_fract_y
_atom_site_fract_z
Si Si1 0.879608 0.819980 0.270739
Si Si2 0.362696 0.829648 0.135843
Si Si3 0.073821 0.319521 0.500000
Si Si4 0.000000 0.181065 0.126636
Si Si5 0.233328 0.676955 0.132716
Si Si6 0.500000 0.818680 0.874718
O O1 0.886643 0.740096 0.392112
O O2 0.937133 0.758820 0.191161
O O3 0.813222 0.776038 0.211095
O O4 0.882916 0.000000 0.288351
O O5 0.305985 0.715378 0.172376
O O6 0.432256 0.772230 0.187394
O O7 0.346038 0.000000 0.180360
O O8 0.370184 0.833491 0.000000
O O9 0.073877 0.500000 0.500000
O O10 0.000000 0.257343 0.500000
O O11 0.000000 0.000000 0.120653
O O12 0.000000 0.252005 0.000000
O O13 0.219928 0.500000 0.153282
O O14 0.222930 0.722070 0.000000
O O15 0.500000 0.000000 0.886537
O O16 0.500000 0.742336 0.000000
#
# Coordination Sequence:
#
# PCOD8196775 Si02
#       6
#     8   8   4   4   8   4
#     4  11  21  35  55  74  95 123 163 205 240 284
#     4   8  13  23  40  61  87 123 164 201 237 280
#     4  11  23  39  57  75  99 124 151 192 249 301
#     4   9  18  31  49  74  98 119 150 195 238 275
#     4  10  20  32  45  67 101 135 164 198 245 296
#     4   7  10  18  35  59  85 116 159 204 237 271
#
# _framework density 16.871244999999998
#
# number of rings (size 3 to 8) (size 9 to 14) (size 15 to 20)
#    0.000    2.556    1.111    3.667    0.000    2.667 
#    0.000    0.556    0.000    6.000    0.000    0.000 
#    0.000    0.889    0.000    9.556    0.000    6.889 
#
# Total GULP energy -446157.358467 kJ/mol
# GULP energy per Si atom -12393.259957 kJ/mol
# Density = 1.683284 g / cm^3
# Si number density = 16.871245 Si / 1000 Ang^3
#
#
#
# Elastic Constant Matrix: (Units=GPa)
#
#
# Indices 1 2 3 4 5 6 
#
# 1 134.5718 25.5629 43.8046 0.0000 0.0000 0.0000
# 2 25.5629 49.8681 22.9928 0.0000 0.0000 0.0000
# 3 43.8046 22.9928 81.0360 0.0000 0.0000 0.0000
# 4 0.0000 0.0000 0.0000 17.6822 0.0000 0.0000
# 5 0.0000 0.0000 0.0000 0.0000 1.4511 0.0000
# 6 0.0000 0.0000 0.0000 0.0000 0.0000 20.2345
#
#
#
# Elastic Compliance Matrix: (Units=1/GPa)
#
#
# Indices 1 2 3 4 5 6 
#
# 1 0.009353 -0.002834 -0.004252 0.000000 0.000000 0.000000
# 2 -0.002834 0.023930 -0.005258 0.000000 0.000000 0.000000
# 3 -0.004252 -0.005258 0.016130 0.000000 0.000000 0.000000
# 4 0.000000 0.000000 0.000000 0.056554 0.000000 0.000000
# 5 0.000000 0.000000 0.000000 0.000000 0.689144 0.000000
# 6 0.000000 0.000000 0.000000 0.000000 0.000000 0.049421
#
#
# Mechanical properties :
#
#
# Convention : Reuss Voigt Hill
#
# Bulk Modulus (GPa) = 40.44311 50.02181 45.23246
# Shear Modulus (GPa) = 5.69825 19.41458 12.55641
#
# Velocity S-wave (km/s) = 1.83979 3.39595 2.73105
# Velocity P-wave (km/s) = 5.34198 6.71492 6.06741
#
# Compressibility (1/GPa) = 0.02472609
#
# Stress axis : x y z
#
# Youngs Moduli (GPa) = 106.91311 41.78864 61.99480
#
# Poissons Ratio (x) = 0.11844 0.26359
# Poissons Ratio (y) = 0.30301 0.32595
# Poissons Ratio (z) = 0.45458 0.21971
#
# Static dielectric constant tensor:
#      x y z
#    x 3.570060 0.000000 0.000000 
#    y 0.000000 2.968350 0.000000 
#    z 0.000000 0.000000 2.817570 
# 
# 
# High freq. dielectric constant tensor:
#      x y z
#    x 1.668310 0.000000 0.000000 
#    y 0.000000 1.637310 0.000000 
#    z 0.000000 0.000000 1.596640 
# 
# From -- ./inp_files/18877.got.cif
#   From: 2010.03.12/outbox.cif.g09.slc.cpg/sg47_10_cif.got.tgz:18877.got - 2010.04.14 03:12:58.
