data_PCOD8196998
_publ_section_title
;
Structure prediction by ZEFSAII (Michael W. Deem and Ramdas Pophale) SiO2 
 PCOD8196998
Probable space group: P M M M
;
_chemical_formula_sum "Si O2"
_cell_formula_units_Z 64
_cell_length_a 9.266892
_cell_length_b 28.894646
_cell_length_c 14.545969
_cell_angle_alpha 90.000000
_cell_angle_beta 90.000000
_cell_angle_gamma 90.000000
_cell_volume 3894.880499
_symmetry_space_group_name_H-M "P M M M"
_symmetry_group_IT_number 47
_symmetry_cell_setting 'orthorhombic'
loop_
_space_group_symop_operation_xyz
x,y,z
-x,-y,z
x,-y,-z
-x,y,-z
-x,-y,-z
x,y,-z
-x,y,z
x,-y,z
loop_
_atom_site_type_symbol
_atom_site_label
_atom_site_fract_x
_atom_site_fract_y
_atom_site_fract_z
Si Si1 0.668330 0.947937 0.290524
Si Si2 0.333701 0.190278 0.104579
Si Si3 0.670833 0.088426 0.099829
Si Si4 0.330117 0.726211 0.218650
Si Si5 0.161881 0.550689 0.890915
Si Si6 0.331578 0.775695 0.603718
Si Si7 0.165135 0.867766 0.391894
Si Si8 0.670238 0.639390 0.893862
O O1 0.500000 0.935484 0.302864
O O2 0.713741 0.945422 0.182714
O O3 0.762228 0.912687 0.348422
O O4 0.700220 0.000000 0.324608
O O5 0.500000 0.186989 0.132990
O O6 0.263387 0.139620 0.120483
O O7 0.259552 0.229310 0.167810
O O8 0.315142 0.206429 0.000000
O O9 0.500000 0.093261 0.092061
O O10 0.728837 0.070355 0.000000
O O11 0.500000 0.724979 0.199864
O O12 0.296177 0.732642 0.327716
O O13 0.266603 0.679430 0.173514
O O14 0.214979 0.500000 0.855318
O O15 0.264944 0.591434 0.855142
O O16 0.000000 0.560082 0.855115
O O17 0.163952 0.550405 0.000000
O O18 0.286002 0.761270 0.500000
O O19 0.500000 0.788349 0.608364
O O20 0.246769 0.821064 0.638100
O O21 0.176902 0.874295 0.500000
O O22 0.000000 0.864350 0.359074
O O23 0.500000 0.634948 0.886188
O O24 0.715791 0.649464 0.000000
#
# Coordination Sequence:
#
# PCOD8196998 Si02
#       8
#     8   8   8   8   8   8   8   8
#     4  10  20  32  48  71  94 114 139 173 212 254
#     4   8  12  18  31  52  78 108 136 158 187 232
#     4   8  14  25  42  65  90 113 139 172 206 239
#     4   9  15  23  37  59  88 114 134 164 206 247
#     4   8  14  25  39  53  74 110 152 187 217 249
#     4   9  17  30  49  69  86 108 140 174 207 248
#     4  10  21  36  52  68  87 112 141 175 217 263
#     4   9  16  24  36  58  87 116 145 176 210 249
#
# _framework density 16.431826000000001
#
# number of rings (size 3 to 8) (size 9 to 14) (size 15 to 20)
#    0.000    3.125    0.000    2.625    0.000    5.250 
#    0.000    4.375    0.000    0.375    0.000    0.875 
#    0.000    0.500    0.000    6.250    0.000    1.250 
#
# Total GULP energy -792971.157573 kJ/mol
# GULP energy per Si atom -12390.174337 kJ/mol
# Density = 1.639443 g / cm^3
# Si number density = 16.431826 Si / 1000 Ang^3
#
#
#
# Elastic Constant Matrix: (Units=GPa)
#
#
# Indices 1 2 3 4 5 6 
#
# 1 39.0163 36.6202 24.2125 0.0000 0.0000 0.0000
# 2 36.6202 109.6350 50.7238 0.0000 0.0000 0.0000
# 3 24.2125 50.7238 56.3181 0.0000 0.0000 0.0000
# 4 0.0000 0.0000 0.0000 18.5652 0.0000 0.0000
# 5 0.0000 0.0000 0.0000 0.0000 8.1934 0.0000
# 6 0.0000 0.0000 0.0000 0.0000 0.0000 9.9189
#
#
#
# Elastic Compliance Matrix: (Units=1/GPa)
#
#
# Indices 1 2 3 4 5 6 
#
# 1 0.039721 -0.009201 -0.008790 0.000000 0.000000 0.000000
# 2 -0.009201 0.017768 -0.012048 0.000000 0.000000 0.000000
# 3 -0.008790 -0.012048 0.032386 0.000000 0.000000 0.000000
# 4 0.000000 0.000000 0.000000 0.053864 0.000000 0.000000
# 5 0.000000 0.000000 0.000000 0.000000 0.122050 0.000000
# 6 0.000000 0.000000 0.000000 0.000000 0.000000 0.100817
#
#
# Mechanical properties :
#
#
# Convention : Reuss Voigt Hill
#
# Bulk Modulus (GPa) = 33.55892 47.56471 40.56182
# Shear Modulus (GPa) = 11.45167 13.56303 12.50735
#
# Velocity S-wave (km/s) = 2.64279 2.87612 2.76192
# Velocity P-wave (km/s) = 5.45710 6.32763 5.90842
#
# Compressibility (1/GPa) = 0.02979834
#
# Stress axis : x y z
#
# Youngs Moduli (GPa) = 25.17572 56.27964 30.87707
#
# Poissons Ratio (x) = 0.51781 0.27142
# Poissons Ratio (y) = 0.23163 0.37200
# Poissons Ratio (z) = 0.22130 0.67805
#
# Static dielectric constant tensor:
#      x y z
#    x 2.782960 0.000000 0.000000 
#    y 0.000000 3.312100 0.000000 
#    z 0.000000 0.000000 3.138450 
# 
# 
# High freq. dielectric constant tensor:
#      x y z
#    x 1.588310 0.000000 0.000000 
#    y 0.000000 1.625150 0.000000 
#    z 0.000000 0.000000 1.617050 
# 
# From -- ./inp_files/22170.got.cif
#   From: 2010.03.12/outbox.cif.g09.slc.cpg/sg47_12_cif.got.tgz:22170.got - 2010.04.14 03:12:58.
