data_PCOD8196295
_publ_section_title
;
Structure prediction by ZEFSAII (Michael W. Deem and Ramdas Pophale) SiO2 
 PCOD8196295
Probable space group: P M M M
;
_chemical_formula_sum "Si O2"
_cell_formula_units_Z 48
_cell_length_a 13.978369
_cell_length_b 12.493409
_cell_length_c 14.516788
_cell_angle_alpha 90.000000
_cell_angle_beta 90.000000
_cell_angle_gamma 90.000000
_cell_volume 2535.175290
_symmetry_space_group_name_H-M "P M M M"
_symmetry_group_IT_number 47
_symmetry_cell_setting 'orthorhombic'
loop_
_space_group_symop_operation_xyz
x,y,z
-x,-y,z
x,-y,-z
-x,y,-z
-x,-y,-z
x,y,-z
-x,y,z
x,-y,z
loop_
_atom_site_type_symbol
_atom_site_label
_atom_site_fract_x
_atom_site_fract_y
_atom_site_fract_z
Si Si1 0.393979 0.500000 0.891259
Si Si2 0.893861 0.000000 0.390724
Si Si3 0.795982 0.217769 0.391041
Si Si4 0.605940 0.119424 0.890972
Si Si5 0.261594 0.693153 0.109112
Si Si6 0.395184 0.119362 0.391126
Si Si7 0.111878 0.373746 0.748727
O O1 0.500000 0.500000 0.846459
O O2 0.336256 0.396599 0.858882
O O3 0.404416 0.500000 0.000000
O O4 0.843602 0.892218 0.355916
O O5 0.893205 0.000000 0.500000
O O6 0.000000 0.000000 0.349719
O O7 0.809417 0.235418 0.500000
O O8 0.684413 0.206062 0.361121
O O9 0.842915 0.319298 0.341589
O O10 0.500000 0.151436 0.852961
O O11 0.689999 0.196741 0.855634
O O12 0.631993 0.000000 0.858213
O O13 0.601490 0.127024 0.000000
O O14 0.161008 0.674764 0.159871
O O15 0.241338 0.691014 0.000000
O O16 0.392400 0.109322 0.500000
O O17 0.500000 0.158486 0.357304
O O18 0.373810 0.000000 0.351098
O O19 0.130217 0.500000 0.741531
O O20 0.000000 0.347037 0.754941
#
# Coordination Sequence:
#
# PCOD8196295 Si02
#       7
#     4   4   8   8   8   8   8
#     4   9  16  28  53  87 112 135 175 227 279 323
#     4   9  16  28  51  83 110 134 173 224 277 327
#     4  10  19  35  59  84 112 144 178 224 279 329
#     4   8  14  27  51  83 116 148 178 211 261 327
#     4  10  19  35  58  81 109 145 183 226 275 323
#     4   8  13  25  50  83 115 145 175 209 257 321
#     4  11  25  42  57  76 105 141 189 241 282 329
#
# _framework density 18.933602
#
# number of rings (size 3 to 8) (size 9 to 14) (size 15 to 20)
#    0.000    2.667    1.667    2.000    0.000    3.667 
#    1.500    3.333    0.000    2.000    0.000    4.667 
#    0.000    0.000    0.000    0.000    0.000    0.000 
#
# Total GULP energy -594873.538138 kJ/mol
# GULP energy per Si atom -12393.198711 kJ/mol
# Density = 1.889051 g / cm^3
# Si number density = 18.933602 Si / 1000 Ang^3
#
#
#
# Elastic Constant Matrix: (Units=GPa)
#
#
# Indices 1 2 3 4 5 6 
#
# 1 169.5075 79.5788 43.7430 0.0000 0.0000 0.0000
# 2 79.5788 120.9218 36.5234 0.0000 0.0000 0.0000
# 3 43.7430 36.5234 61.4449 0.0000 0.0000 0.0000
# 4 0.0000 0.0000 0.0000 1.3630 0.0000 0.0000
# 5 0.0000 0.0000 0.0000 0.0000 6.7337 0.0000
# 6 0.0000 0.0000 0.0000 0.0000 0.0000 46.0911
#
#
#
# Elastic Compliance Matrix: (Units=1/GPa)
#
#
# Indices 1 2 3 4 5 6 
#
# 1 0.009138 -0.004935 -0.003572 0.000000 0.000000 0.000000
# 2 -0.004935 0.012744 -0.004062 0.000000 0.000000 0.000000
# 3 -0.003572 -0.004062 0.021232 0.000000 0.000000 0.000000
# 4 0.000000 0.000000 0.000000 0.733701 0.000000 0.000000
# 5 0.000000 0.000000 0.000000 0.000000 0.148507 0.000000
# 6 0.000000 0.000000 0.000000 0.000000 0.000000 0.021696
#
#
# Mechanical properties :
#
#
# Convention : Reuss Voigt Hill
#
# Bulk Modulus (GPa) = 55.62839 74.61829 65.12334
# Shear Modulus (GPa) = 5.11169 23.63948 14.37559
#
# Velocity S-wave (km/s) = 1.64489 3.53731 2.75846
# Velocity P-wave (km/s) = 5.74910 7.49530 6.67951
#
# Compressibility (1/GPa) = 0.01797643
#
# Stress axis : x y z
#
# Youngs Moduli (GPa) = 109.43307 78.46592 47.09785
#
# Poissons Ratio (x) = 0.38721 0.16824
# Poissons Ratio (y) = 0.54003 0.19132
# Poissons Ratio (z) = 0.39091 0.31875
#
# Static dielectric constant tensor:
#      x y z
#    x 3.828130 0.000000 0.000000 
#    y 0.000000 3.541040 0.000000 
#    z 0.000000 0.000000 3.098230 
# 
# 
# High freq. dielectric constant tensor:
#      x y z
#    x 1.742820 0.000000 0.000000 
#    y 0.000000 1.726850 0.000000 
#    z 0.000000 0.000000 1.706880 
# 
# From -- ./inp_files/23585.got.cif
#   From: 2010.03.12/outbox.cif.g09.slc.cpg/sg47_12_cif.got.tgz:23585.got - 2010.04.14 03:12:58.
