data_PCOD8196109
_publ_section_title
;
Structure prediction by ZEFSAII (Michael W. Deem and Ramdas Pophale) SiO2 
 PCOD8196109
Probable space group: P M M M
;
_chemical_formula_sum "Si O2"
_cell_formula_units_Z 48
_cell_length_a 8.809064
_cell_length_b 29.018878
_cell_length_c 10.111105
_cell_angle_alpha 90.000000
_cell_angle_beta 90.000000
_cell_angle_gamma 90.000000
_cell_volume 2584.693212
_symmetry_space_group_name_H-M "P M M M"
_symmetry_group_IT_number 47
_symmetry_cell_setting 'orthorhombic'
loop_
_space_group_symop_operation_xyz
x,y,z
-x,-y,z
x,-y,-z
-x,y,-z
-x,-y,-z
x,y,-z
-x,y,z
x,-y,z
loop_
_atom_site_type_symbol
_atom_site_label
_atom_site_fract_x
_atom_site_fract_y
_atom_site_fract_z
Si Si1 0.324902 0.946248 0.650185
Si Si2 0.176229 0.691347 0.155513
Si Si3 0.679689 0.399528 0.752362
Si Si4 0.820086 0.553106 0.500000
Si Si5 0.329675 0.215573 0.843007
Si Si6 0.171376 0.445622 0.000000
Si Si7 0.822124 0.122238 0.848864
O O1 0.281355 0.932140 0.500000
O O2 0.500000 0.934310 0.677543
O O3 0.221649 0.919966 0.755298
O O4 0.294276 0.000000 0.671166
O O5 0.270528 0.653420 0.234996
O O6 0.231927 0.741062 0.207001
O O7 0.000000 0.686158 0.188795
O O8 0.208320 0.684853 0.000000
O O9 0.500000 0.402382 0.743012
O O10 0.753933 0.421378 0.625140
O O11 0.737831 0.429110 0.874024
O O12 0.768043 0.500000 0.500000
O O13 0.000000 0.557176 0.500000
O O14 0.500000 0.219682 0.786915
O O15 0.256607 0.168198 0.791581
O O16 0.328866 0.215111 0.000000
O O17 0.162793 0.500000 0.000000
O O18 0.000000 0.424757 0.000000
O O19 0.000000 0.130561 0.843381
O O20 0.770329 0.111688 0.000000
#
# Coordination Sequence:
#
# PCOD8196109 Si02
#       7
#     8   8   8   4   8   4   8
#     4   9  19  36  56  77 104 142 187 232 280 333
#     4  10  19  33  56  84 116 150 186 227 277 334
#     4  12  24  38  60  88 117 148 188 235 282 334
#     4  11  25  45  65  83 111 153 193 229 280 345
#     4   9  17  30  51  79 111 145 184 228 276 327
#     4  11  23  39  59  85 117 151 189 233 282 333
#     4  10  20  33  51  79 113 146 183 226 275 330
#
# _framework density 18.570868999999998
#
# number of rings (size 3 to 8) (size 9 to 14) (size 15 to 20)
#    0.000    1.833    0.833    4.500    0.000    8.000 
#    0.000    2.500    1.833    0.000    0.000    0.000 
#    0.000    0.000    0.000    0.000    0.000    0.000 
#
# Total GULP energy -595317.910020 kJ/mol
# GULP energy per Si atom -12402.456459 kJ/mol
# Density = 1.852860 g / cm^3
# Si number density = 18.570869 Si / 1000 Ang^3
#
#
#
# Elastic Constant Matrix: (Units=GPa)
#
#
# Indices 1 2 3 4 5 6 
#
# 1 85.2210 39.8099 31.5241 0.0000 0.0000 0.0000
# 2 39.8099 108.3721 48.2480 0.0000 0.0000 0.0000
# 3 31.5241 48.2480 94.2071 0.0000 0.0000 0.0000
# 4 0.0000 0.0000 0.0000 23.5899 0.0000 0.0000
# 5 0.0000 0.0000 0.0000 0.0000 27.2114 0.0000
# 6 0.0000 0.0000 0.0000 0.0000 0.0000 38.1046
#
#
#
# Elastic Compliance Matrix: (Units=1/GPa)
#
#
# Indices 1 2 3 4 5 6 
#
# 1 0.014711 -0.004161 -0.002791 0.000000 0.000000 0.000000
# 2 -0.004161 0.013130 -0.005332 0.000000 0.000000 0.000000
# 3 -0.002791 -0.005332 0.014280 0.000000 0.000000 0.000000
# 4 0.000000 0.000000 0.000000 0.042391 0.000000 0.000000
# 5 0.000000 0.000000 0.000000 0.000000 0.036749 0.000000
# 6 0.000000 0.000000 0.000000 0.000000 0.000000 0.026244
#
#
# Mechanical properties :
#
#
# Convention : Reuss Voigt Hill
#
# Bulk Modulus (GPa) = 56.97643 58.55158 57.76401
# Shear Modulus (GPa) = 28.10195 28.99573 28.54884
#
# Velocity S-wave (km/s) = 3.89424 3.95569 3.92508
# Velocity P-wave (km/s) = 7.13914 7.24296 7.19124
#
# Compressibility (1/GPa) = 0.01755112
#
# Stress axis : x y z
#
# Youngs Moduli (GPa) = 67.97833 76.16213 70.02903
#
# Poissons Ratio (x) = 0.31692 0.19548
# Poissons Ratio (y) = 0.28286 0.37340
# Poissons Ratio (z) = 0.18976 0.40610
#
# Static dielectric constant tensor:
#      x y z
#    x 3.548810 0.000000 0.000000 
#    y 0.000000 3.566980 0.000000 
#    z 0.000000 0.000000 3.161110 
# 
# 
# High freq. dielectric constant tensor:
#      x y z
#    x 1.734390 0.000000 0.000000 
#    y 0.000000 1.734420 0.000000 
#    z 0.000000 0.000000 1.693560 
# 
# From -- ./inp_files/2712.got.cif
#   From: 2010.03.12/outbox.cif.g09.slc.cpg/sg47_2_cif.got.tgz:2712.got - 2010.04.14 03:12:58.
