data_PCOD8196826
_publ_section_title
;
Structure prediction by ZEFSAII (Michael W. Deem and Ramdas Pophale) SiO2 
 PCOD8196826
Probable space group: P M M M
;
_chemical_formula_sum "Si O2"
_cell_formula_units_Z 44
_cell_length_a 28.618412
_cell_length_b 9.144551
_cell_length_c 9.308681
_cell_angle_alpha 90.000000
_cell_angle_beta 90.000000
_cell_angle_gamma 90.000000
_cell_volume 2436.105351
_symmetry_space_group_name_H-M "P M M M"
_symmetry_group_IT_number 47
_symmetry_cell_setting 'orthorhombic'
loop_
_space_group_symop_operation_xyz
x,y,z
-x,-y,z
x,-y,-z
-x,y,-z
-x,-y,-z
x,y,-z
-x,y,z
x,-y,z
loop_
_atom_site_type_symbol
_atom_site_label
_atom_site_fract_x
_atom_site_fract_y
_atom_site_fract_z
Si Si1 0.449008 0.826231 0.660596
Si Si2 0.000000 0.325655 0.663552
Si Si3 0.179815 0.326729 0.335425
Si Si4 0.910296 0.674123 0.163283
Si Si5 0.739999 0.170573 0.832907
Si Si6 0.364235 0.826581 0.841702
O O1 0.445358 0.764603 0.500000
O O2 0.500000 0.782305 0.725877
O O3 0.405843 0.756248 0.747720
O O4 0.444479 0.000000 0.659438
O O5 0.045211 0.266280 0.748482
O O6 0.000000 0.500000 0.660532
O O7 0.000000 0.265463 0.500000
O O8 0.174364 0.274650 0.500000
O O9 0.182836 0.500000 0.326598
O O10 0.135808 0.267999 0.244072
O O11 0.226512 0.262460 0.268166
O O12 0.911131 0.500000 0.160904
O O13 0.911248 0.735002 0.000000
O O14 0.687360 0.212047 0.782838
O O15 0.749872 0.000000 0.809238
O O16 0.747486 0.211790 0.000000
O O17 0.369318 0.000000 0.848143
O O18 0.369969 0.760063 0.000000
#
# Coordination Sequence:
#
# PCOD8196826 Si02
#       6
#     8   4   8   8   8   8
#     4   8  13  20  30  47  73 104 136 169 207 253
#     4   9  15  23  37  59  88 117 144 179 222 265
#     4  10  20  32  46  67  94 121 151 188 228 268
#     4   9  16  26  41  61  86 117 150 182 220 266
#     4   9  18  32  48  66  89 118 153 190 226 267
#     4   8  14  24  37  54  77 105 138 176 215 255
#
# _framework density 18.061616000000001
#
# number of rings (size 3 to 8) (size 9 to 14) (size 15 to 20)
#    0.000    3.182    0.000    3.000    0.000    5.818 
#    0.000    3.636    0.000    0.000    0.000    0.636 
#    0.000    5.818    0.000    8.000    0.000   13.091 
#
# Total GULP energy -545301.359011 kJ/mol
# GULP energy per Si atom -12393.212705 kJ/mol
# Density = 1.802051 g / cm^3
# Si number density = 18.061616 Si / 1000 Ang^3
#
#
#
# Elastic Constant Matrix: (Units=GPa)
#
#
# Indices 1 2 3 4 5 6 
#
# 1 181.0063 14.1477 96.8275 0.0000 0.0000 0.0000
# 2 14.1477 4.9877 13.4310 0.0000 0.0000 0.0000
# 3 96.8275 13.4310 138.2507 0.0000 0.0000 0.0000
# 4 0.0000 0.0000 0.0000 14.6962 0.0000 0.0000
# 5 0.0000 0.0000 0.0000 0.0000 40.2379 0.0000
# 6 0.0000 0.0000 0.0000 0.0000 0.0000 20.0265
#
#
#
# Elastic Compliance Matrix: (Units=1/GPa)
#
#
# Indices 1 2 3 4 5 6 
#
# 1 0.009338 -0.012021 -0.005372 0.000000 0.000000 0.000000
# 2 -0.012021 0.286999 -0.019463 0.000000 0.000000 0.000000
# 3 -0.005372 -0.019463 0.012887 0.000000 0.000000 0.000000
# 4 0.000000 0.000000 0.000000 0.068045 0.000000 0.000000
# 5 0.000000 0.000000 0.000000 0.000000 0.024852 0.000000
# 6 0.000000 0.000000 0.000000 0.000000 0.000000 0.049934
#
#
# Mechanical properties :
#
#
# Convention : Reuss Voigt Hill
#
# Bulk Modulus (GPa) = 4.24607 63.67302 33.95955
# Shear Modulus (GPa) = 8.27444 28.31468 18.29456
#
# Velocity S-wave (km/s) = 2.14270 3.96368 3.18606
# Velocity P-wave (km/s) = 2.91162 7.50183 5.69012
#
# Compressibility (1/GPa) = 0.23551184
#
# Stress axis : x y z
#
# Youngs Moduli (GPa) = 107.08752 3.48433 77.59927
#
# Poissons Ratio (x) = 0.04188 0.41689
# Poissons Ratio (y) = 1.28729 1.51028
# Poissons Ratio (z) = 0.57532 0.06781
#
# Static dielectric constant tensor:
#      x y z
#    x 3.665020 0.000000 0.000000 
#    y 0.000000 2.588660 0.000000 
#    z 0.000000 0.000000 3.599020 
# 
# 
# High freq. dielectric constant tensor:
#      x y z
#    x 1.720840 0.000000 0.000000 
#    y 0.000000 1.617090 0.000000 
#    z 0.000000 0.000000 1.704980 
# 
# From -- ./inp_files/13651.got.cif
#   From: 2010.03.12/outbox.cif.g09.slc.cpg/sg47_7_cif.got.tgz:13651.got - 2010.04.14 03:12:58.
