data_PCOD8196897
_publ_section_title
;
Structure prediction by ZEFSAII (Michael W. Deem and Ramdas Pophale) SiO2 
 PCOD8196897
Probable space group: P M M M
;
_chemical_formula_sum "Si O2"
_cell_formula_units_Z 64
_cell_length_a 19.155492
_cell_length_b 8.965295
_cell_length_c 23.448384
_cell_angle_alpha 90.000000
_cell_angle_beta 90.000000
_cell_angle_gamma 90.000000
_cell_volume 4026.899706
_symmetry_space_group_name_H-M "P M M M"
_symmetry_group_IT_number 47
_symmetry_cell_setting 'orthorhombic'
loop_
_space_group_symop_operation_xyz
x,y,z
-x,-y,z
x,-y,-z
-x,y,-z
-x,-y,-z
x,y,-z
-x,y,z
x,-y,z
loop_
_atom_site_type_symbol
_atom_site_label
_atom_site_fract_x
_atom_site_fract_y
_atom_site_fract_z
Si Si1 0.796534 0.176578 0.839002
Si Si2 0.921924 0.176142 0.563721
Si Si3 0.578930 0.826427 0.888999
Si Si4 0.079534 0.324536 0.780916
Si Si5 0.847560 0.328138 0.335770
Si Si6 0.575878 0.670137 0.229314
Si Si7 0.722056 0.328680 0.263327
Si Si8 0.289458 0.328835 0.934538
O O1 0.874049 0.240180 0.827856
O O2 0.744460 0.225290 0.788904
O O3 0.767390 0.238256 0.898444
O O4 0.800094 0.000000 0.842064
O O5 0.901624 0.230021 0.500000
O O6 0.866084 0.237357 0.608111
O O7 0.000000 0.233655 0.578820
O O8 0.920320 0.000000 0.566625
O O9 0.500000 0.794839 0.910506
O O10 0.587152 0.778560 0.823597
O O11 0.632577 0.736022 0.927891
O O12 0.597533 0.000000 0.893190
O O13 0.088687 0.500000 0.790230
O O14 0.104152 0.279554 0.717384
O O15 0.000000 0.272930 0.788904
O O16 0.859087 0.500000 0.350395
O O17 0.766698 0.291168 0.319925
O O18 0.500000 0.701635 0.258321
O O19 0.578853 0.500000 0.206789
O O20 0.639113 0.696690 0.274384
O O21 0.738531 0.500000 0.245983
O O22 0.289933 0.500000 0.914201
O O23 0.266852 0.314424 0.000000
#
# Coordination Sequence:
#
# PCOD8196897 Si02
#       8
#     8   8   8   8   8   8   8   8
#     4  11  21  32  49  71  94 118 146 184 231 278
#     4   9  18  31  44  60  88 126 162 195 231 268
#     4  10  20  32  47  69  95 119 146 186 231 271
#     4   9  18  33  52  72  96 124 150 182 225 272
#     4   9  17  28  44  68  95 123 155 190 225 262
#     4   9  16  27  46  67  88 121 158 185 217 270
#     4   9  17  30  46  65  94 124 151 187 228 272
#     4  11  23  37  52  67  86 117 156 192 225 272
#
# _framework density 15.89312
#
# number of rings (size 3 to 8) (size 9 to 14) (size 15 to 20)
#    0.000    2.375    1.250    3.375    0.000    5.250 
#    0.000    1.875    0.000    0.375    0.000    2.625 
#    0.000    0.500    0.000    6.250    0.000    1.000 
#
# Total GULP energy -793371.013297 kJ/mol
# GULP energy per Si atom -12396.422083 kJ/mol
# Density = 1.585695 g / cm^3
# Si number density = 15.893120 Si / 1000 Ang^3
#
#
#
# Elastic Constant Matrix: (Units=GPa)
#
#
# Indices 1 2 3 4 5 6 
#
# 1 134.1712 41.4178 55.6668 0.0000 0.0000 0.0000
# 2 41.4178 72.9763 37.3632 0.0000 0.0000 0.0000
# 3 55.6668 37.3632 81.1932 0.0000 0.0000 0.0000
# 4 0.0000 0.0000 0.0000 11.2007 0.0000 0.0000
# 5 0.0000 0.0000 0.0000 0.0000 24.3564 0.0000
# 6 0.0000 0.0000 0.0000 0.0000 0.0000 21.8306
#
#
#
# Elastic Compliance Matrix: (Units=1/GPa)
#
#
# Indices 1 2 3 4 5 6 
#
# 1 0.010925 -0.003095 -0.006066 0.000000 0.000000 0.000000
# 2 -0.003095 0.018803 -0.006531 0.000000 0.000000 0.000000
# 3 -0.006066 -0.006531 0.019481 0.000000 0.000000 0.000000
# 4 0.000000 0.000000 0.000000 0.089280 0.000000 0.000000
# 5 0.000000 0.000000 0.000000 0.000000 0.041057 0.000000
# 6 0.000000 0.000000 0.000000 0.000000 0.000000 0.045807
#
#
# Mechanical properties :
#
#
# Convention : Reuss Voigt Hill
#
# Bulk Modulus (GPa) = 56.10034 61.91512 59.00773
# Shear Modulus (GPa) = 19.03453 21.73705 20.38579
#
# Velocity S-wave (km/s) = 3.46447 3.70226 3.58534
# Velocity P-wave (km/s) = 7.16789 7.57082 7.37211
#
# Compressibility (1/GPa) = 0.01782521
#
# Stress axis : x y z
#
# Youngs Moduli (GPa) = 91.52959 53.18190 51.33219
#
# Poissons Ratio (x) = 0.16459 0.31140
# Poissons Ratio (y) = 0.28326 0.33525
# Poissons Ratio (z) = 0.55526 0.34733
#
# Static dielectric constant tensor:
#      x y z
#    x 3.302140 0.000000 0.000000 
#    y 0.000000 3.011060 0.000000 
#    z 0.000000 0.000000 2.748060 
# 
# 
# High freq. dielectric constant tensor:
#      x y z
#    x 1.615290 0.000000 0.000000 
#    y 0.000000 1.614320 0.000000 
#    z 0.000000 0.000000 1.569770 
# 
# From -- ./inp_files/11855.got.cif
#   From: 2010.03.12/outbox.cif.g09.slc.cpg/sg47_6_cif.got.tgz:11855.got - 2010.04.14 03:12:58.
