data_PCOD8196796
_publ_section_title
;
Structure prediction by ZEFSAII (Michael W. Deem and Ramdas Pophale) SiO2 
 PCOD8196796
Probable space group: P M M M
;
_chemical_formula_sum "Si O2"
_cell_formula_units_Z 64
_cell_length_a 9.219668
_cell_length_b 29.557319
_cell_length_c 13.834323
_cell_angle_alpha 90.000000
_cell_angle_beta 90.000000
_cell_angle_gamma 90.000000
_cell_volume 3769.972935
_symmetry_space_group_name_H-M "P M M M"
_symmetry_group_IT_number 47
_symmetry_cell_setting 'orthorhombic'
loop_
_space_group_symop_operation_xyz
x,y,z
-x,-y,z
x,-y,-z
-x,y,-z
-x,-y,-z
x,y,-z
-x,y,z
x,-y,z
loop_
_atom_site_type_symbol
_atom_site_label
_atom_site_fract_x
_atom_site_fract_y
_atom_site_fract_z
Si Si1 0.330961 0.727383 0.292674
Si Si2 0.334643 0.105904 0.608803
Si Si3 0.171913 0.547741 0.391600
Si Si4 0.170437 0.353889 0.385981
Si Si5 0.667241 0.218209 0.109348
Si Si6 0.837120 0.869517 0.114358
Si Si7 0.162460 0.192080 0.385620
Si Si8 0.667139 0.949084 0.790048
O O1 0.500000 0.725089 0.317910
O O2 0.258880 0.679840 0.318347
O O3 0.305188 0.738844 0.179157
O O4 0.258888 0.765504 0.357779
O O5 0.289301 0.092121 0.500000
O O6 0.500000 0.123523 0.611260
O O7 0.234568 0.145716 0.652544
O O8 0.313972 0.062349 0.676512
O O9 0.232945 0.546105 0.500000
O O10 0.222686 0.500000 0.339340
O O11 0.220873 0.596004 0.347200
O O12 0.000000 0.548856 0.394942
O O13 0.206944 0.347716 0.500000
O O14 0.000000 0.345659 0.369672
O O15 0.500000 0.203370 0.111790
O O16 0.756750 0.175716 0.151981
O O17 0.714617 0.231440 0.000000
O O18 0.758804 0.915297 0.145126
O O19 0.000000 0.869277 0.155725
O O20 0.835744 0.868219 0.000000
O O21 0.158164 0.190006 0.500000
O O22 0.000000 0.196618 0.342979
O O23 0.500000 0.944703 0.821301
O O24 0.723917 0.000000 0.806749
#
# Coordination Sequence:
#
# PCOD8196796 Si02
#       8
#     8   8   8   8   8   8   8   8
#     4  11  21  30  44  66  91 119 149 183 224 266
#     4   9  18  33  51  69  90 116 147 183 218 251
#     4   7  10  19  37  59  82 113 156 198 226 252
#     4   9  17  28  42  63  93 127 159 189 223 263
#     4   9  19  36  54  69  87 114 148 183 220 266
#     4  10  21  36  54  75  95 114 139 175 220 266
#     4  10  20  32  46  65  90 120 151 180 212 255
#     4  10  21  35  51  72  95 119 147 176 210 256
#
# _framework density 16.976248999999999
#
# number of rings (size 3 to 8) (size 9 to 14) (size 15 to 20)
#    0.000    2.625    0.000    3.375    0.000    8.500 
#    0.000    2.500    0.000    0.375    0.000    4.375 
#    0.000    0.500    0.000    6.250    0.000    0.250 
#
# Total GULP energy -793132.345838 kJ/mol
# GULP energy per Si atom -12392.692904 kJ/mol
# Density = 1.693761 g / cm^3
# Si number density = 16.976249 Si / 1000 Ang^3
#
#
#
# Elastic Constant Matrix: (Units=GPa)
#
#
# Indices 1 2 3 4 5 6 
#
# 1 80.3360 59.2218 28.2600 0.0000 0.0000 0.0000
# 2 59.2218 148.5251 38.9992 0.0000 0.0000 0.0000
# 3 28.2600 38.9992 34.8651 0.0000 0.0000 0.0000
# 4 0.0000 0.0000 0.0000 18.8840 0.0000 0.0000
# 5 0.0000 0.0000 0.0000 0.0000 18.5894 0.0000
# 6 0.0000 0.0000 0.0000 0.0000 0.0000 11.9841
#
#
#
# Elastic Compliance Matrix: (Units=1/GPa)
#
#
# Indices 1 2 3 4 5 6 
#
# 1 0.019935 -0.005247 -0.010289 0.000000 0.000000 0.000000
# 2 -0.005247 0.010914 -0.007955 0.000000 0.000000 0.000000
# 3 -0.010289 -0.007955 0.045920 0.000000 0.000000 0.000000
# 4 0.000000 0.000000 0.000000 0.052955 0.000000 0.000000
# 5 0.000000 0.000000 0.000000 0.000000 0.053794 0.000000
# 6 0.000000 0.000000 0.000000 0.000000 0.000000 0.083444
#
#
# Mechanical properties :
#
#
# Convention : Reuss Voigt Hill
#
# Bulk Modulus (GPa) = 33.57208 57.40981 45.49095
# Shear Modulus (GPa) = 15.43812 19.04117 17.23964
#
# Velocity S-wave (km/s) = 3.01889 3.35272 3.19017
# Velocity P-wave (km/s) = 5.65424 6.99133 6.35803
#
# Compressibility (1/GPa) = 0.02978666
#
# Stress axis : x y z
#
# Youngs Moduli (GPa) = 50.16230 91.62693 21.77692
#
# Poissons Ratio (x) = 0.48078 0.22407
# Poissons Ratio (y) = 0.26321 0.17323
# Poissons Ratio (z) = 0.51614 0.72888
#
# Static dielectric constant tensor:
#      x y z
#    x 3.252750 0.000000 0.000000 
#    y 0.000000 3.418910 0.000000 
#    z 0.000000 0.000000 3.069930 
# 
# 
# High freq. dielectric constant tensor:
#      x y z
#    x 1.647270 0.000000 0.000000 
#    y 0.000000 1.649850 0.000000 
#    z 0.000000 0.000000 1.633090 
# 
# From -- ./inp_files/22129.got.cif
#   From: 2010.03.12/outbox.cif.g09.slc.cpg/sg47_12_cif.got.tgz:22129.got - 2010.04.14 03:12:58.
