data_PCOD8196693
_publ_section_title
;
Structure prediction by ZEFSAII (Michael W. Deem and Ramdas Pophale) SiO2 
 PCOD8196693
Probable space group: P M M M
;
_chemical_formula_sum "Si O2"
_cell_formula_units_Z 60
_cell_length_a 20.658151
_cell_length_b 29.551286
_cell_length_c 8.469824
_cell_angle_alpha 90.000000
_cell_angle_beta 90.000000
_cell_angle_gamma 90.000000
_cell_volume 5170.615200
_symmetry_space_group_name_H-M "P M M M"
_symmetry_group_IT_number 47
_symmetry_cell_setting 'orthorhombic'
loop_
_space_group_symop_operation_xyz
x,y,z
-x,-y,z
x,-y,-z
-x,y,-z
-x,-y,-z
x,y,-z
-x,y,z
x,-y,z
loop_
_atom_site_type_symbol
_atom_site_label
_atom_site_fract_x
_atom_site_fract_y
_atom_site_fract_z
Si Si1 0.429836 0.446195 0.678371
Si Si2 0.923208 0.100704 0.678495
Si Si3 0.167846 0.447875 0.682028
Si Si4 0.076893 0.715890 0.678104
Si Si5 0.072467 0.376879 0.183745
Si Si6 0.300083 0.446344 0.175098
Si Si7 0.923157 0.192703 0.175804
Si Si8 0.923568 0.052156 0.000000
O O1 0.424512 0.428826 0.500000
O O2 0.500000 0.430778 0.749471
O O3 0.426080 0.500000 0.683132
O O4 0.368922 0.424962 0.771709
O O5 0.898041 0.085924 0.500000
O O6 0.901639 0.152799 0.705556
O O7 0.896223 0.072815 0.832536
O O8 0.000000 0.095611 0.677464
O O9 0.151830 0.441182 0.500000
O O10 0.161175 0.500000 0.734825
O O11 0.116182 0.420063 0.781230
O O12 0.240877 0.430438 0.714580
O O13 0.099800 0.721407 0.500000
O O14 0.104275 0.668340 0.742399
O O15 0.106124 0.758949 0.771229
O O16 0.000000 0.715091 0.695839
O O17 0.000000 0.385643 0.251492
O O18 0.068829 0.368533 0.000000
O O19 0.306395 0.500000 0.181794
O O20 0.284808 0.428970 0.000000
O O21 0.000000 0.196061 0.176868
O O22 0.898070 0.181293 0.000000
O O23 0.000000 0.060191 0.000000
O O24 0.903788 0.000000 0.000000
#
# Coordination Sequence:
#
# PCOD8196693 Si02
#       8
#     8   8   8   8   8   8   8   4
#     4   8  13  21  33  49  69  90 107 122 141 164
#     4   9  15  22  31  42  55  72  94 117 140 166
#     4  10  20  32  44  54  64  81 103 125 148 176
#     4   9  16  25  37  52  66  78  91 109 138 177
#     4  10  20  32  43  54  67  80  95 119 152 187
#     4   9  16  25  37  52  68  84 103 125 145 167
#     4   9  14  21  33  47  62  76  90 110 137 169
#     4   9  16  24  30  38  54  74  96 120 141 161
#
# _framework density 11.604035
#
# number of rings (size 3 to 8) (size 9 to 14) (size 15 to 20)
#    0.000    2.867    0.667    2.400    0.000    7.200 
#    0.000    4.000    0.000    0.000    0.000    0.000 
#    0.000    0.000    0.000    0.000    0.000    0.000 
#
# Total GULP energy -743310.383275 kJ/mol
# GULP energy per Si atom -12388.506388 kJ/mol
# Density = 1.157762 g / cm^3
# Si number density = 11.604035 Si / 1000 Ang^3
#
#
#
# Elastic Constant Matrix: (Units=GPa)
#
#
# Indices 1 2 3 4 5 6 
#
# 1 34.6633 15.5207 11.1074 0.0000 0.0000 0.0000
# 2 15.5207 50.1518 26.2157 0.0000 0.0000 0.0000
# 3 11.1074 26.2157 67.9904 0.0000 0.0000 0.0000
# 4 0.0000 0.0000 0.0000 16.7067 0.0000 0.0000
# 5 0.0000 0.0000 0.0000 0.0000 11.8176 0.0000
# 6 0.0000 0.0000 0.0000 0.0000 0.0000 0.0366
#
#
#
# Elastic Compliance Matrix: (Units=1/GPa)
#
#
# Indices 1 2 3 4 5 6 
#
# 1 0.033676 -0.009451 -0.001857 0.000000 0.000000 0.000000
# 2 -0.009451 0.027625 -0.009108 0.000000 0.000000 0.000000
# 3 -0.001857 -0.009108 0.018523 0.000000 0.000000 0.000000
# 4 0.000000 0.000000 0.000000 0.059856 0.000000 0.000000
# 5 0.000000 0.000000 0.000000 0.000000 0.084620 0.000000
# 6 0.000000 0.000000 0.000000 0.000000 0.000000 27.346559
#
#
# Mechanical properties :
#
#
# Convention : Reuss Voigt Hill
#
# Bulk Modulus (GPa) = 25.64628 28.72146 27.18387
# Shear Modulus (GPa) = 0.18100 12.37628 6.27864
#
# Velocity S-wave (km/s) = 0.39537 3.26935 2.32862
# Velocity P-wave (km/s) = 4.72838 6.24952 5.54140
#
# Compressibility (1/GPa) = 0.03899200
#
# Stress axis : x y z
#
# Youngs Moduli (GPa) = 29.69491 36.19893 53.98647
#
# Poissons Ratio (x) = 0.34211 0.10028
# Poissons Ratio (y) = 0.28064 0.49169
# Poissons Ratio (z) = 0.05516 0.32969
#
# Static dielectric constant tensor:
#      x y z
#    x 2.182350 0.000000 0.000000 
#    y 0.000000 2.310240 0.000000 
#    z 0.000000 0.000000 2.655770 
# 
# 
# High freq. dielectric constant tensor:
#      x y z
#    x 1.379840 0.000000 0.000000 
#    y 0.000000 1.409650 0.000000 
#    z 0.000000 0.000000 1.458880 
# 
# From -- ./inp_files/11974.got.cif
#   From: 2010.03.12/outbox.cif.g09.slc.cpg/sg47_6_cif.got.tgz:11974.got - 2010.04.14 03:12:58.
