data_PCOD8196346
_publ_section_title
;
Structure prediction by ZEFSAII (Michael W. Deem and Ramdas Pophale) SiO2 
 PCOD8196346
Probable space group: P M M M
;
_chemical_formula_sum "Si O2"
_cell_formula_units_Z 52
_cell_length_a 11.686157
_cell_length_b 8.956521
_cell_length_c 28.235749
_cell_angle_alpha 90.000000
_cell_angle_beta 90.000000
_cell_angle_gamma 90.000000
_cell_volume 2955.359910
_symmetry_space_group_name_H-M "P M M M"
_symmetry_group_IT_number 47
_symmetry_cell_setting 'orthorhombic'
loop_
_space_group_symop_operation_xyz
x,y,z
-x,-y,z
x,-y,-z
-x,y,-z
-x,-y,-z
x,y,-z
-x,y,z
x,-y,z
loop_
_atom_site_type_symbol
_atom_site_label
_atom_site_fract_x
_atom_site_fract_y
_atom_site_fract_z
Si Si1 0.630702 0.825163 0.812972
Si Si2 0.366167 0.326762 0.363431
Si Si3 0.768776 0.176730 0.720609
Si Si4 0.363472 0.168213 0.000000
Si Si5 0.636308 0.668338 0.907004
Si Si6 0.000000 0.829018 0.597859
Si Si7 0.000000 0.323273 0.697274
Si Si8 0.757485 0.827658 0.554348
O O1 0.500000 0.776245 0.804122
O O2 0.701021 0.773812 0.767335
O O3 0.682615 0.745300 0.859257
O O4 0.640069 0.000000 0.822026
O O5 0.500000 0.296212 0.357982
O O6 0.336077 0.500000 0.355828
O O7 0.299896 0.228442 0.325313
O O8 0.326051 0.276467 0.415302
O O9 0.890475 0.256180 0.723553
O O10 0.785277 0.000000 0.717365
O O11 0.314504 0.248516 0.953206
O O12 0.500000 0.173567 0.000000
O O13 0.317809 0.000000 0.000000
O O14 0.500000 0.676086 0.907562
O O15 0.681522 0.500000 0.908298
O O16 0.000000 0.719704 0.642316
O O17 0.110371 0.795229 0.566197
O O18 0.000000 0.000000 0.616288
O O19 0.000000 0.500000 0.702137
O O20 0.736088 0.785841 0.500000
O O21 0.727498 0.000000 0.564429
#
# Coordination Sequence:
#
# PCOD8196346 Si02
#       8
#     8   8   8   4   8   4   4   8
#     4   9  18  32  50  73 101 134 173 214 256 304
#     4  11  24  39  55  78 109 142 173 210 258 309
#     4  11  22  38  59  80 103 135 175 217 259 307
#     4   9  15  23  37  57  87 130 177 220 257 297
#     4   9  16  25  39  62  94 132 172 213 258 306
#     4  10  19  36  60  84 107 133 165 207 257 308
#     4  12  24  37  57  83 109 134 165 208 261 315
#     4  10  21  37  59  84 108 136 172 213 255 305
#
# _framework density 17.595148999999999
#
# number of rings (size 3 to 8) (size 9 to 14) (size 15 to 20)
#    0.000    1.923    1.538    3.000    0.000    7.385 
#    0.000    3.077    0.000    1.385    0.000    0.000 
#    0.000    0.615    0.000    6.462    0.000    4.923 
#
# Total GULP energy -644963.633908 kJ/mol
# GULP energy per Si atom -12403.146806 kJ/mol
# Density = 1.755510 g / cm^3
# Si number density = 17.595149 Si / 1000 Ang^3
#
#
#
# Elastic Constant Matrix: (Units=GPa)
#
#
# Indices 1 2 3 4 5 6 
#
# 1 76.7132 42.3803 44.1161 0.0000 0.0000 0.0000
# 2 42.3803 96.4763 60.3257 0.0000 0.0000 0.0000
# 3 44.1161 60.3257 145.7516 0.0000 0.0000 0.0000
# 4 0.0000 0.0000 0.0000 16.1208 0.0000 0.0000
# 5 0.0000 0.0000 0.0000 0.0000 4.6646 0.0000
# 6 0.0000 0.0000 0.0000 0.0000 0.0000 22.6658
#
#
#
# Elastic Compliance Matrix: (Units=1/GPa)
#
#
# Indices 1 2 3 4 5 6 
#
# 1 0.018108 -0.006108 -0.002953 0.000000 0.000000 0.000000
# 2 -0.006108 0.016045 -0.004792 0.000000 0.000000 0.000000
# 3 -0.002953 -0.004792 0.009738 0.000000 0.000000 0.000000
# 4 0.000000 0.000000 0.000000 0.062032 0.000000 0.000000
# 5 0.000000 0.000000 0.000000 0.000000 0.214380 0.000000
# 6 0.000000 0.000000 0.000000 0.000000 0.000000 0.044119
#
#
# Mechanical properties :
#
#
# Convention : Reuss Voigt Hill
#
# Bulk Modulus (GPa) = 61.78553 68.06504 64.92529
# Shear Modulus (GPa) = 12.57787 20.16484 16.37136
#
# Velocity S-wave (km/s) = 2.67657 3.38900 3.05363
# Velocity P-wave (km/s) = 6.68905 7.35403 7.02941
#
# Compressibility (1/GPa) = 0.01618502
#
# Stress axis : x y z
#
# Youngs Moduli (GPa) = 55.22369 62.32510 102.68897
#
# Poissons Ratio (x) = 0.38070 0.30322
# Poissons Ratio (y) = 0.33732 0.49209
# Poissons Ratio (z) = 0.16307 0.29866
#
# Static dielectric constant tensor:
#      x y z
#    x 3.105260 0.000000 0.000000 
#    y 0.000000 3.334450 0.000000 
#    z 0.000000 0.000000 3.392260 
# 
# 
# High freq. dielectric constant tensor:
#      x y z
#    x 1.645360 0.000000 0.000000 
#    y 0.000000 1.688550 0.000000 
#    z 0.000000 0.000000 1.688310 
# 
# From -- ./inp_files/33355.got.cif
#   From: 2010.03.12/outbox.cif.g09.slc.cpg/sg47_17_cif.got.tgz:33355.got - 2010.04.14 03:12:58.
