data_PCOD8196355
_publ_section_title
;
Structure prediction by ZEFSAII (Michael W. Deem and Ramdas Pophale) SiO2 
 PCOD8196355
Probable space group: P M M M
;
_chemical_formula_sum "Si O2"
_cell_formula_units_Z 44
_cell_length_a 9.188687
_cell_length_b 17.828631
_cell_length_c 14.343731
_cell_angle_alpha 90.000000
_cell_angle_beta 90.000000
_cell_angle_gamma 90.000000
_cell_volume 2349.814539
_symmetry_space_group_name_H-M "P M M M"
_symmetry_group_IT_number 47
_symmetry_cell_setting 'orthorhombic'
loop_
_space_group_symop_operation_xyz
x,y,z
-x,-y,z
x,-y,-z
-x,y,-z
-x,-y,-z
x,y,-z
-x,y,z
x,-y,z
loop_
_atom_site_type_symbol
_atom_site_label
_atom_site_fract_x
_atom_site_fract_y
_atom_site_fract_z
Si Si1 0.669110 0.207567 0.892592
Si Si2 0.171114 0.500000 0.108137
Si Si3 0.670809 0.363588 0.204137
Si Si4 0.832927 0.915121 0.776604
Si Si5 0.672410 0.309734 0.600849
Si Si6 0.668809 0.140278 0.605606
O O1 0.500000 0.189529 0.879214
O O2 0.710810 0.283992 0.840464
O O3 0.757337 0.138729 0.850800
O O4 0.711753 0.217317 0.000000
O O5 0.237442 0.573448 0.153924
O O6 0.000000 0.500000 0.124670
O O7 0.212528 0.500000 0.000000
O O8 0.500000 0.381553 0.193080
O O9 0.720099 0.362357 0.313147
O O10 0.760248 0.911185 0.674827
O O11 0.000000 0.891223 0.767389
O O12 0.817251 0.000000 0.813550
O O13 0.729796 0.340666 0.500000
O O14 0.500000 0.305293 0.597867
O O15 0.728265 0.225162 0.616392
O O16 0.691652 0.111632 0.500000
O O17 0.500000 0.135491 0.634154
#
# Coordination Sequence:
#
# PCOD8196355 Si02
#       6
#     8   4   8   8   8   8
#     4  10  21  38  61  86 108 137 186 244 293 337
#     4  11  25  41  56  81 118 154 187 227 276 329
#     4  10  19  36  63  89 113 143 182 229 277 329
#     4  11  24  38  52  76 114 155 191 231 281 341
#     4   8  14  28  55  88 115 139 174 222 273 325
#     4   9  17  33  58  84 110 143 186 235 282 330
#
# _framework density 18.724881
#
# number of rings (size 3 to 8) (size 9 to 14) (size 15 to 20)
#    0.000    2.273    1.818    2.455    0.000    5.091 
#    0.000    4.091    0.000    3.273    0.000    0.000 
#    0.000    0.000    0.000    0.000    0.000    0.000 
#
# Total GULP energy -545520.925686 kJ/mol
# GULP energy per Si atom -12398.202857 kJ/mol
# Density = 1.868226 g / cm^3
# Si number density = 18.724881 Si / 1000 Ang^3
#
#
#
# Elastic Constant Matrix: (Units=GPa)
#
#
# Indices 1 2 3 4 5 6 
#
# 1 70.3226 51.7669 58.3888 0.0000 0.0000 0.0000
# 2 51.7669 97.9127 68.5492 0.0000 0.0000 0.0000
# 3 58.3888 68.5492 157.6495 0.0000 0.0000 0.0000
# 4 0.0000 0.0000 0.0000 50.7718 0.0000 0.0000
# 5 0.0000 0.0000 0.0000 0.0000 19.8927 0.0000
# 6 0.0000 0.0000 0.0000 0.0000 0.0000 53.2488
#
#
#
# Elastic Compliance Matrix: (Units=1/GPa)
#
#
# Indices 1 2 3 4 5 6 
#
# 1 0.025987 -0.010065 -0.005248 0.000000 0.000000 0.000000
# 2 -0.010065 0.018581 -0.004352 0.000000 0.000000 0.000000
# 3 -0.005248 -0.004352 0.010179 0.000000 0.000000 0.000000
# 4 0.000000 0.000000 0.000000 0.019696 0.000000 0.000000
# 5 0.000000 0.000000 0.000000 0.000000 0.050270 0.000000
# 6 0.000000 0.000000 0.000000 0.000000 0.000000 0.018780
#
#
# Mechanical properties :
#
#
# Convention : Reuss Voigt Hill
#
# Bulk Modulus (GPa) = 64.86207 75.92162 70.39184
# Shear Modulus (GPa) = 26.60102 34.59465 30.59783
#
# Velocity S-wave (km/s) = 3.77321 4.30295 4.04675
# Velocity P-wave (km/s) = 7.32786 8.08214 7.71422
#
# Compressibility (1/GPa) = 0.01541733
#
# Stress axis : x y z
#
# Youngs Moduli (GPa) = 38.48051 53.81757 98.23915
#
# Poissons Ratio (x) = 0.54168 0.51560
# Poissons Ratio (y) = 0.38731 0.42751
# Poissons Ratio (z) = 0.20196 0.23420
#
# Static dielectric constant tensor:
#      x y z
#    x 3.196750 0.000000 0.000000 
#    y 0.000000 3.327460 0.000000 
#    z 0.000000 0.000000 3.970150 
# 
# 
# High freq. dielectric constant tensor:
#      x y z
#    x 1.700380 0.000000 0.000000 
#    y 0.000000 1.714710 0.000000 
#    z 0.000000 0.000000 1.746240 
# 
# From -- ./inp_files/6083.got.cif
#   From: 2010.03.12/outbox.cif.g09.slc.cpg/sg47_4_cif.got.tgz:6083.got - 2010.04.14 03:12:58.
