data_PCOD8196364
_publ_section_title
;
Structure prediction by ZEFSAII (Michael W. Deem and Ramdas Pophale) SiO2 
 PCOD8196364
Probable space group: P M M M
;
_chemical_formula_sum "Si O2"
_cell_formula_units_Z 60
_cell_length_a 9.485154
_cell_length_b 25.798928
_cell_length_c 22.266948
_cell_angle_alpha 90.000000
_cell_angle_beta 90.000000
_cell_angle_gamma 90.000000
_cell_volume 5448.873705
_symmetry_space_group_name_H-M "P M M M"
_symmetry_group_IT_number 47
_symmetry_cell_setting 'orthorhombic'
loop_
_space_group_symop_operation_xyz
x,y,z
-x,-y,z
x,-y,-z
-x,y,-z
-x,-y,-z
x,y,-z
-x,y,z
x,-y,z
loop_
_atom_site_type_symbol
_atom_site_label
_atom_site_fract_x
_atom_site_fract_y
_atom_site_fract_z
Si Si1 0.157983 0.350548 0.928571
Si Si2 0.843540 0.061600 0.278001
Si Si3 0.340396 0.061810 0.612927
Si Si4 0.661143 0.140693 0.928692
Si Si5 0.836604 0.060289 0.856883
Si Si6 0.158430 0.763733 0.071358
Si Si7 0.160674 0.938282 0.500000
Si Si8 0.658045 0.556851 0.928582
O O1 0.210987 0.293465 0.907672
O O2 0.251207 0.396528 0.899840
O O3 0.000000 0.359218 0.905332
O O4 0.163028 0.353682 0.000000
O O5 0.729576 0.083046 0.325524
O O6 0.801428 0.079038 0.210870
O O7 0.000000 0.082646 0.294411
O O8 0.848181 0.000000 0.280360
O O9 0.500000 0.083446 0.607633
O O10 0.245152 0.082389 0.558030
O O11 0.343457 0.000000 0.612513
O O12 0.500000 0.141581 0.906953
O O13 0.738243 0.090645 0.902697
O O14 0.736047 0.192699 0.903445
O O15 0.671919 0.137562 0.000000
O O16 0.000000 0.071097 0.871892
O O17 0.801386 0.000000 0.864792
O O18 0.000000 0.774419 0.095490
O O19 0.156368 0.765482 0.000000
O O20 0.000000 0.916727 0.500000
O O21 0.156545 0.000000 0.500000
O O22 0.500000 0.563262 0.904177
O O23 0.717415 0.500000 0.909432
O O24 0.659171 0.560927 0.000000
#
# Coordination Sequence:
#
# PCOD8196364 Si02
#       8
#     8   8   8   8   8   8   4   8
#     4   8  13  20  30  43  55  68  88 111 131 150
#     4   8  14  25  38  49  60  74  93 113 131 156
#     4   9  15  21  30  45  63  80  97 116 136 155
#     4  10  20  30  39  52  66  76  87 108 140 175
#     4   9  18  31  44  54  62  75  94 112 133 168
#     4   8  14  25  38  48  58  72  89 108 131 162
#     4   9  15  21  29  41  59  83 105 121 135 149
#     4   8  13  19  25  35  53  75  94 109 126 148
#
# _framework density 11.011450999999999
#
# number of rings (size 3 to 8) (size 9 to 14) (size 15 to 20)
#    0.000    3.400    0.000    3.000    0.000    5.067 
#    0.000    6.667    0.000    0.000    0.000    0.000 
#    0.000    0.000    0.000    0.000    0.000    0.000 
#
# Total GULP energy -743476.952273 kJ/mol
# GULP energy per Si atom -12391.282538 kJ/mol
# Density = 1.098639 g / cm^3
# Si number density = 11.011451 Si / 1000 Ang^3
#
#
#
# Elastic Constant Matrix: (Units=GPa)
#
#
# Indices 1 2 3 4 5 6 
#
# 1 81.8175 42.3386 22.7299 0.0000 0.0000 0.0000
# 2 42.3386 61.7900 15.7658 0.0000 0.0000 0.0000
# 3 22.7299 15.7658 21.6387 0.0000 0.0000 0.0000
# 4 0.0000 0.0000 0.0000 0.1302 0.0000 0.0000
# 5 0.0000 0.0000 0.0000 0.0000 13.3194 0.0000
# 6 0.0000 0.0000 0.0000 0.0000 0.0000 15.6330
#
#
#
# Elastic Compliance Matrix: (Units=1/GPa)
#
#
# Indices 1 2 3 4 5 6 
#
# 1 0.022356 -0.011456 -0.015136 0.000000 0.000000 0.000000
# 2 -0.011456 0.025750 -0.006728 0.000000 0.000000 0.000000
# 3 -0.015136 -0.006728 0.067015 0.000000 0.000000 0.000000
# 4 0.000000 0.000000 0.000000 7.682563 0.000000 0.000000
# 5 0.000000 0.000000 0.000000 0.000000 0.075078 0.000000
# 6 0.000000 0.000000 0.000000 0.000000 0.000000 0.063967
#
#
# Mechanical properties :
#
#
# Convention : Reuss Voigt Hill
#
# Bulk Modulus (GPa) = 20.62673 36.32387 28.47530
# Shear Modulus (GPa) = 0.62348 11.44396 6.03372
#
# Velocity S-wave (km/s) = 0.75328 3.22728 2.34337
# Velocity P-wave (km/s) = 4.41920 6.85172 5.76522
#
# Compressibility (1/GPa) = 0.04848079
#
# Stress axis : x y z
#
# Youngs Moduli (GPa) = 44.73157 38.83475 14.92212
#
# Poissons Ratio (x) = 0.44489 0.22586
# Poissons Ratio (y) = 0.51245 0.10039
# Poissons Ratio (z) = 0.67706 0.26126
#
# Static dielectric constant tensor:
#      x y z
#    x 2.560490 0.000000 0.000000 
#    y 0.000000 2.292700 0.000000 
#    z 0.000000 0.000000 2.112870 
# 
# 
# High freq. dielectric constant tensor:
#      x y z
#    x 1.428050 0.000000 0.000000 
#    y 0.000000 1.383570 0.000000 
#    z 0.000000 0.000000 1.369000 
# 
# From -- ./inp_files/30224.got.cif
#   From: 2010.03.12/outbox.cif.g09.slc.cpg/sg47_16_cif.got.tgz:30224.got - 2010.04.14 03:12:58.
