data_PCOD8196206
_publ_section_title
;
Structure prediction by ZEFSAII (Michael W. Deem and Ramdas Pophale) SiO2 
 PCOD8196206
Probable space group: P M M M
;
_chemical_formula_sum "Si O2"
_cell_formula_units_Z 64
_cell_length_a 25.446235
_cell_length_b 14.356301
_cell_length_c 9.497462
_cell_angle_alpha 90.000000
_cell_angle_beta 90.000000
_cell_angle_gamma 90.000000
_cell_volume 3469.554019
_symmetry_space_group_name_H-M "P M M M"
_symmetry_group_IT_number 47
_symmetry_cell_setting 'orthorhombic'
loop_
_space_group_symop_operation_xyz
x,y,z
-x,-y,z
x,-y,-z
-x,y,-z
-x,-y,-z
x,y,-z
-x,y,z
x,-y,z
loop_
_atom_site_type_symbol
_atom_site_label
_atom_site_fract_x
_atom_site_fract_y
_atom_site_fract_z
Si Si1 0.559028 0.236590 0.837608
Si Si2 0.155536 0.894416 0.336227
Si Si3 0.651416 0.895864 0.166823
Si Si4 0.291529 0.603685 0.159876
Si Si5 0.243138 0.206556 0.837304
Si Si6 0.937531 0.397905 0.842226
Si Si7 0.394962 0.606414 0.336770
Si Si8 0.059236 0.227604 0.662335
O O1 0.500000 0.196852 0.821890
O O2 0.599794 0.159181 0.780359
O O3 0.563330 0.329313 0.743619
O O4 0.571312 0.261979 0.000000
O O5 0.169794 0.886984 0.500000
O O6 0.194627 0.829029 0.251889
O O7 0.095846 0.861324 0.308195
O O8 0.160296 0.000000 0.281863
O O9 0.703570 0.842397 0.217840
O O10 0.650944 0.000000 0.231753
O O11 0.650479 0.901550 0.000000
O O12 0.267357 0.500000 0.182132
O O13 0.247201 0.681848 0.186014
O O14 0.338266 0.621744 0.267750
O O15 0.313390 0.614568 0.000000
O O16 0.233163 0.181643 0.000000
O O17 0.917252 0.500000 0.792093
O O18 0.916096 0.316633 0.742235
O O19 0.000000 0.397551 0.838430
O O20 0.917215 0.378128 0.000000
O O21 0.391519 0.634949 0.500000
O O22 0.413675 0.500000 0.319611
O O23 0.059074 0.255453 0.500000
O O24 0.000000 0.203026 0.713472
#
# Coordination Sequence:
#
# PCOD8196206 Si02
#       8
#     8   8   8   8   8   8   8   8
#     4  10  20  34  52  75 104 139 179 220 261 307
#     4  10  22  38  54  76 106 137 173 220 268 311
#     4   9  17  31  52  78 104 130 167 215 263 308
#     4   9  17  32  56  82 107 135 169 209 252 304
#     4  10  19  34  57  81 106 136 170 211 258 310
#     4   8  14  26  46  73 104 136 169 207 252 301
#     4  10  20  33  51  76 106 139 172 210 260 314
#     4   9  18  33  53  76 103 139 180 218 259 308
#
# _framework density 18.446173999999999
#
# number of rings (size 3 to 8) (size 9 to 14) (size 15 to 20)
#    0.000    2.625    1.250    1.125    0.000    3.750 
#    0.000    5.625    0.000    2.625    0.000    3.500 
#    0.000    0.000    0.000    0.000    0.000    0.000 
#
# Total GULP energy -793439.014024 kJ/mol
# GULP energy per Si atom -12397.484594 kJ/mol
# Density = 1.840419 g / cm^3
# Si number density = 18.446174 Si / 1000 Ang^3
#
#
#
# Elastic Constant Matrix: (Units=GPa)
#
#
# Indices 1 2 3 4 5 6 
#
# 1 92.2377 54.3904 35.6784 0.0000 0.0000 0.0000
# 2 54.3904 127.1299 43.7786 0.0000 0.0000 0.0000
# 3 35.6784 43.7786 60.5485 0.0000 0.0000 0.0000
# 4 0.0000 0.0000 0.0000 23.6729 0.0000 0.0000
# 5 0.0000 0.0000 0.0000 0.0000 23.0290 0.0000
# 6 0.0000 0.0000 0.0000 0.0000 0.0000 25.0747
#
#
#
# Elastic Compliance Matrix: (Units=1/GPa)
#
#
# Indices 1 2 3 4 5 6 
#
# 1 0.015962 -0.004780 -0.005949 0.000000 0.000000 0.000000
# 2 -0.004780 0.011905 -0.005791 0.000000 0.000000 0.000000
# 3 -0.005949 -0.005791 0.024208 0.000000 0.000000 0.000000
# 4 0.000000 0.000000 0.000000 0.042242 0.000000 0.000000
# 5 0.000000 0.000000 0.000000 0.000000 0.043424 0.000000
# 6 0.000000 0.000000 0.000000 0.000000 0.000000 0.039881
#
#
# Mechanical properties :
#
#
# Convention : Reuss Voigt Hill
#
# Bulk Modulus (GPa) = 52.53688 60.84564 56.69126
# Shear Modulus (GPa) = 23.04062 24.09323 23.56692
#
# Velocity S-wave (km/s) = 3.53806 3.61797 3.57824
# Velocity P-wave (km/s) = 6.72558 7.10704 6.91894
#
# Compressibility (1/GPa) = 0.01903425
#
# Stress axis : x y z
#
# Youngs Moduli (GPa) = 62.65075 83.99558 41.30783
#
# Poissons Ratio (x) = 0.40152 0.24574
# Poissons Ratio (y) = 0.29948 0.23922
# Poissons Ratio (z) = 0.37272 0.48644
#
# Static dielectric constant tensor:
#      x y z
#    x 3.183700 0.000000 0.000000 
#    y 0.000000 3.733270 0.000000 
#    z 0.000000 0.000000 3.296400 
# 
# 
# High freq. dielectric constant tensor:
#      x y z
#    x 1.695010 0.000000 0.000000 
#    y 0.000000 1.724020 0.000000 
#    z 0.000000 0.000000 1.695630 
# 
# From -- ./inp_files/12740.got.cif
#   From: 2010.03.12/outbox.cif.g09.slc.cpg/sg47_7_cif.got.tgz:12740.got - 2010.04.14 03:12:58.
