data_PCOD8196200
_publ_section_title
;
Structure prediction by ZEFSAII (Michael W. Deem and Ramdas Pophale) SiO2 
 PCOD8196200
Probable space group: P M M M
;
_chemical_formula_sum "Si O2"
_cell_formula_units_Z 32
_cell_length_a 16.036804
_cell_length_b 11.255640
_cell_length_c 9.883593
_cell_angle_alpha 90.000000
_cell_angle_beta 90.000000
_cell_angle_gamma 90.000000
_cell_volume 1784.032939
_symmetry_space_group_name_H-M "P M M M"
_symmetry_group_IT_number 47
_symmetry_cell_setting 'orthorhombic'
loop_
_space_group_symop_operation_xyz
x,y,z
-x,-y,z
x,-y,-z
-x,y,-z
-x,-y,-z
x,y,-z
-x,y,z
x,-y,z
loop_
_atom_site_type_symbol
_atom_site_label
_atom_site_fract_x
_atom_site_fract_y
_atom_site_fract_z
Si Si1 0.099276 0.000000 0.338175
Si Si2 0.344038 0.639402 0.660109
Si Si3 0.093943 0.634668 0.500000
Si Si4 0.822843 0.756217 0.742081
Si Si5 0.097935 0.358852 0.000000
Si Si6 0.500000 0.360839 0.154702
O O1 0.149537 0.107635 0.270174
O O2 0.110295 0.000000 0.500000
O O3 0.000000 0.000000 0.301360
O O4 0.362585 0.661158 0.500000
O O5 0.320114 0.500000 0.681659
O O6 0.274194 0.730736 0.713925
O O7 0.421118 0.677130 0.754703
O O8 0.116738 0.500000 0.500000
O O9 0.128504 0.685124 0.366670
O O10 0.000000 0.669792 0.500000
O O11 0.852949 0.700750 0.879718
O O12 0.109992 0.500000 0.000000
O O13 0.000000 0.325830 0.000000
O O14 0.500000 0.500000 0.136006
O O15 0.500000 0.305323 0.000000
#
# Coordination Sequence:
#
# PCOD8196200 Si02
#       6
#     4   8   4   8   4   4
#     4  11  22  39  61  84 115 158 212 260 290 337
#     4  10  19  34  56  85 118 150 192 244 299 359
#     4  11  20  33  55  82 112 148 194 245 298 352
#     4  12  23  37  58  84 116 159 203 247 295 349
#     4  11  24  39  55  82 120 156 194 247 310 366
#     4   9  19  33  55  86 119 152 180 226 301 375
#
# _framework density 17.936888
#
# number of rings (size 3 to 8) (size 9 to 14) (size 15 to 20)
#    0.000    1.250    2.500    4.875    1.750    4.000 
#    0.000    1.250    0.000    0.750    0.000    3.500 
#    0.000    0.000    0.000    0.000    0.000    0.000 
#
# Total GULP energy -396451.823406 kJ/mol
# GULP energy per Si atom -12389.119481 kJ/mol
# Density = 1.789606 g / cm^3
# Si number density = 17.936888 Si / 1000 Ang^3
#
#
#
# Elastic Constant Matrix: (Units=GPa)
#
#
# Indices 1 2 3 4 5 6 
#
# 1 162.9104 53.3377 75.7152 0.0000 0.0000 0.0000
# 2 53.3377 113.6246 48.0998 0.0000 0.0000 0.0000
# 3 75.7152 48.0998 167.0839 0.0000 0.0000 0.0000
# 4 0.0000 0.0000 0.0000 7.6036 0.0000 0.0000
# 5 0.0000 0.0000 0.0000 0.0000 36.8336 0.0000
# 6 0.0000 0.0000 0.0000 0.0000 0.0000 26.7185
#
#
#
# Elastic Compliance Matrix: (Units=1/GPa)
#
#
# Indices 1 2 3 4 5 6 
#
# 1 0.008430 -0.002665 -0.003053 0.000000 0.000000 0.000000
# 2 -0.002665 0.010865 -0.001920 0.000000 0.000000 0.000000
# 3 -0.003053 -0.001920 0.007921 0.000000 0.000000 0.000000
# 4 0.000000 0.000000 0.000000 0.131517 0.000000 0.000000
# 5 0.000000 0.000000 0.000000 0.000000 0.027149 0.000000
# 6 0.000000 0.000000 0.000000 0.000000 0.000000 0.037427
#
#
# Mechanical properties :
#
#
# Convention : Reuss Voigt Hill
#
# Bulk Modulus (GPa) = 83.75170 88.65827 86.20499
# Shear Modulus (GPa) = 20.61311 31.99555 26.30433
#
# Velocity S-wave (km/s) = 3.39367 4.22807 3.83364
# Velocity P-wave (km/s) = 7.88351 8.56567 8.23166
#
# Compressibility (1/GPa) = 0.01194006
#
# Stress axis : x y z
#
# Youngs Moduli (GPa) = 118.62912 92.04187 126.24350
#
# Poissons Ratio (x) = 0.24526 0.38540
# Poissons Ratio (y) = 0.31611 0.24241
# Poissons Ratio (z) = 0.36215 0.17673
#
# Static dielectric constant tensor:
#      x y z
#    x 0.997460 0.000000 0.000000 
#    y 0.000000 3.544690 0.000000 
#    z 0.000000 0.000000 3.594360 
# 
# 
# High freq. dielectric constant tensor:
#      x y z
#    x 1.701850 0.000000 0.000000 
#    y 0.000000 1.670590 0.000000 
#    z 0.000000 0.000000 1.714030 
# 
# From -- ./inp_files/8610.got.cif
#   From: 2010.03.12/outbox.cif.g09.slc.cpg/sg47_5_cif.got.tgz:8610.got - 2010.04.14 03:12:58.
