data_PCOD8196081
_publ_section_title
;
Structure prediction by ZEFSAII (Michael W. Deem and Ramdas Pophale) SiO2 
 PCOD8196081
Probable space group: P M M M
;
_chemical_formula_sum "Si O2"
_cell_formula_units_Z 48
_cell_length_a 17.835111
_cell_length_b 15.486944
_cell_length_c 8.949333
_cell_angle_alpha 90.000000
_cell_angle_beta 90.000000
_cell_angle_gamma 90.000000
_cell_volume 2471.907486
_symmetry_space_group_name_H-M "P M M M"
_symmetry_group_IT_number 47
_symmetry_cell_setting 'orthorhombic'
loop_
_space_group_symop_operation_xyz
x,y,z
-x,-y,z
x,-y,-z
-x,y,-z
-x,-y,-z
x,y,-z
-x,y,z
x,-y,z
loop_
_atom_site_type_symbol
_atom_site_label
_atom_site_fract_x
_atom_site_fract_y
_atom_site_fract_z
Si Si1 0.331656 0.000000 0.827303
Si Si2 0.084428 0.165514 0.322297
Si Si3 0.085252 0.500000 0.176598
Si Si4 0.163219 0.660551 0.674649
Si Si5 0.413880 0.500000 0.176512
Si Si6 0.412683 0.176889 0.172838
Si Si7 0.827245 0.000000 0.322453
Si Si8 0.662002 0.663103 0.325736
O O1 0.380735 0.916765 0.786490
O O2 0.257725 0.000000 0.729084
O O3 0.308346 0.000000 0.000000
O O4 0.083051 0.162148 0.500000
O O5 0.125482 0.251671 0.266716
O O6 0.000000 0.163492 0.258288
O O7 0.130026 0.083881 0.258642
O O8 0.126982 0.416453 0.235329
O O9 0.000000 0.500000 0.235333
O O10 0.088540 0.500000 0.000000
O O11 0.148154 0.645800 0.500000
O O12 0.250541 0.664761 0.711380
O O13 0.500000 0.500000 0.227372
O O14 0.375137 0.414908 0.238037
O O15 0.405951 0.500000 0.000000
O O16 0.500000 0.176934 0.210988
O O17 0.372429 0.246569 0.275712
O O18 0.398463 0.200147 0.000000
O O19 0.828126 0.000000 0.500000
O O20 0.646844 0.649520 0.500000
#
# Coordination Sequence:
#
# PCOD8196081 Si02
#       8
#     4   8   4   8   4   8   4   8
#     4  10  21  37  57  81 111 148 188 230 276 328
#     4   9  17  31  54  82 109 141 182 223 263 314
#     4  11  24  39  56  82 112 141 180 231 280 322
#     4  10  21  37  57  81 110 146 185 222 267 330
#     4  11  24  41  60  82 110 149 194 231 270 332
#     4  10  21  38  59  82 110 148 192 232 274 332
#     4  10  19  33  55  83 113 142 178 226 274 322
#     4  11  23  38  58  87 118 145 181 233 287 333
#
# _framework density 19.418203999999999
#
# number of rings (size 3 to 8) (size 9 to 14) (size 15 to 20)
#    0.000    1.833    0.000    4.000    0.000   11.667 
#    0.000    0.833    0.000    3.500    0.000    0.000 
#    0.000    0.000    0.000    0.000    0.000    0.000 
#
# Total GULP energy -595411.775027 kJ/mol
# GULP energy per Si atom -12404.411980 kJ/mol
# Density = 1.937401 g / cm^3
# Si number density = 19.418204 Si / 1000 Ang^3
#
#
#
# Elastic Constant Matrix: (Units=GPa)
#
#
# Indices 1 2 3 4 5 6 
#
# 1 151.1440 70.7497 47.3865 0.0000 0.0000 0.0000
# 2 70.7497 164.8138 38.0445 0.0000 0.0000 0.0000
# 3 47.3865 38.0445 37.4546 0.0000 0.0000 0.0000
# 4 0.0000 0.0000 0.0000 113.3877 0.0000 0.0000
# 5 0.0000 0.0000 0.0000 0.0000 23.1324 0.0000
# 6 0.0000 0.0000 0.0000 0.0000 0.0000 22.6830
#
#
#
# Elastic Compliance Matrix: (Units=1/GPa)
#
#
# Indices 1 2 3 4 5 6 
#
# 1 0.011476 -0.002057 -0.012430 0.000000 0.000000 0.000000
# 2 -0.002057 0.008295 -0.005823 0.000000 0.000000 0.000000
# 3 -0.012430 -0.005823 0.048339 0.000000 0.000000 0.000000
# 4 0.000000 0.000000 0.000000 0.008819 0.000000 0.000000
# 5 0.000000 0.000000 0.000000 0.000000 0.043229 0.000000
# 6 0.000000 0.000000 0.000000 0.000000 0.000000 0.044086
#
#
# Mechanical properties :
#
#
# Convention : Reuss Voigt Hill
#
# Bulk Modulus (GPa) = 36.37579 73.97486 55.17533
# Shear Modulus (GPa) = 23.36162 44.98941 34.17552
#
# Velocity S-wave (km/s) = 3.47230 4.81861 4.19975
# Velocity P-wave (km/s) = 5.90333 8.31486 7.21063
#
# Compressibility (1/GPa) = 0.02749081
#
# Stress axis : x y z
#
# Youngs Moduli (GPa) = 87.13781 120.56084 20.68731
#
# Poissons Ratio (x) = 0.24801 0.25714
# Poissons Ratio (y) = 0.17926 0.12045
# Poissons Ratio (z) = 1.08309 0.70197
#
# Static dielectric constant tensor:
#      x y z
#    x 3.768970 0.000000 0.000000 
#    y 0.000000 3.850150 0.000000 
#    z 0.000000 0.000000 3.338010 
# 
# 
# High freq. dielectric constant tensor:
#      x y z
#    x 1.776050 0.000000 0.000000 
#    y 0.000000 1.777500 0.000000 
#    z 0.000000 0.000000 1.734050 
# 
# From -- ./inp_files/9265.got.cif
#   From: 2010.03.12/outbox.cif.g09.slc.cpg/sg47_5_cif.got.tgz:9265.got - 2010.04.14 03:12:58.
