data_PCOD8196749
_publ_section_title
;
Structure prediction by ZEFSAII (Michael W. Deem and Ramdas Pophale) SiO2 
 PCOD8196749
Probable space group: P M M M
;
_chemical_formula_sum "Si O2"
_cell_formula_units_Z 44
_cell_length_a 13.736047
_cell_length_b 21.579683
_cell_length_c 8.807154
_cell_angle_alpha 90.000000
_cell_angle_beta 90.000000
_cell_angle_gamma 90.000000
_cell_volume 2610.612537
_symmetry_space_group_name_H-M "P M M M"
_symmetry_group_IT_number 47
_symmetry_cell_setting 'orthorhombic'
loop_
_space_group_symop_operation_xyz
x,y,z
-x,-y,z
x,-y,-z
-x,y,-z
-x,-y,-z
x,y,-z
-x,y,z
x,-y,z
loop_
_atom_site_type_symbol
_atom_site_label
_atom_site_fract_x
_atom_site_fract_y
_atom_site_fract_z
Si Si1 0.393822 0.244882 0.820540
Si Si2 0.204409 0.308683 0.819292
Si Si3 0.610632 0.000000 0.819231
Si Si4 0.888399 0.190513 0.677026
Si Si5 0.109648 0.567677 0.819543
Si Si6 0.283404 0.876672 0.179769
O O1 0.500000 0.258237 0.747108
O O2 0.315730 0.296291 0.766702
O O3 0.357114 0.177413 0.769263
O O4 0.403056 0.246275 0.000000
O O5 0.133338 0.256670 0.753211
O O6 0.175809 0.376520 0.755315
O O7 0.194458 0.304954 0.000000
O O8 0.669717 0.059692 0.759854
O O9 0.500000 0.000000 0.754823
O O10 0.605801 0.000000 0.000000
O O11 0.866813 0.196697 0.500000
O O12 0.821702 0.135627 0.745242
O O13 0.000000 0.172559 0.709883
O O14 0.148635 0.500000 0.764374
O O15 0.000000 0.577420 0.759722
O O16 0.110212 0.569553 0.000000
O O17 0.268303 0.877677 0.000000
#
# Coordination Sequence:
#
# PCOD8196749 Si02
#       6
#     8   8   4   8   8   8
#     4   8  13  22  38  61  86 109 135 169 209 249
#     4   9  16  26  44  66  84 109 146 182 213 253
#     4   9  16  28  50  77  98 114 139 179 222 259
#     4  10  20  32  45  62  87 117 145 178 221 260
#     4   8  13  21  35  58  86 111 137 174 217 257
#     4   9  17  29  47  69  89 113 144 175 209 254
#
# _framework density 16.854282999999999
#
# number of rings (size 3 to 8) (size 9 to 14) (size 15 to 20)
#    0.000    3.182    0.000    3.273    0.000    4.364 
#    0.000    0.909    0.000   18.000    0.000    6.364 
#    0.000    0.000    0.000    6.545    0.000    8.000 
#
# Total GULP energy -545276.285525 kJ/mol
# GULP energy per Si atom -12392.642853 kJ/mol
# Density = 1.681592 g / cm^3
# Si number density = 16.854283 Si / 1000 Ang^3
#
#
#
# Elastic Constant Matrix: (Units=GPa)
#
#
# Indices 1 2 3 4 5 6 
#
# 1 146.3429 89.6884 25.2807 0.0000 0.0000 0.0000
# 2 89.6884 160.9038 18.0269 0.0000 0.0000 0.0000
# 3 25.2807 18.0269 24.9344 0.0000 0.0000 0.0000
# 4 0.0000 0.0000 0.0000 5.1351 0.0000 0.0000
# 5 0.0000 0.0000 0.0000 0.0000 10.0845 0.0000
# 6 0.0000 0.0000 0.0000 0.0000 0.0000 26.4221
#
#
#
# Elastic Compliance Matrix: (Units=1/GPa)
#
#
# Indices 1 2 3 4 5 6 
#
# 1 0.011598 -0.005601 -0.007709 0.000000 0.000000 0.000000
# 2 -0.005601 0.009467 -0.001166 0.000000 0.000000 0.000000
# 3 -0.007709 -0.001166 0.048765 0.000000 0.000000 0.000000
# 4 0.000000 0.000000 0.000000 0.194737 0.000000 0.000000
# 5 0.000000 0.000000 0.000000 0.000000 0.099162 0.000000
# 6 0.000000 0.000000 0.000000 0.000000 0.000000 0.037847
#
#
# Mechanical properties :
#
#
# Convention : Reuss Voigt Hill
#
# Bulk Modulus (GPa) = 24.46352 66.46367 45.46360
# Shear Modulus (GPa) = 11.25735 21.60735 16.43235
#
# Velocity S-wave (km/s) = 2.58722 3.58440 3.12583
# Velocity P-wave (km/s) = 4.84471 7.52665 6.32936
#
# Compressibility (1/GPa) = 0.04087719
#
# Stress axis : x y z
#
# Youngs Moduli (GPa) = 86.22457 105.62493 20.50656
#
# Poissons Ratio (x) = 0.59159 0.15809
# Poissons Ratio (y) = 0.48293 0.02391
# Poissons Ratio (z) = 0.66475 0.12317
#
# Static dielectric constant tensor:
#      x y z
#    x 3.447660 0.000000 0.000000 
#    y 0.000000 3.404920 0.000000 
#    z 0.000000 0.000000 2.712220 
# 
# 
# High freq. dielectric constant tensor:
#      x y z
#    x 1.650590 0.000000 0.000000 
#    y 0.000000 1.644550 0.000000 
#    z 0.000000 0.000000 1.603700 
# 
# From -- ./inp_files/6785.got.cif
#   From: 2010.03.12/outbox.cif.g09.slc.cpg/sg47_4_cif.got.tgz:6785.got - 2010.04.14 03:12:58.
