data_PCOD8196104
_publ_section_title
;
Structure prediction by ZEFSAII (Michael W. Deem and Ramdas Pophale) SiO2 
 PCOD8196104
Probable space group: P M M M
;
_chemical_formula_sum "Si O2"
_cell_formula_units_Z 64
_cell_length_a 23.777286
_cell_length_b 8.810231
_cell_length_c 15.259793
_cell_angle_alpha 90.000000
_cell_angle_beta 90.000000
_cell_angle_gamma 90.000000
_cell_volume 3196.673050
_symmetry_space_group_name_H-M "P M M M"
_symmetry_group_IT_number 47
_symmetry_cell_setting 'orthorhombic'
loop_
_space_group_symop_operation_xyz
x,y,z
-x,-y,z
x,-y,-z
-x,y,-z
-x,-y,-z
x,y,-z
-x,y,z
x,-y,z
loop_
_atom_site_type_symbol
_atom_site_label
_atom_site_fract_x
_atom_site_fract_y
_atom_site_fract_z
Si Si1 0.562498 0.330516 0.396704
Si Si2 0.324548 0.178781 0.658986
Si Si3 0.842704 0.323053 0.228049
Si Si4 0.666294 0.675110 0.837666
Si Si5 0.784230 0.322869 0.402796
Si Si6 0.437174 0.828113 0.101341
Si Si7 0.936647 0.680695 0.098685
Si Si8 0.764149 0.828411 0.903425
O O1 0.560871 0.338351 0.500000
O O2 0.500000 0.277246 0.363471
O O3 0.575801 0.500000 0.359569
O O4 0.611874 0.215253 0.370624
O O5 0.309467 0.273763 0.744840
O O6 0.275038 0.232016 0.593745
O O7 0.320549 0.000000 0.675006
O O8 0.852823 0.500000 0.236378
O O9 0.827555 0.261275 0.326492
O O10 0.897271 0.251079 0.177322
O O11 0.791438 0.288877 0.163665
O O12 0.677112 0.500000 0.854714
O O13 0.600340 0.713139 0.842755
O O14 0.699138 0.775464 0.910095
O O15 0.811569 0.300290 0.500000
O O16 0.771262 0.500000 0.385454
O O17 0.500000 0.808960 0.137197
O O18 0.416328 0.000000 0.115984
O O19 0.434458 0.783428 0.000000
O O20 0.933165 0.500000 0.099872
O O21 0.000000 0.735870 0.118428
O O22 0.918771 0.736257 0.000000
O O23 0.769390 0.000000 0.868073
O O24 0.791157 0.815834 0.000000
#
# Coordination Sequence:
#
# PCOD8196104 Si02
#       8
#     8   8   8   8   8   8   8   8
#     4   9  19  37  59  80 103 133 170 217 278 346
#     4  12  24  37  55  78 106 139 179 230 286 343
#     4  10  19  33  56  83 111 150 197 238 277 332
#     4  12  24  37  54  76 104 138 178 224 273 330
#     4  10  21  37  56  79 110 148 190 240 294 342
#     4   9  19  37  58  77 100 133 173 219 273 330
#     4   8  14  26  48  82 121 156 194 242 287 325
#     4  11  23  37  54  79 113 148 179 224 284 335
#
# _framework density 20.020816
#
# number of rings (size 3 to 8) (size 9 to 14) (size 15 to 20)
#    0.000    1.875    1.250    4.875    0.000    6.250 
#    0.000    1.250    0.000    0.750    0.000    4.375 
#    0.000    0.000    0.000    2.250    0.000    2.625 
#
# Total GULP energy -793024.416301 kJ/mol
# GULP energy per Si atom -12391.006505 kJ/mol
# Density = 1.997525 g / cm^3
# Si number density = 20.020816 Si / 1000 Ang^3
#
#
#
# Elastic Constant Matrix: (Units=GPa)
#
#
# Indices 1 2 3 4 5 6 
#
# 1 109.3861 18.9726 52.2028 0.0000 0.0000 0.0000
# 2 18.9726 42.2806 20.4128 0.0000 0.0000 0.0000
# 3 52.2028 20.4128 109.8061 0.0000 0.0000 0.0000
# 4 0.0000 0.0000 0.0000 16.9535 0.0000 0.0000
# 5 0.0000 0.0000 0.0000 0.0000 31.3999 0.0000
# 6 0.0000 0.0000 0.0000 0.0000 0.0000 10.5769
#
#
#
# Elastic Compliance Matrix: (Units=1/GPa)
#
#
# Indices 1 2 3 4 5 6 
#
# 1 0.012145 -0.002925 -0.005230 0.000000 0.000000 0.000000
# 2 -0.002925 0.026688 -0.003571 0.000000 0.000000 0.000000
# 3 -0.005230 -0.003571 0.012257 0.000000 0.000000 0.000000
# 4 0.000000 0.000000 0.000000 0.058985 0.000000 0.000000
# 5 0.000000 0.000000 0.000000 0.000000 0.031847 0.000000
# 6 0.000000 0.000000 0.000000 0.000000 0.000000 0.094546
#
#
# Mechanical properties :
#
#
# Convention : Reuss Voigt Hill
#
# Bulk Modulus (GPa) = 36.18101 49.40546 42.79323
# Shear Modulus (GPa) = 18.57818 23.11170 20.84494
#
# Velocity S-wave (km/s) = 3.04952 3.40131 3.23021
# Velocity P-wave (km/s) = 5.52362 6.33686 5.94416
#
# Compressibility (1/GPa) = 0.02763881
#
# Stress axis : x y z
#
# Youngs Moduli (GPa) = 82.33656 37.47012 81.58427
#
# Poissons Ratio (x) = 0.10959 0.42671
# Poissons Ratio (y) = 0.24082 0.29132
# Poissons Ratio (z) = 0.43064 0.13380
#
# Static dielectric constant tensor:
#      x y z
#    x 3.848990 0.000000 0.000000 
#    y 0.000000 3.345340 0.000000 
#    z 0.000000 0.000000 3.805970 
# 
# 
# High freq. dielectric constant tensor:
#      x y z
#    x 1.767820 0.000000 0.000000 
#    y 0.000000 1.756030 0.000000 
#    z 0.000000 0.000000 1.780080 
# 
# From -- ./inp_files/12730.got.cif
#   From: 2010.03.12/outbox.cif.g09.slc.cpg/sg47_7_cif.got.tgz:12730.got - 2010.04.14 03:12:58.
