data_PCOD8196263
_publ_section_title
;
Structure prediction by ZEFSAII (Michael W. Deem and Ramdas Pophale) SiO2 
 PCOD8196263
Probable space group: P M M M
;
_chemical_formula_sum "Si O2"
_cell_formula_units_Z 52
_cell_length_a 22.494893
_cell_length_b 8.978008
_cell_length_c 14.858345
_cell_angle_alpha 90.000000
_cell_angle_beta 90.000000
_cell_angle_gamma 90.000000
_cell_volume 3000.781391
_symmetry_space_group_name_H-M "P M M M"
_symmetry_group_IT_number 47
_symmetry_cell_setting 'orthorhombic'
loop_
_space_group_symop_operation_xyz
x,y,z
-x,-y,z
x,-y,-z
-x,y,-z
-x,-y,-z
x,y,-z
-x,y,z
x,-y,z
loop_
_atom_site_type_symbol
_atom_site_label
_atom_site_fract_x
_atom_site_fract_y
_atom_site_fract_z
Si Si1 0.228848 0.675618 0.281152
Si Si2 0.618263 0.169675 0.157974
Si Si3 0.640350 0.676410 0.663412
Si Si4 0.000000 0.168361 0.607034
Si Si5 0.117872 0.675190 0.603232
Si Si6 0.247406 0.169191 0.100727
Si Si7 0.430025 0.177197 0.500000
Si Si8 0.566263 0.339747 0.000000
O O1 0.229671 0.500000 0.272815
O O2 0.290263 0.728092 0.329064
O O3 0.174989 0.733414 0.342585
O O4 0.217449 0.736929 0.180562
O O5 0.609969 0.273543 0.244556
O O6 0.682517 0.178691 0.113198
O O7 0.574382 0.237477 0.086354
O O8 0.601348 0.000000 0.182591
O O9 0.635099 0.500000 0.648789
O O10 0.605101 0.759021 0.585125
O O11 0.940964 0.248504 0.644262
O O12 0.000000 0.179446 0.500000
O O13 0.000000 0.000000 0.641919
O O14 0.127867 0.721812 0.500000
O O15 0.109398 0.500000 0.613180
O O16 0.225035 0.000000 0.109333
O O17 0.231596 0.230385 0.000000
O O18 0.500000 0.225805 0.500000
O O19 0.425167 0.000000 0.500000
O O20 0.602754 0.500000 0.000000
O O21 0.500000 0.392396 0.000000
#
# Coordination Sequence:
#
# PCOD8196263 Si02
#       8
#     8   8   8   4   8   8   4   4
#     4   9  19  32  50  79 106 133 168 209 254 303
#     4  10  19  35  55  74  99 130 163 200 249 309
#     4  10  21  37  58  81 104 130 166 215 265 307
#     4   9  17  29  45  69 102 137 178 217 247 284
#     4   9  17  30  49  71 103 142 176 206 245 296
#     4   9  17  31  50  72  99 130 162 200 248 301
#     4  11  25  43  59  75  97 132 177 216 255 311
#     4  11  23  35  49  73 101 127 161 204 251 306
#
# _framework density 17.32882
#
# number of rings (size 3 to 8) (size 9 to 14) (size 15 to 20)
#    0.000    2.385    0.769    1.615    1.077    4.923 
#    0.000    0.000    0.000    0.000    0.000    0.538 
#    0.000    4.308    0.000    0.000    0.000    0.000 
#
# Total GULP energy -644525.573759 kJ/mol
# GULP energy per Si atom -12394.722572 kJ/mol
# Density = 1.728938 g / cm^3
# Si number density = 17.328820 Si / 1000 Ang^3
#
#
#
# Elastic Constant Matrix: (Units=GPa)
#
#
# Indices 1 2 3 4 5 6 
#
# 1 102.3499 42.7398 68.9858 0.0000 0.0000 0.0000
# 2 42.7398 58.8425 36.3419 0.0000 0.0000 0.0000
# 3 68.9858 36.3419 122.3778 0.0000 0.0000 0.0000
# 4 0.0000 0.0000 0.0000 17.9605 0.0000 0.0000
# 5 0.0000 0.0000 0.0000 0.0000 -22.2689 0.0000
# 6 0.0000 0.0000 0.0000 0.0000 0.0000 20.8878
#
#
#
# Elastic Compliance Matrix: (Units=1/GPa)
#
#
# Indices 1 2 3 4 5 6 
#
# 1 0.018813 -0.008713 -0.008018 0.000000 0.000000 0.000000
# 2 -0.008713 0.024847 -0.002467 0.000000 0.000000 0.000000
# 3 -0.008018 -0.002467 0.013424 0.000000 0.000000 0.000000
# 4 0.000000 0.000000 0.000000 0.055678 0.000000 0.000000
# 5 0.000000 0.000000 0.000000 0.000000 -0.044906 0.000000
# 6 0.000000 0.000000 0.000000 0.000000 0.000000 0.047875
#
#
# Mechanical properties :
#
#
# Convention : Reuss Voigt Hill
#
# Bulk Modulus (GPa) = 53.50968 64.41168 58.96068
# Shear Modulus (GPa) = 31.18097 12.34938 21.76518
#
# Velocity S-wave (km/s) = 4.24650 2.67245 3.54787
# Velocity P-wave (km/s) = 7.41551 6.83912 7.13314
#
# Compressibility (1/GPa) = 0.01868821
#
# Stress axis : x y z
#
# Youngs Moduli (GPa) = 53.15568 40.24693 74.49531
#
# Poissons Ratio (x) = 0.35066 0.59727
# Poissons Ratio (y) = 0.46313 0.18379
# Poissons Ratio (z) = 0.42618 0.09930
#
# Static dielectric constant tensor:
#      x y z
#    x 3.218690 0.000000 0.000000 
#    y 0.000000 3.266560 0.000000 
#    z 0.000000 0.000000 3.325420 
# 
# 
# High freq. dielectric constant tensor:
#      x y z
#    x 1.647660 0.000000 0.000000 
#    y 0.000000 1.676730 0.000000 
#    z 0.000000 0.000000 1.663650 
# 
# From -- ./inp_files/25066.got.cif
#   From: 2010.03.12/outbox.cif.g09.slc.cpg/sg47_13_cif.got.tgz:25066.got - 2010.04.14 03:12:58.
