data_PCOD8196505
_publ_section_title
;
Structure prediction by ZEFSAII (Michael W. Deem and Ramdas Pophale) SiO2 
 PCOD8196505
Probable space group: P M M M
;
_chemical_formula_sum "Si O2"
_cell_formula_units_Z 56
_cell_length_a 9.141789
_cell_length_b 20.863078
_cell_length_c 18.517546
_cell_angle_alpha 90.000000
_cell_angle_beta 90.000000
_cell_angle_gamma 90.000000
_cell_volume 3531.774830
_symmetry_space_group_name_H-M "P M M M"
_symmetry_group_IT_number 47
_symmetry_cell_setting 'orthorhombic'
loop_
_space_group_symop_operation_xyz
x,y,z
-x,-y,z
x,-y,-z
-x,y,-z
-x,-y,-z
x,y,-z
-x,y,z
x,-y,z
loop_
_atom_site_type_symbol
_atom_site_label
_atom_site_fract_x
_atom_site_fract_y
_atom_site_fract_z
Si Si1 0.672523 0.682644 0.081660
Si Si2 0.167655 0.573101 0.835797
Si Si3 0.671341 0.703848 0.417842
Si Si4 0.660724 0.624883 0.710992
Si Si5 0.332069 0.925648 0.582983
Si Si6 0.338167 0.761082 0.787928
Si Si7 0.826789 0.182470 0.337421
O O1 0.500000 0.670948 0.088658
O O2 0.747694 0.617211 0.107585
O O3 0.718167 0.744220 0.130807
O O4 0.720854 0.697636 0.000000
O O5 0.186425 0.500000 0.861155
O O6 0.227129 0.579793 0.753686
O O7 0.000000 0.594511 0.835101
O O8 0.712889 0.688643 0.500000
O O9 0.500000 0.720859 0.408614
O O10 0.710410 0.639695 0.371551
O O11 0.763143 0.764539 0.391396
O O12 0.500000 0.592419 0.712670
O O13 0.653392 0.693702 0.748041
O O14 0.293133 0.910140 0.500000
O O15 0.500000 0.906593 0.598311
O O16 0.225630 0.886654 0.635426
O O17 0.306120 0.000000 0.599572
O O18 0.500000 0.792765 0.790018
O O19 0.228417 0.807699 0.745163
O O20 0.000000 0.186168 0.337839
#
# Coordination Sequence:
#
# PCOD8196505 Si02
#       7
#     8   8   8   8   8   8   8
#     4   9  18  32  49  68  88 110 138 173 211 248
#     4  10  20  31  43  61  85 113 142 169 202 250
#     4   9  17  29  44  61  82 107 136 174 219 262
#     4   8  15  28  45  62  78 102 138 177 214 249
#     4   9  18  32  47  61  82 118 159 191 220 254
#     4   8  15  29  46  62  83 111 140 171 209 252
#     4  11  20  27  40  64  91 116 145 179 211 248
#
# _framework density 15.85605
#
# number of rings (size 3 to 8) (size 9 to 14) (size 15 to 20)
#    0.000    2.857    0.000    4.286    0.000    9.429 
#    0.000    2.143    0.000    0.429    0.000    3.000 
#    0.000    0.571    0.000    6.571    0.000    1.857 
#
# Total GULP energy -694098.718049 kJ/mol
# GULP energy per Si atom -12394.619965 kJ/mol
# Density = 1.581996 g / cm^3
# Si number density = 15.856050 Si / 1000 Ang^3
#
#
#
# Elastic Constant Matrix: (Units=GPa)
#
#
# Indices 1 2 3 4 5 6 
#
# 1 80.3766 33.6657 48.7527 0.0000 0.0000 0.0000
# 2 33.6657 45.0516 41.2147 0.0000 0.0000 0.0000
# 3 48.7527 41.2147 135.1174 0.0000 0.0000 0.0000
# 4 0.0000 0.0000 0.0000 19.9401 0.0000 0.0000
# 5 0.0000 0.0000 0.0000 0.0000 10.1319 0.0000
# 6 0.0000 0.0000 0.0000 0.0000 0.0000 12.4483
#
#
#
# Elastic Compliance Matrix: (Units=1/GPa)
#
#
# Indices 1 2 3 4 5 6 
#
# 1 0.019264 -0.011147 -0.003551 0.000000 0.000000 0.000000
# 2 -0.011147 0.037239 -0.007337 0.000000 0.000000 0.000000
# 3 -0.003551 -0.007337 0.010920 0.000000 0.000000 0.000000
# 4 0.000000 0.000000 0.000000 0.050150 0.000000 0.000000
# 5 0.000000 0.000000 0.000000 0.000000 0.098698 0.000000
# 6 0.000000 0.000000 0.000000 0.000000 0.000000 0.080332
#
#
# Mechanical properties :
#
#
# Convention : Reuss Voigt Hill
#
# Bulk Modulus (GPa) = 42.81998 56.42351 49.62175
# Shear Modulus (GPa) = 14.34899 17.63158 15.99028
#
# Velocity S-wave (km/s) = 3.01151 3.33825 3.17908
# Velocity P-wave (km/s) = 6.25750 7.10779 6.69615
#
# Compressibility (1/GPa) = 0.02335358
#
# Stress axis : x y z
#
# Youngs Moduli (GPa) = 51.91008 26.85379 91.57519
#
# Poissons Ratio (x) = 0.29935 0.32514
# Poissons Ratio (y) = 0.57866 0.67186
# Poissons Ratio (z) = 0.18431 0.19702
#
# Static dielectric constant tensor:
#      x y z
#    x 2.991720 0.000000 0.000000 
#    y 0.000000 2.747850 0.000000 
#    z 0.000000 0.000000 3.511790 
# 
# 
# High freq. dielectric constant tensor:
#      x y z
#    x 1.605990 0.000000 0.000000 
#    y 0.000000 1.570190 0.000000 
#    z 0.000000 0.000000 1.605740 
# 
# From -- ./inp_files/27069.got.cif
#   From: 2010.03.12/outbox.cif.g09.slc.cpg/sg47_14_cif.got.tgz:27069.got - 2010.04.14 03:12:58.
