data_PCOD8196764
_publ_section_title
;
Structure prediction by ZEFSAII (Michael W. Deem and Ramdas Pophale) SiO2 
 PCOD8196764
Probable space group: P M M M
;
_chemical_formula_sum "Si O2"
_cell_formula_units_Z 44
_cell_length_a 9.144374
_cell_length_b 28.807568
_cell_length_c 9.193633
_cell_angle_alpha 90.000000
_cell_angle_beta 90.000000
_cell_angle_gamma 90.000000
_cell_volume 2421.852777
_symmetry_space_group_name_H-M "P M M M"
_symmetry_group_IT_number 47
_symmetry_cell_setting 'orthorhombic'
loop_
_space_group_symop_operation_xyz
x,y,z
-x,-y,z
x,-y,-z
-x,y,-z
-x,-y,-z
x,y,-z
-x,y,z
x,-y,z
loop_
_atom_site_type_symbol
_atom_site_label
_atom_site_fract_x
_atom_site_fract_y
_atom_site_fract_z
Si Si1 0.172568 0.500000 0.658429
Si Si2 0.325769 0.771872 0.335620
Si Si3 0.326453 0.681924 0.165418
Si Si4 0.325417 0.138781 0.163594
Si Si5 0.831390 0.399509 0.672787
Si Si6 0.326097 0.051188 0.663412
O O1 0.247605 0.500000 0.500000
O O2 0.214698 0.548977 0.734807
O O3 0.000000 0.500000 0.636175
O O4 0.264884 0.770417 0.500000
O O5 0.500000 0.772184 0.336013
O O6 0.266247 0.727205 0.249003
O O7 0.265691 0.817999 0.257004
O O8 0.500000 0.680826 0.170067
O O9 0.269443 0.636450 0.244719
O O10 0.269206 0.683572 0.000000
O O11 0.500000 0.138551 0.164699
O O12 0.262610 0.090990 0.231495
O O13 0.265594 0.143302 0.000000
O O14 0.804301 0.396756 0.500000
O O15 0.000000 0.388785 0.708962
O O16 0.268720 0.060258 0.500000
O O17 0.500000 0.053370 0.663690
O O18 0.274653 0.000000 0.717155
#
# Coordination Sequence:
#
# PCOD8196764 Si02
#       6
#     4   8   8   8   8   8
#     4   7  12  26  48  71  92 114 144 183 220 255
#     4   9  16  26  40  55  72  99 136 175 213 255
#     4  10  20  32  45  64  92 122 150 183 224 267
#     4   9  15  21  30  45  65  89 120 161 208 256
#     4   9  17  31  52  74  93 116 149 186 222 262
#     4   8  13  20  28  38  55  82 118 160 203 246
#
# _framework density 18.167909000000002
#
# number of rings (size 3 to 8) (size 9 to 14) (size 15 to 20)
#    0.000    3.182    0.000    3.273    0.000    6.182 
#    0.000    2.727    0.000    4.364    0.000    0.000 
#    0.000    0.000    0.000    0.000    0.000    0.909 
#
# Total GULP energy -545225.355769 kJ/mol
# GULP energy per Si atom -12391.485358 kJ/mol
# Density = 1.812656 g / cm^3
# Si number density = 18.167909 Si / 1000 Ang^3
#
#
#
# Elastic Constant Matrix: (Units=GPa)
#
#
# Indices 1 2 3 4 5 6 
#
# 1 4.3688 10.9701 9.5372 0.0000 0.0000 0.0000
# 2 10.9701 187.6592 85.0597 0.0000 0.0000 0.0000
# 3 9.5372 85.0597 122.8011 0.0000 0.0000 0.0000
# 4 0.0000 0.0000 0.0000 15.3965 0.0000 0.0000
# 5 0.0000 0.0000 0.0000 0.0000 11.0058 0.0000
# 6 0.0000 0.0000 0.0000 0.0000 0.0000 -2.5389
#
#
#
# Elastic Compliance Matrix: (Units=1/GPa)
#
#
# Indices 1 2 3 4 5 6 
#
# 1 0.287343 -0.009740 -0.015569 0.000000 0.000000 0.000000
# 2 -0.009740 0.008098 -0.004852 0.000000 0.000000 0.000000
# 3 -0.015569 -0.004852 0.012714 0.000000 0.000000 0.000000
# 4 0.000000 0.000000 0.000000 0.064950 0.000000 0.000000
# 5 0.000000 0.000000 0.000000 0.000000 0.090861 0.000000
# 6 0.000000 0.000000 0.000000 0.000000 0.000000 -0.393868
#
#
# Mechanical properties :
#
#
# Convention : Reuss Voigt Hill
#
# Bulk Modulus (GPa) = 4.03503 58.44033 31.23768
# Shear Modulus (GPa) = 23.47071 18.72348 21.09709
#
# Velocity S-wave (km/s) = 3.59817 3.21375 3.41138
# Velocity P-wave (km/s) = 4.41455 6.78288 5.72257
#
# Compressibility (1/GPa) = 0.24782992
#
# Stress axis : x y z
#
# Youngs Moduli (GPa) = 3.48016 123.49220 78.65611
#
# Poissons Ratio (x) = 1.20284 1.22463
# Poissons Ratio (y) = 0.03390 0.38168
# Poissons Ratio (z) = 0.05418 0.59925
#
# Static dielectric constant tensor:
#      x y z
#    x 2.581580 0.000000 0.000000 
#    y 0.000000 3.787740 0.000000 
#    z 0.000000 0.000000 3.424900 
# 
# 
# High freq. dielectric constant tensor:
#      x y z
#    x 1.619750 0.000000 0.000000 
#    y 0.000000 1.729590 0.000000 
#    z 0.000000 0.000000 1.699290 
# 
# From -- ./inp_files/2116.got.cif
#   From: 2010.03.12/outbox.cif.g09.slc.cpg/sg47_2_cif.got.tgz:2116.got - 2010.04.14 03:12:58.
