data_PCOD8196819
_publ_section_title
;
Structure prediction by ZEFSAII (Michael W. Deem and Ramdas Pophale) SiO2 
 PCOD8196819
Probable space group: P M M M
;
_chemical_formula_sum "Si O2"
_cell_formula_units_Z 56
_cell_length_a 14.706060
_cell_length_b 23.597951
_cell_length_c 9.028049
_cell_angle_alpha 90.000000
_cell_angle_beta 90.000000
_cell_angle_gamma 90.000000
_cell_volume 3133.029875
_symmetry_space_group_name_H-M "P M M M"
_symmetry_group_IT_number 47
_symmetry_cell_setting 'orthorhombic'
loop_
_space_group_symop_operation_xyz
x,y,z
-x,-y,z
x,-y,-z
-x,y,-z
-x,-y,-z
x,y,-z
-x,y,z
x,-y,z
loop_
_atom_site_type_symbol
_atom_site_label
_atom_site_fract_x
_atom_site_fract_y
_atom_site_fract_z
Si Si1 0.606951 0.755316 0.168870
Si Si2 0.771600 0.062172 0.673675
Si Si3 0.602247 0.131274 0.670287
Si Si4 0.899134 0.286338 0.323848
Si Si5 0.716405 0.658431 0.324727
Si Si6 0.602781 0.434152 0.171687
Si Si7 0.103208 0.839799 0.326535
O O1 0.500000 0.745813 0.182947
O O2 0.634731 0.816773 0.228687
O O3 0.653631 0.708747 0.269435
O O4 0.639876 0.749333 0.000000
O O5 0.792230 0.058831 0.500000
O O6 0.666490 0.077863 0.703136
O O7 0.834520 0.111147 0.747020
O O8 0.790458 0.000000 0.744509
O O9 0.610538 0.151111 0.500000
O O10 0.500000 0.112295 0.709317
O O11 0.901536 0.282798 0.500000
O O12 0.820937 0.330245 0.271680
O O13 0.875981 0.223096 0.261616
O O14 0.000000 0.305463 0.266998
O O15 0.711022 0.655503 0.500000
O O16 0.679639 0.599456 0.260839
O O17 0.500000 0.418936 0.224972
O O18 0.622032 0.500000 0.198594
O O19 0.611891 0.418214 0.000000
O O20 0.123785 0.837863 0.500000
O O21 0.000000 0.856814 0.293048
#
# Coordination Sequence:
#
# PCOD8196819 Si02
#       7
#     8   8   8   8   8   8   8
#     4  10  20  32  46  66  94 126 156 188 234 291
#     4   9  16  24  36  58  86 112 141 182 232 282
#     4   9  17  29  44  61  83 113 150 190 229 273
#     4   8  15  28  45  67  96 127 156 189 235 288
#     4  11  20  29  49  78 102 125 157 199 241 277
#     4   9  19  36  54  71  98 138 174 198 227 272
#     4   8  13  22  36  54  81 117 149 177 218 275
#
# _framework density 17.874071000000001
#
# number of rings (size 3 to 8) (size 9 to 14) (size 15 to 20)
#    0.000    2.857    0.000    3.429    0.000    6.000 
#    0.000    3.571    0.000    2.571    0.000    5.000 
#    0.000    0.000    0.000    5.143    0.000    4.571 
#
# Total GULP energy -694048.682059 kJ/mol
# GULP energy per Si atom -12393.726465 kJ/mol
# Density = 1.783339 g / cm^3
# Si number density = 17.874071 Si / 1000 Ang^3
#
#
#
# Elastic Constant Matrix: (Units=GPa)
#
#
# Indices 1 2 3 4 5 6 
#
# 1 91.1349 72.7963 33.1562 0.0000 0.0000 0.0000
# 2 72.7963 102.3424 32.8865 0.0000 0.0000 0.0000
# 3 33.1562 32.8865 36.4761 0.0000 0.0000 0.0000
# 4 0.0000 0.0000 0.0000 4.9862 0.0000 0.0000
# 5 0.0000 0.0000 0.0000 0.0000 9.2289 0.0000
# 6 0.0000 0.0000 0.0000 0.0000 0.0000 29.4373
#
#
#
# Elastic Compliance Matrix: (Units=1/GPa)
#
#
# Indices 1 2 3 4 5 6 
#
# 1 0.028031 -0.016544 -0.010564 0.000000 0.000000 0.000000
# 2 -0.016544 0.023521 -0.006168 0.000000 0.000000 0.000000
# 3 -0.010564 -0.006168 0.042579 0.000000 0.000000 0.000000
# 4 0.000000 0.000000 0.000000 0.200552 0.000000 0.000000
# 5 0.000000 0.000000 0.000000 0.000000 0.108355 0.000000
# 6 0.000000 0.000000 0.000000 0.000000 0.000000 0.033970
#
#
# Mechanical properties :
#
#
# Convention : Reuss Voigt Hill
#
# Bulk Modulus (GPa) = 36.25967 56.40350 46.33158
# Shear Modulus (GPa) = 9.75131 14.80479 12.27805
#
# Velocity S-wave (km/s) = 2.33825 2.88111 2.62376
# Velocity P-wave (km/s) = 5.25548 6.53393 5.92927
#
# Compressibility (1/GPa) = 0.02757885
#
# Stress axis : x y z
#
# Youngs Moduli (GPa) = 35.67509 42.51568 23.48591
#
# Poissons Ratio (x) = 0.70337 0.24810
# Poissons Ratio (y) = 0.59020 0.14486
# Poissons Ratio (z) = 0.37687 0.26224
#
# Static dielectric constant tensor:
#      x y z
#    x 3.572290 0.000000 0.000000 
#    y 0.000000 3.437620 0.000000 
#    z 0.000000 0.000000 2.939820 
# 
# 
# High freq. dielectric constant tensor:
#      x y z
#    x 1.697410 0.000000 0.000000 
#    y 0.000000 1.683120 0.000000 
#    z 0.000000 0.000000 1.643930 
# 
# From -- ./inp_files/7320.got.cif
#   From: 2010.03.12/outbox.cif.g09.slc.cpg/sg47_4_cif.got.tgz:7320.got - 2010.04.14 03:12:58.
