data_PCOD8196876
_publ_section_title
;
Structure prediction by ZEFSAII (Michael W. Deem and Ramdas Pophale) SiO2 
 PCOD8196876
Probable space group: P M M M
;
_chemical_formula_sum "Si O2"
_cell_formula_units_Z 44
_cell_length_a 9.408689
_cell_length_b 28.579315
_cell_length_c 8.540352
_cell_angle_alpha 90.000000
_cell_angle_beta 90.000000
_cell_angle_gamma 90.000000
_cell_volume 2296.448443
_symmetry_space_group_name_H-M "P M M M"
_symmetry_group_IT_number 47
_symmetry_cell_setting 'orthorhombic'
loop_
_space_group_symop_operation_xyz
x,y,z
-x,-y,z
x,-y,-z
-x,y,-z
-x,-y,-z
x,y,-z
-x,y,z
x,-y,z
loop_
_atom_site_type_symbol
_atom_site_label
_atom_site_fract_x
_atom_site_fract_y
_atom_site_fract_z
Si Si1 0.340560 0.585900 0.813816
Si Si2 0.159581 0.500000 0.187226
Si Si3 0.340548 0.689403 0.813839
Si Si4 0.161144 0.775868 0.186104
Si Si5 0.159316 0.051806 0.313867
Si Si6 0.661257 0.138229 0.313886
O O1 0.500000 0.575467 0.754258
O O2 0.236444 0.546332 0.745252
O O3 0.292196 0.637655 0.756416
O O4 0.337727 0.584235 0.000000
O O5 0.000000 0.500000 0.251661
O O6 0.162965 0.500000 0.000000
O O7 0.500000 0.700361 0.752433
O O8 0.231960 0.728144 0.747969
O O9 0.341050 0.690585 0.000000
O O10 0.249855 0.818925 0.249373
O O11 0.000000 0.778565 0.249281
O O12 0.164301 0.776661 0.000000
O O13 0.160374 0.052562 0.500000
O O14 0.268718 0.090336 0.248248
O O15 0.000000 0.063501 0.253764
O O16 0.205101 0.000000 0.254669
O O17 0.665292 0.139322 0.500000
O O18 0.500000 0.141010 0.251296
#
# Coordination Sequence:
#
# PCOD8196876 Si02
#       6
#     8   4   8   8   8   8
#     4   8  13  21  32  45  64  94 131 168 208 256
#     4   9  15  19  25  41  65  93 126 167 212 253
#     4   8  14  25  40  56  75 103 140 180 219 260
#     4  10  20  32  47  67  90 119 154 189 227 271
#     4   8  14  26  45  68  93 120 148 179 218 264
#     4  10  20  32  48  71  96 122 152 186 224 264
#
# _framework density 19.160018999999998
#
# number of rings (size 3 to 8) (size 9 to 14) (size 15 to 20)
#    0.000    3.182    0.000    3.000    0.000    4.364 
#    0.000    5.455    0.000    0.545    0.000    3.818 
#    0.000    0.000    0.000    0.818    0.000   16.727 
#
# Total GULP energy -545314.668200 kJ/mol
# GULP energy per Si atom -12393.515186 kJ/mol
# Density = 1.911641 g / cm^3
# Si number density = 19.160019 Si / 1000 Ang^3
#
#
#
# Elastic Constant Matrix: (Units=GPa)
#
#
# Indices 1 2 3 4 5 6 
#
# 1 180.6911 129.9624 9.7021 0.0000 0.0000 0.0000
# 2 129.9624 205.2181 8.7152 0.0000 0.0000 0.0000
# 3 9.7021 8.7152 3.9426 0.0000 0.0000 0.0000
# 4 0.0000 0.0000 0.0000 49.7952 0.0000 0.0000
# 5 0.0000 0.0000 0.0000 0.0000 13.1259 0.0000
# 6 0.0000 0.0000 0.0000 0.0000 0.0000 41.2072
#
#
#
# Elastic Compliance Matrix: (Units=1/GPa)
#
#
# Indices 1 2 3 4 5 6 
#
# 1 0.010696 -0.006242 -0.012524 0.000000 0.000000 0.000000
# 2 -0.006242 0.009020 -0.004579 0.000000 0.000000 0.000000
# 3 -0.012524 -0.004579 0.294577 0.000000 0.000000 0.000000
# 4 0.000000 0.000000 0.000000 0.020082 0.000000 0.000000
# 5 0.000000 0.000000 0.000000 0.000000 0.076185 0.000000
# 6 0.000000 0.000000 0.000000 0.000000 0.000000 0.024268
#
#
# Mechanical properties :
#
#
# Convention : Reuss Voigt Hill
#
# Bulk Modulus (GPa) = 3.73686 76.29013 40.01349
# Shear Modulus (GPa) = 8.76087 36.92380 22.84233
#
# Velocity S-wave (km/s) = 2.14065 4.39467 3.45655
# Velocity P-wave (km/s) = 2.83980 8.10275 6.07120
#
# Compressibility (1/GPa) = 0.26760437
#
# Stress axis : x y z
#
# Youngs Moduli (GPa) = 93.48994 110.86067 3.39470
#
# Poissons Ratio (x) = 0.69199 0.04251
# Poissons Ratio (y) = 0.58357 0.01554
# Poissons Ratio (z) = 1.17083 0.50763
#
# Static dielectric constant tensor:
#      x y z
#    x 3.831660 0.000000 0.000000 
#    y 0.000000 3.979690 0.000000 
#    z 0.000000 0.000000 2.778760 
# 
# 
# High freq. dielectric constant tensor:
#      x y z
#    x 1.748110 0.000000 0.000000 
#    y 0.000000 1.765450 0.000000 
#    z 0.000000 0.000000 1.668300 
# 
# From -- ./inp_files/2068.got.cif
#   From: 2010.03.12/outbox.cif.g09.slc.cpg/sg47_2_cif.got.tgz:2068.got - 2010.04.14 03:12:58.
