data_PCOD8196288
_publ_section_title
;
Structure prediction by ZEFSAII (Michael W. Deem and Ramdas Pophale) SiO2 
 PCOD8196288
Probable space group: P M M M
;
_chemical_formula_sum "Si O2"
_cell_formula_units_Z 52
_cell_length_a 23.125895
_cell_length_b 14.257842
_cell_length_c 9.061056
_cell_angle_alpha 90.000000
_cell_angle_beta 90.000000
_cell_angle_gamma 90.000000
_cell_volume 2987.659925
_symmetry_space_group_name_H-M "P M M M"
_symmetry_group_IT_number 47
_symmetry_cell_setting 'orthorhombic'
loop_
_space_group_symop_operation_xyz
x,y,z
-x,-y,z
x,-y,-z
-x,y,-z
-x,-y,-z
x,y,-z
-x,y,z
x,-y,z
loop_
_atom_site_type_symbol
_atom_site_label
_atom_site_fract_x
_atom_site_fract_y
_atom_site_fract_z
Si Si1 0.227969 0.891211 0.829619
Si Si2 0.000000 0.107285 0.674639
Si Si3 0.563835 0.894975 0.324662
Si Si4 0.893499 0.795808 0.172271
Si Si5 0.154687 0.397827 0.824868
Si Si6 0.714715 0.606294 0.829370
Si Si7 0.671819 0.779253 0.325018
O O1 0.164571 0.852525 0.794696
O O2 0.273470 0.837897 0.729185
O O3 0.229194 0.000000 0.787955
O O4 0.243746 0.873593 0.000000
O O5 0.943741 0.158947 0.733607
O O6 0.000000 0.112523 0.500000
O O7 0.000000 0.000000 0.730504
O O8 0.565961 0.896110 0.500000
O O9 0.500000 0.861537 0.271528
O O10 0.613009 0.825970 0.262482
O O11 0.576112 0.000000 0.265196
O O12 0.886056 0.687581 0.226871
O O13 0.909910 0.800141 0.000000
O O14 0.131428 0.500000 0.768569
O O15 0.219988 0.381975 0.767984
O O16 0.157884 0.398862 0.000000
O O17 0.693137 0.500000 0.807224
O O18 0.673223 0.673632 0.736068
O O19 0.711818 0.635984 0.000000
O O20 0.672569 0.777153 0.500000
#
# Coordination Sequence:
#
# PCOD8196288 Si02
#       7
#     8   4   8   8   8   8   8
#     4  10  20  33  50  74 104 135 168 209 254 303
#     4  11  25  41  54  71 100 136 171 209 256 305
#     4   8  15  29  47  67  96 137 180 214 247 296
#     4  10  19  35  58  78  97 128 173 213 242 289
#     4   8  14  28  53  80 101 124 160 204 244 288
#     4   9  17  32  53  74 101 137 171 203 247 306
#     4  11  20  29  48  78 107 131 164 213 265 311
#
# _framework density 17.404926
#
# number of rings (size 3 to 8) (size 9 to 14) (size 15 to 20)
#    0.000    2.538    1.538    3.000    0.000    3.077 
#    0.000    0.385    0.000    5.077    0.000    8.615 
#    0.000    0.000    0.000    0.000    0.000    0.000 
#
# Total GULP energy -644623.782702 kJ/mol
# GULP energy per Si atom -12396.611206 kJ/mol
# Density = 1.736531 g / cm^3
# Si number density = 17.404926 Si / 1000 Ang^3
#
#
#
# Elastic Constant Matrix: (Units=GPa)
#
#
# Indices 1 2 3 4 5 6 
#
# 1 103.9996 70.0503 36.8934 0.0000 0.0000 0.0000
# 2 70.0503 148.0527 39.7425 0.0000 0.0000 0.0000
# 3 36.8934 39.7425 44.3437 0.0000 0.0000 0.0000
# 4 0.0000 0.0000 0.0000 25.7586 0.0000 0.0000
# 5 0.0000 0.0000 0.0000 0.0000 -74.2280 0.0000
# 6 0.0000 0.0000 0.0000 0.0000 0.0000 21.6399
#
#
#
# Elastic Compliance Matrix: (Units=1/GPa)
#
#
# Indices 1 2 3 4 5 6 
#
# 1 0.016356 -0.005380 -0.008786 0.000000 0.000000 0.000000
# 2 -0.005380 0.010664 -0.005081 0.000000 0.000000 0.000000
# 3 -0.008786 -0.005081 0.034415 0.000000 0.000000 0.000000
# 4 0.000000 0.000000 0.000000 0.038822 0.000000 0.000000
# 5 0.000000 0.000000 0.000000 0.000000 -0.013472 0.000000
# 6 0.000000 0.000000 0.000000 0.000000 0.000000 0.046211
#
#
# Mechanical properties :
#
#
# Convention : Reuss Voigt Hill
#
# Bulk Modulus (GPa) = 43.59188 65.52981 54.56085
# Shear Modulus (GPa) = 27.91144 4.61475 16.26309
#
# Velocity S-wave (km/s) = 4.00891 1.63008 3.06011
# Velocity P-wave (km/s) = 6.82118 6.42454 6.62583
#
# Compressibility (1/GPa) = 0.02294005
#
# Stress axis : x y z
#
# Youngs Moduli (GPa) = 61.13857 93.77362 29.05718
#
# Poissons Ratio (x) = 0.50454 0.25530
# Poissons Ratio (y) = 0.32895 0.14764
# Poissons Ratio (z) = 0.53717 0.47647
#
# Static dielectric constant tensor:
#      x y z
#    x 3.294470 0.000000 0.000000 
#    y 0.000000 3.715980 0.000000 
#    z 0.000000 0.000000 2.926000 
# 
# 
# High freq. dielectric constant tensor:
#      x y z
#    x 1.657650 0.000000 0.000000 
#    y 0.000000 1.688230 0.000000 
#    z 0.000000 0.000000 1.639680 
# 
# From -- ./inp_files/10962.got.cif
#   From: 2010.03.12/outbox.cif.g09.slc.cpg/sg47_6_cif.got.tgz:10962.got - 2010.04.14 03:12:58.
