data_PCOD8196597
_publ_section_title
;
Structure prediction by ZEFSAII (Michael W. Deem and Ramdas Pophale) SiO2 
 PCOD8196597
Probable space group: P M M M
;
_chemical_formula_sum "Si O2"
_cell_formula_units_Z 52
_cell_length_a 15.107549
_cell_length_b 23.268186
_cell_length_c 9.019942
_cell_angle_alpha 90.000000
_cell_angle_beta 90.000000
_cell_angle_gamma 90.000000
_cell_volume 3170.737458
_symmetry_space_group_name_H-M "P M M M"
_symmetry_group_IT_number 47
_symmetry_cell_setting 'orthorhombic'
loop_
_space_group_symop_operation_xyz
x,y,z
-x,-y,z
x,-y,-z
-x,y,-z
-x,-y,-z
x,y,-z
-x,y,z
x,-y,z
loop_
_atom_site_type_symbol
_atom_site_label
_atom_site_fract_x
_atom_site_fract_y
_atom_site_fract_z
Si Si1 0.278856 0.770814 0.324454
Si Si2 0.500000 0.937312 0.325860
Si Si3 0.604394 0.437027 0.664855
Si Si4 0.660297 0.116721 0.168781
Si Si5 0.396348 0.676215 0.173744
Si Si6 0.902871 0.177593 0.329029
Si Si7 0.846883 0.935761 0.169492
O O1 0.295855 0.777470 0.500000
O O2 0.321082 0.820605 0.228873
O O3 0.326687 0.713640 0.267403
O O4 0.172879 0.775403 0.287034
O O5 0.500000 0.940671 0.500000
O O6 0.414163 0.905129 0.275234
O O7 0.500000 0.000000 0.252643
O O8 0.640616 0.421105 0.500000
O O9 0.500000 0.440913 0.656538
O O10 0.641791 0.500000 0.713399
O O11 0.630882 0.388923 0.784585
O O12 0.742118 0.073645 0.182672
O O13 0.627115 0.121533 0.000000
O O14 0.500000 0.689173 0.215370
O O15 0.381070 0.685864 0.000000
O O16 0.893351 0.162674 0.500000
O O17 0.896354 0.115441 0.252364
O O18 0.000000 0.203925 0.291280
O O19 0.868807 0.000000 0.232865
O O20 0.877656 0.932624 0.000000
#
# Coordination Sequence:
#
# PCOD8196597 Si02
#       7
#     8   4   8   8   8   8   8
#     4  10  20  34  51  69  92 122 156 195 236 280
#     4  11  23  35  47  65  87 113 150 191 230 277
#     4   8  14  26  44  66  94 129 167 202 234 267
#     4  10  20  34  50  65  86 116 150 190 233 276
#     4  10  20  31  45  68  99 133 167 199 232 271
#     4   9  19  35  52  70  91 116 148 188 237 287
#     4   9  18  32  49  69  91 114 142 178 225 282
#
# _framework density 16.399971000000001
#
# number of rings (size 3 to 8) (size 9 to 14) (size 15 to 20)
#    0.000    2.538    0.000    2.538    1.077    4.615 
#    0.000    3.077    0.000    0.000    0.000    0.000 
#    0.000    0.615    0.000    7.077    0.000    2.308 
#
# Total GULP energy -644284.941513 kJ/mol
# GULP energy per Si atom -12390.095029 kJ/mol
# Density = 1.636264 g / cm^3
# Si number density = 16.399971 Si / 1000 Ang^3
#
#
#
# Elastic Constant Matrix: (Units=GPa)
#
#
# Indices 1 2 3 4 5 6 
#
# 1 80.6074 35.1718 24.6540 0.0000 0.0000 0.0000
# 2 35.1718 77.7148 18.8591 0.0000 0.0000 0.0000
# 3 24.6540 18.8591 50.0438 0.0000 0.0000 0.0000
# 4 0.0000 0.0000 0.0000 27.1670 0.0000 0.0000
# 5 0.0000 0.0000 0.0000 0.0000 19.5349 0.0000
# 6 0.0000 0.0000 0.0000 0.0000 0.0000 16.1401
#
#
#
# Elastic Compliance Matrix: (Units=1/GPa)
#
#
# Indices 1 2 3 4 5 6 
#
# 1 0.016956 -0.006215 -0.006011 0.000000 0.000000 0.000000
# 2 -0.006215 0.016441 -0.003134 0.000000 0.000000 0.000000
# 3 -0.006011 -0.003134 0.024125 0.000000 0.000000 0.000000
# 4 0.000000 0.000000 0.000000 0.036809 0.000000 0.000000
# 5 0.000000 0.000000 0.000000 0.000000 0.051190 0.000000
# 6 0.000000 0.000000 0.000000 0.000000 0.000000 0.061958
#
#
# Mechanical properties :
#
#
# Convention : Reuss Voigt Hill
#
# Bulk Modulus (GPa) = 37.31149 40.63732 38.97441
# Shear Modulus (GPa) = 20.23194 21.21381 20.72288
#
# Velocity S-wave (km/s) = 3.51616 3.60047 3.55856
# Velocity P-wave (km/s) = 6.26776 6.48977 6.37973
#
# Compressibility (1/GPa) = 0.02680140
#
# Stress axis : x y z
#
# Youngs Moduli (GPa) = 58.97518 60.82385 41.45090
#
# Poissons Ratio (x) = 0.37803 0.24917
# Poissons Ratio (y) = 0.36654 0.12990
# Poissons Ratio (z) = 0.35452 0.19061
#
# Static dielectric constant tensor:
#      x y z
#    x 4.184370 0.000000 0.000000 
#    y 0.000000 3.225800 0.000000 
#    z 0.000000 0.000000 3.181760 
# 
# 
# High freq. dielectric constant tensor:
#      x y z
#    x 1.608850 0.000000 0.000000 
#    y 0.000000 1.618740 0.000000 
#    z 0.000000 0.000000 1.639040 
# 
# From -- ./inp_files/7605.got.cif
#   From: 2010.03.12/outbox.cif.g09.slc.cpg/sg47_4_cif.got.tgz:7605.got - 2010.04.14 03:12:58.
