data_PCOD8196422
_publ_section_title
;
Structure prediction by ZEFSAII (Michael W. Deem and Ramdas Pophale) SiO2 
 PCOD8196422
Probable space group: P M M M
;
_chemical_formula_sum "Si O2"
_cell_formula_units_Z 48
_cell_length_a 17.612292
_cell_length_b 9.185266
_cell_length_c 22.917841
_cell_angle_alpha 90.000000
_cell_angle_beta 90.000000
_cell_angle_gamma 90.000000
_cell_volume 3707.501342
_symmetry_space_group_name_H-M "P M M M"
_symmetry_group_IT_number 47
_symmetry_cell_setting 'orthorhombic'
loop_
_space_group_symop_operation_xyz
x,y,z
-x,-y,z
x,-y,-z
-x,y,-z
-x,-y,-z
x,y,-z
-x,y,z
x,-y,z
loop_
_atom_site_type_symbol
_atom_site_label
_atom_site_fract_x
_atom_site_fract_y
_atom_site_fract_z
Si Si1 0.311460 0.830161 0.932058
Si Si2 0.409531 0.834890 0.500000
Si Si3 0.589062 0.668856 0.159095
Si Si4 0.409641 0.835177 0.726229
Si Si5 0.142177 0.838899 0.069300
Si Si6 0.000000 0.662197 0.930269
Si Si7 0.590532 0.334869 0.613377
O O1 0.370390 0.731239 0.897746
O O2 0.226077 0.783656 0.912964
O O3 0.325095 0.000000 0.918257
O O4 0.324573 0.798751 0.000000
O O5 0.500000 0.836844 0.500000
O O6 0.378796 0.750489 0.556788
O O7 0.378164 0.000000 0.500000
O O8 0.500000 0.693388 0.150286
O O9 0.608883 0.500000 0.167207
O O10 0.619346 0.754451 0.215766
O O11 0.500000 0.835912 0.724508
O O12 0.377937 0.748065 0.670356
O O13 0.378009 0.000000 0.725368
O O14 0.076077 0.736934 0.094936
O O15 0.128401 0.000000 0.094651
O O16 0.137312 0.844491 0.000000
O O17 0.000000 0.500000 0.905936
O O18 0.000000 0.666914 0.000000
O O19 0.500000 0.336349 0.613658
O O20 0.621724 0.500000 0.612748
#
# Coordination Sequence:
#
# PCOD8196422 Si02
#       7
#     8   4   8   8   8   4   8
#     4   9  18  31  44  56  69  87 112 141 174 212
#     4   9  15  21  29  43  63  85 107 127 151 190
#     4  10  20  31  41  53  68  86 110 142 181 221
#     4   9  16  26  39  51  62  79 105 136 168 203
#     4   8  14  25  39  53  70  91 111 130 156 193
#     4   9  15  21  33  55  77  93 109 127 149 184
#     4   9  15  22  32  46  64  83 102 127 161 198
#
# _framework density 12.946724
#
# number of rings (size 3 to 8) (size 9 to 14) (size 15 to 20)
#    0.000    3.000    0.000    3.000    0.000    8.333 
#    0.000    3.333    0.000    0.000    0.000    0.000 
#    0.000    0.000    0.000    0.000    0.000    0.000 
#
# Total GULP energy -595021.026880 kJ/mol
# GULP energy per Si atom -12396.271393 kJ/mol
# Density = 1.291726 g / cm^3
# Si number density = 12.946724 Si / 1000 Ang^3
#
#
#
# Elastic Constant Matrix: (Units=GPa)
#
#
# Indices 1 2 3 4 5 6 
#
# 1 34.7449 34.9255 27.1802 0.0000 0.0000 0.0000
# 2 34.9255 118.1306 53.5048 0.0000 0.0000 0.0000
# 3 27.1802 53.5048 72.0634 0.0000 0.0000 0.0000
# 4 0.0000 0.0000 0.0000 24.1269 0.0000 0.0000
# 5 0.0000 0.0000 0.0000 0.0000 0.1500 0.0000
# 6 0.0000 0.0000 0.0000 0.0000 0.0000 13.0522
#
#
#
# Elastic Compliance Matrix: (Units=1/GPa)
#
#
# Indices 1 2 3 4 5 6 
#
# 1 0.046040 -0.008658 -0.010936 0.000000 0.000000 0.000000
# 2 -0.008658 0.014383 -0.007413 0.000000 0.000000 0.000000
# 3 -0.010936 -0.007413 0.023505 0.000000 0.000000 0.000000
# 4 0.000000 0.000000 0.000000 0.041448 0.000000 0.000000
# 5 0.000000 0.000000 0.000000 0.000000 6.667739 0.000000
# 6 0.000000 0.000000 0.000000 0.000000 0.000000 0.076616
#
#
# Mechanical properties :
#
#
# Convention : Reuss Voigt Hill
#
# Bulk Modulus (GPa) = 33.43078 50.68444 42.05761
# Shear Modulus (GPa) = 0.72111 14.75437 7.73774
#
# Velocity S-wave (km/s) = 0.74712 3.37949 2.44736
# Velocity P-wave (km/s) = 5.15966 7.37980 6.36724
#
# Compressibility (1/GPa) = 0.02991256
#
# Stress axis : x y z
#
# Youngs Moduli (GPa) = 21.72036 69.52840 42.54344
#
# Poissons Ratio (x) = 0.60200 0.46527
# Poissons Ratio (y) = 0.18806 0.31537
# Poissons Ratio (z) = 0.23754 0.51541
#
# Static dielectric constant tensor:
#      x y z
#    x 2.308780 0.000000 0.000000 
#    y 0.000000 2.823180 0.000000 
#    z 0.000000 0.000000 2.500480 
# 
# 
# High freq. dielectric constant tensor:
#      x y z
#    x 1.436120 0.000000 0.000000 
#    y 0.000000 1.510140 0.000000 
#    z 0.000000 0.000000 1.469380 
# 
# From -- ./inp_files/9742.got.cif
#   From: 2010.03.12/outbox.cif.g09.slc.cpg/sg47_5_cif.got.tgz:9742.got - 2010.04.14 03:12:58.
