data_PCOD8196374
_publ_section_title
;
Structure prediction by ZEFSAII (Michael W. Deem and Ramdas Pophale) SiO2 
 PCOD8196374
Probable space group: P M M M
;
_chemical_formula_sum "Si O2"
_cell_formula_units_Z 52
_cell_length_a 9.278942
_cell_length_b 15.301969
_cell_length_c 27.752140
_cell_angle_alpha 90.000000
_cell_angle_beta 90.000000
_cell_angle_gamma 90.000000
_cell_volume 3940.417649
_symmetry_space_group_name_H-M "P M M M"
_symmetry_group_IT_number 47
_symmetry_cell_setting 'orthorhombic'
loop_
_space_group_symop_operation_xyz
x,y,z
-x,-y,z
x,-y,-z
-x,y,-z
-x,-y,-z
x,y,-z
-x,y,z
x,-y,z
loop_
_atom_site_type_symbol
_atom_site_label
_atom_site_fract_x
_atom_site_fract_y
_atom_site_fract_z
Si Si1 0.663721 0.395862 0.000000
Si Si2 0.160016 0.603896 0.725321
Si Si3 0.662243 0.604246 0.815091
Si Si4 0.665010 0.261226 0.557049
Si Si5 0.836557 0.395875 0.907301
Si Si6 0.161902 0.096219 0.557253
Si Si7 0.831001 0.600555 0.617796
O O1 0.747983 0.360531 0.953198
O O2 0.661142 0.500000 0.000000
O O3 0.500000 0.359766 0.000000
O O4 0.153781 0.500000 0.727431
O O5 0.269999 0.640587 0.765324
O O6 0.210203 0.632164 0.671865
O O7 0.000000 0.640705 0.736342
O O8 0.500000 0.640536 0.819923
O O9 0.661356 0.500000 0.815150
O O10 0.757538 0.639387 0.859465
O O11 0.683484 0.267881 0.500000
O O12 0.500000 0.262034 0.573002
O O13 0.733526 0.171320 0.577498
O O14 0.743381 0.344135 0.579426
O O15 0.838811 0.500000 0.907559
O O16 0.000000 0.359671 0.908862
O O17 0.164748 0.097190 0.500000
O O18 0.000000 0.115254 0.575658
O O19 0.212662 0.000000 0.575452
O O20 0.787048 0.500000 0.610301
O O21 0.000000 0.613554 0.608768
#
# Coordination Sequence:
#
# PCOD8196374 Si02
#       7
#     4   8   8   8   8   8   8
#     4   9  15  21  27  35  49  67  87 113 145 183
#     4   8  14  25  38  49  60  75  99 132 167 199
#     4   9  15  21  30  44  58  71  90 118 153 191
#     4  10  20  30  40  57  79  99 117 140 172 209
#     4   9  15  21  28  37  50  69  91 114 143 182
#     4   8  14  26  44  62  77  94 116 140 165 196
#     4   9  18  31  44  55  68  91 122 151 177 207
#
# _framework density 13.196571
#
# number of rings (size 3 to 8) (size 9 to 14) (size 15 to 20)
#    0.000    3.154    0.000    3.000    0.000    7.077 
#    0.000    4.615    0.000    0.000    0.000    0.000 
#    0.000    0.000    0.000    0.000    0.000    0.000 
#
# Total GULP energy -644516.867796 kJ/mol
# GULP energy per Si atom -12394.555150 kJ/mol
# Density = 1.316654 g / cm^3
# Si number density = 13.196571 Si / 1000 Ang^3
#
#
#
# Elastic Constant Matrix: (Units=GPa)
#
#
# Indices 1 2 3 4 5 6 
#
# 1 101.9295 34.7060 40.8716 0.0000 0.0000 0.0000
# 2 34.7060 43.9905 24.3022 0.0000 0.0000 0.0000
# 3 40.8716 24.3022 50.0637 0.0000 0.0000 0.0000
# 4 0.0000 0.0000 0.0000 0.1855 0.0000 0.0000
# 5 0.0000 0.0000 0.0000 0.0000 23.0672 0.0000
# 6 0.0000 0.0000 0.0000 0.0000 0.0000 10.4855
#
#
#
# Elastic Compliance Matrix: (Units=1/GPa)
#
#
# Indices 1 2 3 4 5 6 
#
# 1 0.016208 -0.007484 -0.009599 0.000000 0.000000 0.000000
# 2 -0.007484 0.034518 -0.010646 0.000000 0.000000 0.000000
# 3 -0.009599 -0.010646 0.032979 0.000000 0.000000 0.000000
# 4 0.000000 0.000000 0.000000 5.390637 0.000000 0.000000
# 5 0.000000 0.000000 0.000000 0.000000 0.043352 0.000000
# 6 0.000000 0.000000 0.000000 0.000000 0.000000 0.095369
#
#
# Mechanical properties :
#
#
# Convention : Reuss Voigt Hill
#
# Bulk Modulus (GPa) = 35.40243 43.97146 39.68695
# Shear Modulus (GPa) = 0.88060 13.15457 7.01759
#
# Velocity S-wave (km/s) = 0.81777 3.16067 2.30852
# Velocity P-wave (km/s) = 5.27038 6.83465 6.10284
#
# Compressibility (1/GPa) = 0.02824665
#
# Stress axis : x y z
#
# Youngs Moduli (GPa) = 61.69779 28.97033 30.32237
#
# Poissons Ratio (x) = 0.21682 0.29107
# Poissons Ratio (y) = 0.46176 0.32281
# Poissons Ratio (z) = 0.59224 0.30841
#
# Static dielectric constant tensor:
#      x y z
#    x 2.848170 0.000000 0.000000 
#    y 0.000000 2.233030 0.000000 
#    z 0.000000 0.000000 2.678300 
# 
# 
# High freq. dielectric constant tensor:
#      x y z
#    x 1.516650 0.000000 0.000000 
#    y 0.000000 1.428510 0.000000 
#    z 0.000000 0.000000 1.494090 
# 
# From -- ./inp_files/21995.got.cif
#   From: 2010.03.12/outbox.cif.g09.slc.cpg/sg47_11_cif.got.tgz:21995.got - 2010.04.14 03:12:58.
