data_PCOD8196054
_publ_section_title
;
Structure prediction by ZEFSAII (Michael W. Deem and Ramdas Pophale) SiO2 
 PCOD8196054
Probable space group: P M M M
;
_chemical_formula_sum "Si O2"
_cell_formula_units_Z 40
_cell_length_a 9.725089
_cell_length_b 11.691565
_cell_length_c 19.926814
_cell_angle_alpha 90.000000
_cell_angle_beta 90.000000
_cell_angle_gamma 90.000000
_cell_volume 2265.708845
_symmetry_space_group_name_H-M "P M M M"
_symmetry_group_IT_number 47
_symmetry_cell_setting 'orthorhombic'
loop_
_space_group_symop_operation_xyz
x,y,z
-x,-y,z
x,-y,-z
-x,y,-z
-x,-y,-z
x,y,-z
-x,y,z
x,-y,z
loop_
_atom_site_type_symbol
_atom_site_label
_atom_site_fract_x
_atom_site_fract_y
_atom_site_fract_z
Si Si1 0.663124 0.242255 0.369103
Si Si2 0.352120 0.500000 0.923324
Si Si3 0.160696 0.875865 0.000000
Si Si4 0.662663 0.000000 0.423629
Si Si5 0.844892 0.634529 0.259461
Si Si6 0.155198 0.700812 0.111692
Si Si7 0.337104 0.373756 0.500000
O O1 0.500000 0.252549 0.357084
O O2 0.739256 0.302083 0.307775
O O3 0.714264 0.308542 0.434674
O O4 0.708980 0.110680 0.380646
O O5 0.500000 0.500000 0.884532
O O6 0.265653 0.390942 0.906620
O O7 0.387604 0.500000 0.000000
O O8 0.201409 0.812424 0.930402
O O9 0.000000 0.894329 0.000000
O O10 0.234598 0.000000 0.000000
O O11 0.500000 0.000000 0.431855
O O12 0.724339 0.000000 0.500000
O O13 0.803968 0.500000 0.247211
O O14 0.839078 0.711295 0.192024
O O15 0.000000 0.638981 0.288607
O O16 0.000000 0.664551 0.089884
O O17 0.272135 0.500000 0.500000
O O18 0.500000 0.379160 0.500000
#
# Coordination Sequence:
#
# PCOD8196054 Si02
#       7
#     8   4   4   4   8   8   4
#     4  10  19  33  55  79 105 139 179 221 266 313
#     4  11  21  31  51  85 115 132 167 224 273 317
#     4   9  18  33  57  84 102 129 184 237 262 295
#     4   9  16  32  57  81 103 134 181 232 266 304
#     4  10  21  36  52  77 112 143 173 214 268 325
#     4  10  19  35  58  78 104 143 182 217 261 319
#     4   9  16  27  48  78 103 127 172 223 260 306
#
# _framework density 17.654519000000001
#
# number of rings (size 3 to 8) (size 9 to 14) (size 15 to 20)
#    0.000    2.200    3.000    0.900    0.000    2.400 
#    1.800    1.000    0.000    3.600    0.000    0.000 
#    0.000    0.000    0.000    0.000    0.000    0.000 
#
# Total GULP energy -495581.159386 kJ/mol
# GULP energy per Si atom -12389.528985 kJ/mol
# Density = 1.761434 g / cm^3
# Si number density = 17.654519 Si / 1000 Ang^3
#
#
#
# Elastic Constant Matrix: (Units=GPa)
#
#
# Indices 1 2 3 4 5 6 
#
# 1 72.1927 46.8377 41.6792 0.0000 0.0000 0.0000
# 2 46.8377 153.0389 66.6058 0.0000 0.0000 0.0000
# 3 41.6792 66.6058 116.1572 0.0000 0.0000 0.0000
# 4 0.0000 0.0000 0.0000 8.7389 0.0000 0.0000
# 5 0.0000 0.0000 0.0000 0.0000 23.9530 0.0000
# 6 0.0000 0.0000 0.0000 0.0000 0.0000 25.6360
#
#
#
# Elastic Compliance Matrix: (Units=1/GPa)
#
#
# Indices 1 2 3 4 5 6 
#
# 1 0.018991 -0.003793 -0.004639 0.000000 0.000000 0.000000
# 2 -0.003793 0.009465 -0.004066 0.000000 0.000000 0.000000
# 3 -0.004639 -0.004066 0.012605 0.000000 0.000000 0.000000
# 4 0.000000 0.000000 0.000000 0.114431 0.000000 0.000000
# 5 0.000000 0.000000 0.000000 0.000000 0.041748 0.000000
# 6 0.000000 0.000000 0.000000 0.000000 0.000000 0.039008
#
#
# Mechanical properties :
#
#
# Convention : Reuss Voigt Hill
#
# Bulk Modulus (GPa) = 62.25103 72.40382 67.32742
# Shear Modulus (GPa) = 18.75467 24.08333 21.41900
#
# Velocity S-wave (km/s) = 3.26285 3.69744 3.48692
# Velocity P-wave (km/s) = 7.03791 7.70251 7.37770
#
# Compressibility (1/GPa) = 0.01606399
#
# Stress axis : x y z
#
# Youngs Moduli (GPa) = 52.65600 105.65367 79.33162
#
# Poissons Ratio (x) = 0.40076 0.36805
# Poissons Ratio (y) = 0.19973 0.32258
# Poissons Ratio (z) = 0.24429 0.42961
#
# Static dielectric constant tensor:
#      x y z
#    x 3.218460 0.000000 0.000000 
#    y 0.000000 3.774630 0.000000 
#    z 0.000000 0.000000 3.468940 
# 
# 
# High freq. dielectric constant tensor:
#      x y z
#    x 1.654080 0.000000 0.000000 
#    y 0.000000 1.682440 0.000000 
#    z 0.000000 0.000000 1.684810 
# 
# From -- ./inp_files/29400.got.cif
#   From: 2010.03.12/outbox.cif.g09.slc.cpg/sg47_15_cif.got.tgz:29400.got - 2010.04.14 03:12:58.
