data_PCOD8196262
_publ_section_title
;
Structure prediction by ZEFSAII (Michael W. Deem and Ramdas Pophale) SiO2 
 PCOD8196262
Probable space group: P M M M
;
_chemical_formula_sum "Si O2"
_cell_formula_units_Z 40
_cell_length_a 9.198663
_cell_length_b 12.765081
_cell_length_c 18.977563
_cell_angle_alpha 90.000000
_cell_angle_beta 90.000000
_cell_angle_gamma 90.000000
_cell_volume 2228.377297
_symmetry_space_group_name_H-M "P M M M"
_symmetry_group_IT_number 47
_symmetry_cell_setting 'orthorhombic'
loop_
_space_group_symop_operation_xyz
x,y,z
-x,-y,z
x,-y,-z
-x,y,-z
-x,-y,-z
x,y,-z
-x,y,z
x,-y,z
loop_
_atom_site_type_symbol
_atom_site_label
_atom_site_fract_x
_atom_site_fract_y
_atom_site_fract_z
Si Si1 0.329527 0.620417 0.184599
Si Si2 0.672400 0.884773 0.421348
Si Si3 0.169571 0.000000 0.918230
Si Si4 0.171039 0.773669 0.082452
Si Si5 0.832694 0.500000 0.583171
Si Si6 0.328235 0.684193 0.339980
O O1 0.500000 0.629512 0.171933
O O2 0.278623 0.500000 0.183670
O O3 0.250699 0.680971 0.122357
O O4 0.284067 0.671252 0.258808
O O5 0.730060 0.857244 0.500000
O O6 0.500000 0.886411 0.423014
O O7 0.725430 0.798792 0.365146
O O8 0.730548 0.000000 0.398547
O O9 0.229900 0.111731 0.888815
O O10 0.000000 0.000000 0.904425
O O11 0.203828 0.000000 0.000000
O O12 0.000000 0.764099 0.096047
O O13 0.206067 0.761679 0.000000
O O14 0.816524 0.500000 0.500000
O O15 0.754684 0.601844 0.612510
O O16 0.000000 0.500000 0.607095
O O17 0.500000 0.666730 0.350553
#
# Coordination Sequence:
#
# PCOD8196262 Si02
#       6
#     8   8   4   8   4   8
#     4  10  21  36  50  71 106 140 172 215 264 305
#     4   8  14  26  48  78 104 126 162 213 258 295
#     4   7  12  28  53  77 101 127 160 209 256 293
#     4   9  18  34  57  81 102 131 174 215 252 305
#     4  11  23  35  51  79 108 133 170 221 267 300
#     4  10  19  35  55  74 101 140 180 211 248 310
#
# _framework density 17.950282000000001
#
# number of rings (size 3 to 8) (size 9 to 14) (size 15 to 20)
#    0.000    2.800    1.000    2.700    0.000    3.600 
#    1.800    2.500    0.000    2.400    0.000    2.800 
#    0.000    0.000    0.000    0.000    0.000    0.000 
#
# Total GULP energy -495674.704881 kJ/mol
# GULP energy per Si atom -12391.867622 kJ/mol
# Density = 1.790943 g / cm^3
# Si number density = 17.950282 Si / 1000 Ang^3
#
#
#
# Elastic Constant Matrix: (Units=GPa)
#
#
# Indices 1 2 3 4 5 6 
#
# 1 32.7387 39.5562 32.3916 0.0000 0.0000 0.0000
# 2 39.5562 185.2058 86.8682 0.0000 0.0000 0.0000
# 3 32.3916 86.8682 93.7035 0.0000 0.0000 0.0000
# 4 0.0000 0.0000 0.0000 -102.0125 0.0000 0.0000
# 5 0.0000 0.0000 0.0000 0.0000 20.9203 0.0000
# 6 0.0000 0.0000 0.0000 0.0000 0.0000 11.9276
#
#
#
# Elastic Compliance Matrix: (Units=1/GPa)
#
#
# Indices 1 2 3 4 5 6 
#
# 1 0.048369 -0.004403 -0.012639 0.000000 0.000000 0.000000
# 2 -0.004403 0.009954 -0.007706 0.000000 0.000000 0.000000
# 3 -0.012639 -0.007706 0.022185 0.000000 0.000000 0.000000
# 4 0.000000 0.000000 0.000000 -0.009803 0.000000 0.000000
# 5 0.000000 0.000000 0.000000 0.000000 0.047801 0.000000
# 6 0.000000 0.000000 0.000000 0.000000 0.000000 0.083839
#
#
# Mechanical properties :
#
#
# Convention : Reuss Voigt Hill
#
# Bulk Modulus (GPa) = 32.24449 69.91999 51.08224
# Shear Modulus (GPa) = 19.07099 -3.64412 7.71343
#
# Velocity S-wave (km/s) = 3.26304 -1.42637 2.07520
# Velocity P-wave (km/s) = 5.67439 6.02693 5.85332
#
# Compressibility (1/GPa) = 0.03101305
#
# Stress axis : x y z
#
# Youngs Moduli (GPa) = 20.67433 100.46057 45.07539
#
# Poissons Ratio (x) = 0.44228 0.56971
# Poissons Ratio (y) = 0.09102 0.34736
# Poissons Ratio (z) = 0.26130 0.77417
#
# Static dielectric constant tensor:
#      x y z
#    x 2.967980 0.000000 0.000000 
#    y 0.000000 3.963870 0.000000 
#    z 0.000000 0.000000 3.233890 
# 
# 
# High freq. dielectric constant tensor:
#      x y z
#    x 1.656550 0.000000 0.000000 
#    y 0.000000 1.717060 0.000000 
#    z 0.000000 0.000000 1.683790 
# 
# From -- ./inp_files/29353.got.cif
#   From: 2010.03.12/outbox.cif.g09.slc.cpg/sg47_15_cif.got.tgz:29353.got - 2010.04.14 03:12:58.
