data_PCOD8196606
_publ_section_title
;
Structure prediction by ZEFSAII (Michael W. Deem and Ramdas Pophale) SiO2 
 PCOD8196606
Probable space group: P M M M
;
_chemical_formula_sum "Si O2"
_cell_formula_units_Z 48
_cell_length_a 15.354244
_cell_length_b 19.160495
_cell_length_c 9.494783
_cell_angle_alpha 90.000000
_cell_angle_beta 90.000000
_cell_angle_gamma 90.000000
_cell_volume 2793.316881
_symmetry_space_group_name_H-M "P M M M"
_symmetry_group_IT_number 47
_symmetry_cell_setting 'orthorhombic'
loop_
_space_group_symop_operation_xyz
x,y,z
-x,-y,z
x,-y,-z
-x,y,-z
-x,-y,-z
x,y,-z
-x,y,z
x,-y,z
loop_
_atom_site_type_symbol
_atom_site_label
_atom_site_fract_x
_atom_site_fract_y
_atom_site_fract_z
Si Si1 0.595625 0.818331 0.833318
Si Si2 0.904435 0.917120 0.342436
Si Si3 0.256171 0.080478 0.165441
Si Si4 0.601627 0.339530 0.162775
Si Si5 0.096674 0.582946 0.841537
Si Si6 0.742592 0.417073 0.660640
O O1 0.500000 0.835042 0.769593
O O2 0.664002 0.874301 0.773062
O O3 0.623897 0.739940 0.793615
O O4 0.590309 0.825040 0.000000
O O5 0.882674 0.891027 0.500000
O O6 0.831381 0.889252 0.236008
O O7 0.000000 0.889122 0.296103
O O8 0.905611 0.000000 0.338586
O O9 0.273721 0.000000 0.205297
O O10 0.244748 0.090453 0.000000
O O11 0.500000 0.355203 0.188101
O O12 0.656878 0.390060 0.261220
O O13 0.625906 0.353308 0.000000
O O14 0.098640 0.500000 0.839046
O O15 0.170221 0.612711 0.736340
O O16 0.000000 0.608673 0.794302
O O17 0.116676 0.609496 0.000000
O O18 0.743067 0.390499 0.500000
O O19 0.740506 0.500000 0.667724
#
# Coordination Sequence:
#
# PCOD8196606 Si02
#       6
#     8   8   8   8   8   8
#     4   8  15  29  47  66  89 117 149 183 219 262
#     4   8  14  25  40  58  84 119 152 179 213 259
#     4   9  16  25  42  70  96 115 140 179 224 263
#     4   9  18  33  51  66  83 116 159 194 222 260
#     4   8  14  26  45  68  93 121 152 183 214 255
#     4  10  20  31  45  69  98 122 144 180 231 276
#
# _framework density 17.183872000000001
#
# number of rings (size 3 to 8) (size 9 to 14) (size 15 to 20)
#    0.000    3.333    0.000    2.500    0.000    2.667 
#    0.000    7.500    0.000    2.500    0.000    4.667 
#    0.000    0.000    0.000    0.000    0.000    0.000 
#
# Total GULP energy -594897.152865 kJ/mol
# GULP energy per Si atom -12393.690685 kJ/mol
# Density = 1.714476 g / cm^3
# Si number density = 17.183872 Si / 1000 Ang^3
#
#
#
# Elastic Constant Matrix: (Units=GPa)
#
#
# Indices 1 2 3 4 5 6 
#
# 1 132.0501 36.6440 67.0897 0.0000 0.0000 0.0000
# 2 36.6440 28.0714 26.0469 0.0000 0.0000 0.0000
# 3 67.0897 26.0469 82.5812 0.0000 0.0000 0.0000
# 4 0.0000 0.0000 0.0000 11.1521 0.0000 0.0000
# 5 0.0000 0.0000 0.0000 0.0000 10.9203 0.0000
# 6 0.0000 0.0000 0.0000 0.0000 0.0000 5.2702
#
#
#
# Elastic Compliance Matrix: (Units=1/GPa)
#
#
# Indices 1 2 3 4 5 6 
#
# 1 0.015274 -0.011910 -0.008652 0.000000 0.000000 0.000000
# 2 -0.011910 0.059650 -0.009138 0.000000 0.000000 0.000000
# 3 -0.008652 -0.009138 0.022020 0.000000 0.000000 0.000000
# 4 0.000000 0.000000 0.000000 0.089670 0.000000 0.000000
# 5 0.000000 0.000000 0.000000 0.000000 0.091573 0.000000
# 6 0.000000 0.000000 0.000000 0.000000 0.000000 0.189748
#
#
# Mechanical properties :
#
#
# Convention : Reuss Voigt Hill
#
# Bulk Modulus (GPa) = 26.63574 55.80710 41.22142
# Shear Modulus (GPa) = 9.26185 12.99663 11.12924
#
# Velocity S-wave (km/s) = 2.32412 2.75312 2.54767
# Velocity P-wave (km/s) = 4.76824 6.53094 5.71793
#
# Compressibility (1/GPa) = 0.03754355
#
# Stress axis : x y z
#
# Youngs Moduli (GPa) = 65.47222 16.76446 45.41226
#
# Poissons Ratio (x) = 0.19967 0.39290
# Poissons Ratio (y) = 0.77978 0.41499
# Poissons Ratio (z) = 0.56646 0.15320
#
# Static dielectric constant tensor:
#      x y z
#    x 3.699130 0.000000 0.000000 
#    y 0.000000 2.888610 0.000000 
#    z 0.000000 0.000000 3.132610 
# 
# 
# High freq. dielectric constant tensor:
#      x y z
#    x 1.677780 0.000000 0.000000 
#    y 0.000000 1.620680 0.000000 
#    z 0.000000 0.000000 1.644070 
# 
# From -- ./inp_files/6759.got.cif
#   From: 2010.03.12/outbox.cif.g09.slc.cpg/sg47_4_cif.got.tgz:6759.got - 2010.04.14 03:12:58.
