data_PCOD8196565
_publ_section_title
;
Structure prediction by ZEFSAII (Michael W. Deem and Ramdas Pophale) SiO2 
 PCOD8196565
Probable space group: P M M M
;
_chemical_formula_sum "Si O2"
_cell_formula_units_Z 52
_cell_length_a 13.039603
_cell_length_b 9.028623
_cell_length_c 24.720542
_cell_angle_alpha 90.000000
_cell_angle_beta 90.000000
_cell_angle_gamma 90.000000
_cell_volume 2910.340994
_symmetry_space_group_name_H-M "P M M M"
_symmetry_group_IT_number 47
_symmetry_cell_setting 'orthorhombic'
loop_
_space_group_symop_operation_xyz
x,y,z
-x,-y,z
x,-y,-z
-x,y,-z
-x,-y,-z
x,y,-z
-x,y,z
x,-y,z
loop_
_atom_site_type_symbol
_atom_site_label
_atom_site_fract_x
_atom_site_fract_y
_atom_site_fract_z
Si Si1 0.205981 0.670039 0.564141
Si Si2 0.000000 0.831153 0.564350
Si Si3 0.691001 0.672865 0.937983
Si Si4 0.618824 0.174956 0.370621
Si Si5 0.111342 0.835344 0.936044
Si Si6 0.616368 0.838073 0.159876
Si Si7 0.621414 0.664963 0.261146
O O1 0.209951 0.680255 0.500000
O O2 0.204983 0.500000 0.583787
O O3 0.308106 0.750769 0.585150
O O4 0.102354 0.748943 0.586108
O O5 0.000000 0.827347 0.500000
O O6 0.000000 0.000000 0.585766
O O7 0.673370 0.500000 0.931728
O O8 0.805173 0.715401 0.917590
O O9 0.614753 0.758086 0.898416
O O10 0.671320 0.723366 0.000000
O O11 0.500000 0.215676 0.383515
O O12 0.652564 0.235874 0.312236
O O13 0.635231 0.000000 0.371271
O O14 0.000000 0.790603 0.911979
O O15 0.142358 0.000000 0.915803
O O16 0.104107 0.835898 0.000000
O O17 0.500000 0.861463 0.177424
O O18 0.669254 0.739626 0.206915
O O19 0.669869 0.000000 0.156091
O O20 0.500000 0.653111 0.256025
O O21 0.668280 0.500000 0.267236
#
# Coordination Sequence:
#
# PCOD8196565 Si02
#       7
#     8   4   8   8   8   8   8
#     4  10  20  33  50  74 105 140 177 216 258 303
#     4   9  17  31  51  73  99 133 175 219 258 299
#     4  10  20  31  44  66  95 124 154 190 234 284
#     4  10  20  33  50  74 104 136 171 211 255 304
#     4   8  14  26  44  64  86 113 145 181 221 267
#     4  10  20  33  49  68  91 122 160 199 238 282
#     4   9  17  31  51  72  94 121 157 201 245 289
#
# _framework density 17.867322000000001
#
# number of rings (size 3 to 8) (size 9 to 14) (size 15 to 20)
#    0.000    2.538    0.000    3.000    0.000    7.385 
#    0.000    4.615    0.000    0.000    2.000    0.000 
#    0.000    0.000    0.000    0.000    0.000    0.000 
#
# Total GULP energy -644507.689723 kJ/mol
# GULP energy per Si atom -12394.378649 kJ/mol
# Density = 1.782666 g / cm^3
# Si number density = 17.867322 Si / 1000 Ang^3
#
#
#
# Elastic Constant Matrix: (Units=GPa)
#
#
# Indices 1 2 3 4 5 6 
#
# 1 69.6104 42.8523 26.1202 0.0000 0.0000 0.0000
# 2 42.8523 134.1374 41.1853 0.0000 0.0000 0.0000
# 3 26.1202 41.1853 54.1470 0.0000 0.0000 0.0000
# 4 0.0000 0.0000 0.0000 29.3199 0.0000 0.0000
# 5 0.0000 0.0000 0.0000 0.0000 5.1298 0.0000
# 6 0.0000 0.0000 0.0000 0.0000 0.0000 29.1820
#
#
#
# Elastic Compliance Matrix: (Units=1/GPa)
#
#
# Indices 1 2 3 4 5 6 
#
# 1 0.019278 -0.004310 -0.006022 0.000000 0.000000 0.000000
# 2 -0.004310 0.010690 -0.006052 0.000000 0.000000 0.000000
# 3 -0.006022 -0.006052 0.025976 0.000000 0.000000 0.000000
# 4 0.000000 0.000000 0.000000 0.034106 0.000000 0.000000
# 5 0.000000 0.000000 0.000000 0.000000 0.194939 0.000000
# 6 0.000000 0.000000 0.000000 0.000000 0.000000 0.034268
#
#
# Mechanical properties :
#
#
# Convention : Reuss Voigt Hill
#
# Bulk Modulus (GPa) = 43.14483 53.13449 48.13966
# Shear Modulus (GPa) = 13.89851 22.57550 18.23700
#
# Velocity S-wave (km/s) = 2.79206 3.55844 3.19829
# Velocity P-wave (km/s) = 5.88166 6.83273 6.37496
#
# Compressibility (1/GPa) = 0.02317775
#
# Stress axis : x y z
#
# Youngs Moduli (GPa) = 51.87161 93.54439 38.49665
#
# Poissons Ratio (x) = 0.40317 0.23181
# Poissons Ratio (y) = 0.22356 0.23298
# Poissons Ratio (z) = 0.31235 0.56613
#
# Static dielectric constant tensor:
#      x y z
#    x 3.361330 0.000000 0.000000 
#    y 0.000000 3.589420 0.000000 
#    z 0.000000 0.000000 3.081100 
# 
# 
# High freq. dielectric constant tensor:
#      x y z
#    x 1.666730 0.000000 0.000000 
#    y 0.000000 1.708930 0.000000 
#    z 0.000000 0.000000 1.662240 
# 
# From -- ./inp_files/33567.got.cif
#   From: 2010.03.12/outbox.cif.g09.slc.cpg/sg47_17_cif.got.tgz:33567.got - 2010.04.14 03:12:58.
