data_PCOD8196569
_publ_section_title
;
Structure prediction by ZEFSAII (Michael W. Deem and Ramdas Pophale) SiO2 
 PCOD8196569
Probable space group: P M M M
;
_chemical_formula_sum "Si O2"
_cell_formula_units_Z 56
_cell_length_a 9.472149
_cell_length_b 18.589716
_cell_length_c 18.845262
_cell_angle_alpha 90.000000
_cell_angle_beta 90.000000
_cell_angle_gamma 90.000000
_cell_volume 3318.359664
_symmetry_space_group_name_H-M "P M M M"
_symmetry_group_IT_number 47
_symmetry_cell_setting 'orthorhombic'
loop_
_space_group_symop_operation_xyz
x,y,z
-x,-y,z
x,-y,-z
-x,y,-z
-x,-y,-z
x,y,-z
-x,y,z
x,-y,z
loop_
_atom_site_type_symbol
_atom_site_label
_atom_site_fract_x
_atom_site_fract_y
_atom_site_fract_z
Si Si1 0.338167 0.792632 0.196180
Si Si2 0.164174 0.146468 0.419145
Si Si3 0.337717 0.918631 0.701833
Si Si4 0.833732 0.718971 0.919000
Si Si5 0.661287 0.710730 0.578738
Si Si6 0.340693 0.352521 0.278879
Si Si7 0.836398 0.420101 0.835229
O O1 0.500000 0.797876 0.171402
O O2 0.288588 0.865719 0.234911
O O3 0.243634 0.780513 0.126299
O O4 0.314003 0.728050 0.251028
O O5 0.183863 0.119581 0.500000
O O6 0.241466 0.090445 0.367714
O O7 0.232447 0.224269 0.408649
O O8 0.000000 0.151544 0.398732
O O9 0.500000 0.901667 0.681309
O O10 0.320291 0.000000 0.729513
O O11 0.787127 0.639269 0.892476
O O12 0.000000 0.729949 0.910620
O O13 0.784992 0.726309 0.000000
O O14 0.682144 0.677781 0.500000
O O15 0.500000 0.738727 0.589038
O O16 0.692867 0.648754 0.636807
O O17 0.500000 0.377374 0.263873
O O18 0.240921 0.409159 0.239824
O O19 0.802013 0.500000 0.864893
O O20 0.000000 0.411295 0.818781
#
# Coordination Sequence:
#
# PCOD8196569 Si02
#       7
#     8   8   8   8   8   8   8
#     4   9  17  31  49  71  95 119 154 197 239 279
#     4  10  20  31  44  66  97 129 160 199 246 291
#     4  10  20  34  51  69  92 126 166 204 242 285
#     4   9  18  32  51  75  99 125 155 186 226 277
#     4   9  16  28  47  68  91 121 160 204 245 283
#     4   9  16  28  47  69  92 120 156 198 240 277
#     4   9  18  31  47  70  99 129 157 186 225 275
#
# _framework density 16.875807999999999
#
# number of rings (size 3 to 8) (size 9 to 14) (size 15 to 20)
#    0.000    2.714    1.429    0.429    0.000    3.429 
#    0.000    2.857    0.000    0.857    0.000   10.000 
#    0.000    0.000    0.000    0.000    0.000    0.000 
#
# Total GULP energy -694298.101887 kJ/mol
# GULP energy per Si atom -12398.180391 kJ/mol
# Density = 1.683740 g / cm^3
# Si number density = 16.875808 Si / 1000 Ang^3
#
#
#
# Elastic Constant Matrix: (Units=GPa)
#
#
# Indices 1 2 3 4 5 6 
#
# 1 63.2031 34.7271 49.7107 0.0000 0.0000 0.0000
# 2 34.7271 67.6515 45.0569 0.0000 0.0000 0.0000
# 3 49.7107 45.0569 121.2939 0.0000 0.0000 0.0000
# 4 0.0000 0.0000 0.0000 19.7621 0.0000 0.0000
# 5 0.0000 0.0000 0.0000 0.0000 28.6885 0.0000
# 6 0.0000 0.0000 0.0000 0.0000 0.0000 19.9549
#
#
#
# Elastic Compliance Matrix: (Units=1/GPa)
#
#
# Indices 1 2 3 4 5 6 
#
# 1 0.026570 -0.008486 -0.007737 0.000000 0.000000 0.000000
# 2 -0.008486 0.022351 -0.004825 0.000000 0.000000 0.000000
# 3 -0.007737 -0.004825 0.013208 0.000000 0.000000 0.000000
# 4 0.000000 0.000000 0.000000 0.050602 0.000000 0.000000
# 5 0.000000 0.000000 0.000000 0.000000 0.034857 0.000000
# 6 0.000000 0.000000 0.000000 0.000000 0.000000 0.050113
#
#
# Mechanical properties :
#
#
# Convention : Reuss Voigt Hill
#
# Bulk Modulus (GPa) = 49.91787 56.79312 53.35550
# Shear Modulus (GPa) = 20.28608 21.85803 21.07206
#
# Velocity S-wave (km/s) = 3.47086 3.60283 3.53746
# Velocity P-wave (km/s) = 6.76064 7.14380 6.95486
#
# Compressibility (1/GPa) = 0.02003290
#
# Stress axis : x y z
#
# Youngs Moduli (GPa) = 37.63638 44.74046 75.71358
#
# Poissons Ratio (x) = 0.37967 0.58580
# Poissons Ratio (y) = 0.31938 0.36531
# Poissons Ratio (z) = 0.29120 0.21587
#
# Static dielectric constant tensor:
#      x y z
#    x 3.190730 0.000000 0.000000 
#    y 0.000000 2.971610 0.000000 
#    z 0.000000 0.000000 3.248850 
# 
# 
# High freq. dielectric constant tensor:
#      x y z
#    x 1.650410 0.000000 0.000000 
#    y 0.000000 1.622050 0.000000 
#    z 0.000000 0.000000 1.644810 
# 
# From -- ./inp_files/11472.got.cif
#   From: 2010.03.12/outbox.cif.g09.slc.cpg/sg47_6_cif.got.tgz:11472.got - 2010.04.14 03:12:58.
