data_PCOD8196654
_publ_section_title
;
Structure prediction by ZEFSAII (Michael W. Deem and Ramdas Pophale) SiO2 
 PCOD8196654
Probable space group: P M M M
;
_chemical_formula_sum "Si O2"
_cell_formula_units_Z 48
_cell_length_a 30.931235
_cell_length_b 9.419815
_cell_length_c 9.540538
_cell_angle_alpha 90.000000
_cell_angle_beta 90.000000
_cell_angle_gamma 90.000000
_cell_volume 2779.793274
_symmetry_space_group_name_H-M "P M M M"
_symmetry_group_IT_number 47
_symmetry_cell_setting 'orthorhombic'
loop_
_space_group_symop_operation_xyz
x,y,z
-x,-y,z
x,-y,-z
-x,y,-z
-x,-y,-z
x,y,-z
-x,y,z
x,-y,z
loop_
_atom_site_type_symbol
_atom_site_label
_atom_site_fract_x
_atom_site_fract_y
_atom_site_fract_z
Si Si1 0.705384 0.339647 0.662383
Si Si2 0.805172 0.664526 0.660298
Si Si3 0.545741 0.159161 0.166479
Si Si4 0.952175 0.168616 0.657094
Si Si5 0.127190 0.831892 0.161650
Si Si6 0.361335 0.830880 0.159668
O O1 0.694570 0.320835 0.500000
O O2 0.695254 0.500000 0.710603
O O3 0.755206 0.303529 0.691427
O O4 0.676471 0.231227 0.747437
O O5 0.816486 0.704964 0.500000
O O6 0.815808 0.500000 0.687320
O O7 0.831840 0.760928 0.766041
O O8 0.500000 0.236264 0.213019
O O9 0.591481 0.228541 0.214991
O O10 0.543834 0.000000 0.226374
O O11 0.547845 0.153004 0.000000
O O12 0.940965 0.222164 0.500000
O O13 0.916521 0.226818 0.765165
O O14 0.000000 0.223948 0.701150
O O15 0.952203 0.000000 0.659529
O O16 0.131604 0.000000 0.179469
O O17 0.125522 0.786705 0.000000
O O18 0.360844 0.000000 0.172137
O O19 0.353256 0.783147 0.000000
#
# Coordination Sequence:
#
# PCOD8196654 Si02
#       6
#     8   8   8   8   8   8
#     4   9  19  35  51  66  87 119 158 194 229 275
#     4   9  19  36  54  68  85 117 161 200 232 272
#     4   7  10  19  37  61  89 119 148 179 218 264
#     4   8  14  26  45  68  94 126 162 194 223 261
#     4  10  20  31  46  73 104 128 151 185 232 280
#     4   9  17  28  45  72  99 119 146 188 233 274
#
# _framework density 17.267472000000001
#
# number of rings (size 3 to 8) (size 9 to 14) (size 15 to 20)
#    0.000    3.333    0.000    3.500    0.000    3.667 
#    0.000    6.667    0.000    1.500    0.000    9.333 
#    0.000    0.000    0.000    0.000    0.000    0.000 
#
# Total GULP energy -594638.126721 kJ/mol
# GULP energy per Si atom -12388.294307 kJ/mol
# Density = 1.722817 g / cm^3
# Si number density = 17.267472 Si / 1000 Ang^3
#
#
#
# Elastic Constant Matrix: (Units=GPa)
#
#
# Indices 1 2 3 4 5 6 
#
# 1 135.8583 38.4243 76.2734 0.0000 0.0000 0.0000
# 2 38.4243 26.6107 30.8126 0.0000 0.0000 0.0000
# 3 76.2734 30.8126 90.9219 0.0000 0.0000 0.0000
# 4 0.0000 0.0000 0.0000 20.7782 0.0000 0.0000
# 5 0.0000 0.0000 0.0000 0.0000 6.7884 0.0000
# 6 0.0000 0.0000 0.0000 0.0000 0.0000 -1.4875
#
#
#
# Elastic Compliance Matrix: (Units=1/GPa)
#
#
# Indices 1 2 3 4 5 6 
#
# 1 0.016105 -0.012527 -0.009265 0.000000 0.000000 0.000000
# 2 -0.012527 0.071592 -0.013753 0.000000 0.000000 0.000000
# 3 -0.009265 -0.013753 0.023432 0.000000 0.000000 0.000000
# 4 0.000000 0.000000 0.000000 0.048127 0.000000 0.000000
# 5 0.000000 0.000000 0.000000 0.000000 0.147309 0.000000
# 6 0.000000 0.000000 0.000000 0.000000 0.000000 -0.672265
#
#
# Mechanical properties :
#
#
# Convention : Reuss Voigt Hill
#
# Bulk Modulus (GPa) = 24.97617 60.49017 42.73317
# Shear Modulus (GPa) = -17.77695 12.40787 -2.68454
#
# Velocity S-wave (km/s) = -3.21207 2.68352 -1.24822
# Velocity P-wave (km/s) = 0.85974 6.68648 4.76698
#
# Compressibility (1/GPa) = 0.04003817
#
# Stress axis : x y z
#
# Youngs Moduli (GPa) = 62.09185 13.96812 42.67687
#
# Poissons Ratio (x) = 0.17497 0.39541
# Poissons Ratio (y) = 0.77780 0.58695
# Poissons Ratio (z) = 0.57530 0.19211
#
# Static dielectric constant tensor:
#      x y z
#    x 3.632300 0.000000 0.000000 
#    y 0.000000 2.787440 0.000000 
#    z 0.000000 0.000000 3.064930 
# 
# 
# High freq. dielectric constant tensor:
#      x y z
#    x 1.689760 0.000000 0.000000 
#    y 0.000000 1.620850 0.000000 
#    z 0.000000 0.000000 1.646530 
# 
# From -- ./inp_files/13179.got.cif
#   From: 2010.03.12/outbox.cif.g09.slc.cpg/sg47_7_cif.got.tgz:13179.got - 2010.04.14 03:12:58.
