data_PCOD8196386
_publ_section_title
;
Structure prediction by ZEFSAII (Michael W. Deem and Ramdas Pophale) SiO2 
 PCOD8196386
Probable space group: P M M M
;
_chemical_formula_sum "Si O2"
_cell_formula_units_Z 64
_cell_length_a 19.871824
_cell_length_b 20.177927
_cell_length_c 9.081901
_cell_angle_alpha 90.000000
_cell_angle_beta 90.000000
_cell_angle_gamma 90.000000
_cell_volume 3641.589952
_symmetry_space_group_name_H-M "P M M M"
_symmetry_group_IT_number 47
_symmetry_cell_setting 'orthorhombic'
loop_
_space_group_symop_operation_xyz
x,y,z
-x,-y,z
x,-y,-z
-x,y,-z
-x,-y,-z
x,y,-z
-x,y,z
x,-y,z
loop_
_atom_site_type_symbol
_atom_site_label
_atom_site_fract_x
_atom_site_fract_y
_atom_site_fract_z
Si Si1 0.796835 0.425539 0.666709
Si Si2 0.686732 0.339708 0.824115
Si Si3 0.578217 0.575295 0.330551
Si Si4 0.074720 0.887202 0.329989
Si Si5 0.256163 0.792572 0.834929
Si Si6 0.075084 0.611019 0.169947
Si Si7 0.794868 0.927513 0.826591
Si Si8 0.103471 0.759350 0.835003
O O1 0.796558 0.398126 0.500000
O O2 0.767938 0.500000 0.670339
O O3 0.750311 0.380430 0.767441
O O4 0.872743 0.427461 0.727618
O O5 0.618034 0.371614 0.766356
O O6 0.692868 0.262574 0.766138
O O7 0.687837 0.341468 0.000000
O O8 0.600142 0.583269 0.500000
O O9 0.500000 0.591319 0.310582
O O10 0.593442 0.500000 0.278494
O O11 0.095259 0.890236 0.500000
O O12 0.130319 0.928005 0.240129
O O13 0.072870 0.811183 0.278961
O O14 0.000000 0.917874 0.305779
O O15 0.250823 0.866647 0.759988
O O16 0.183915 0.758006 0.827659
O O17 0.280917 0.804995 0.000000
O O18 0.075916 0.688296 0.211116
O O19 0.000000 0.583287 0.199335
O O20 0.095694 0.600466 0.000000
O O21 0.761895 0.000000 0.794984
O O22 0.803880 0.914902 0.000000
O O23 0.079721 0.778078 0.000000
#
# Coordination Sequence:
#
# PCOD8196386 Si02
#       8
#     8   8   8   8   8   8   8   8
#     4  11  24  38  50  67  95 130 167 207 252 306
#     4  11  20  33  55  80 105 132 167 212 252 290
#     4   9  19  36  55  77 111 150 179 204 240 289
#     4  10  20  30  41  62  91 119 149 191 246 305
#     4   8  15  29  49  72  96 119 151 199 249 290
#     4  10  20  34  52  70  88 115 156 210 267 315
#     4   9  18  33  51  67  87 121 162 200 242 299
#     4   9  16  31  50  66  87 116 152 196 247 303
#
# _framework density 17.574742000000001
#
# number of rings (size 3 to 8) (size 9 to 14) (size 15 to 20)
#    0.000    2.375    1.250    3.000    0.000    6.000 
#    0.000    3.750    0.000    0.000    0.000    0.000 
#    0.000    0.500    0.000    6.250    0.000    1.000 
#
# Total GULP energy -793075.839156 kJ/mol
# GULP energy per Si atom -12391.809987 kJ/mol
# Density = 1.753474 g / cm^3
# Si number density = 17.574742 Si / 1000 Ang^3
#
#
#
# Elastic Constant Matrix: (Units=GPa)
#
#
# Indices 1 2 3 4 5 6 
#
# 1 61.5752 45.1331 27.2134 0.0000 0.0000 0.0000
# 2 45.1331 124.2528 37.0027 0.0000 0.0000 0.0000
# 3 27.2134 37.0027 60.5517 0.0000 0.0000 0.0000
# 4 0.0000 0.0000 0.0000 9.4685 0.0000 0.0000
# 5 0.0000 0.0000 0.0000 0.0000 23.5248 0.0000
# 6 0.0000 0.0000 0.0000 0.0000 0.0000 18.8361
#
#
#
# Elastic Compliance Matrix: (Units=1/GPa)
#
#
# Indices 1 2 3 4 5 6 
#
# 1 0.024183 -0.006782 -0.006724 0.000000 0.000000 0.000000
# 2 -0.006782 0.011740 -0.004127 0.000000 0.000000 0.000000
# 3 -0.006724 -0.004127 0.022059 0.000000 0.000000 0.000000
# 4 0.000000 0.000000 0.000000 0.105613 0.000000 0.000000
# 5 0.000000 0.000000 0.000000 0.000000 0.042508 0.000000
# 6 0.000000 0.000000 0.000000 0.000000 0.000000 0.053089
#
#
# Mechanical properties :
#
#
# Convention : Reuss Voigt Hill
#
# Bulk Modulus (GPa) = 44.01997 51.67534 47.84766
# Shear Modulus (GPa) = 16.55467 19.50126 18.02797
#
# Velocity S-wave (km/s) = 3.07246 3.33471 3.20627
# Velocity P-wave (km/s) = 6.13909 6.65538 6.40244
#
# Compressibility (1/GPa) = 0.02271696
#
# Stress axis : x y z
#
# Youngs Moduli (GPa) = 41.35172 85.17631 45.33387
#
# Poissons Ratio (x) = 0.57763 0.30483
# Poissons Ratio (y) = 0.28043 0.18708
# Poissons Ratio (z) = 0.27805 0.35149
#
# Static dielectric constant tensor:
#      x y z
#    x 3.026340 0.000000 0.000000 
#    y 0.000000 3.472310 0.000000 
#    z 0.000000 0.000000 3.149680 
# 
# 
# High freq. dielectric constant tensor:
#      x y z
#    x 1.641080 0.000000 0.000000 
#    y 0.000000 1.683250 0.000000 
#    z 0.000000 0.000000 1.665390 
# 
# From -- ./inp_files/11895.got.cif
#   From: 2010.03.12/outbox.cif.g09.slc.cpg/sg47_6_cif.got.tgz:11895.got - 2010.04.14 03:12:58.
