data_PCOD8196992
_publ_section_title
;
Structure prediction by ZEFSAII (Michael W. Deem and Ramdas Pophale) SiO2 
 PCOD8196992
Probable space group: P M M M
;
_chemical_formula_sum "Si O2"
_cell_formula_units_Z 48
_cell_length_a 21.552060
_cell_length_b 9.291513
_cell_length_c 17.032671
_cell_angle_alpha 90.000000
_cell_angle_beta 90.000000
_cell_angle_gamma 90.000000
_cell_volume 3410.813585
_symmetry_space_group_name_H-M "P M M M"
_symmetry_group_IT_number 47
_symmetry_cell_setting 'orthorhombic'
loop_
_space_group_symop_operation_xyz
x,y,z
-x,-y,z
x,-y,-z
-x,y,-z
-x,-y,-z
x,y,-z
-x,y,z
x,-y,z
loop_
_atom_site_type_symbol
_atom_site_label
_atom_site_fract_x
_atom_site_fract_y
_atom_site_fract_z
Si Si1 0.926709 0.165248 0.500000
Si Si2 0.926573 0.000000 0.911080
Si Si3 0.136929 0.326134 0.641251
Si Si4 0.742339 0.832045 0.407175
Si Si5 0.500000 0.164561 0.406366
Si Si6 0.073352 0.745274 0.196732
Si Si7 0.380410 0.336163 0.406908
Si Si8 0.926665 0.500000 0.914486
O O1 0.905239 0.253846 0.424790
O O2 0.000000 0.157569 0.500000
O O3 0.899858 0.000000 0.500000
O O4 0.903468 0.876090 0.854688
O O5 0.000000 0.000000 0.922001
O O6 0.897613 0.000000 0.000000
O O7 0.137163 0.500000 0.633137
O O8 0.205504 0.261325 0.636078
O O9 0.108974 0.273157 0.722643
O O10 0.753275 0.818872 0.500000
O O11 0.678389 0.758339 0.380566
O O12 0.743074 0.000000 0.381589
O O13 0.500000 0.160449 0.500000
O O14 0.440394 0.251568 0.374403
O O15 0.500000 0.000000 0.374294
O O16 0.096682 0.629517 0.136170
O O17 0.000000 0.743806 0.215047
O O18 0.383512 0.344606 0.500000
O O19 0.377512 0.500000 0.373137
O O20 0.000000 0.500000 0.925336
O O21 0.894785 0.500000 0.000000
#
# Coordination Sequence:
#
# PCOD8196992 Si02
#       8
#     4   4   8   8   4   8   8   4
#     4  11  25  39  51  63  79 108 145 188 235 275
#     4   9  18  32  50  71  91 111 133 163 212 271
#     4  12  23  35  49  65  86 112 147 186 227 270
#     4  10  20  33  47  60  79 110 149 188 226 266
#     4   9  15  23  37  59  85 109 135 171 218 261
#     4  10  20  32  48  69  90 110 137 175 220 269
#     4   9  16  26  41  60  82 106 138 178 222 262
#     4   9  16  30  50  69  89 109 129 161 212 273
#
# _framework density 14.072889
#
# number of rings (size 3 to 8) (size 9 to 14) (size 15 to 20)
#    0.000    2.000    1.667    3.000    2.333    7.000 
#    0.000    0.000    0.000    0.000    0.000    0.000 
#    0.000    0.000    0.000    0.000    0.000    0.000 
#
# Total GULP energy -594650.726269 kJ/mol
# GULP energy per Si atom -12388.556797 kJ/mol
# Density = 1.404086 g / cm^3
# Si number density = 14.072889 Si / 1000 Ang^3
#
#
#
# Elastic Constant Matrix: (Units=GPa)
#
#
# Indices 1 2 3 4 5 6 
#
# 1 86.6968 50.7084 36.9674 0.0000 0.0000 0.0000
# 2 50.7084 152.0393 54.1246 0.0000 0.0000 0.0000
# 3 36.9674 54.1246 96.7743 0.0000 0.0000 0.0000
# 4 0.0000 0.0000 0.0000 26.4646 0.0000 0.0000
# 5 0.0000 0.0000 0.0000 0.0000 11.5016 0.0000
# 6 0.0000 0.0000 0.0000 0.0000 0.0000 24.7322
#
#
#
# Elastic Compliance Matrix: (Units=1/GPa)
#
#
# Indices 1 2 3 4 5 6 
#
# 1 0.015345 -0.003785 -0.003745 0.000000 0.000000 0.000000
# 2 -0.003785 0.009146 -0.003669 0.000000 0.000000 0.000000
# 3 -0.003745 -0.003669 0.013816 0.000000 0.000000 0.000000
# 4 0.000000 0.000000 0.000000 0.037786 0.000000 0.000000
# 5 0.000000 0.000000 0.000000 0.000000 0.086944 0.000000
# 6 0.000000 0.000000 0.000000 0.000000 0.000000 0.040433
#
#
# Mechanical properties :
#
#
# Convention : Reuss Voigt Hill
#
# Bulk Modulus (GPa) = 62.85850 68.79013 65.82431
# Shear Modulus (GPa) = 21.62895 25.45368 23.54131
#
# Velocity S-wave (km/s) = 3.92461 4.25750 4.09444
# Velocity P-wave (km/s) = 8.08085 8.55312 8.32034
#
# Compressibility (1/GPa) = 0.01590875
#
# Stress axis : x y z
#
# Youngs Moduli (GPa) = 65.16803 109.33998 72.37920
#
# Poissons Ratio (x) = 0.41382 0.27106
# Poissons Ratio (y) = 0.24664 0.26559
# Poissons Ratio (z) = 0.24405 0.40121
#
# Static dielectric constant tensor:
#      x y z
#    x 2.685880 0.000000 0.000000 
#    y 0.000000 3.076600 0.000000 
#    z 0.000000 0.000000 2.537580 
# 
# 
# High freq. dielectric constant tensor:
#      x y z
#    x 1.514830 0.000000 0.000000 
#    y 0.000000 1.567130 0.000000 
#    z 0.000000 0.000000 1.496790 
# 
# From -- ./inp_files/28709.got.cif
#   From: 2010.03.12/outbox.cif.g09.slc.cpg/sg47_15_cif.got.tgz:28709.got - 2010.04.14 03:12:58.
