data_PCOD8196867
_publ_section_title
;
Structure prediction by ZEFSAII (Michael W. Deem and Ramdas Pophale) SiO2 
 PCOD8196867
Probable space group: P M M M
;
_chemical_formula_sum "Si O2"
_cell_formula_units_Z 52
_cell_length_a 22.947645
_cell_length_b 15.072721
_cell_length_c 9.381150
_cell_angle_alpha 90.000000
_cell_angle_beta 90.000000
_cell_angle_gamma 90.000000
_cell_volume 3244.784533
_symmetry_space_group_name_H-M "P M M M"
_symmetry_group_IT_number 47
_symmetry_cell_setting 'orthorhombic'
loop_
_space_group_symop_operation_xyz
x,y,z
-x,-y,z
x,-y,-z
-x,y,-z
-x,-y,-z
x,y,-z
-x,y,z
x,-y,z
loop_
_atom_site_type_symbol
_atom_site_label
_atom_site_fract_x
_atom_site_fract_y
_atom_site_fract_z
Si Si1 0.936398 0.171475 0.837414
Si Si2 0.100840 0.331177 0.338382
Si Si3 0.813117 0.099095 0.166134
Si Si4 0.068822 0.500000 0.836371
Si Si5 0.563964 0.394814 0.159613
Si Si6 0.325556 0.601625 0.331460
Si Si7 0.770379 0.740440 0.339491
O O1 0.937749 0.254592 0.731791
O O2 0.882257 0.108099 0.797447
O O3 0.000000 0.123459 0.820891
O O4 0.928761 0.205510 0.000000
O O5 0.079066 0.347850 0.500000
O O6 0.095108 0.416792 0.243039
O O7 0.168003 0.306605 0.336209
O O8 0.772500 0.169552 0.247338
O O9 0.794613 0.000000 0.212737
O O10 0.802335 0.114317 0.000000
O O11 0.000000 0.500000 0.824134
O O12 0.089516 0.500000 0.000000
O O13 0.500000 0.359209 0.208461
O O14 0.562518 0.500000 0.160930
O O15 0.614137 0.361540 0.265839
O O16 0.577732 0.360555 0.000000
O O17 0.331522 0.604391 0.500000
O O18 0.311738 0.500000 0.281801
O O19 0.275427 0.668772 0.277503
O O20 0.753168 0.767781 0.500000
#
# Coordination Sequence:
#
# PCOD8196867 Si02
#       7
#     8   8   8   4   8   8   8
#     4   9  17  30  47  65  87 111 135 171 221 274
#     4  10  20  32  47  63  82 111 145 182 223 266
#     4   9  18  32  49  68  89 113 144 183 225 272
#     4  11  23  35  45  59  81 109 144 185 226 267
#     4   8  14  25  40  60  90 125 157 188 220 252
#     4   9  17  28  44  65  91 123 157 190 220 255
#     4   9  19  33  48  66  90 119 148 184 227 267
#
# _framework density 16.025717
#
# number of rings (size 3 to 8) (size 9 to 14) (size 15 to 20)
#    0.000    2.846    0.000    1.615    1.077    4.923 
#    0.000    3.077    0.000    0.000    0.000    4.308 
#    0.000    0.615    0.000    6.769    0.000    5.231 
#
# Total GULP energy -644462.371311 kJ/mol
# GULP energy per Si atom -12393.507141 kJ/mol
# Density = 1.598924 g / cm^3
# Si number density = 16.025717 Si / 1000 Ang^3
#
#
#
# Elastic Constant Matrix: (Units=GPa)
#
#
# Indices 1 2 3 4 5 6 
#
# 1 84.4935 36.0173 24.7113 0.0000 0.0000 0.0000
# 2 36.0173 95.2846 45.6059 0.0000 0.0000 0.0000
# 3 24.7113 45.6059 66.7662 0.0000 0.0000 0.0000
# 4 0.0000 0.0000 0.0000 23.6870 0.0000 0.0000
# 5 0.0000 0.0000 0.0000 0.0000 25.3562 0.0000
# 6 0.0000 0.0000 0.0000 0.0000 0.0000 11.6091
#
#
#
# Elastic Compliance Matrix: (Units=1/GPa)
#
#
# Indices 1 2 3 4 5 6 
#
# 1 0.014360 -0.004285 -0.002388 0.000000 0.000000 0.000000
# 2 -0.004285 0.016871 -0.009938 0.000000 0.000000 0.000000
# 3 -0.002388 -0.009938 0.022650 0.000000 0.000000 0.000000
# 4 0.000000 0.000000 0.000000 0.042217 0.000000 0.000000
# 5 0.000000 0.000000 0.000000 0.000000 0.039438 0.000000
# 6 0.000000 0.000000 0.000000 0.000000 0.000000 0.086140
#
#
# Mechanical properties :
#
#
# Convention : Reuss Voigt Hill
#
# Bulk Modulus (GPa) = 48.40541 51.02371 49.71456
# Shear Modulus (GPa) = 19.09958 21.47776 20.28867
#
# Velocity S-wave (km/s) = 3.45600 3.66485 3.56196
# Velocity P-wave (km/s) = 6.79674 7.05804 6.92862
#
# Compressibility (1/GPa) = 0.02065885
#
# Stress axis : x y z
#
# Youngs Moduli (GPa) = 69.63657 59.27168 44.15006
#
# Poissons Ratio (x) = 0.25399 0.10542
# Poissons Ratio (y) = 0.29841 0.43878
# Poissons Ratio (z) = 0.16628 0.58906
#
# Static dielectric constant tensor:
#      x y z
#    x 3.149490 0.000000 0.000000 
#    y 0.000000 2.926130 0.000000 
#    z 0.000000 0.000000 3.191150 
# 
# 
# High freq. dielectric constant tensor:
#      x y z
#    x 1.603150 0.000000 0.000000 
#    y 0.000000 1.585710 0.000000 
#    z 0.000000 0.000000 1.619670 
# 
# From -- ./inp_files/7581.got.cif
#   From: 2010.03.12/outbox.cif.g09.slc.cpg/sg47_4_cif.got.tgz:7581.got - 2010.04.14 03:12:58.
