data_PCOD8196413
_publ_section_title
;
Structure prediction by ZEFSAII (Michael W. Deem and Ramdas Pophale) SiO2 
 PCOD8196413
Probable space group: P M M M
;
_chemical_formula_sum "Si O2"
_cell_formula_units_Z 52
_cell_length_a 22.624782
_cell_length_b 9.301419
_cell_length_c 20.357724
_cell_angle_alpha 90.000000
_cell_angle_beta 90.000000
_cell_angle_gamma 90.000000
_cell_volume 4284.131904
_symmetry_space_group_name_H-M "P M M M"
_symmetry_group_IT_number 47
_symmetry_cell_setting 'orthorhombic'
loop_
_space_group_symop_operation_xyz
x,y,z
-x,-y,z
x,-y,-z
-x,y,-z
-x,-y,-z
x,y,-z
-x,y,z
x,-y,z
loop_
_atom_site_type_symbol
_atom_site_label
_atom_site_fract_x
_atom_site_fract_y
_atom_site_fract_z
Si Si1 0.854607 0.166982 0.923480
Si Si2 0.069525 0.666359 0.821762
Si Si3 0.387362 0.661765 0.078375
Si Si4 0.929709 0.661477 0.572622
Si Si5 0.929588 0.838298 0.694756
Si Si6 0.500000 0.837337 0.921727
Si Si7 0.277767 0.840551 0.921942
O O1 0.899904 0.267092 0.885306
O O2 0.788009 0.206878 0.900513
O O3 0.867826 0.000000 0.908697
O O4 0.863188 0.200233 0.000000
O O5 0.086518 0.500000 0.814939
O O6 0.092890 0.747545 0.756956
O O7 0.000000 0.687799 0.830766
O O8 0.392798 0.500000 0.105677
O O9 0.442241 0.754963 0.104965
O O10 0.326466 0.730068 0.105802
O O11 0.387411 0.661233 0.000000
O O12 0.909112 0.713334 0.500000
O O13 0.906582 0.500000 0.586092
O O14 0.903726 0.767210 0.628147
O O15 0.000000 0.661606 0.576056
O O16 0.000000 0.838207 0.692641
O O17 0.904817 0.000000 0.700161
O O18 0.500000 0.000000 0.894426
O O19 0.500000 0.838694 0.000000
O O20 0.292023 0.000000 0.894626
O O21 0.280487 0.845576 0.000000
#
# Coordination Sequence:
#
# PCOD8196413 Si02
#       7
#     8   8   8   8   8   4   8
#     4   9  18  31  44  55  65  78  99 129 164 203
#     4  10  20  31  41  52  66  83 102 127 162 204
#     4   9  15  21  30  45  63  80  98 120 144 171
#     4   8  13  21  33  49  69  90 107 122 142 170
#     4   9  16  25  37  51  66  84 105 127 150 180
#     4   9  15  21  29  41  59  83 105 121 139 167
#     4   8  14  25  38  49  61  77  96 118 148 187
#
# _framework density 12.137816000000001
#
# number of rings (size 3 to 8) (size 9 to 14) (size 15 to 20)
#    0.000    3.154    0.000    3.000    0.000    7.077 
#    0.000    4.615    0.000    0.000    0.000    0.000 
#    0.000    0.000    0.000    0.000    0.000    0.000 
#
# Total GULP energy -644533.905550 kJ/mol
# GULP energy per Si atom -12394.882799 kJ/mol
# Density = 1.211019 g / cm^3
# Si number density = 12.137816 Si / 1000 Ang^3
#
#
#
# Elastic Constant Matrix: (Units=GPa)
#
#
# Indices 1 2 3 4 5 6 
#
# 1 40.4369 39.7941 24.3464 0.0000 0.0000 0.0000
# 2 39.7941 108.3073 43.5015 0.0000 0.0000 0.0000
# 3 24.3464 43.5015 52.4812 0.0000 0.0000 0.0000
# 4 0.0000 0.0000 0.0000 17.9014 0.0000 0.0000
# 5 0.0000 0.0000 0.0000 0.0000 0.1203 0.0000
# 6 0.0000 0.0000 0.0000 0.0000 0.0000 17.0471
#
#
#
# Elastic Compliance Matrix: (Units=1/GPa)
#
#
# Indices 1 2 3 4 5 6 
#
# 1 0.041985 -0.011398 -0.010030 0.000000 0.000000 0.000000
# 2 -0.011398 0.016935 -0.008750 0.000000 0.000000 0.000000
# 3 -0.010030 -0.008750 0.030960 0.000000 0.000000 0.000000
# 4 0.000000 0.000000 0.000000 0.055861 0.000000 0.000000
# 5 0.000000 0.000000 0.000000 0.000000 8.309913 0.000000
# 6 0.000000 0.000000 0.000000 0.000000 0.000000 0.058661
#
#
# Mechanical properties :
#
#
# Convention : Reuss Voigt Hill
#
# Bulk Modulus (GPa) = 33.86887 46.27879 40.07383
# Shear Modulus (GPa) = 0.58244 13.25266 6.91755
#
# Velocity S-wave (km/s) = 0.69347 3.30790 2.38988
# Velocity P-wave (km/s) = 5.34840 7.26637 6.37987
#
# Compressibility (1/GPa) = 0.02952564
#
# Stress axis : x y z
#
# Youngs Moduli (GPa) = 23.81797 59.04880 32.29963
#
# Poissons Ratio (x) = 0.67302 0.32395
# Poissons Ratio (y) = 0.27147 0.28262
# Poissons Ratio (z) = 0.23889 0.51668
#
# Static dielectric constant tensor:
#      x y z
#    x 2.353910 0.000000 0.000000 
#    y 0.000000 2.714100 0.000000 
#    z 0.000000 0.000000 2.277400 
# 
# 
# High freq. dielectric constant tensor:
#      x y z
#    x 1.425760 0.000000 0.000000 
#    y 0.000000 1.475990 0.000000 
#    z 0.000000 0.000000 1.414640 
# 
# From -- ./inp_files/28867.got.cif
#   From: 2010.03.12/outbox.cif.g09.slc.cpg/sg47_15_cif.got.tgz:28867.got - 2010.04.14 03:12:58.
