data_PCOD8196888
_publ_section_title
;
Structure prediction by ZEFSAII (Michael W. Deem and Ramdas Pophale) SiO2 
 PCOD8196888
Probable space group: P M M M
;
_chemical_formula_sum "Si O2"
_cell_formula_units_Z 64
_cell_length_a 28.592377
_cell_length_b 9.237398
_cell_length_c 14.084166
_cell_angle_alpha 90.000000
_cell_angle_beta 90.000000
_cell_angle_gamma 90.000000
_cell_volume 3719.898179
_symmetry_space_group_name_H-M "P M M M"
_symmetry_group_IT_number 47
_symmetry_cell_setting 'orthorhombic'
loop_
_space_group_symop_operation_xyz
x,y,z
-x,-y,z
x,-y,-z
-x,y,-z
-x,-y,-z
x,y,-z
-x,y,z
x,-y,z
loop_
_atom_site_type_symbol
_atom_site_label
_atom_site_fract_x
_atom_site_fract_y
_atom_site_fract_z
Si Si1 0.947548 0.169190 0.607816
Si Si2 0.779042 0.668925 0.755264
Si Si3 0.641106 0.328141 0.284876
Si Si4 0.302338 0.329830 0.105977
Si Si5 0.052919 0.839824 0.109995
Si Si6 0.113417 0.668195 0.244760
Si Si7 0.720822 0.167407 0.389350
Si Si8 0.448298 0.671662 0.393664
O O1 0.943977 0.222190 0.500000
O O2 0.907374 0.251217 0.664439
O O3 0.000000 0.203837 0.646909
O O4 0.937626 0.000000 0.615305
O O5 0.771182 0.500000 0.731984
O O6 0.747326 0.713978 0.846349
O O7 0.832704 0.705774 0.774776
O O8 0.764745 0.762816 0.664404
O O9 0.647465 0.500000 0.295914
O O10 0.655413 0.280271 0.177151
O O11 0.674185 0.252015 0.360965
O O12 0.588670 0.277049 0.313168
O O13 0.304723 0.500000 0.093151
O O14 0.307142 0.258692 0.000000
O O15 0.086629 0.719450 0.151645
O O16 0.000000 0.792616 0.131069
O O17 0.062070 0.000000 0.154564
O O18 0.063168 0.847421 0.000000
O O19 0.105581 0.500000 0.261005
O O20 0.730226 0.186633 0.500000
O O21 0.715594 0.000000 0.360696
O O22 0.434804 0.727584 0.500000
O O23 0.500000 0.730541 0.365842
O O24 0.449252 0.500000 0.396003
#
# Coordination Sequence:
#
# PCOD8196888 Si02
#       8
#     8   8   8   8   8   8   8   8
#     4   9  19  36  55  72  92 124 163 193 221 271
#     4   9  20  35  48  66  92 123 155 184 223 279
#     4   9  16  27  46  69  91 120 158 196 233 275
#     4   8  14  27  47  66  84 112 152 193 230 271
#     4   9  19  36  55  73  95 126 161 191 223 273
#     4  11  22  33  49  75 101 122 149 192 243 285
#     4  10  20  32  47  68  93 120 151 191 235 274
#     4   8  13  21  36  62  94 125 158 194 229 271
#
# _framework density 17.204772999999999
#
# number of rings (size 3 to 8) (size 9 to 14) (size 15 to 20)
#    0.000    2.875    0.000    3.375    0.000    6.000 
#    0.000    5.000    0.000    6.750    0.000    4.375 
#    0.000    0.000    0.000    4.500    0.000    5.500 
#
# Total GULP energy -793155.049084 kJ/mol
# GULP energy per Si atom -12393.047642 kJ/mol
# Density = 1.716561 g / cm^3
# Si number density = 17.204773 Si / 1000 Ang^3
#
#
#
# Elastic Constant Matrix: (Units=GPa)
#
#
# Indices 1 2 3 4 5 6 
#
# 1 131.7671 35.7943 70.6240 0.0000 0.0000 0.0000
# 2 35.7943 40.9716 31.5736 0.0000 0.0000 0.0000
# 3 70.6240 31.5736 117.1023 0.0000 0.0000 0.0000
# 4 0.0000 0.0000 0.0000 30.6592 0.0000 0.0000
# 5 0.0000 0.0000 0.0000 0.0000 31.5463 0.0000
# 6 0.0000 0.0000 0.0000 0.0000 0.0000 5.4627
#
#
#
# Elastic Compliance Matrix: (Units=1/GPa)
#
#
# Indices 1 2 3 4 5 6 
#
# 1 0.012418 -0.006409 -0.005761 0.000000 0.000000 0.000000
# 2 -0.006409 0.034116 -0.005333 0.000000 0.000000 0.000000
# 3 -0.005761 -0.005333 0.013452 0.000000 0.000000 0.000000
# 4 0.000000 0.000000 0.000000 0.032617 0.000000 0.000000
# 5 0.000000 0.000000 0.000000 0.000000 0.031699 0.000000
# 6 0.000000 0.000000 0.000000 0.000000 0.000000 0.183059
#
#
# Mechanical properties :
#
#
# Convention : Reuss Voigt Hill
#
# Bulk Modulus (GPa) = 40.03322 62.86942 51.45132
# Shear Modulus (GPa) = 14.25741 23.65692 18.95716
#
# Velocity S-wave (km/s) = 2.88182 3.71215 3.32302
# Velocity P-wave (km/s) = 5.86450 7.41583 6.68532
#
# Compressibility (1/GPa) = 0.02497925
#
# Stress axis : x y z
#
# Youngs Moduli (GPa) = 80.52782 29.31144 74.33787
#
# Poissons Ratio (x) = 0.18786 0.42828
# Poissons Ratio (y) = 0.51612 0.39646
# Poissons Ratio (z) = 0.46394 0.15632
#
# Static dielectric constant tensor:
#      x y z
#    x 3.380050 0.000000 0.000000 
#    y 0.000000 2.859090 0.000000 
#    z 0.000000 0.000000 3.369020 
# 
# 
# High freq. dielectric constant tensor:
#      x y z
#    x 1.660480 0.000000 0.000000 
#    y 0.000000 1.637170 0.000000 
#    z 0.000000 0.000000 1.664130 
# 
# From -- ./inp_files/25854.got.cif
#   From: 2010.03.12/outbox.cif.g09.slc.cpg/sg47_13_cif.got.tgz:25854.got - 2010.04.14 03:12:58.
