data_PCOD8196973
_publ_section_title
;
Structure prediction by ZEFSAII (Michael W. Deem and Ramdas Pophale) SiO2 
 PCOD8196973
Probable space group: P M M M
;
_chemical_formula_sum "Si O2"
_cell_formula_units_Z 64
_cell_length_a 15.358143
_cell_length_b 9.233537
_cell_length_c 23.328536
_cell_angle_alpha 90.000000
_cell_angle_beta 90.000000
_cell_angle_gamma 90.000000
_cell_volume 3308.219262
_symmetry_space_group_name_H-M "P M M M"
_symmetry_group_IT_number 47
_symmetry_cell_setting 'orthorhombic'
loop_
_space_group_symop_operation_xyz
x,y,z
-x,-y,z
x,-y,-z
-x,y,-z
-x,-y,-z
x,y,-z
-x,y,z
x,-y,z
loop_
_atom_site_type_symbol
_atom_site_label
_atom_site_fract_x
_atom_site_fract_y
_atom_site_fract_z
Si Si1 0.225220 0.667150 0.565965
Si Si2 0.400785 0.156225 0.730649
Si Si3 0.669469 0.339033 0.177006
Si Si4 0.857080 0.334590 0.230519
Si Si5 0.101257 0.170223 0.347213
Si Si6 0.096450 0.836719 0.878680
Si Si7 0.241755 0.332562 0.935945
Si Si8 0.598659 0.667856 0.623016
O O1 0.204101 0.697455 0.500000
O O2 0.206959 0.500000 0.582583
O O3 0.161575 0.769071 0.602094
O O4 0.328583 0.701783 0.574988
O O5 0.500000 0.130635 0.715788
O O6 0.396575 0.229357 0.793257
O O7 0.363407 0.255319 0.679958
O O8 0.352358 0.000000 0.731425
O O9 0.629494 0.500000 0.177374
O O10 0.755779 0.331946 0.215348
O O11 0.686116 0.288826 0.111352
O O12 0.890775 0.500000 0.235320
O O13 0.873905 0.251956 0.289231
O O14 0.907520 0.252335 0.180251
O O15 0.000000 0.198502 0.362351
O O16 0.119534 0.000000 0.339578
O O17 0.156223 0.762658 0.926648
O O18 0.000000 0.839634 0.904890
O O19 0.129907 0.000000 0.866398
O O20 0.215746 0.500000 0.926036
O O21 0.278563 0.306247 0.000000
O O22 0.500000 0.718275 0.604415
O O23 0.595146 0.500000 0.638252
#
# Coordination Sequence:
#
# PCOD8196973 Si02
#       8
#     8   8   8   8   8   8   8   8
#     4  10  22  39  58  81 108 140 181 224 263 310
#     4  10  20  32  49  77 109 136 164 200 244 300
#     4   9  18  32  51  75 101 130 165 207 255 306
#     4  10  20  34  54  79 104 131 168 214 263 315
#     4  11  24  39  55  77 106 141 181 226 275 322
#     4  10  20  32  47  71 103 134 165 205 253 306
#     4   9  19  35  52  70  94 128 172 217 257 300
#     4   9  18  34  57  84 113 142 170 206 258 318
#
# _framework density 19.345756000000002
#
# number of rings (size 3 to 8) (size 9 to 14) (size 15 to 20)
#    0.000    2.250    0.000    3.375    0.000   11.500 
#    0.000    3.750    0.000    0.375    0.000    5.250 
#    0.000    0.000    0.000    0.000    0.000    0.000 
#
# Total GULP energy -793308.656406 kJ/mol
# GULP energy per Si atom -12395.447756 kJ/mol
# Density = 1.930172 g / cm^3
# Si number density = 19.345756 Si / 1000 Ang^3
#
#
#
# Elastic Constant Matrix: (Units=GPa)
#
#
# Indices 1 2 3 4 5 6 
#
# 1 48.1557 25.5343 29.7317 0.0000 0.0000 0.0000
# 2 25.5343 99.2180 44.6696 0.0000 0.0000 0.0000
# 3 29.7317 44.6696 106.2701 0.0000 0.0000 0.0000
# 4 0.0000 0.0000 0.0000 15.7602 0.0000 0.0000
# 5 0.0000 0.0000 0.0000 0.0000 13.6768 0.0000
# 6 0.0000 0.0000 0.0000 0.0000 0.0000 23.8502
#
#
#
# Elastic Compliance Matrix: (Units=1/GPa)
#
#
# Indices 1 2 3 4 5 6 
#
# 1 0.026508 -0.004296 -0.005610 0.000000 0.000000 0.000000
# 2 -0.004296 0.013128 -0.004316 0.000000 0.000000 0.000000
# 3 -0.005610 -0.004316 0.012794 0.000000 0.000000 0.000000
# 4 0.000000 0.000000 0.000000 0.063451 0.000000 0.000000
# 5 0.000000 0.000000 0.000000 0.000000 0.073116 0.000000
# 6 0.000000 0.000000 0.000000 0.000000 0.000000 0.041928
#
#
# Mechanical properties :
#
#
# Convention : Reuss Voigt Hill
#
# Bulk Modulus (GPa) = 41.69424 50.39056 46.04240
# Shear Modulus (GPa) = 18.70104 20.90467 19.80285
#
# Velocity S-wave (km/s) = 3.11251 3.29079 3.20289
# Velocity P-wave (km/s) = 5.87502 6.36733 6.12612
#
# Compressibility (1/GPa) = 0.02398413
#
# Stress axis : x y z
#
# Youngs Moduli (GPa) = 37.72472 76.17517 78.16229
#
# Poissons Ratio (x) = 0.32725 0.43852
# Poissons Ratio (y) = 0.16207 0.33736
# Poissons Ratio (z) = 0.21165 0.32878
#
# Static dielectric constant tensor:
#      x y z
#    x 3.441220 0.000000 0.000000 
#    y 0.000000 3.836140 0.000000 
#    z 0.000000 0.000000 3.490450 
# 
# 
# High freq. dielectric constant tensor:
#      x y z
#    x 1.737340 0.000000 0.000000 
#    y 0.000000 1.759720 0.000000 
#    z 0.000000 0.000000 1.745090 
# 
# From -- ./inp_files/7877.got.cif
#   From: 2010.03.12/outbox.cif.g09.slc.cpg/sg47_4_cif.got.tgz:7877.got - 2010.04.14 03:12:58.
