data_PCOD8196780
_publ_section_title
;
Structure prediction by ZEFSAII (Michael W. Deem and Ramdas Pophale) SiO2 
 PCOD8196780
Probable space group: P M M M
;
_chemical_formula_sum "Si O2"
_cell_formula_units_Z 56
_cell_length_a 21.455932
_cell_length_b 9.267462
_cell_length_c 18.325721
_cell_angle_alpha 90.000000
_cell_angle_beta 90.000000
_cell_angle_gamma 90.000000
_cell_volume 3643.923647
_symmetry_space_group_name_H-M "P M M M"
_symmetry_group_IT_number 47
_symmetry_cell_setting 'orthorhombic'
loop_
_space_group_symop_operation_xyz
x,y,z
-x,-y,z
x,-y,-z
-x,y,-z
-x,-y,-z
x,y,-z
-x,y,z
x,-y,z
loop_
_atom_site_type_symbol
_atom_site_label
_atom_site_fract_x
_atom_site_fract_y
_atom_site_fract_z
Si Si1 0.430767 0.671449 0.081702
Si Si2 0.254569 0.159194 0.290156
Si Si3 0.170841 0.830747 0.583726
Si Si4 0.316273 0.667997 0.173093
Si Si5 0.807025 0.667608 0.083988
Si Si6 0.071465 0.665991 0.674188
Si Si7 0.872219 0.837797 0.799510
O O1 0.500000 0.717909 0.108027
O O2 0.425041 0.500000 0.079350
O O3 0.379183 0.733790 0.137349
O O4 0.418419 0.731373 0.000000
O O5 0.233320 0.212323 0.370809
O O6 0.305497 0.261962 0.252709
O O7 0.192500 0.158237 0.242577
O O8 0.284166 0.000000 0.294233
O O9 0.184132 0.793606 0.500000
O O10 0.111598 0.740314 0.610675
O O11 0.155974 0.000000 0.596120
O O12 0.323266 0.500000 0.187583
O O13 0.260283 0.703014 0.117905
O O14 0.823231 0.500000 0.093892
O O15 0.861298 0.759472 0.123025
O O16 0.805096 0.713711 0.000000
O O17 0.092847 0.500000 0.683406
O O18 0.079003 0.746761 0.751624
O O19 0.000000 0.676016 0.649564
O O20 0.897694 0.000000 0.812479
#
# Coordination Sequence:
#
# PCOD8196780 Si02
#       7
#     8   8   8   8   8   8   8
#     4   8  13  21  34  54  81 112 145 179 209 235
#     4   8  15  27  41  58  80 105 132 163 201 241
#     4   9  18  32  48  65  86 111 136 162 195 238
#     4   9  15  23  38  59  81 107 141 174 202 239
#     4   9  16  25  39  60  84 107 132 168 214 257
#     4  10  20  32  46  64  85 109 136 164 196 237
#     4   9  17  29  44  60  79 105 137 171 205 243
#
# _framework density 15.368048999999999
#
# number of rings (size 3 to 8) (size 9 to 14) (size 15 to 20)
#    0.000    3.143    0.000    2.571    0.000    7.143 
#    0.000    1.429    0.000    2.143    0.000    4.000 
#    0.000    0.571    0.000    7.143    0.000    0.000 
#
# Total GULP energy -694111.114101 kJ/mol
# GULP energy per Si atom -12394.841323 kJ/mol
# Density = 1.533307 g / cm^3
# Si number density = 15.368049 Si / 1000 Ang^3
#
#
#
# Elastic Constant Matrix: (Units=GPa)
#
#
# Indices 1 2 3 4 5 6 
#
# 1 64.7341 32.6701 52.7872 0.0000 0.0000 0.0000
# 2 32.6701 64.7652 49.8614 0.0000 0.0000 0.0000
# 3 52.7872 49.8614 122.9402 0.0000 0.0000 0.0000
# 4 0.0000 0.0000 0.0000 24.2332 0.0000 0.0000
# 5 0.0000 0.0000 0.0000 0.0000 20.0480 0.0000
# 6 0.0000 0.0000 0.0000 0.0000 0.0000 11.5125
#
#
#
# Elastic Compliance Matrix: (Units=1/GPa)
#
#
# Indices 1 2 3 4 5 6 
#
# 1 0.025496 -0.006446 -0.008333 0.000000 0.000000 0.000000
# 2 -0.006446 0.024080 -0.006999 0.000000 0.000000 0.000000
# 3 -0.008333 -0.006999 0.014551 0.000000 0.000000 0.000000
# 4 0.000000 0.000000 0.000000 0.041266 0.000000 0.000000
# 5 0.000000 0.000000 0.000000 0.000000 0.049880 0.000000
# 6 0.000000 0.000000 0.000000 0.000000 0.000000 0.086862
#
#
# Mechanical properties :
#
#
# Convention : Reuss Voigt Hill
#
# Bulk Modulus (GPa) = 48.61055 58.11966 53.36511
# Shear Modulus (GPa) = 17.09128 18.96679 18.02903
#
# Velocity S-wave (km/s) = 3.33848 3.51689 3.42884
# Velocity P-wave (km/s) = 6.82350 7.37509 7.10465
#
# Compressibility (1/GPa) = 0.02057167
#
# Stress axis : x y z
#
# Youngs Moduli (GPa) = 39.22173 41.52837 68.72612
#
# Poissons Ratio (x) = 0.26768 0.57270
# Poissons Ratio (y) = 0.25281 0.48099
# Poissons Ratio (z) = 0.32684 0.29064
#
# Static dielectric constant tensor:
#      x y z
#    x 2.828940 0.000000 0.000000 
#    y 0.000000 2.960450 0.000000 
#    z 0.000000 0.000000 3.069610 
# 
# 
# High freq. dielectric constant tensor:
#      x y z
#    x 1.556220 0.000000 0.000000 
#    y 0.000000 1.581330 0.000000 
#    z 0.000000 0.000000 1.579330 
# 
# From -- ./inp_files/9838.got.cif
#   From: 2010.03.12/outbox.cif.g09.slc.cpg/sg47_5_cif.got.tgz:9838.got - 2010.04.14 03:12:58.
