data_PCOD8196000
_publ_section_title
;
Structure prediction by ZEFSAII (Michael W. Deem and Ramdas Pophale) SiO2 
 PCOD8196000
Probable space group: P M M M
;
_chemical_formula_sum "Si O2"
_cell_formula_units_Z 36
_cell_length_a 12.435476
_cell_length_b 8.780784
_cell_length_c 17.667976
_cell_angle_alpha 90.000000
_cell_angle_beta 90.000000
_cell_angle_gamma 90.000000
_cell_volume 1929.223344
_symmetry_space_group_name_H-M "P M M M"
_symmetry_group_IT_number 47
_symmetry_cell_setting 'orthorhombic'
loop_
_space_group_symop_operation_xyz
x,y,z
-x,-y,z
x,-y,-z
-x,y,-z
-x,-y,-z
x,y,-z
-x,y,z
x,-y,z
loop_
_atom_site_type_symbol
_atom_site_label
_atom_site_fract_x
_atom_site_fract_y
_atom_site_fract_z
Si Si1 0.121743 0.166519 0.853172
Si Si2 0.374017 0.668665 0.500000
Si Si3 0.170368 0.320507 0.700704
Si Si4 0.000000 0.180727 0.589180
Si Si5 0.622417 0.820296 0.346176
Si Si6 0.871155 0.329616 0.000000
O O1 0.119570 0.274440 0.780177
O O2 0.000000 0.138702 0.877166
O O3 0.175410 0.000000 0.836881
O O4 0.177322 0.246836 0.925368
O O5 0.319375 0.500000 0.500000
O O6 0.500000 0.645688 0.500000
O O7 0.338761 0.766960 0.571416
O O8 0.165372 0.500000 0.689569
O O9 0.293756 0.262778 0.708603
O O10 0.106399 0.245170 0.630567
O O11 0.000000 0.227391 0.500000
O O12 0.000000 0.000000 0.598427
O O13 0.500000 0.768598 0.327865
O O14 0.633393 0.000000 0.339926
O O15 0.825104 0.500000 0.000000
O O16 0.000000 0.333442 0.000000
#
# Coordination Sequence:
#
# PCOD8196000 Si02
#       6
#     8   4   8   4   8   4
#     4  10  19  33  53  77 109 145 182 219 265 324
#     4   9  17  31  51  74  99 126 165 221 276 319
#     4  12  24  37  57  81 111 145 183 231 278 324
#     4  11  25  43  59  76 105 148 193 231 272 330
#     4  10  21  37  56  77 103 138 181 227 276 328
#     4   9  17  29  49  77 110 141 176 219 266 319
#
# _framework density 18.660357999999999
#
# number of rings (size 3 to 8) (size 9 to 14) (size 15 to 20)
#    0.000    1.667    1.111    4.333    1.556    5.778 
#    0.000    0.000    0.000    0.000    0.000    0.778 
#    0.000    6.222    0.000    0.000    0.000    0.000 
#
# Total GULP energy -446215.502835 kJ/mol
# GULP energy per Si atom -12394.875079 kJ/mol
# Density = 1.861789 g / cm^3
# Si number density = 18.660358 Si / 1000 Ang^3
#
#
#
# Elastic Constant Matrix: (Units=GPa)
#
#
# Indices 1 2 3 4 5 6 
#
# 1 71.4441 37.6332 25.4656 0.0000 0.0000 0.0000
# 2 37.6332 139.0883 50.8950 0.0000 0.0000 0.0000
# 3 25.4656 50.8950 116.5390 0.0000 0.0000 0.0000
# 4 0.0000 0.0000 0.0000 25.8417 0.0000 0.0000
# 5 0.0000 0.0000 0.0000 0.0000 8.0034 0.0000
# 6 0.0000 0.0000 0.0000 0.0000 0.0000 25.1996
#
#
#
# Elastic Compliance Matrix: (Units=1/GPa)
#
#
# Indices 1 2 3 4 5 6 
#
# 1 0.016704 -0.003790 -0.001995 0.000000 0.000000 0.000000
# 2 -0.003790 0.009417 -0.003284 0.000000 0.000000 0.000000
# 3 -0.001995 -0.003284 0.010451 0.000000 0.000000 0.000000
# 4 0.000000 0.000000 0.000000 0.038697 0.000000 0.000000
# 5 0.000000 0.000000 0.000000 0.000000 0.124946 0.000000
# 6 0.000000 0.000000 0.000000 0.000000 0.000000 0.039683
#
#
# Mechanical properties :
#
#
# Convention : Reuss Voigt Hill
#
# Bulk Modulus (GPa) = 54.24789 61.67324 57.96056
# Shear Modulus (GPa) = 18.92634 26.01411 22.47022
#
# Velocity S-wave (km/s) = 3.18819 3.73779 3.47388
# Velocity P-wave (km/s) = 6.53353 7.19377 6.87158
#
# Compressibility (1/GPa) = 0.01843390
#
# Stress axis : x y z
#
# Youngs Moduli (GPa) = 59.86483 106.19223 95.68302
#
# Poissons Ratio (x) = 0.40243 0.19090
# Poissons Ratio (y) = 0.22687 0.31427
# Poissons Ratio (z) = 0.11944 0.34878
#
# Static dielectric constant tensor:
#      x y z
#    x 3.219900 0.000000 0.000000 
#    y 0.000000 3.676010 0.000000 
#    z 0.000000 0.000000 4.431570 
# 
# 
# High freq. dielectric constant tensor:
#      x y z
#    x 1.683360 0.000000 0.000000 
#    y 0.000000 1.746200 0.000000 
#    z 0.000000 0.000000 1.715600 
# 
# From -- ./inp_files/23289.got.cif
#   From: 2010.03.12/outbox.cif.g09.slc.cpg/sg47_12_cif.got.tgz:23289.got - 2010.04.14 03:12:58.
