data_PCOD8196833
_publ_section_title
;
Structure prediction by ZEFSAII (Michael W. Deem and Ramdas Pophale) SiO2 
 PCOD8196833
Probable space group: P M M M
;
_chemical_formula_sum "Si O2"
_cell_formula_units_Z 40
_cell_length_a 9.537077
_cell_length_b 9.076460
_cell_length_c 25.761789
_cell_angle_alpha 90.000000
_cell_angle_beta 90.000000
_cell_angle_gamma 90.000000
_cell_volume 2230.015111
_symmetry_space_group_name_H-M "P M M M"
_symmetry_group_IT_number 47
_symmetry_cell_setting 'orthorhombic'
loop_
_space_group_symop_operation_xyz
x,y,z
-x,-y,z
x,-y,-z
-x,y,-z
-x,-y,-z
x,y,-z
-x,y,z
x,-y,z
loop_
_atom_site_type_symbol
_atom_site_label
_atom_site_fract_x
_atom_site_fract_y
_atom_site_fract_z
Si Si1 0.157487 0.176068 0.500000
Si Si2 0.832634 0.666469 0.000000
Si Si3 0.655209 0.825288 0.406731
Si Si4 0.837898 0.327777 0.204038
Si Si5 0.664639 0.830975 0.709856
Si Si6 0.166860 0.833846 0.898957
O O1 0.235691 0.237880 0.448807
O O2 0.000000 0.238604 0.500000
O O3 0.156996 0.000000 0.500000
O O4 0.773624 0.748849 0.949138
O O5 0.775585 0.500000 0.000000
O O6 0.000000 0.667787 0.000000
O O7 0.500000 0.761006 0.418449
O O8 0.703265 0.781923 0.348766
O O9 0.647486 0.000000 0.410784
O O10 0.816293 0.500000 0.195287
O O11 0.749954 0.275983 0.253128
O O12 0.779743 0.246297 0.152922
O O13 0.000000 0.288312 0.213953
O O14 0.500000 0.811436 0.719853
O O15 0.709484 0.000000 0.719812
O O16 0.000000 0.832576 0.900651
O O17 0.225298 0.000000 0.899425
#
# Coordination Sequence:
#
# PCOD8196833 Si02
#       6
#     4   4   8   8   8   8
#     4   9  15  21  33  59  92 121 150 185 226 274
#     4   9  15  23  37  59  90 125 158 195 238 283
#     4   8  14  25  40  58  84 118 152 187 229 276
#     4  10  20  32  46  67  95 125 157 195 242 293
#     4   9  18  32  49  69  92 121 160 201 239 283
#     4   9  16  26  41  62  89 122 159 197 238 284
#
# _framework density 17.937097999999999
#
# number of rings (size 3 to 8) (size 9 to 14) (size 15 to 20)
#    0.000    3.000    0.000    3.000    0.000    7.200 
#    0.000    2.000    0.000    0.000    0.000    1.400 
#    0.000   11.200    0.000    0.000    0.000    0.000 
#
# Total GULP energy -495908.757282 kJ/mol
# GULP energy per Si atom -12397.718932 kJ/mol
# Density = 1.789627 g / cm^3
# Si number density = 17.937098 Si / 1000 Ang^3
#
#
#
# Elastic Constant Matrix: (Units=GPa)
#
#
# Indices 1 2 3 4 5 6 
#
# 1 57.6375 28.5957 61.0002 0.0000 0.0000 0.0000
# 2 28.5957 86.4257 59.4839 0.0000 0.0000 0.0000
# 3 61.0002 59.4839 169.4342 0.0000 0.0000 0.0000
# 4 0.0000 0.0000 0.0000 9.5188 0.0000 0.0000
# 5 0.0000 0.0000 0.0000 0.0000 4.6736 0.0000
# 6 0.0000 0.0000 0.0000 0.0000 0.0000 15.4059
#
#
#
# Elastic Compliance Matrix: (Units=1/GPa)
#
#
# Indices 1 2 3 4 5 6 
#
# 1 0.028662 -0.003140 -0.009217 0.000000 0.000000 0.000000
# 2 -0.003140 0.015601 -0.004347 0.000000 0.000000 0.000000
# 3 -0.009217 -0.004347 0.010746 0.000000 0.000000 0.000000
# 4 0.000000 0.000000 0.000000 0.105056 0.000000 0.000000
# 5 0.000000 0.000000 0.000000 0.000000 0.213969 0.000000
# 6 0.000000 0.000000 0.000000 0.000000 0.000000 0.064910
#
#
# Mechanical properties :
#
#
# Convention : Reuss Voigt Hill
#
# Bulk Modulus (GPa) = 46.29008 67.96188 57.12598
# Shear Modulus (GPa) = 10.42640 16.88082 13.65361
#
# Velocity S-wave (km/s) = 2.41358 3.07108 2.76197
# Velocity P-wave (km/s) = 5.79915 7.10962 6.48756
#
# Compressibility (1/GPa) = 0.02160290
#
# Stress axis : x y z
#
# Youngs Moduli (GPa) = 34.88946 64.09736 93.05594
#
# Poissons Ratio (x) = 0.20126 0.85766
# Poissons Ratio (y) = 0.10955 0.40449
# Poissons Ratio (z) = 0.32156 0.27862
#
# Static dielectric constant tensor:
#      x y z
#    x 3.058140 0.000000 0.000000 
#    y 0.000000 3.070410 0.000000 
#    z 0.000000 0.000000 3.558450 
# 
# 
# High freq. dielectric constant tensor:
#      x y z
#    x 1.653540 0.000000 0.000000 
#    y 0.000000 1.667080 0.000000 
#    z 0.000000 0.000000 1.711980 
# 
# From -- ./inp_files/1818.got.cif
#   From: 2010.03.12/outbox.cif.g09.slc.cpg/sg47_1_cif.got.tgz:1818.got - 2010.04.14 03:12:58.
