data_PCOD8196620
_publ_section_title
;
Structure prediction by ZEFSAII (Michael W. Deem and Ramdas Pophale) SiO2 
 PCOD8196620
Probable space group: P M M M
;
_chemical_formula_sum "Si O2"
_cell_formula_units_Z 48
_cell_length_a 9.469522
_cell_length_b 9.573593
_cell_length_c 30.930948
_cell_angle_alpha 90.000000
_cell_angle_beta 90.000000
_cell_angle_gamma 90.000000
_cell_volume 2804.117764
_symmetry_space_group_name_H-M "P M M M"
_symmetry_group_IT_number 47
_symmetry_cell_setting 'orthorhombic'
loop_
_space_group_symop_operation_xyz
x,y,z
-x,-y,z
x,-y,-z
-x,y,-z
-x,-y,-z
x,y,-z
-x,y,z
x,-y,z
loop_
_atom_site_type_symbol
_atom_site_label
_atom_site_fract_x
_atom_site_fract_y
_atom_site_fract_z
Si Si1 0.658115 0.834234 0.952262
Si Si2 0.334843 0.838189 0.627602
Si Si3 0.336723 0.336170 0.197193
Si Si4 0.164363 0.835434 0.128288
Si Si5 0.158932 0.166006 0.452442
Si Si6 0.667452 0.345953 0.705738
O O1 0.500000 0.781236 0.940812
O O2 0.767556 0.779397 0.916460
O O3 0.659601 0.000000 0.952948
O O4 0.702388 0.778494 0.000000
O O5 0.500000 0.812171 0.621624
O O6 0.260610 0.774734 0.584902
O O7 0.273491 0.760657 0.669910
O O8 0.298576 0.000000 0.633972
O O9 0.500000 0.295559 0.189102
O O10 0.313938 0.500000 0.188162
O O11 0.236834 0.244800 0.167335
O O12 0.289715 0.298228 0.246094
O O13 0.000000 0.798376 0.127152
O O14 0.190468 0.000000 0.134475
O O15 0.207856 0.220031 0.500000
O O16 0.000000 0.217269 0.443048
O O17 0.165428 0.000000 0.452255
O O18 0.500000 0.351760 0.703449
O O19 0.729302 0.500000 0.696012
#
# Coordination Sequence:
#
# PCOD8196620 Si02
#       6
#     8   8   8   8   8   8
#     4   8  14  26  45  68  93 122 156 191 226 267
#     4   9  16  25  41  67  91 108 135 178 220 254
#     4   9  18  33  52  70  88 118 160 197 230 273
#     4  10  20  31  45  70 101 128 154 187 230 276
#     4   8  14  25  40  58  83 115 145 171 206 254
#     4   8  15  29  47  65  86 113 144 178 219 268
#
# _framework density 17.117681999999999
#
# number of rings (size 3 to 8) (size 9 to 14) (size 15 to 20)
#    0.000    3.333    0.000    2.500    0.000    2.667 
#    0.000    5.833    0.000    4.500    0.000    7.000 
#    0.000    0.000    0.000    0.000    0.000    0.000 
#
# Total GULP energy -594877.977829 kJ/mol
# GULP energy per Si atom -12393.291205 kJ/mol
# Density = 1.707872 g / cm^3
# Si number density = 17.117682 Si / 1000 Ang^3
#
#
#
# Elastic Constant Matrix: (Units=GPa)
#
#
# Indices 1 2 3 4 5 6 
#
# 1 85.0625 37.6546 82.1617 0.0000 0.0000 0.0000
# 2 37.6546 40.2672 57.9015 0.0000 0.0000 0.0000
# 3 82.1617 57.9015 180.9624 0.0000 0.0000 0.0000
# 4 0.0000 0.0000 0.0000 1.5658 0.0000 0.0000
# 5 0.0000 0.0000 0.0000 0.0000 10.0196 0.0000
# 6 0.0000 0.0000 0.0000 0.0000 0.0000 15.7231
#
#
#
# Elastic Compliance Matrix: (Units=1/GPa)
#
#
# Indices 1 2 3 4 5 6 
#
# 1 0.023914 -0.012502 -0.006857 0.000000 0.000000 0.000000
# 2 -0.012502 0.052532 -0.011132 0.000000 0.000000 0.000000
# 3 -0.006857 -0.011132 0.012201 0.000000 0.000000 0.000000
# 4 0.000000 0.000000 0.000000 0.638652 0.000000 0.000000
# 5 0.000000 0.000000 0.000000 0.000000 0.099804 0.000000
# 6 0.000000 0.000000 0.000000 0.000000 0.000000 0.063601
#
#
# Mechanical properties :
#
#
# Convention : Reuss Voigt Hill
#
# Bulk Modulus (GPa) = 36.14744 73.52529 54.83636
# Shear Modulus (GPa) = 5.20341 14.03333 9.61837
#
# Velocity S-wave (km/s) = 1.74539 2.86635 2.37301
# Velocity P-wave (km/s) = 5.02242 7.34852 6.29386
#
# Compressibility (1/GPa) = 0.02766448
#
# Stress axis : x y z
#
# Youngs Moduli (GPa) = 41.81712 19.03597 81.95806
#
# Poissons Ratio (x) = 0.23798 0.56201
# Poissons Ratio (y) = 0.52278 0.91238
# Poissons Ratio (z) = 0.28675 0.21191
#
# Static dielectric constant tensor:
#      x y z
#    x 3.084970 0.000000 0.000000 
#    y 0.000000 2.923520 0.000000 
#    z 0.000000 0.000000 3.669780 
# 
# 
# High freq. dielectric constant tensor:
#      x y z
#    x 1.640530 0.000000 0.000000 
#    y 0.000000 1.618950 0.000000 
#    z 0.000000 0.000000 1.677570 
# 
# From -- ./inp_files/4339.got.cif
#   From: 2010.03.12/outbox.cif.g09.slc.cpg/sg47_3_cif.got.tgz:4339.got - 2010.04.14 03:12:58.
