data_PCOD8196801
_publ_section_title
;
Structure prediction by ZEFSAII (Michael W. Deem and Ramdas Pophale) SiO2 
 PCOD8196801
Probable space group: P M M M
;
_chemical_formula_sum "Si O2"
_cell_formula_units_Z 44
_cell_length_a 28.367616
_cell_length_b 9.256883
_cell_length_c 9.509040
_cell_angle_alpha 90.000000
_cell_angle_beta 90.000000
_cell_angle_gamma 90.000000
_cell_volume 2497.033037
_symmetry_space_group_name_H-M "P M M M"
_symmetry_group_IT_number 47
_symmetry_cell_setting 'orthorhombic'
loop_
_space_group_symop_operation_xyz
x,y,z
-x,-y,z
x,-y,-z
-x,y,-z
-x,-y,-z
x,y,-z
-x,y,z
x,-y,z
loop_
_atom_site_type_symbol
_atom_site_label
_atom_site_fract_x
_atom_site_fract_y
_atom_site_fract_z
Si Si1 0.731907 0.331304 0.836176
Si Si2 0.552048 0.662258 0.167267
Si Si3 0.190887 0.834230 0.334727
Si Si4 0.084910 0.171144 0.655513
Si Si5 0.000000 0.827346 0.157776
Si Si6 0.359986 0.162142 0.832571
O O1 0.725937 0.500000 0.806655
O O2 0.775997 0.271845 0.751071
O O3 0.684854 0.252987 0.780480
O O4 0.740368 0.298950 0.000000
O O5 0.500000 0.715829 0.215660
O O6 0.561106 0.500000 0.222835
O O7 0.592263 0.766827 0.229703
O O8 0.554712 0.662146 0.000000
O O9 0.199765 0.814767 0.500000
O O10 0.137560 0.787824 0.295349
O O11 0.200477 0.000000 0.290213
O O12 0.074709 0.235096 0.500000
O O13 0.046549 0.233451 0.764235
O O14 0.080721 0.000000 0.647084
O O15 0.000000 0.000000 0.157272
O O16 0.000000 0.765887 0.000000
O O17 0.355891 0.000000 0.773111
O O18 0.362018 0.161977 0.000000
#
# Coordination Sequence:
#
# PCOD8196801 Si02
#       6
#     8   8   8   8   4   8
#     4  10  20  32  46  65  90 121 155 190 232 284
#     4   8  13  21  33  50  76 112 150 186 226 273
#     4   9  18  32  49  69  92 119 154 195 236 277
#     4   8  14  25  40  58  84 118 150 181 222 270
#     4   9  15  21  33  59  92 121 150 183 218 260
#     4   9  16  25  38  57  82 113 149 189 232 277
#
# _framework density 17.620912000000001
#
# number of rings (size 3 to 8) (size 9 to 14) (size 15 to 20)
#    0.000    3.182    0.000    3.000    0.000    5.818 
#    0.000    3.636    0.000    0.000    0.000    0.636 
#    0.000    5.818    0.000    7.636    0.000   10.545 
#
# Total GULP energy -545392.472038 kJ/mol
# GULP energy per Si atom -12395.283455 kJ/mol
# Density = 1.758081 g / cm^3
# Si number density = 17.620912 Si / 1000 Ang^3
#
#
#
# Elastic Constant Matrix: (Units=GPa)
#
#
# Indices 1 2 3 4 5 6 
#
# 1 173.6097 71.2174 57.3995 0.0000 0.0000 0.0000
# 2 71.2174 88.2842 31.2697 0.0000 0.0000 0.0000
# 3 57.3995 31.2697 50.2331 0.0000 0.0000 0.0000
# 4 0.0000 0.0000 0.0000 14.3338 0.0000 0.0000
# 5 0.0000 0.0000 0.0000 0.0000 2.1794 0.0000
# 6 0.0000 0.0000 0.0000 0.0000 0.0000 14.0577
#
#
#
# Elastic Compliance Matrix: (Units=1/GPa)
#
#
# Indices 1 2 3 4 5 6 
#
# 1 0.011145 -0.005747 -0.009158 0.000000 0.000000 0.000000
# 2 -0.005747 0.017494 -0.004323 0.000000 0.000000 0.000000
# 3 -0.009158 -0.004323 0.033063 0.000000 0.000000 0.000000
# 4 0.000000 0.000000 0.000000 0.069765 0.000000 0.000000
# 5 0.000000 0.000000 0.000000 0.000000 0.458838 0.000000
# 6 0.000000 0.000000 0.000000 0.000000 0.000000 0.071135
#
#
# Mechanical properties :
#
#
# Convention : Reuss Voigt Hill
#
# Bulk Modulus (GPa) = 43.01774 70.21115 56.61445
# Shear Modulus (GPa) = 7.06568 16.26355 11.66462
#
# Velocity S-wave (km/s) = 2.00463 3.04134 2.57568
# Velocity P-wave (km/s) = 5.46113 7.22944 6.40659
#
# Compressibility (1/GPa) = 0.02324622
#
# Stress axis : x y z
#
# Youngs Moduli (GPa) = 89.72270 57.16119 30.24562
#
# Poissons Ratio (x) = 0.32852 0.27699
# Poissons Ratio (y) = 0.51565 0.13075
# Poissons Ratio (z) = 0.82167 0.24711
#
# Static dielectric constant tensor:
#      x y z
#    x 3.581150 0.000000 0.000000 
#    y 0.000000 3.077400 0.000000 
#    z 0.000000 0.000000 2.942880 
# 
# 
# High freq. dielectric constant tensor:
#      x y z
#    x 1.699990 0.000000 0.000000 
#    y 0.000000 1.652640 0.000000 
#    z 0.000000 0.000000 1.633440 
# 
# From -- ./inp_files/2101.got.cif
#   From: 2010.03.12/outbox.cif.g09.slc.cpg/sg47_2_cif.got.tgz:2101.got - 2010.04.14 03:12:58.
