data_PCOD8196371
_publ_section_title
;
Structure prediction by ZEFSAII (Michael W. Deem and Ramdas Pophale) SiO2 
 PCOD8196371
Probable space group: P M M M
;
_chemical_formula_sum "Si O2"
_cell_formula_units_Z 40
_cell_length_a 9.668550
_cell_length_b 14.968095
_cell_length_c 19.831377
_cell_angle_alpha 90.000000
_cell_angle_beta 90.000000
_cell_angle_gamma 90.000000
_cell_volume 2869.992416
_symmetry_space_group_name_H-M "P M M M"
_symmetry_group_IT_number 47
_symmetry_cell_setting 'orthorhombic'
loop_
_space_group_symop_operation_xyz
x,y,z
-x,-y,z
x,-y,-z
-x,y,-z
-x,-y,-z
x,y,-z
-x,y,z
x,-y,z
loop_
_atom_site_type_symbol
_atom_site_label
_atom_site_fract_x
_atom_site_fract_y
_atom_site_fract_z
Si Si1 0.652892 0.106190 0.190668
Si Si2 0.841823 0.240517 0.580158
Si Si3 0.654968 0.400727 0.419879
Si Si4 0.339849 0.895421 0.341961
Si Si5 0.845274 0.893778 0.074335
O O1 0.500000 0.144131 0.176849
O O2 0.701052 0.133269 0.265742
O O3 0.751933 0.148446 0.133578
O O4 0.650594 0.000000 0.185488
O O5 0.836280 0.236603 0.500000
O O6 0.765308 0.329362 0.608269
O O7 0.761739 0.154398 0.607275
O O8 0.000000 0.241098 0.605915
O O9 0.657310 0.399787 0.500000
O O10 0.500000 0.375898 0.394739
O O11 0.695650 0.500000 0.393924
O O12 0.500000 0.871100 0.356679
O O13 0.315681 0.000000 0.352964
O O14 0.000000 0.857055 0.084430
O O15 0.845283 0.000000 0.079843
O O16 0.789726 0.865465 0.000000
#
# Coordination Sequence:
#
# PCOD8196371 Si02
#       5
#     8   8   8   8   8
#     4   8  14  24  36  49  64  84 115 153 187 217
#     4  10  20  30  40  57  78  97 120 154 194 232
#     4   8  14  26  44  62  77  94 116 142 176 222
#     4   9  18  31  43  53  68  95 131 166 196 226
#     4   8  13  20  30  46  67  88 110 138 174 216
#
# _framework density 13.937319
#
# number of rings (size 3 to 8) (size 9 to 14) (size 15 to 20)
#    0.000    3.400    0.000    3.000    0.000    3.600 
#    0.000    8.000    0.000    0.000    0.000    0.000 
#    0.000    0.000    0.000    0.000    0.000    1.000 
#
# Total GULP energy -495664.888728 kJ/mol
# GULP energy per Si atom -12391.622218 kJ/mol
# Density = 1.390560 g / cm^3
# Si number density = 13.937319 Si / 1000 Ang^3
#
#
#
# Elastic Constant Matrix: (Units=GPa)
#
#
# Indices 1 2 3 4 5 6 
#
# 1 97.7456 44.9780 36.0400 0.0000 0.0000 0.0000
# 2 44.9780 51.2168 21.1627 0.0000 0.0000 0.0000
# 3 36.0400 21.1627 36.9513 0.0000 0.0000 0.0000
# 4 0.0000 0.0000 0.0000 0.4697 0.0000 0.0000
# 5 0.0000 0.0000 0.0000 0.0000 25.0626 0.0000
# 6 0.0000 0.0000 0.0000 0.0000 0.0000 16.3861
#
#
#
# Elastic Compliance Matrix: (Units=1/GPa)
#
#
# Indices 1 2 3 4 5 6 
#
# 1 0.021077 -0.013120 -0.013043 0.000000 0.000000 0.000000
# 2 -0.013120 0.033745 -0.006530 0.000000 0.000000 0.000000
# 3 -0.013043 -0.006530 0.043524 0.000000 0.000000 0.000000
# 4 0.000000 0.000000 0.000000 2.129041 0.000000 0.000000
# 5 0.000000 0.000000 0.000000 0.000000 0.039900 0.000000
# 6 0.000000 0.000000 0.000000 0.000000 0.000000 0.061027
#
#
# Mechanical properties :
#
#
# Convention : Reuss Voigt Hill
#
# Bulk Modulus (GPa) = 30.34002 43.36387 36.85195
# Shear Modulus (GPa) = 2.07927 13.96588 8.02258
#
# Velocity S-wave (km/s) = 1.22275 3.16895 2.40181
# Velocity P-wave (km/s) = 4.87951 6.67613 5.84724
#
# Compressibility (1/GPa) = 0.03295976
#
# Stress axis : x y z
#
# Youngs Moduli (GPa) = 47.44476 29.63408 22.97600
#
# Poissons Ratio (x) = 0.38881 0.29968
# Poissons Ratio (y) = 0.62249 0.15002
# Poissons Ratio (z) = 0.61883 0.19350
#
# Static dielectric constant tensor:
#      x y z
#    x 3.006980 0.000000 0.000000 
#    y 0.000000 2.464970 0.000000 
#    z 0.000000 0.000000 2.722600 
# 
# 
# High freq. dielectric constant tensor:
#      x y z
#    x 1.540060 0.000000 0.000000 
#    y 0.000000 1.481550 0.000000 
#    z 0.000000 0.000000 1.510710 
# 
# From -- ./inp_files/4022.got.cif
#   From: 2010.03.12/outbox.cif.g09.slc.cpg/sg47_3_cif.got.tgz:4022.got - 2010.04.14 03:12:58.
