data_PCOD8196153
_publ_section_title
;
Structure prediction by ZEFSAII (Michael W. Deem and Ramdas Pophale) SiO2 
 PCOD8196153
Probable space group: P M M M
;
_chemical_formula_sum "Si O2"
_cell_formula_units_Z 48
_cell_length_a 14.908930
_cell_length_b 8.863187
_cell_length_c 19.910669
_cell_angle_alpha 90.000000
_cell_angle_beta 90.000000
_cell_angle_gamma 90.000000
_cell_volume 2631.008436
_symmetry_space_group_name_H-M "P M M M"
_symmetry_group_IT_number 47
_symmetry_cell_setting 'orthorhombic'
loop_
_space_group_symop_operation_xyz
x,y,z
-x,-y,z
x,-y,-z
-x,y,-z
-x,-y,-z
x,y,-z
-x,y,z
x,-y,z
loop_
_atom_site_type_symbol
_atom_site_label
_atom_site_fract_x
_atom_site_fract_y
_atom_site_fract_z
Si Si1 0.903285 0.829473 0.211955
Si Si2 0.663902 0.678330 0.670321
Si Si3 0.708530 0.821468 0.808020
Si Si4 0.500000 0.321016 0.577303
Si Si5 0.000000 0.661831 0.424635
Si Si6 0.395537 0.327816 0.076391
Si Si7 0.155380 0.170503 0.361673
O O1 0.810832 0.754880 0.183989
O O2 0.896762 0.824998 0.291735
O O3 0.000000 0.751292 0.191531
O O4 0.907620 0.000000 0.185368
O O5 0.659196 0.500000 0.679670
O O6 0.655675 0.750840 0.744752
O O7 0.586046 0.735492 0.619908
O O8 0.756579 0.727123 0.637150
O O9 0.657450 0.786151 0.876350
O O10 0.713722 0.000000 0.795106
O O11 0.500000 0.500000 0.572917
O O12 0.500000 0.256821 0.500000
O O13 0.088252 0.760646 0.414755
O O14 0.000000 0.500000 0.383840
O O15 0.000000 0.612747 0.500000
O O16 0.500000 0.294186 0.084624
O O17 0.374181 0.500000 0.096713
O O18 0.365399 0.297458 0.000000
O O19 0.182128 0.000000 0.380955
#
# Coordination Sequence:
#
# PCOD8196153 Si02
#       7
#     8   8   8   4   4   8   8
#     4   8  14  28  50  73  99 132 167 205 252 306
#     4  10  20  35  56  80 106 139 179 226 273 322
#     4  10  20  32  52  83 112 139 176 222 268 317
#     4   9  20  38  57  75  98 137 184 223 267 324
#     4  11  23  35  49  73 103 137 176 217 266 329
#     4   9  19  36  56  77 106 146 185 219 264 325
#     4  10  19  34  54  75 101 133 171 219 273 324
#
# _framework density 18.243956000000001
#
# number of rings (size 3 to 8) (size 9 to 14) (size 15 to 20)
#    0.000    2.500    0.833    3.250    1.167    2.000 
#    0.000    3.750    0.000    4.000    0.000    3.500 
#    0.000    0.000    0.000    0.000    0.000    0.000 
#
# Total GULP energy -594749.334257 kJ/mol
# GULP energy per Si atom -12390.611130 kJ/mol
# Density = 1.820243 g / cm^3
# Si number density = 18.243956 Si / 1000 Ang^3
#
#
#
# Elastic Constant Matrix: (Units=GPa)
#
#
# Indices 1 2 3 4 5 6 
#
# 1 116.9489 27.4357 61.4922 0.0000 0.0000 0.0000
# 2 27.4357 59.8507 30.1025 0.0000 0.0000 0.0000
# 3 61.4922 30.1025 90.8651 0.0000 0.0000 0.0000
# 4 0.0000 0.0000 0.0000 18.2101 0.0000 0.0000
# 5 0.0000 0.0000 0.0000 0.0000 23.6636 0.0000
# 6 0.0000 0.0000 0.0000 0.0000 0.0000 23.3334
#
#
#
# Elastic Compliance Matrix: (Units=1/GPa)
#
#
# Indices 1 2 3 4 5 6 
#
# 1 0.013453 -0.001905 -0.008473 0.000000 0.000000 0.000000
# 2 -0.001905 0.020319 -0.005442 0.000000 0.000000 0.000000
# 3 -0.008473 -0.005442 0.018542 0.000000 0.000000 0.000000
# 4 0.000000 0.000000 0.000000 0.054915 0.000000 0.000000
# 5 0.000000 0.000000 0.000000 0.000000 0.042259 0.000000
# 6 0.000000 0.000000 0.000000 0.000000 0.000000 0.042857
#
#
# Mechanical properties :
#
#
# Convention : Reuss Voigt Hill
#
# Bulk Modulus (GPa) = 48.37131 56.19172 52.28152
# Shear Modulus (GPa) = 21.65668 22.95037 22.30352
#
# Velocity S-wave (km/s) = 3.44911 3.55064 3.50024
# Velocity P-wave (km/s) = 6.51406 6.90481 6.71228
#
# Compressibility (1/GPa) = 0.02067341
#
# Stress axis : x y z
#
# Youngs Moduli (GPa) = 74.33410 49.21568 53.93125
#
# Poissons Ratio (x) = 0.09377 0.45695
# Poissons Ratio (y) = 0.14163 0.29349
# Poissons Ratio (z) = 0.62982 0.26783
#
# Static dielectric constant tensor:
#      x y z
#    x 3.716570 0.000000 0.000000 
#    y 0.000000 3.200550 0.000000 
#    z 0.000000 0.000000 3.164240 
# 
# 
# High freq. dielectric constant tensor:
#      x y z
#    x 1.718940 0.000000 0.000000 
#    y 0.000000 1.692460 0.000000 
#    z 0.000000 0.000000 1.681840 
# 
# From -- ./inp_files/28019.got.cif
#   From: 2010.03.12/outbox.cif.g09.slc.cpg/sg47_15_cif.got.tgz:28019.got - 2010.04.14 03:12:58.
