data_PCOD8196939
_publ_section_title
;
Structure prediction by ZEFSAII (Michael W. Deem and Ramdas Pophale) SiO2 
 PCOD8196939
Probable space group: P M M M
;
_chemical_formula_sum "Si O2"
_cell_formula_units_Z 52
_cell_length_a 11.813324
_cell_length_b 8.860805
_cell_length_c 27.935218
_cell_angle_alpha 90.000000
_cell_angle_beta 90.000000
_cell_angle_gamma 90.000000
_cell_volume 2924.134598
_symmetry_space_group_name_H-M "P M M M"
_symmetry_group_IT_number 47
_symmetry_cell_setting 'orthorhombic'
loop_
_space_group_symop_operation_xyz
x,y,z
-x,-y,z
x,-y,-z
-x,y,-z
-x,-y,-z
x,y,-z
-x,y,z
x,-y,z
loop_
_atom_site_type_symbol
_atom_site_label
_atom_site_fract_x
_atom_site_fract_y
_atom_site_fract_z
Si Si1 0.133872 0.832379 0.235212
Si Si2 0.500000 0.321597 0.556226
Si Si3 0.500000 0.168169 0.056916
Si Si4 0.734062 0.179212 0.414119
Si Si5 0.867637 0.675343 0.669738
Si Si6 0.133255 0.829622 0.870086
Si Si7 0.723900 0.323847 0.946165
Si Si8 0.134227 0.325577 0.500000
O O1 0.170185 0.713719 0.275976
O O2 0.179113 0.781100 0.182770
O O3 0.000000 0.840939 0.232253
O O4 0.180568 0.000000 0.247744
O O5 0.500000 0.500000 0.564917
O O6 0.500000 0.282252 0.500000
O O7 0.390198 0.249969 0.580909
O O8 0.388805 0.250943 0.076077
O O9 0.500000 0.000000 0.077479
O O10 0.500000 0.172902 0.000000
O O11 0.788528 0.223370 0.363630
O O12 0.817745 0.244346 0.453738
O O13 0.725156 0.000000 0.419032
O O14 0.845009 0.500000 0.659478
O O15 0.000000 0.715034 0.661126
O O16 0.174779 0.717376 0.911018
O O17 0.000000 0.818956 0.870807
O O18 0.173425 0.000000 0.881480
O O19 0.705295 0.500000 0.947553
O O20 0.749945 0.263669 0.000000
O O21 0.173117 0.500000 0.500000
O O22 0.000000 0.311224 0.500000
#
# Coordination Sequence:
#
# PCOD8196939 Si02
#       8
#     8   4   4   8   8   8   8   4
#     4   8  15  30  51  74 101 133 171 215 260 307
#     4  11  23  41  63  80 104 143 184 222 261 307
#     4   9  17  31  51  70  89 120 165 211 253 301
#     4  12  24  37  57  82 109 140 178 219 258 305
#     4  10  20  34  54  81 111 141 174 213 261 314
#     4   9  18  32  50  73 102 137 175 213 255 307
#     4  10  20  32  47  70 101 134 169 213 262 311
#     4  11  23  38  55  78 111 145 175 211 258 307
#
# _framework density 17.78304
#
# number of rings (size 3 to 8) (size 9 to 14) (size 15 to 20)
#    0.000    2.077    0.769    4.385    0.000    6.769 
#    0.000    3.077    0.000    0.923    0.000    1.077 
#    0.000    0.000    0.000    0.000    0.000    0.000 
#
# Total GULP energy -644703.410259 kJ/mol
# GULP energy per Si atom -12398.142505 kJ/mol
# Density = 1.774256 g / cm^3
# Si number density = 17.783040 Si / 1000 Ang^3
#
#
#
# Elastic Constant Matrix: (Units=GPa)
#
#
# Indices 1 2 3 4 5 6 
#
# 1 67.3208 42.6802 45.1792 0.0000 0.0000 0.0000
# 2 42.6802 105.3807 46.9204 0.0000 0.0000 0.0000
# 3 45.1792 46.9204 107.5392 0.0000 0.0000 0.0000
# 4 0.0000 0.0000 0.0000 30.6104 0.0000 0.0000
# 5 0.0000 0.0000 0.0000 0.0000 -0.7485 0.0000
# 6 0.0000 0.0000 0.0000 0.0000 0.0000 28.7624
#
#
#
# Elastic Compliance Matrix: (Units=1/GPa)
#
#
# Indices 1 2 3 4 5 6 
#
# 1 0.023738 -0.006421 -0.007171 0.000000 0.000000 0.000000
# 2 -0.006421 0.013514 -0.003199 0.000000 0.000000 0.000000
# 3 -0.007171 -0.003199 0.013707 0.000000 0.000000 0.000000
# 4 0.000000 0.000000 0.000000 0.032669 0.000000 0.000000
# 5 0.000000 0.000000 0.000000 0.000000 -1.335943 0.000000
# 6 0.000000 0.000000 0.000000 0.000000 0.000000 0.034768
#
#
# Mechanical properties :
#
#
# Convention : Reuss Voigt Hill
#
# Bulk Modulus (GPa) = 57.54619 61.08891 59.31755
# Shear Modulus (GPa) = -4.24386 21.42226 8.58920
#
# Velocity S-wave (km/s) = -1.54649 3.47457 2.20011
# Velocity P-wave (km/s) = 5.40755 7.10800 6.31527
#
# Compressibility (1/GPa) = 0.01737734
#
# Stress axis : x y z
#
# Youngs Moduli (GPa) = 42.12731 73.99592 72.95399
#
# Poissons Ratio (x) = 0.47513 0.52315
# Poissons Ratio (y) = 0.27050 0.23336
# Poissons Ratio (z) = 0.30210 0.23670
#
# Static dielectric constant tensor:
#      x y z
#    x 3.139040 0.000000 0.000000 
#    y 0.000000 3.382480 0.000000 
#    z 0.000000 0.000000 3.533200 
# 
# 
# High freq. dielectric constant tensor:
#      x y z
#    x 1.665740 0.000000 0.000000 
#    y 0.000000 1.696370 0.000000 
#    z 0.000000 0.000000 1.686590 
# 
# From -- ./inp_files/33694.got.cif
#   From: 2010.03.12/outbox.cif.g09.slc.cpg/sg47_17_cif.got.tgz:33694.got - 2010.04.14 03:12:58.
