data_PCOD8196906
_publ_section_title
;
Structure prediction by ZEFSAII (Michael W. Deem and Ramdas Pophale) SiO2 
 PCOD8196906
Probable space group: P M M M
;
_chemical_formula_sum "Si O2"
_cell_formula_units_Z 56
_cell_length_a 9.180543
_cell_length_b 18.548275
_cell_length_c 19.144229
_cell_angle_alpha 90.000000
_cell_angle_beta 90.000000
_cell_angle_gamma 90.000000
_cell_volume 3259.941269
_symmetry_space_group_name_H-M "P M M M"
_symmetry_group_IT_number 47
_symmetry_cell_setting 'orthorhombic'
loop_
_space_group_symop_operation_xyz
x,y,z
-x,-y,z
x,-y,-z
-x,y,-z
-x,-y,-z
x,y,-z
-x,y,z
x,-y,z
loop_
_atom_site_type_symbol
_atom_site_label
_atom_site_fract_x
_atom_site_fract_y
_atom_site_fract_z
Si Si1 0.326985 0.918622 0.076999
Si Si2 0.671732 0.153882 0.215541
Si Si3 0.837259 0.414525 0.926496
Si Si4 0.173211 0.583144 0.224128
Si Si5 0.327880 0.706816 0.701239
Si Si6 0.830588 0.782281 0.579904
Si Si7 0.166693 0.919688 0.664308
O O1 0.500000 0.918464 0.076653
O O2 0.270125 0.863628 0.137078
O O3 0.271621 0.000000 0.092705
O O4 0.270210 0.893765 0.000000
O O5 0.500000 0.144852 0.219376
O O6 0.717828 0.234185 0.239961
O O7 0.737356 0.095297 0.267762
O O8 0.846535 0.500000 0.924230
O O9 0.765290 0.391225 0.852807
O O10 0.000000 0.382881 0.928846
O O11 0.757142 0.390274 0.000000
O O12 0.212238 0.500000 0.239019
O O13 0.255614 0.630635 0.280845
O O14 0.000000 0.594984 0.228250
O O15 0.500000 0.697759 0.696162
O O16 0.266845 0.728957 0.625886
O O17 0.783675 0.772242 0.500000
O O18 0.797138 0.864696 0.601711
O O19 0.000000 0.763395 0.591211
O O20 0.000000 0.911390 0.687864
O O21 0.200483 0.000000 0.636588
#
# Coordination Sequence:
#
# PCOD8196906 Si02
#       7
#     8   8   8   8   8   8   8
#     4   8  13  22  39  62  84 111 155 206 241 261
#     4   9  17  29  44  62  87 121 159 193 226 270
#     4   7  10  19  38  64  90 114 144 183 222 259
#     4   9  17  30  50  73  94 120 156 195 232 273
#     4  10  20  32  47  69  96 124 152 185 230 280
#     4   9  18  33  52  71  92 122 156 186 220 267
#     4   9  17  28  44  69  97 121 147 183 227 270
#
# _framework density 17.178225000000001
#
# number of rings (size 3 to 8) (size 9 to 14) (size 15 to 20)
#    0.000    3.286    0.000    2.571    0.000    2.286 
#    0.000    2.143    0.000    2.143    0.000   11.000 
#    0.000    0.000    0.000    0.000    0.000    0.000 
#
# Total GULP energy -693749.105653 kJ/mol
# GULP energy per Si atom -12388.376887 kJ/mol
# Density = 1.713913 g / cm^3
# Si number density = 17.178225 Si / 1000 Ang^3
#
#
#
# Elastic Constant Matrix: (Units=GPa)
#
#
# Indices 1 2 3 4 5 6 
#
# 1 33.5359 34.8780 38.4339 0.0000 0.0000 0.0000
# 2 34.8780 89.7238 67.5358 0.0000 0.0000 0.0000
# 3 38.4339 67.5358 143.2439 0.0000 0.0000 0.0000
# 4 0.0000 0.0000 0.0000 19.9726 0.0000 0.0000
# 5 0.0000 0.0000 0.0000 0.0000 17.2960 0.0000
# 6 0.0000 0.0000 0.0000 0.0000 0.0000 18.2670
#
#
#
# Elastic Compliance Matrix: (Units=1/GPa)
#
#
# Indices 1 2 3 4 5 6 
#
# 1 0.054430 -0.015758 -0.007175 0.000000 0.000000 0.000000
# 2 -0.015758 0.021838 -0.006068 0.000000 0.000000 0.000000
# 3 -0.007175 -0.006068 0.011767 0.000000 0.000000 0.000000
# 4 0.000000 0.000000 0.000000 0.050069 0.000000 0.000000
# 5 0.000000 0.000000 0.000000 0.000000 0.057817 0.000000
# 6 0.000000 0.000000 0.000000 0.000000 0.000000 0.054743
#
#
# Mechanical properties :
#
#
# Convention : Reuss Voigt Hill
#
# Bulk Modulus (GPa) = 33.29574 60.91098 47.10336
# Shear Modulus (GPa) = 15.68984 19.48418 17.58701
#
# Velocity S-wave (km/s) = 3.02546 3.37150 3.20315
# Velocity P-wave (km/s) = 5.62398 7.11978 6.41562
#
# Compressibility (1/GPa) = 0.03003387
#
# Stress axis : x y z
#
# Youngs Moduli (GPa) = 18.37222 45.79076 84.98232
#
# Poissons Ratio (x) = 0.72157 0.60972
# Poissons Ratio (y) = 0.28951 0.51569
# Poissons Ratio (z) = 0.13181 0.27787
#
# Static dielectric constant tensor:
#      x y z
#    x 2.881710 0.000000 0.000000 
#    y 0.000000 3.043300 0.000000 
#    z 0.000000 0.000000 3.488670 
# 
# 
# High freq. dielectric constant tensor:
#      x y z
#    x 1.629140 0.000000 0.000000 
#    y 0.000000 1.640560 0.000000 
#    z 0.000000 0.000000 1.666640 
# 
# From -- ./inp_files/29886.got.cif
#   From: 2010.03.12/outbox.cif.g09.slc.cpg/sg47_15_cif.got.tgz:29886.got - 2010.04.14 03:12:58.
