data_PCOD8196197
_publ_section_title
;
Structure prediction by ZEFSAII (Michael W. Deem and Ramdas Pophale) SiO2 
 PCOD8196197
Probable space group: P M M M
;
_chemical_formula_sum "Si O2"
_cell_formula_units_Z 40
_cell_length_a 13.966054
_cell_length_b 10.319864
_cell_length_c 13.923063
_cell_angle_alpha 90.000000
_cell_angle_beta 90.000000
_cell_angle_gamma 90.000000
_cell_volume 2006.700132
_symmetry_space_group_name_H-M "P M M M"
_symmetry_group_IT_number 47
_symmetry_cell_setting 'orthorhombic'
loop_
_space_group_symop_operation_xyz
x,y,z
-x,-y,z
x,-y,-z
-x,y,-z
-x,-y,-z
x,y,-z
-x,y,z
x,-y,z
loop_
_atom_site_type_symbol
_atom_site_label
_atom_site_fract_x
_atom_site_fract_y
_atom_site_fract_z
Si Si1 0.392996 0.855277 0.385543
Si Si2 0.243056 0.354080 0.609727
Si Si3 0.608691 0.000000 0.114634
Si Si4 0.720105 0.749505 0.886012
Si Si5 0.891520 0.648539 0.221133
Si Si6 0.392750 0.500000 0.114454
O O1 0.390621 0.852792 0.500000
O O2 0.500000 0.821286 0.349673
O O3 0.319995 0.746758 0.345868
O O4 0.364314 0.000000 0.348750
O O5 0.217547 0.320304 0.500000
O O6 0.285291 0.500000 0.618224
O O7 0.145374 0.341037 0.669565
O O8 0.664431 0.874641 0.154568
O O9 0.500000 0.000000 0.154187
O O10 0.607072 0.000000 0.000000
O O11 0.828353 0.740874 0.847304
O O12 0.662658 0.625325 0.846842
O O13 0.724126 0.754420 0.000000
O O14 0.885458 0.500000 0.184516
O O15 0.000000 0.699743 0.217420
O O16 0.500000 0.500000 0.156013
O O17 0.395455 0.500000 0.000000
#
# Coordination Sequence:
#
# PCOD8196197 Si02
#       6
#     8   8   4   8   8   4
#     4   8  14  27  49  75 103 136 169 205 258 321
#     4   9  18  33  54  77 102 136 179 225 270 316
#     4   9  18  34  57  83 114 149 177 211 265 323
#     4  10  19  34  56  82 110 142 179 217 263 322
#     4  10  21  37  56  78 107 141 182 233 278 317
#     4   9  16  28  51  81 110 139 173 213 257 311
#
# _framework density 19.933222000000001
#
# number of rings (size 3 to 8) (size 9 to 14) (size 15 to 20)
#    0.000    2.800    1.000    1.200    0.000    3.600 
#    1.800    7.500    0.000    1.800    0.000    2.800 
#    0.000    0.000    0.000    0.000    0.000    0.000 
#
# Total GULP energy -495979.381199 kJ/mol
# GULP energy per Si atom -12399.484530 kJ/mol
# Density = 1.988785 g / cm^3
# Si number density = 19.933222 Si / 1000 Ang^3
#
#
#
# Elastic Constant Matrix: (Units=GPa)
#
#
# Indices 1 2 3 4 5 6 
#
# 1 181.0850 92.3568 28.7908 0.0000 0.0000 0.0000
# 2 92.3568 143.3355 30.5503 0.0000 0.0000 0.0000
# 3 28.7908 30.5503 21.1960 0.0000 0.0000 0.0000
# 4 0.0000 0.0000 0.0000 23.6875 0.0000 0.0000
# 5 0.0000 0.0000 0.0000 0.0000 25.7231 0.0000
# 6 0.0000 0.0000 0.0000 0.0000 0.0000 32.8811
#
#
#
# Elastic Compliance Matrix: (Units=1/GPa)
#
#
# Indices 1 2 3 4 5 6 
#
# 1 0.008626 -0.004418 -0.005349 0.000000 0.000000 0.000000
# 2 -0.004418 0.012333 -0.011775 0.000000 0.000000 0.000000
# 3 -0.005349 -0.011775 0.071416 0.000000 0.000000 0.000000
# 4 0.000000 0.000000 0.000000 0.042216 0.000000 0.000000
# 5 0.000000 0.000000 0.000000 0.000000 0.038876 0.000000
# 6 0.000000 0.000000 0.000000 0.000000 0.000000 0.030413
#
#
# Mechanical properties :
#
#
# Convention : Reuss Voigt Hill
#
# Bulk Modulus (GPa) = 20.28773 72.11249 46.20011
# Shear Modulus (GPa) = 18.98304 29.38624 24.18464
#
# Velocity S-wave (km/s) = 3.08934 3.84374 3.48700
# Velocity P-wave (km/s) = 4.78803 7.48029 6.28013
#
# Compressibility (1/GPa) = 0.04929089
#
# Stress axis : x y z
#
# Youngs Moduli (GPa) = 115.92911 81.08340 14.00255
#
# Poissons Ratio (x) = 0.35822 0.07490
# Poissons Ratio (y) = 0.51217 0.16488
# Poissons Ratio (z) = 0.62011 0.95474
#
# Static dielectric constant tensor:
#      x y z
#    x 3.564800 0.000000 0.000000 
#    y 0.000000 3.820580 0.000000 
#    z 0.000000 0.000000 3.387020 
# 
# 
# High freq. dielectric constant tensor:
#      x y z
#    x 1.759850 0.000000 0.000000 
#    y 0.000000 1.772550 0.000000 
#    z 0.000000 0.000000 1.778090 
# 
# From -- ./inp_files/5722.got.cif
#   From: 2010.03.12/outbox.cif.g09.slc.cpg/sg47_3_cif.got.tgz:5722.got - 2010.04.14 03:12:58.
