data_PCOD8196207
_publ_section_title
;
Structure prediction by ZEFSAII (Michael W. Deem and Ramdas Pophale) SiO2 
 PCOD8196207
Probable space group: P M M M
;
_chemical_formula_sum "Si O2"
_cell_formula_units_Z 52
_cell_length_a 8.767132
_cell_length_b 11.638581
_cell_length_c 28.251420
_cell_angle_alpha 90.000000
_cell_angle_beta 90.000000
_cell_angle_gamma 90.000000
_cell_volume 2882.689462
_symmetry_space_group_name_H-M "P M M M"
_symmetry_group_IT_number 47
_symmetry_cell_setting 'orthorhombic'
loop_
_space_group_symop_operation_xyz
x,y,z
-x,-y,z
x,-y,-z
-x,y,-z
-x,-y,-z
x,y,-z
-x,y,z
x,-y,z
loop_
_atom_site_type_symbol
_atom_site_label
_atom_site_fract_x
_atom_site_fract_y
_atom_site_fract_z
Si Si1 0.818924 0.373035 0.681344
Si Si2 0.677139 0.366358 0.146430
Si Si3 0.680503 0.000000 0.732903
Si Si4 0.319304 0.000000 0.624009
Si Si5 0.818620 0.768380 0.408151
Si Si6 0.818853 0.369628 0.500000
Si Si7 0.819949 0.229084 0.229970
Si Si8 0.170873 0.363940 0.948279
O O1 0.747534 0.500000 0.679584
O O2 0.758241 0.302874 0.636640
O O3 0.761081 0.313304 0.728917
O O4 0.000000 0.379600 0.679991
O O5 0.500000 0.347375 0.156376
O O6 0.723534 0.500000 0.153731
O O7 0.774622 0.286071 0.180633
O O8 0.715007 0.324031 0.093121
O O9 0.739385 0.891889 0.762345
O O10 0.500000 0.000000 0.732518
O O11 0.742598 0.000000 0.678485
O O12 0.258140 0.892215 0.594512
O O13 0.500000 0.000000 0.623874
O O14 0.761213 0.700003 0.454271
O O15 0.000000 0.783606 0.408104
O O16 0.752578 0.500000 0.500000
O O17 0.000000 0.376987 0.500000
O O18 0.000000 0.210263 0.231894
O O19 0.168893 0.500000 0.950289
O O20 0.000000 0.318655 0.937354
O O21 0.225342 0.317074 0.000000
#
# Coordination Sequence:
#
# PCOD8196207 Si02
#       8
#     8   8   4   4   8   4   8   8
#     4   9  17  29  49  77 104 131 166 209 256 309
#     4  10  20  32  47  73 111 148 179 216 266 321
#     4  11  23  39  56  74 102 135 174 222 271 320
#     4  11  23  38  56  77 106 139 175 218 263 310
#     4  10  19  34  57  81 107 137 175 216 258 311
#     4   9  18  33  57  88 114 135 166 217 270 311
#     4  11  21  34  54  77 102 134 176 221 266 317
#     4   8  14  26  45  69  99 138 183 227 268 311
#
# _framework density 18.038709000000001
#
# number of rings (size 3 to 8) (size 9 to 14) (size 15 to 20)
#    0.000    2.231    1.538    2.769    0.000    4.615 
#    0.000    3.462    0.000    3.231    0.000    0.538 
#    0.000    4.308    0.000    0.000    0.000    0.000 
#
# Total GULP energy -644734.895510 kJ/mol
# GULP energy per Si atom -12398.747991 kJ/mol
# Density = 1.799765 g / cm^3
# Si number density = 18.038709 Si / 1000 Ang^3
#
#
#
# Elastic Constant Matrix: (Units=GPa)
#
#
# Indices 1 2 3 4 5 6 
#
# 1 47.0260 28.7303 27.3024 0.0000 0.0000 0.0000
# 2 28.7303 132.5904 61.1651 0.0000 0.0000 0.0000
# 3 27.3024 61.1651 137.1852 0.0000 0.0000 0.0000
# 4 0.0000 0.0000 0.0000 5.8299 0.0000 0.0000
# 5 0.0000 0.0000 0.0000 0.0000 19.2790 0.0000
# 6 0.0000 0.0000 0.0000 0.0000 0.0000 15.7814
#
#
#
# Elastic Compliance Matrix: (Units=1/GPa)
#
#
# Indices 1 2 3 4 5 6 
#
# 1 0.025648 -0.004032 -0.003307 0.000000 0.000000 0.000000
# 2 -0.004032 0.010129 -0.003714 0.000000 0.000000 0.000000
# 3 -0.003307 -0.003714 0.009603 0.000000 0.000000 0.000000
# 4 0.000000 0.000000 0.000000 0.171529 0.000000 0.000000
# 5 0.000000 0.000000 0.000000 0.000000 0.051870 0.000000
# 6 0.000000 0.000000 0.000000 0.000000 0.000000 0.063366
#
#
# Mechanical properties :
#
#
# Convention : Reuss Voigt Hill
#
# Bulk Modulus (GPa) = 42.96385 61.24413 52.10399
# Shear Modulus (GPa) = 13.81184 21.48497 17.64840
#
# Velocity S-wave (km/s) = 2.77009 3.45490 3.13127
# Velocity P-wave (km/s) = 5.83956 7.06685 6.48232
#
# Compressibility (1/GPa) = 0.02327538
#
# Stress axis : x y z
#
# Youngs Moduli (GPa) = 38.98930 98.72817 104.13176
#
# Poissons Ratio (x) = 0.39809 0.34433
# Poissons Ratio (y) = 0.15721 0.38670
# Poissons Ratio (z) = 0.12892 0.36663
#
# Static dielectric constant tensor:
#      x y z
#    x 3.071020 0.000000 0.000000 
#    y 0.000000 3.277330 0.000000 
#    z 0.000000 0.000000 3.622250 
# 
# 
# High freq. dielectric constant tensor:
#      x y z
#    x 1.676570 0.000000 0.000000 
#    y 0.000000 1.681670 0.000000 
#    z 0.000000 0.000000 1.707920 
# 
# From -- ./inp_files/33324.got.cif
#   From: 2010.03.12/outbox.cif.g09.slc.cpg/sg47_17_cif.got.tgz:33324.got - 2010.04.14 03:12:58.
