data_PCOD8196687
_publ_section_title
;
Structure prediction by ZEFSAII (Michael W. Deem and Ramdas Pophale) SiO2 
 PCOD8196687
Probable space group: P M M M
;
_chemical_formula_sum "Si O2"
_cell_formula_units_Z 48
_cell_length_a 19.547155
_cell_length_b 7.792454
_cell_length_c 15.466514
_cell_angle_alpha 90.000000
_cell_angle_beta 90.000000
_cell_angle_gamma 90.000000
_cell_volume 2355.864148
_symmetry_space_group_name_H-M "P M M M"
_symmetry_group_IT_number 47
_symmetry_cell_setting 'orthorhombic'
loop_
_space_group_symop_operation_xyz
x,y,z
-x,-y,z
x,-y,-z
-x,y,-z
-x,-y,-z
x,y,-z
-x,y,z
x,-y,z
loop_
_atom_site_type_symbol
_atom_site_label
_atom_site_fract_x
_atom_site_fract_y
_atom_site_fract_z
Si Si1 0.323243 0.695664 0.820047
Si Si2 0.188420 0.698336 0.906038
Si Si3 0.713842 0.308295 0.625393
Si Si4 0.422806 0.000000 0.215361
Si Si5 0.131864 0.300356 0.595514
Si Si6 0.617007 0.000000 0.591931
Si Si7 0.075239 0.194753 0.227374
O O1 0.347646 0.500000 0.844301
O O2 0.263170 0.773052 0.880867
O O3 0.287163 0.692937 0.728008
O O4 0.386753 0.827732 0.820773
O O5 0.202061 0.500000 0.915786
O O6 0.130845 0.717646 0.833450
O O7 0.166196 0.775912 0.000000
O O8 0.695930 0.500000 0.590765
O O9 0.788630 0.251291 0.595421
O O10 0.661564 0.172071 0.587530
O O11 0.427103 0.000000 0.320423
O O12 0.500000 0.000000 0.180023
O O13 0.102290 0.252915 0.500000
O O14 0.122232 0.500000 0.615359
O O15 0.092778 0.200834 0.670919
O O16 0.574840 0.000000 0.500000
O O17 0.000000 0.278495 0.212824
O O18 0.073031 0.000000 0.197851
#
# Coordination Sequence:
#
# PCOD8196687 Si02
#       7
#     8   8   8   4   8   4   8
#     4   9  18  35  60  87 116 150 191 240 289 341
#     4  10  21  39  65  92 114 145 194 246 298 356
#     4   9  17  31  51  78 110 143 188 242 291 342
#     4  10  22  37  57  86 118 159 199 229 284 356
#     4  10  20  34  55  80 108 148 198 250 299 347
#     4  10  20  31  50  79 111 152 191 237 291 337
#     4  11  25  40  55  80 119 161 196 241 299 356
#
# _framework density 20.374687999999999
#
# number of rings (size 3 to 8) (size 9 to 14) (size 15 to 20)
#    0.000    2.167    1.667    1.000    2.333    4.167 
#    0.000    3.333    0.000    1.000    0.000    7.000 
#    0.000    0.000    0.000    0.000    0.000    0.000 
#
# Total GULP energy -594726.097192 kJ/mol
# GULP energy per Si atom -12390.127025 kJ/mol
# Density = 2.032831 g / cm^3
# Si number density = 20.374688 Si / 1000 Ang^3
#
#
#
# Elastic Constant Matrix: (Units=GPa)
#
#
# Indices 1 2 3 4 5 6 
#
# 1 125.6181 41.8991 49.7839 0.0000 0.0000 0.0000
# 2 41.8991 77.3753 14.5356 0.0000 0.0000 0.0000
# 3 49.7839 14.5356 108.8053 0.0000 0.0000 0.0000
# 4 0.0000 0.0000 0.0000 9.7995 0.0000 0.0000
# 5 0.0000 0.0000 0.0000 0.0000 -83.7161 0.0000
# 6 0.0000 0.0000 0.0000 0.0000 0.0000 21.1430
#
#
#
# Elastic Compliance Matrix: (Units=1/GPa)
#
#
# Indices 1 2 3 4 5 6 
#
# 1 0.011578 -0.005410 -0.004575 0.000000 0.000000 0.000000
# 2 -0.005410 0.015785 0.000367 0.000000 0.000000 0.000000
# 3 -0.004575 0.000367 0.011235 0.000000 0.000000 0.000000
# 4 0.000000 0.000000 0.000000 0.102046 0.000000 0.000000
# 5 0.000000 0.000000 0.000000 0.000000 -0.011945 0.000000
# 6 0.000000 0.000000 0.000000 0.000000 0.000000 0.047297
#
#
# Mechanical properties :
#
#
# Convention : Reuss Voigt Hill
#
# Bulk Modulus (GPa) = 51.64956 58.24843 54.94899
# Shear Modulus (GPa) = 24.79097 3.15062 13.97080
#
# Velocity S-wave (km/s) = 3.49198 1.24487 2.62142
# Velocity P-wave (km/s) = 6.45473 5.54229 6.01583
#
# Compressibility (1/GPa) = 0.01936125
#
# Stress axis : x y z
#
# Youngs Moduli (GPa) = 86.36872 63.35207 89.00776
#
# Poissons Ratio (x) = 0.34275 0.40720
# Poissons Ratio (y) = 0.46728 -0.03264
# Poissons Ratio (z) = 0.39513 -0.02323
#
# Static dielectric constant tensor:
#      x y z
#    x 3.423800 0.000000 0.000000 
#    y 0.000000 3.788510 0.000000 
#    z 0.000000 0.000000 4.105240 
# 
# 
# High freq. dielectric constant tensor:
#      x y z
#    x 1.766070 0.000000 0.000000 
#    y 0.000000 1.794800 0.000000 
#    z 0.000000 0.000000 1.799820 
# 
# From -- ./inp_files/24450.got.cif
#   From: 2010.03.12/outbox.cif.g09.slc.cpg/sg47_13_cif.got.tgz:24450.got - 2010.04.14 03:12:58.
