data_PCOD8196381
_publ_section_title
;
Structure prediction by ZEFSAII (Michael W. Deem and Ramdas Pophale) SiO2 
 PCOD8196381
Probable space group: P M M M
;
_chemical_formula_sum "Si O2"
_cell_formula_units_Z 64
_cell_length_a 29.696467
_cell_length_b 15.206817
_cell_length_c 9.653096
_cell_angle_alpha 90.000000
_cell_angle_beta 90.000000
_cell_angle_gamma 90.000000
_cell_volume 4359.229452
_symmetry_space_group_name_H-M "P M M M"
_symmetry_group_IT_number 47
_symmetry_cell_setting 'orthorhombic'
loop_
_space_group_symop_operation_xyz
x,y,z
-x,-y,z
x,-y,-z
-x,y,-z
-x,-y,-z
x,y,-z
-x,y,z
x,-y,z
loop_
_atom_site_type_symbol
_atom_site_label
_atom_site_fract_x
_atom_site_fract_y
_atom_site_fract_z
Si Si1 0.446492 0.401999 0.155743
Si Si2 0.295942 0.895708 0.847287
Si Si3 0.602680 0.897432 0.838435
Si Si4 0.053458 0.403229 0.845241
Si Si5 0.781627 0.895324 0.346500
Si Si6 0.446476 0.242931 0.658401
Si Si7 0.880537 0.902728 0.335012
Si Si8 0.947985 0.755353 0.662165
O O1 0.500000 0.400335 0.157985
O O2 0.429621 0.500000 0.198176
O O3 0.427526 0.330261 0.264252
O O4 0.429607 0.379114 0.000000
O O5 0.346177 0.871211 0.797825
O O6 0.258101 0.854390 0.747071
O O7 0.291370 0.000000 0.852011
O O8 0.287329 0.856817 0.000000
O O9 0.569942 0.843056 0.739610
O O10 0.593797 0.000000 0.809665
O O11 0.593327 0.876136 0.000000
O O12 0.071805 0.500000 0.802887
O O13 0.071362 0.331083 0.737656
O O14 0.000000 0.404905 0.840889
O O15 0.069985 0.379149 0.000000
O O16 0.775277 0.855786 0.500000
O O17 0.830978 0.870092 0.285736
O O18 0.778122 0.000000 0.352483
O O19 0.428758 0.242596 0.500000
O O20 0.500000 0.241734 0.661159
O O21 0.880110 0.907057 0.500000
O O22 0.919188 0.837449 0.281473
O O23 0.891151 0.000000 0.275260
O O24 0.941143 0.740148 0.500000
O O25 0.000000 0.774146 0.698805
#
# Coordination Sequence:
#
# PCOD8196381 Si02
#       8
#     8   8   8   8   8   8   8   8
#     4   8  14  26  44  62  78 100 132 167 201 237
#     4   8  14  25  40  57  75  93 119 161 206 238
#     4   9  18  31  44  57  76 106 140 169 198 234
#     4   8  14  25  39  52  68  93 122 153 195 241
#     4   8  13  22  37  54  71  95 125 154 188 231
#     4  10  20  30  40  58  84 111 137 167 200 230
#     4   8  14  24  36  52  77 106 133 159 186 221
#     4   9  16  24  36  55  76 100 132 166 192 213
#
# _framework density 14.681493
#
# number of rings (size 3 to 8) (size 9 to 14) (size 15 to 20)
#    0.000    3.500    0.000    2.625    0.000    2.500 
#    0.000    6.875    0.000    1.125    0.000    1.750 
#    0.000    1.000    0.000    6.500    0.000    5.375 
#
# Total GULP energy -793055.882718 kJ/mol
# GULP energy per Si atom -12391.498167 kJ/mol
# Density = 1.464808 g / cm^3
# Si number density = 14.681493 Si / 1000 Ang^3
#
#
#
# Elastic Constant Matrix: (Units=GPa)
#
#
# Indices 1 2 3 4 5 6 
#
# 1 39.5075 29.2556 30.0617 0.0000 0.0000 0.0000
# 2 29.2556 81.5416 49.2505 0.0000 0.0000 0.0000
# 3 30.0617 49.2505 74.9302 0.0000 0.0000 0.0000
# 4 0.0000 0.0000 0.0000 17.4816 0.0000 0.0000
# 5 0.0000 0.0000 0.0000 0.0000 16.9114 0.0000
# 6 0.0000 0.0000 0.0000 0.0000 0.0000 1.2409
#
#
#
# Elastic Compliance Matrix: (Units=1/GPa)
#
#
# Indices 1 2 3 4 5 6 
#
# 1 0.039043 -0.007541 -0.010708 0.000000 0.000000 0.000000
# 2 -0.007541 0.021794 -0.011300 0.000000 0.000000 0.000000
# 3 -0.010708 -0.011300 0.025069 0.000000 0.000000 0.000000
# 4 0.000000 0.000000 0.000000 0.057203 0.000000 0.000000
# 5 0.000000 0.000000 0.000000 0.000000 0.059132 0.000000
# 6 0.000000 0.000000 0.000000 0.000000 0.000000 0.805861
#
#
# Mechanical properties :
#
#
# Convention : Reuss Voigt Hill
#
# Bulk Modulus (GPa) = 37.29937 45.90166 41.60051
# Shear Modulus (GPa) = 4.64626 12.95420 8.80023
#
# Velocity S-wave (km/s) = 1.78089 2.97366 2.45094
# Velocity P-wave (km/s) = 5.44882 6.56681 6.03377
#
# Compressibility (1/GPa) = 0.02681010
#
# Stress axis : x y z
#
# Youngs Moduli (GPa) = 25.61270 45.88417 39.89043
#
# Poissons Ratio (x) = 0.34600 0.42713
# Poissons Ratio (y) = 0.19314 0.45075
# Poissons Ratio (z) = 0.27425 0.51847
#
# Static dielectric constant tensor:
#      x y z
#    x 2.750220 0.000000 0.000000 
#    y 0.000000 2.882050 0.000000 
#    z 0.000000 0.000000 2.981370 
# 
# 
# High freq. dielectric constant tensor:
#      x y z
#    x 1.531590 0.000000 0.000000 
#    y 0.000000 1.536680 0.000000 
#    z 0.000000 0.000000 1.555450 
# 
# From -- ./inp_files/14352.got.cif
#   From: 2010.03.12/outbox.cif.g09.slc.cpg/sg47_8_cif.got.tgz:14352.got - 2010.04.14 03:12:58.
