data_PCOD8196790
_publ_section_title
;
Structure prediction by ZEFSAII (Michael W. Deem and Ramdas Pophale) SiO2 
 PCOD8196790
Probable space group: P M M M
;
_chemical_formula_sum "Si O2"
_cell_formula_units_Z 52
_cell_length_a 9.307947
_cell_length_b 12.448744
_cell_length_c 30.483363
_cell_angle_alpha 90.000000
_cell_angle_beta 90.000000
_cell_angle_gamma 90.000000
_cell_volume 3532.175839
_symmetry_space_group_name_H-M "P M M M"
_symmetry_group_IT_number 47
_symmetry_cell_setting 'orthorhombic'
loop_
_space_group_symop_operation_xyz
x,y,z
-x,-y,z
x,-y,-z
-x,y,-z
-x,-y,-z
x,y,-z
-x,y,z
x,-y,z
loop_
_atom_site_type_symbol
_atom_site_label
_atom_site_fract_x
_atom_site_fract_y
_atom_site_fract_z
Si Si1 0.338330 0.128195 0.369837
Si Si2 0.662872 0.500000 0.052149
Si Si3 0.666624 0.874601 0.892900
Si Si4 0.166088 0.707749 0.948253
Si Si5 0.161350 0.127724 0.548471
Si Si6 0.161408 0.871829 0.286567
Si Si7 0.340734 0.127641 0.205391
O O1 0.500000 0.172548 0.367048
O O2 0.266624 0.174423 0.414312
O O3 0.250654 0.171809 0.328043
O O4 0.337340 0.000000 0.370186
O O5 0.500000 0.500000 0.070581
O O6 0.746665 0.604666 0.069424
O O7 0.662141 0.500000 0.000000
O O8 0.500000 0.848815 0.902834
O O9 0.769151 0.813415 0.926294
O O10 0.706722 0.837455 0.843429
O O11 0.697394 0.000000 0.899265
O O12 0.000000 0.693976 0.935170
O O13 0.184186 0.721094 0.000000
O O14 0.213025 0.165577 0.500000
O O15 0.000000 0.169560 0.557569
O O16 0.161848 0.000000 0.550538
O O17 0.231331 0.826516 0.241700
O O18 0.000000 0.827067 0.289819
O O19 0.161817 0.000000 0.286386
O O20 0.500000 0.172317 0.215870
O O21 0.345330 0.000000 0.207537
#
# Coordination Sequence:
#
# PCOD8196790 Si02
#       7
#     8   4   8   8   8   8   8
#     4   9  15  20  26  36  49  65  87 117 152 191
#     4   9  17  31  51  69  83 103 133 165 195 229
#     4   9  18  31  45  61  82 109 138 164 191 229
#     4  10  20  32  46  65  88 110 132 162 198 232
#     4   8  13  20  27  33  43  60  81 108 146 192
#     4   9  15  21  30  43  57  74  98 128 162 201
#     4   8  14  25  38  50  66  88 114 144 176 209
#
# _framework density 14.721804000000001
#
# number of rings (size 3 to 8) (size 9 to 14) (size 15 to 20)
#    0.000    3.154    0.000    3.000    0.000    7.077 
#    0.000    4.615    0.000    0.000    0.000    0.000 
#    0.000    0.000    0.000    0.000    0.000    0.000 
#
# Total GULP energy -644532.536590 kJ/mol
# GULP energy per Si atom -12394.856473 kJ/mol
# Density = 1.468830 g / cm^3
# Si number density = 14.721804 Si / 1000 Ang^3
#
#
#
# Elastic Constant Matrix: (Units=GPa)
#
#
# Indices 1 2 3 4 5 6 
#
# 1 130.8304 31.2212 65.5076 0.0000 0.0000 0.0000
# 2 31.2212 29.1132 25.8042 0.0000 0.0000 0.0000
# 3 65.5076 25.8042 80.9353 0.0000 0.0000 0.0000
# 4 0.0000 0.0000 0.0000 0.2599 0.0000 0.0000
# 5 0.0000 0.0000 0.0000 0.0000 31.2232 0.0000
# 6 0.0000 0.0000 0.0000 0.0000 0.0000 13.5165
#
#
#
# Elastic Compliance Matrix: (Units=1/GPa)
#
#
# Indices 1 2 3 4 5 6 
#
# 1 0.013756 -0.006807 -0.008964 0.000000 0.000000 0.000000
# 2 -0.006807 0.051247 -0.010829 0.000000 0.000000 0.000000
# 3 -0.008964 -0.010829 0.023063 0.000000 0.000000 0.000000
# 4 0.000000 0.000000 0.000000 3.847571 0.000000 0.000000
# 5 0.000000 0.000000 0.000000 0.000000 0.032027 0.000000
# 6 0.000000 0.000000 0.000000 0.000000 0.000000 0.073984
#
#
# Mechanical properties :
#
#
# Convention : Reuss Voigt Hill
#
# Bulk Modulus (GPa) = 28.68105 53.99386 41.33745
# Shear Modulus (GPa) = 1.21759 16.88967 9.05363
#
# Velocity S-wave (km/s) = 0.91042 3.39079 2.48257
# Velocity P-wave (km/s) = 4.54197 7.21704 6.02972
#
# Compressibility (1/GPa) = 0.03486623
#
# Stress axis : x y z
#
# Youngs Moduli (GPa) = 72.69503 19.51332 43.35932
#
# Poissons Ratio (x) = 0.13283 0.38866
# Poissons Ratio (y) = 0.49486 0.46954
# Poissons Ratio (z) = 0.65161 0.21131
#
# Static dielectric constant tensor:
#      x y z
#    x 3.080770 0.000000 0.000000 
#    y 0.000000 2.216860 0.000000 
#    z 0.000000 0.000000 3.030050 
# 
# 
# High freq. dielectric constant tensor:
#      x y z
#    x 1.577270 0.000000 0.000000 
#    y 0.000000 1.474440 0.000000 
#    z 0.000000 0.000000 1.568340 
# 
# From -- ./inp_files/15654.got.cif
#   From: 2010.03.12/outbox.cif.g09.slc.cpg/sg47_8_cif.got.tgz:15654.got - 2010.04.14 03:12:58.
