data_PCOD8196570
_publ_section_title
;
Structure prediction by ZEFSAII (Michael W. Deem and Ramdas Pophale) SiO2 
 PCOD8196570
Probable space group: P M M M
;
_chemical_formula_sum "Si O2"
_cell_formula_units_Z 44
_cell_length_a 28.425458
_cell_length_b 9.278715
_cell_length_c 9.407584
_cell_angle_alpha 90.000000
_cell_angle_beta 90.000000
_cell_angle_gamma 90.000000
_cell_volume 2481.266494
_symmetry_space_group_name_H-M "P M M M"
_symmetry_group_IT_number 47
_symmetry_cell_setting 'orthorhombic'
loop_
_space_group_symop_operation_xyz
x,y,z
-x,-y,z
x,-y,-z
-x,y,-z
-x,-y,-z
x,y,-z
-x,y,z
x,-y,z
loop_
_atom_site_type_symbol
_atom_site_label
_atom_site_fract_x
_atom_site_fract_y
_atom_site_fract_z
Si Si1 0.685461 0.166302 0.837730
Si Si2 0.849516 0.327572 0.839804
Si Si3 0.238581 0.329445 0.337429
Si Si4 0.049805 0.338578 0.168898
Si Si5 0.423298 0.165903 0.163301
Si Si6 0.500000 0.669313 0.334859
O O1 0.715309 0.264023 0.732957
O O2 0.631098 0.195886 0.803691
O O3 0.697882 0.000000 0.811330
O O4 0.696809 0.209090 0.000000
O O5 0.851810 0.500000 0.837385
O O6 0.808259 0.268847 0.739099
O O7 0.900491 0.266383 0.782316
O O8 0.839208 0.273193 0.000000
O O9 0.236333 0.280126 0.500000
O O10 0.241775 0.500000 0.321663
O O11 0.047698 0.500000 0.230524
O O12 0.000000 0.260387 0.215521
O O13 0.052265 0.345156 0.000000
O O14 0.453309 0.266457 0.265161
O O15 0.435939 0.000000 0.193927
O O16 0.434956 0.203146 0.000000
O O17 0.500000 0.500000 0.309093
O O18 0.500000 0.709559 0.500000
#
# Coordination Sequence:
#
# PCOD8196570 Si02
#       6
#     8   8   8   8   8   4
#     4   9  19  36  56  76  96 120 156 202 245 283
#     4   8  13  22  37  56  80 114 154 192 231 277
#     4  10  20  31  44  66  97 130 160 192 233 282
#     4   7   9  14  27  49  75 103 140 187 233 273
#     4   9  19  37  59  79  98 124 161 202 241 282
#     4  11  24  37  50  76 112 141 164 193 228 270
#
# _framework density 17.732880999999999
#
# number of rings (size 3 to 8) (size 9 to 14) (size 15 to 20)
#    0.000    3.182    0.000    3.818    0.000    5.091 
#    0.000    5.455    0.000    0.545    0.000    3.818 
#    0.000    0.727    0.000    8.364    0.000    9.636 
#
# Total GULP energy -545139.713606 kJ/mol
# GULP energy per Si atom -12389.538946 kJ/mol
# Density = 1.769252 g / cm^3
# Si number density = 17.732881 Si / 1000 Ang^3
#
#
#
# Elastic Constant Matrix: (Units=GPa)
#
#
# Indices 1 2 3 4 5 6 
#
# 1 145.9378 40.8136 80.5917 0.0000 0.0000 0.0000
# 2 40.8136 33.3416 39.9190 0.0000 0.0000 0.0000
# 3 80.5917 39.9190 109.0704 0.0000 0.0000 0.0000
# 4 0.0000 0.0000 0.0000 21.3888 0.0000 0.0000
# 5 0.0000 0.0000 0.0000 0.0000 4.2093 0.0000
# 6 0.0000 0.0000 0.0000 0.0000 0.0000 -2.3701
#
#
#
# Elastic Compliance Matrix: (Units=1/GPa)
#
#
# Indices 1 2 3 4 5 6 
#
# 1 0.012571 -0.007595 -0.006509 0.000000 0.000000 0.000000
# 2 -0.007595 0.057975 -0.015606 0.000000 0.000000 0.000000
# 3 -0.006509 -0.015606 0.019689 0.000000 0.000000 0.000000
# 4 0.000000 0.000000 0.000000 0.046753 0.000000 0.000000
# 5 0.000000 0.000000 0.000000 0.000000 0.237568 0.000000
# 6 0.000000 0.000000 0.000000 0.000000 0.000000 -0.421931
#
#
# Mechanical properties :
#
#
# Convention : Reuss Voigt Hill
#
# Bulk Modulus (GPa) = 32.45206 67.88869 50.17037
# Shear Modulus (GPa) = 224.04318 13.11398 118.57858
#
# Velocity S-wave (km/s) = 11.25245 2.72238 8.18624
# Velocity P-wave (km/s) = 13.68078 6.94615 10.84926
#
# Compressibility (1/GPa) = 0.03081469
#
# Stress axis : x y z
#
# Youngs Moduli (GPa) = 79.55087 17.24881 50.78876
#
# Poissons Ratio (x) = 0.13101 0.33056
# Poissons Ratio (y) = 0.60420 0.79263
# Poissons Ratio (z) = 0.51776 0.26919
#
# Static dielectric constant tensor:
#      x y z
#    x 3.726310 0.000000 0.000000 
#    y 0.000000 2.816740 0.000000 
#    z 0.000000 0.000000 3.129270 
# 
# 
# High freq. dielectric constant tensor:
#      x y z
#    x 1.714060 0.000000 0.000000 
#    y 0.000000 1.633680 0.000000 
#    z 0.000000 0.000000 1.662510 
# 
# From -- ./inp_files/2156.got.cif
#   From: 2010.03.12/outbox.cif.g09.slc.cpg/sg47_2_cif.got.tgz:2156.got - 2010.04.14 03:12:58.
