data_PCOD8196476
_publ_section_title
;
Structure prediction by ZEFSAII (Michael W. Deem and Ramdas Pophale) SiO2 
 PCOD8196476
Probable space group: P M M M
;
_chemical_formula_sum "Si O2"
_cell_formula_units_Z 56
_cell_length_a 8.954928
_cell_length_b 18.745388
_cell_length_c 21.549729
_cell_angle_alpha 90.000000
_cell_angle_beta 90.000000
_cell_angle_gamma 90.000000
_cell_volume 3617.415086
_symmetry_space_group_name_H-M "P M M M"
_symmetry_group_IT_number 47
_symmetry_cell_setting 'orthorhombic'
loop_
_space_group_symop_operation_xyz
x,y,z
-x,-y,z
x,-y,-z
-x,y,-z
-x,-y,-z
x,y,-z
-x,y,z
x,-y,z
loop_
_atom_site_type_symbol
_atom_site_label
_atom_site_fract_x
_atom_site_fract_y
_atom_site_fract_z
Si Si1 0.828969 0.212137 0.429507
Si Si2 0.325504 0.707417 0.677936
Si Si3 0.331717 0.584475 0.500000
Si Si4 0.169123 0.920128 0.351838
Si Si5 0.324990 0.158973 0.755582
Si Si6 0.176067 0.418631 0.626219
Si Si7 0.178341 0.918865 0.133959
Si Si8 0.162011 0.083943 0.000000
O O1 0.778132 0.223130 0.500000
O O2 0.718588 0.256851 0.386961
O O3 0.812849 0.128682 0.412570
O O4 0.000000 0.237475 0.418983
O O5 0.500000 0.691623 0.678537
O O6 0.280307 0.760329 0.734456
O O7 0.238698 0.631584 0.681813
O O8 0.335039 0.500000 0.500000
O O9 0.500000 0.615489 0.500000
O O10 0.244485 0.610139 0.438643
O O11 0.279214 0.896435 0.297391
O O12 0.000000 0.915318 0.325630
O O13 0.210329 0.000000 0.372202
O O14 0.500000 0.152853 0.766462
O O15 0.242416 0.139206 0.818894
O O16 0.224628 0.500000 0.640153
O O17 0.000000 0.411776 0.621579
O O18 0.243213 0.896740 0.065323
O O19 0.000000 0.914788 0.133477
O O20 0.228300 0.000000 0.151415
O O21 0.000000 0.121810 0.000000
O O22 0.136805 0.000000 0.000000
#
# Coordination Sequence:
#
# PCOD8196476 Si02
#       8
#     8   8   4   8   8   8   8   4
#     4   9  18  31  45  60  78 101 130 170 220 264
#     4  10  21  34  46  60  82 112 142 172 208 256
#     4   9  17  29  45  65  87 109 132 157 194 251
#     4   9  17  29  44  60  77 100 135 176 216 261
#     4  10  20  31  42  60  85 113 145 178 213 251
#     4  10  20  33  49  68  87 106 132 170 213 255
#     4   9  16  27  45  66  88 117 151 184 217 253
#     4   7  12  24  41  63  89 115 146 181 214 251
#
# _framework density 15.480668
#
# number of rings (size 3 to 8) (size 9 to 14) (size 15 to 20)
#    0.000    2.714    0.000    2.786    1.000    6.286 
#    0.000    1.786    0.000    1.286    0.000    4.000 
#    0.000    0.000    0.000    0.643    0.000   12.571 
#
# Total GULP energy -694029.023341 kJ/mol
# GULP energy per Si atom -12393.375417 kJ/mol
# Density = 1.544543 g / cm^3
# Si number density = 15.480668 Si / 1000 Ang^3
#
#
#
# Elastic Constant Matrix: (Units=GPa)
#
#
# Indices 1 2 3 4 5 6 
#
# 1 52.3286 29.8809 28.0094 0.0000 0.0000 0.0000
# 2 29.8809 87.5016 36.2763 0.0000 0.0000 0.0000
# 3 28.0094 36.2763 90.9454 0.0000 0.0000 0.0000
# 4 0.0000 0.0000 0.0000 17.6664 0.0000 0.0000
# 5 0.0000 0.0000 0.0000 0.0000 8.8921 0.0000
# 6 0.0000 0.0000 0.0000 0.0000 0.0000 21.7703
#
#
#
# Elastic Compliance Matrix: (Units=1/GPa)
#
#
# Indices 1 2 3 4 5 6 
#
# 1 0.025701 -0.006584 -0.005289 0.000000 0.000000 0.000000
# 2 -0.006584 0.015379 -0.004107 0.000000 0.000000 0.000000
# 3 -0.005289 -0.004107 0.014263 0.000000 0.000000 0.000000
# 4 0.000000 0.000000 0.000000 0.056605 0.000000 0.000000
# 5 0.000000 0.000000 0.000000 0.000000 0.112459 0.000000
# 6 0.000000 0.000000 0.000000 0.000000 0.000000 0.045934
#
#
# Mechanical properties :
#
#
# Convention : Reuss Voigt Hill
#
# Bulk Modulus (GPa) = 42.76589 46.56764 44.66677
# Shear Modulus (GPa) = 16.12416 18.77304 17.44860
#
# Velocity S-wave (km/s) = 3.23083 3.48613 3.36091
# Velocity P-wave (km/s) = 6.45004 6.80813 6.63150
#
# Compressibility (1/GPa) = 0.02338312
#
# Stress axis : x y z
#
# Youngs Moduli (GPa) = 38.90967 65.02284 70.11306
#
# Poissons Ratio (x) = 0.42809 0.37084
# Poissons Ratio (y) = 0.25617 0.28794
# Poissons Ratio (z) = 0.20580 0.26704
#
# Static dielectric constant tensor:
#      x y z
#    x 2.917620 0.000000 0.000000 
#    y 0.000000 3.055660 0.000000 
#    z 0.000000 0.000000 2.979350 
# 
# 
# High freq. dielectric constant tensor:
#      x y z
#    x 1.592150 0.000000 0.000000 
#    y 0.000000 1.582510 0.000000 
#    z 0.000000 0.000000 1.562970 
# 
# From -- ./inp_files/30083.got.cif
#   From: 2010.03.12/outbox.cif.g09.slc.cpg/sg47_16_cif.got.tgz:30083.got - 2010.04.14 03:12:58.
