data_PCOD8196765
_publ_section_title
;
Structure prediction by ZEFSAII (Michael W. Deem and Ramdas Pophale) SiO2 
 PCOD8196765
Probable space group: P M M M
;
_chemical_formula_sum "Si O2"
_cell_formula_units_Z 52
_cell_length_a 9.143446
_cell_length_b 9.179365
_cell_length_c 34.085648
_cell_angle_alpha 90.000000
_cell_angle_beta 90.000000
_cell_angle_gamma 90.000000
_cell_volume 2860.843483
_symmetry_space_group_name_H-M "P M M M"
_symmetry_group_IT_number 47
_symmetry_cell_setting 'orthorhombic'
loop_
_space_group_symop_operation_xyz
x,y,z
-x,-y,z
x,-y,-z
-x,y,-z
-x,-y,-z
x,y,-z
-x,y,z
x,-y,z
loop_
_atom_site_type_symbol
_atom_site_label
_atom_site_fract_x
_atom_site_fract_y
_atom_site_fract_z
Si Si1 0.174156 0.335282 0.768772
Si Si2 0.826078 0.836320 0.456757
Si Si3 0.326618 0.669329 0.915168
Si Si4 0.174562 0.336250 0.617364
Si Si5 0.328903 0.332420 0.000000
Si Si6 0.825582 0.835341 0.693071
Si Si7 0.828224 0.168528 0.154396
O O1 0.234947 0.500000 0.768697
O O2 0.235527 0.251227 0.730740
O O3 0.231201 0.253633 0.807529
O O4 0.000000 0.335124 0.767793
O O5 0.774854 0.782002 0.500000
O O6 0.762388 0.731636 0.423014
O O7 0.000000 0.836065 0.454852
O O8 0.768582 0.000000 0.449254
O O9 0.500000 0.686965 0.911355
O O10 0.282918 0.500000 0.909256
O O11 0.249393 0.769322 0.883653
O O12 0.270565 0.729231 0.958182
O O13 0.234474 0.500000 0.621219
O O14 0.233769 0.242953 0.653966
O O15 0.000000 0.335080 0.617058
O O16 0.288235 0.500000 0.000000
O O17 0.500000 0.309241 0.000000
O O18 0.000000 0.835517 0.693417
O O19 0.765353 0.000000 0.694120
O O20 0.000000 0.192054 0.149332
O O21 0.787933 0.000000 0.159636
#
# Coordination Sequence:
#
# PCOD8196765 Si02
#       7
#     8   8   8   8   4   8   8
#     4   9  16  26  40  56  74  98 129 164 201 242
#     4   8  13  20  27  33  43  62  89 123 168 222
#     4   9  17  31  52  74  93 116 149 187 224 261
#     4   9  15  20  26  37  52  70  96 132 173 219
#     4   7  12  26  48  71  92 114 144 183 222 259
#     4   9  15  22  32  45  62  84 110 142 183 232
#     4  10  20  32  45  64  92 123 151 179 216 263
#
# _framework density 18.176458
#
# number of rings (size 3 to 8) (size 9 to 14) (size 15 to 20)
#    0.000    3.154    0.000    3.231    0.000    7.077 
#    0.000    2.308    0.000    3.692    0.000    0.000 
#    0.000    0.000    0.000    0.000    0.000    0.000 
#
# Total GULP energy -644384.458580 kJ/mol
# GULP energy per Si atom -12392.008819 kJ/mol
# Density = 1.813509 g / cm^3
# Si number density = 18.176458 Si / 1000 Ang^3
#
#
#
# Elastic Constant Matrix: (Units=GPa)
#
#
# Indices 1 2 3 4 5 6 
#
# 1 7.3382 17.1542 17.9068 0.0000 0.0000 0.0000
# 2 17.1542 151.6524 103.5802 0.0000 0.0000 0.0000
# 3 17.9068 103.5802 204.8541 0.0000 0.0000 0.0000
# 4 0.0000 0.0000 0.0000 36.2590 0.0000 0.0000
# 5 0.0000 0.0000 0.0000 0.0000 -5.3965 0.0000
# 6 0.0000 0.0000 0.0000 0.0000 0.0000 11.1044
#
#
#
# Elastic Compliance Matrix: (Units=1/GPa)
#
#
# Indices 1 2 3 4 5 6 
#
# 1 0.195616 -0.015960 -0.009029 0.000000 0.000000 0.000000
# 2 -0.015960 0.011375 -0.004356 0.000000 0.000000 0.000000
# 3 -0.009029 -0.004356 0.007873 0.000000 0.000000 0.000000
# 4 0.000000 0.000000 0.000000 0.027579 0.000000 0.000000
# 5 0.000000 0.000000 0.000000 0.000000 -0.185307 0.000000
# 6 0.000000 0.000000 0.000000 0.000000 0.000000 0.090054
#
#
# Mechanical properties :
#
#
# Convention : Reuss Voigt Hill
#
# Bulk Modulus (GPa) = 6.40317 71.23635 38.81976
# Shear Modulus (GPa) = 19.38438 23.40696 21.39567
#
# Velocity S-wave (km/s) = 3.26921 3.59243 3.43462
# Velocity P-wave (km/s) = 4.21672 7.51559 6.09363
#
# Compressibility (1/GPa) = 0.15617263
#
# Stress axis : x y z
#
# Youngs Moduli (GPa) = 5.11206 87.91413 127.00864
#
# Poissons Ratio (x) = 1.40310 1.14682
# Poissons Ratio (y) = 0.08159 0.55329
# Poissons Ratio (z) = 0.04616 0.38298
#
# Static dielectric constant tensor:
#      x y z
#    x 2.526610 0.000000 0.000000 
#    y 0.000000 3.448830 0.000000 
#    z 0.000000 0.000000 3.801340 
# 
# 
# High freq. dielectric constant tensor:
#      x y z
#    x 1.612740 0.000000 0.000000 
#    y 0.000000 1.704760 0.000000 
#    z 0.000000 0.000000 1.731250 
# 
# From -- ./inp_files/20015.got.cif
#   From: 2010.03.12/outbox.cif.g09.slc.cpg/sg47_11_cif.got.tgz:20015.got - 2010.04.14 03:12:58.
