data_PCOD8196285
_publ_section_title
;
Structure prediction by ZEFSAII (Michael W. Deem and Ramdas Pophale) SiO2 
 PCOD8196285
Probable space group: P M M M
;
_chemical_formula_sum "Si O2"
_cell_formula_units_Z 48
_cell_length_a 28.990554
_cell_length_b 8.998604
_cell_length_c 9.805529
_cell_angle_alpha 90.000000
_cell_angle_beta 90.000000
_cell_angle_gamma 90.000000
_cell_volume 2558.012624
_symmetry_space_group_name_H-M "P M M M"
_symmetry_group_IT_number 47
_symmetry_cell_setting 'orthorhombic'
loop_
_space_group_symop_operation_xyz
x,y,z
-x,-y,z
x,-y,-z
-x,y,-z
-x,-y,-z
x,y,-z
-x,y,z
x,-y,z
loop_
_atom_site_type_symbol
_atom_site_label
_atom_site_fract_x
_atom_site_fract_y
_atom_site_fract_z
Si Si1 0.051625 0.825104 0.000000
Si Si2 0.204719 0.667830 0.842599
Si Si3 0.895175 0.326278 0.763259
Si Si4 0.948673 0.324780 0.500000
Si Si5 0.553961 0.171453 0.154928
Si Si6 0.625985 0.675917 0.658658
Si Si7 0.297463 0.825422 0.842895
O O1 0.079703 0.772430 0.871850
O O2 0.000000 0.756666 0.000000
O O3 0.048859 0.000000 0.000000
O O4 0.221414 0.500000 0.811373
O O5 0.159445 0.708598 0.755422
O O6 0.245612 0.779418 0.803044
O O7 0.190560 0.684562 0.000000
O O8 0.902868 0.500000 0.795584
O O9 0.918742 0.271421 0.626148
O O10 0.954131 0.500000 0.500000
O O11 0.000000 0.252529 0.500000
O O12 0.500000 0.195776 0.177621
O O13 0.579524 0.270780 0.266741
O O14 0.567665 0.000000 0.177557
O O15 0.567709 0.217935 0.000000
O O16 0.625835 0.727174 0.500000
O O17 0.629059 0.500000 0.668668
O O18 0.668943 0.744887 0.738212
O O19 0.303230 0.000000 0.824395
O O20 0.308201 0.778345 0.000000
#
# Coordination Sequence:
#
# PCOD8196285 Si02
#       7
#     4   8   8   4   8   8   8
#     4  11  23  35  51  79 111 143 181 227 276 323
#     4   9  17  32  54  81 109 138 177 223 274 329
#     4  10  19  35  57  81 108 141 181 224 271 328
#     4   9  18  32  53  81 109 139 179 223 266 319
#     4   9  19  37  61  88 117 151 193 238 283 335
#     4  11  24  39  55  81 117 154 192 236 284 329
#     4  10  21  37  59  84 109 142 183 228 279 336
#
# _framework density 18.764568000000001
#
# number of rings (size 3 to 8) (size 9 to 14) (size 15 to 20)
#    0.000    2.167    0.833    2.750    0.000    7.333 
#    1.500    2.917    0.000    1.500    0.000    0.000 
#    0.000    0.000    0.000    0.000    0.000    0.000 
#
# Total GULP energy -595149.050285 kJ/mol
# GULP energy per Si atom -12398.938548 kJ/mol
# Density = 1.872186 g / cm^3
# Si number density = 18.764568 Si / 1000 Ang^3
#
#
#
# Elastic Constant Matrix: (Units=GPa)
#
#
# Indices 1 2 3 4 5 6 
#
# 1 128.0173 46.6893 76.4909 0.0000 0.0000 0.0000
# 2 46.6893 66.3747 52.3616 0.0000 0.0000 0.0000
# 3 76.4909 52.3616 145.0433 0.0000 0.0000 0.0000
# 4 0.0000 0.0000 0.0000 31.4278 0.0000 0.0000
# 5 0.0000 0.0000 0.0000 0.0000 35.5154 0.0000
# 6 0.0000 0.0000 0.0000 0.0000 0.0000 31.1290
#
#
#
# Elastic Compliance Matrix: (Units=1/GPa)
#
#
# Indices 1 2 3 4 5 6 
#
# 1 0.012498 -0.005022 -0.004778 0.000000 0.000000 0.000000
# 2 -0.005022 0.023083 -0.005685 0.000000 0.000000 0.000000
# 3 -0.004778 -0.005685 0.011466 0.000000 0.000000 0.000000
# 4 0.000000 0.000000 0.000000 0.031819 0.000000 0.000000
# 5 0.000000 0.000000 0.000000 0.000000 0.028157 0.000000
# 6 0.000000 0.000000 0.000000 0.000000 0.000000 0.032124
#
#
# Mechanical properties :
#
#
# Convention : Reuss Voigt Hill
#
# Bulk Modulus (GPa) = 62.19665 76.72431 69.46048
# Shear Modulus (GPa) = 28.49386 30.54068 29.51727
#
# Velocity S-wave (km/s) = 3.90101 4.03869 3.97045
# Velocity P-wave (km/s) = 7.31493 7.91989 7.62342
#
# Compressibility (1/GPa) = 0.01607804
#
# Stress axis : x y z
#
# Youngs Moduli (GPa) = 80.01357 43.32168 87.21083
#
# Poissons Ratio (x) = 0.21756 0.41669
# Poissons Ratio (y) = 0.40183 0.49577
# Poissons Ratio (z) = 0.38230 0.24627
#
# Static dielectric constant tensor:
#      x y z
#    x 3.601700 0.000000 0.000000 
#    y 0.000000 3.319290 0.000000 
#    z 0.000000 0.000000 3.057690 
# 
# 
# High freq. dielectric constant tensor:
#      x y z
#    x 1.744630 0.000000 0.000000 
#    y 0.000000 1.716090 0.000000 
#    z 0.000000 0.000000 1.721520 
# 
# From -- ./inp_files/2644.got.cif
#   From: 2010.03.12/outbox.cif.g09.slc.cpg/sg47_2_cif.got.tgz:2644.got - 2010.04.14 03:12:58.
