data_PCOD8196013
_publ_section_title
;
Structure prediction by ZEFSAII (Michael W. Deem and Ramdas Pophale) SiO2 
 PCOD8196013
Probable space group: P M M M
;
_chemical_formula_sum "Si O2"
_cell_formula_units_Z 48
_cell_length_a 9.464313
_cell_length_b 8.043593
_cell_length_c 32.297906
_cell_angle_alpha 90.000000
_cell_angle_beta 90.000000
_cell_angle_gamma 90.000000
_cell_volume 2458.745332
_symmetry_space_group_name_H-M "P M M M"
_symmetry_group_IT_number 47
_symmetry_cell_setting 'orthorhombic'
loop_
_space_group_symop_operation_xyz
x,y,z
-x,-y,z
x,-y,-z
-x,y,-z
-x,-y,-z
x,y,-z
-x,y,z
x,-y,z
loop_
_atom_site_type_symbol
_atom_site_label
_atom_site_fract_x
_atom_site_fract_y
_atom_site_fract_z
Si Si1 0.660036 0.690061 0.242367
Si Si2 0.341585 0.801293 0.000000
Si Si3 0.843239 0.802413 0.075115
Si Si4 0.832071 0.316174 0.402716
Si Si5 0.168643 0.000000 0.453034
Si Si6 0.841701 0.189770 0.683916
Si Si7 0.836652 0.194432 0.832254
O O1 0.500000 0.756595 0.238376
O O2 0.662261 0.500000 0.256497
O O3 0.740442 0.795468 0.276874
O O4 0.736505 0.705245 0.198354
O O5 0.264306 0.730999 0.959022
O O6 0.500000 0.731350 0.000000
O O7 0.340062 0.000000 0.000000
O O8 0.796315 0.748053 0.121191
O O9 0.000000 0.733291 0.065369
O O10 0.847482 0.000000 0.073187
O O11 0.781021 0.500000 0.417923
O O12 0.782664 0.293455 0.355124
O O13 0.000000 0.305453 0.404153
O O14 0.770459 0.167941 0.431369
O O15 0.223484 0.000000 0.500000
O O16 0.000000 0.000000 0.451138
O O17 0.000000 0.249285 0.696403
O O18 0.846200 0.000000 0.669231
O O19 0.000000 0.236466 0.823015
O O20 0.808719 0.000000 0.826035
#
# Coordination Sequence:
#
# PCOD8196013 Si02
#       7
#     8   4   8   8   4   8   8
#     4  11  24  37  48  69 101 132 164 204 251 306
#     4   9  15  21  33  59  92 123 156 193 236 290
#     4   8  14  25  41  61  88 120 153 193 241 291
#     4   9  16  27  44  67  97 134 175 218 265 315
#     4   9  16  26  40  64 101 139 177 221 267 320
#     4  10  19  33  54  76  98 128 170 216 257 306
#     4   9  18  33  52  73  95 124 165 207 248 300
#
# _framework density 19.522151000000001
#
# number of rings (size 3 to 8) (size 9 to 14) (size 15 to 20)
#    0.000    2.667    0.833    2.750    0.000    6.667 
#    0.000    3.333    0.000    0.000    0.000    0.583 
#    0.000    6.000    0.000    3.500    0.000    3.333 
#
# Total GULP energy -595039.200496 kJ/mol
# GULP energy per Si atom -12396.650010 kJ/mol
# Density = 1.947772 g / cm^3
# Si number density = 19.522151 Si / 1000 Ang^3
#
#
#
# Elastic Constant Matrix: (Units=GPa)
#
#
# Indices 1 2 3 4 5 6 
#
# 1 86.1444 21.9157 59.8190 0.0000 0.0000 0.0000
# 2 21.9157 76.5336 42.8749 0.0000 0.0000 0.0000
# 3 59.8190 42.8749 144.5912 0.0000 0.0000 0.0000
# 4 0.0000 0.0000 0.0000 13.8109 0.0000 0.0000
# 5 0.0000 0.0000 0.0000 0.0000 3.0891 0.0000
# 6 0.0000 0.0000 0.0000 0.0000 0.0000 14.0304
#
#
#
# Elastic Compliance Matrix: (Units=1/GPa)
#
#
# Indices 1 2 3 4 5 6 
#
# 1 0.016360 -0.001071 -0.006451 0.000000 0.000000 0.000000
# 2 -0.001071 0.015739 -0.004224 0.000000 0.000000 0.000000
# 3 -0.006451 -0.004224 0.010837 0.000000 0.000000 0.000000
# 4 0.000000 0.000000 0.000000 0.072407 0.000000 0.000000
# 5 0.000000 0.000000 0.000000 0.000000 0.323716 0.000000
# 6 0.000000 0.000000 0.000000 0.000000 0.000000 0.071274
#
#
# Mechanical properties :
#
#
# Convention : Reuss Voigt Hill
#
# Bulk Modulus (GPa) = 51.42662 61.83205 56.62934
# Shear Modulus (GPa) = 9.25401 18.36339 13.80870
#
# Velocity S-wave (km/s) = 2.17958 3.07032 2.66246
# Velocity P-wave (km/s) = 5.72136 6.65663 6.20663
#
# Compressibility (1/GPa) = 0.01944518
#
# Stress axis : x y z
#
# Youngs Moduli (GPa) = 61.12311 63.53583 92.27327
#
# Poissons Ratio (x) = 0.06805 0.59525
# Poissons Ratio (y) = 0.06546 0.38976
# Poissons Ratio (z) = 0.39430 0.26837
#
# Static dielectric constant tensor:
#      x y z
#    x 3.320510 0.000000 0.000000 
#    y 0.000000 3.392960 0.000000 
#    z 0.000000 0.000000 3.643920 
# 
# 
# High freq. dielectric constant tensor:
#      x y z
#    x 1.718400 0.000000 0.000000 
#    y 0.000000 1.744860 0.000000 
#    z 0.000000 0.000000 1.765390 
# 
# From -- ./inp_files/34211.got.cif
#   From: 2010.03.12/outbox.cif.g09.slc.cpg/sg47_18_cif.got.tgz:34211.got - 2010.04.14 03:12:58.
