data_PCOD8196884
_publ_section_title
;
Structure prediction by ZEFSAII (Michael W. Deem and Ramdas Pophale) SiO2 
 PCOD8196884
Probable space group: P M M M
;
_chemical_formula_sum "Si O2"
_cell_formula_units_Z 44
_cell_length_a 9.566023
_cell_length_b 30.162197
_cell_length_c 8.246172
_cell_angle_alpha 90.000000
_cell_angle_beta 90.000000
_cell_angle_gamma 90.000000
_cell_volume 2379.286728
_symmetry_space_group_name_H-M "P M M M"
_symmetry_group_IT_number 47
_symmetry_cell_setting 'orthorhombic'
loop_
_space_group_symop_operation_xyz
x,y,z
-x,-y,z
x,-y,-z
-x,y,-z
-x,-y,-z
x,y,-z
-x,y,z
x,-y,z
loop_
_atom_site_type_symbol
_atom_site_label
_atom_site_fract_x
_atom_site_fract_y
_atom_site_fract_z
Si Si1 0.160821 0.639436 0.314536
Si Si2 0.665252 0.192699 0.682206
Si Si3 0.165745 0.451982 0.816439
Si Si4 0.666474 0.898192 0.180876
Si Si5 0.655872 0.283742 0.186760
Si Si6 0.666289 0.949454 0.500000
O O1 0.177452 0.652939 0.500000
O O2 0.220156 0.589427 0.289560
O O3 0.249240 0.673367 0.209350
O O4 0.000000 0.642070 0.257166
O O5 0.709973 0.180903 0.500000
O O6 0.500000 0.196756 0.700624
O O7 0.719214 0.152476 0.794844
O O8 0.727883 0.240603 0.730689
O O9 0.222559 0.500000 0.752103
O O10 0.000000 0.453392 0.808798
O O11 0.217075 0.444671 0.000000
O O12 0.500000 0.900180 0.186729
O O13 0.724827 0.927444 0.332285
O O14 0.717438 0.914214 0.000000
O O15 0.500000 0.293098 0.257613
O O16 0.644796 0.272258 0.000000
O O17 0.500000 0.945364 0.500000
O O18 0.717142 0.000000 0.500000
#
# Coordination Sequence:
#
# PCOD8196884 Si02
#       6
#     8   8   8   8   8   4
#     4  10  20  32  47  69  96 124 152 184 228 279
#     4   9  15  25  41  59  80 106 139 182 228 269
#     4   8  14  26  45  67  89 115 148 184 221 264
#     4   9  15  23  35  50  70  99 137 180 224 271
#     4  10  20  32  47  68  91 118 155 195 233 275
#     4   9  16  24  32  46  70 100 137 181 228 273
#
# _framework density 18.492937000000001
#
# number of rings (size 3 to 8) (size 9 to 14) (size 15 to 20)
#    0.000    2.818    0.909    2.182    0.000    5.091 
#    0.000    3.636    0.000    0.545    0.000    3.818 
#    0.000    0.000    0.000    0.000    0.000    1.818 
#
# Total GULP energy -545151.013496 kJ/mol
# GULP energy per Si atom -12389.795761 kJ/mol
# Density = 1.845085 g / cm^3
# Si number density = 18.492937 Si / 1000 Ang^3
#
#
#
# Elastic Constant Matrix: (Units=GPa)
#
#
# Indices 1 2 3 4 5 6 
#
# 1 18.8134 20.7217 11.8657 0.0000 0.0000 0.0000
# 2 20.7217 142.5148 54.1860 0.0000 0.0000 0.0000
# 3 11.8657 54.1860 100.3557 0.0000 0.0000 0.0000
# 4 0.0000 0.0000 0.0000 33.6119 0.0000 0.0000
# 5 0.0000 0.0000 0.0000 0.0000 11.0993 0.0000
# 6 0.0000 0.0000 0.0000 0.0000 0.0000 -7.7841
#
#
#
# Elastic Compliance Matrix: (Units=1/GPa)
#
#
# Indices 1 2 3 4 5 6 
#
# 1 0.064098 -0.008101 -0.003204 0.000000 0.000000 0.000000
# 2 -0.008101 0.009853 -0.004362 0.000000 0.000000 0.000000
# 3 -0.003204 -0.004362 0.012699 0.000000 0.000000 0.000000
# 4 0.000000 0.000000 0.000000 0.029751 0.000000 0.000000
# 5 0.000000 0.000000 0.000000 0.000000 0.090096 0.000000
# 6 0.000000 0.000000 0.000000 0.000000 0.000000 -0.128467
#
#
# Mechanical properties :
#
#
# Convention : Reuss Voigt Hill
#
# Bulk Modulus (GPa) = 18.07872 48.35896 33.21884
# Shear Modulus (GPa) = 39.12204 19.04611 29.08407
#
# Velocity S-wave (km/s) = 4.60446 3.21271 3.97005
# Velocity P-wave (km/s) = 6.16971 6.32208 6.24636
#
# Compressibility (1/GPa) = 0.05531365
#
# Stress axis : x y z
#
# Youngs Moduli (GPa) = 15.60114 101.48794 78.74739
#
# Poissons Ratio (x) = 0.82220 0.25234
# Poissons Ratio (y) = 0.12639 0.34352
# Poissons Ratio (z) = 0.04999 0.44272
#
# Static dielectric constant tensor:
#      x y z
#    x 2.641180 0.000000 0.000000 
#    y 0.000000 3.764810 0.000000 
#    z 0.000000 0.000000 3.544280 
# 
# 
# High freq. dielectric constant tensor:
#      x y z
#    x 1.621400 0.000000 0.000000 
#    y 0.000000 1.733030 0.000000 
#    z 0.000000 0.000000 1.727020 
# 
# From -- ./inp_files/2158.got.cif
#   From: 2010.03.12/outbox.cif.g09.slc.cpg/sg47_2_cif.got.tgz:2158.got - 2010.04.14 03:12:58.
