data_PCOD8196618
_publ_section_title
;
Structure prediction by ZEFSAII (Michael W. Deem and Ramdas Pophale) SiO2 
 PCOD8196618
Probable space group: P M M M
;
_chemical_formula_sum "Si O2"
_cell_formula_units_Z 48
_cell_length_a 9.492087
_cell_length_b 30.936668
_cell_length_c 9.535870
_cell_angle_alpha 90.000000
_cell_angle_beta 90.000000
_cell_angle_gamma 90.000000
_cell_volume 2800.242022
_symmetry_space_group_name_H-M "P M M M"
_symmetry_group_IT_number 47
_symmetry_cell_setting 'orthorhombic'
loop_
_space_group_symop_operation_xyz
x,y,z
-x,-y,z
x,-y,-z
-x,y,-z
-x,-y,-z
x,y,-z
-x,y,z
x,-y,z
loop_
_atom_site_type_symbol
_atom_site_label
_atom_site_fract_x
_atom_site_fract_y
_atom_site_fract_z
Si Si1 0.842245 0.547778 0.833542
Si Si2 0.164600 0.302882 0.663093
Si Si3 0.663462 0.372058 0.165700
Si Si4 0.663930 0.873210 0.663296
Si Si5 0.844626 0.794081 0.666308
Si Si6 0.667459 0.047618 0.157751
O O1 0.798607 0.500000 0.777823
O O2 0.732346 0.583329 0.778002
O O3 0.000000 0.559347 0.780466
O O4 0.840731 0.547253 0.000000
O O5 0.199844 0.310703 0.500000
O O6 0.261115 0.332783 0.757891
O O7 0.203796 0.254007 0.709529
O O8 0.000000 0.312113 0.691693
O O9 0.500000 0.372773 0.206469
O O10 0.685786 0.366547 0.000000
O O11 0.694854 0.879674 0.500000
O O12 0.500000 0.867394 0.694961
O O13 0.738212 0.830276 0.724493
O O14 0.727752 0.915342 0.740403
O O15 0.850111 0.796070 0.500000
O O16 0.000000 0.803704 0.727514
O O17 0.500000 0.047930 0.164143
O O18 0.721698 0.000000 0.205585
O O19 0.719122 0.057252 0.000000
#
# Coordination Sequence:
#
# PCOD8196618 Si02
#       6
#     8   8   8   8   8   8
#     4   8  14  26  45  67  90 120 158 194 227 267
#     4   9  18  33  52  70  88 118 160 196 227 271
#     4  10  20  31  45  70 101 127 151 185 232 279
#     4   9  16  25  41  66  88 105 134 178 219 251
#     4   8  15  29  47  65  86 113 144 178 218 265
#     4   8  14  25  40  58  83 115 145 171 206 254
#
# _framework density 17.141375
#
# number of rings (size 3 to 8) (size 9 to 14) (size 15 to 20)
#    0.000    3.333    0.000    2.500    0.000    2.667 
#    0.000    5.833    0.000    4.500    0.000    7.000 
#    0.000    0.000    0.000    0.000    0.000    0.000 
#
# Total GULP energy -594874.890972 kJ/mol
# GULP energy per Si atom -12393.226895 kJ/mol
# Density = 1.710236 g / cm^3
# Si number density = 17.141375 Si / 1000 Ang^3
#
#
#
# Elastic Constant Matrix: (Units=GPa)
#
#
# Indices 1 2 3 4 5 6 
#
# 1 85.1754 85.3139 36.1362 0.0000 0.0000 0.0000
# 2 85.3139 180.5288 52.1383 0.0000 0.0000 0.0000
# 3 36.1362 52.1383 36.7816 0.0000 0.0000 0.0000
# 4 0.0000 0.0000 0.0000 26.0857 0.0000 0.0000
# 5 0.0000 0.0000 0.0000 0.0000 17.0938 0.0000
# 6 0.0000 0.0000 0.0000 0.0000 0.0000 26.4436
#
#
#
# Elastic Compliance Matrix: (Units=1/GPa)
#
#
# Indices 1 2 3 4 5 6 
#
# 1 0.025791 -0.008246 -0.013649 0.000000 0.000000 0.000000
# 2 -0.008246 0.012015 -0.008931 0.000000 0.000000 0.000000
# 3 -0.013649 -0.008931 0.053256 0.000000 0.000000 0.000000
# 4 0.000000 0.000000 0.000000 0.038335 0.000000 0.000000
# 5 0.000000 0.000000 0.000000 0.000000 0.058501 0.000000
# 6 0.000000 0.000000 0.000000 0.000000 0.000000 0.037816
#
#
# Mechanical properties :
#
#
# Convention : Reuss Voigt Hill
#
# Bulk Modulus (GPa) = 34.00115 72.18473 53.09294
# Shear Modulus (GPa) = 16.82535 22.51779 19.67157
#
# Velocity S-wave (km/s) = 3.13639 3.62836 3.39131
# Velocity P-wave (km/s) = 5.74410 7.73021 6.80995
#
# Compressibility (1/GPa) = 0.02941077
#
# Stress axis : x y z
#
# Youngs Moduli (GPa) = 38.77348 83.22610 18.77705
#
# Poissons Ratio (x) = 0.68629 0.25629
# Poissons Ratio (y) = 0.31973 0.16769
# Poissons Ratio (z) = 0.52923 0.74326
#
# Static dielectric constant tensor:
#      x y z
#    x 3.154780 0.000000 0.000000 
#    y 0.000000 3.670760 0.000000 
#    z 0.000000 0.000000 2.878290 
# 
# 
# High freq. dielectric constant tensor:
#      x y z
#    x 1.641180 0.000000 0.000000 
#    y 0.000000 1.678570 0.000000 
#    z 0.000000 0.000000 1.621160 
# 
# From -- ./inp_files/2517.got.cif
#   From: 2010.03.12/outbox.cif.g09.slc.cpg/sg47_2_cif.got.tgz:2517.got - 2010.04.14 03:12:58.
