data_PCOD8196892
_publ_section_title
;
Structure prediction by ZEFSAII (Michael W. Deem and Ramdas Pophale) SiO2 
 PCOD8196892
Probable space group: P M M M
;
_chemical_formula_sum "Si O2"
_cell_formula_units_Z 64
_cell_length_a 14.528250
_cell_length_b 8.956089
_cell_length_c 28.867235
_cell_angle_alpha 90.000000
_cell_angle_beta 90.000000
_cell_angle_gamma 90.000000
_cell_volume 3756.097810
_symmetry_space_group_name_H-M "P M M M"
_symmetry_group_IT_number 47
_symmetry_cell_setting 'orthorhombic'
loop_
_space_group_symop_operation_xyz
x,y,z
-x,-y,z
x,-y,-z
-x,y,-z
-x,-y,-z
x,y,-z
-x,y,z
x,-y,z
loop_
_atom_site_type_symbol
_atom_site_label
_atom_site_fract_x
_atom_site_fract_y
_atom_site_fract_z
Si Si1 0.773684 0.676629 0.272995
Si Si2 0.895596 0.323723 0.641755
Si Si3 0.280039 0.325364 0.949460
Si Si4 0.102634 0.670517 0.897606
Si Si5 0.106299 0.171926 0.196991
Si Si6 0.606828 0.328031 0.863243
Si Si7 0.109239 0.831792 0.449511
Si Si8 0.394647 0.823781 0.232428
O O1 0.761612 0.500000 0.274029
O O2 0.827595 0.735967 0.318365
O O3 0.832619 0.723071 0.228815
O O4 0.672350 0.751027 0.270805
O O5 0.897594 0.500000 0.641585
O O6 0.854299 0.269738 0.592508
O O7 0.000000 0.262480 0.650102
O O8 0.301281 0.500000 0.951901
O O9 0.172713 0.294500 0.939098
O O10 0.341562 0.258030 0.907909
O O11 0.303199 0.253943 0.000000
O O12 0.114318 0.500000 0.879997
O O13 0.124827 0.780717 0.855559
O O14 0.000000 0.698163 0.916872
O O15 0.000000 0.197053 0.210254
O O16 0.135496 0.000000 0.203441
O O17 0.500000 0.312316 0.873907
O O18 0.635454 0.500000 0.854431
O O19 0.635445 0.234958 0.818092
O O20 0.145341 0.774350 0.500000
O O21 0.000000 0.826726 0.450032
O O22 0.144126 0.000000 0.441214
O O23 0.500000 0.776706 0.243500
O O24 0.382650 0.000000 0.233229
#
# Coordination Sequence:
#
# PCOD8196892 Si02
#       8
#     8   8   8   8   8   8   8   8
#     4  11  21  32  48  69  96 127 157 192 234 280
#     4   9  18  30  43  64  95 129 163 197 233 272
#     4   9  17  28  43  65  89 110 137 176 219 261
#     4   9  17  29  45  63  83 111 147 184 220 258
#     4  10  20  32  47  68  93 122 156 191 227 270
#     4   9  17  30  49  70  89 111 140 174 216 267
#     4   8  14  25  41  61  87 123 166 206 239 270
#     4  10  21  36  53  72  93 118 151 191 232 276
#
# _framework density 17.038959999999999
#
# number of rings (size 3 to 8) (size 9 to 14) (size 15 to 20)
#    0.000    2.625    0.000    2.625    0.000    4.750 
#    0.000    5.000    0.000    1.500    0.000    3.500 
#    0.000    0.500    0.000    5.500    0.000    4.250 
#
# Total GULP energy -793367.128761 kJ/mol
# GULP energy per Si atom -12396.361387 kJ/mol
# Density = 1.700018 g / cm^3
# Si number density = 17.038960 Si / 1000 Ang^3
#
#
#
# Elastic Constant Matrix: (Units=GPa)
#
#
# Indices 1 2 3 4 5 6 
#
# 1 77.5156 26.3389 58.5906 0.0000 0.0000 0.0000
# 2 26.3389 42.2610 29.2792 0.0000 0.0000 0.0000
# 3 58.5906 29.2792 106.6470 0.0000 0.0000 0.0000
# 4 0.0000 0.0000 0.0000 10.2882 0.0000 0.0000
# 5 0.0000 0.0000 0.0000 0.0000 16.5103 0.0000
# 6 0.0000 0.0000 0.0000 0.0000 0.0000 19.3050
#
#
#
# Elastic Compliance Matrix: (Units=1/GPa)
#
#
# Indices 1 2 3 4 5 6 
#
# 1 0.023666 -0.007090 -0.011055 0.000000 0.000000 0.000000
# 2 -0.007090 0.031345 -0.004710 0.000000 0.000000 0.000000
# 3 -0.011055 -0.004710 0.016743 0.000000 0.000000 0.000000
# 4 0.000000 0.000000 0.000000 0.097199 0.000000 0.000000
# 5 0.000000 0.000000 0.000000 0.000000 0.060568 0.000000
# 6 0.000000 0.000000 0.000000 0.000000 0.000000 0.051800
#
#
# Mechanical properties :
#
#
# Convention : Reuss Voigt Hill
#
# Bulk Modulus (GPa) = 38.39832 50.53789 44.46810
# Shear Modulus (GPa) = 14.89365 16.70169 15.79767
#
# Velocity S-wave (km/s) = 2.95971 3.13422 3.04822
# Velocity P-wave (km/s) = 5.85358 6.54388 6.20833
#
# Compressibility (1/GPa) = 0.02604280
#
# Stress axis : x y z
#
# Youngs Moduli (GPa) = 42.25470 31.90319 59.72484
#
# Poissons Ratio (x) = 0.22621 0.66027
# Poissons Ratio (y) = 0.29960 0.28131
# Poissons Ratio (z) = 0.46713 0.15027
#
# Static dielectric constant tensor:
#      x y z
#    x 3.240040 0.000000 0.000000 
#    y 0.000000 3.079700 0.000000 
#    z 0.000000 0.000000 3.399230 
# 
# 
# High freq. dielectric constant tensor:
#      x y z
#    x 1.641760 0.000000 0.000000 
#    y 0.000000 1.643170 0.000000 
#    z 0.000000 0.000000 1.645270 
# 
# From -- ./inp_files/8271.got.cif
#   From: 2010.03.12/outbox.cif.g09.slc.cpg/sg47_5_cif.got.tgz:8271.got - 2010.04.14 03:12:58.
