data_PCOD8196638
_publ_section_title
;
Structure prediction by ZEFSAII (Michael W. Deem and Ramdas Pophale) SiO2 
 PCOD8196638
Probable space group: P M M M
;
_chemical_formula_sum "Si O2"
_cell_formula_units_Z 36
_cell_length_a 24.763772
_cell_length_b 8.160790
_cell_length_c 9.796829
_cell_angle_alpha 90.000000
_cell_angle_beta 90.000000
_cell_angle_gamma 90.000000
_cell_volume 1979.860207
_symmetry_space_group_name_H-M "P M M M"
_symmetry_group_IT_number 47
_symmetry_cell_setting 'orthorhombic'
loop_
_space_group_symop_operation_xyz
x,y,z
-x,-y,z
x,-y,-z
-x,y,-z
-x,-y,-z
x,y,-z
-x,y,z
x,-y,z
loop_
_atom_site_type_symbol
_atom_site_label
_atom_site_fract_x
_atom_site_fract_y
_atom_site_fract_z
Si Si1 0.625448 0.682036 0.837369
Si Si2 0.263567 0.814909 0.160313
Si Si3 0.152369 0.311409 0.847970
Si Si4 0.938547 0.808551 0.344891
Si Si5 0.561372 0.000000 0.162612
O O1 0.605180 0.500000 0.789643
O O2 0.687030 0.704780 0.783787
O O3 0.588884 0.832112 0.780146
O O4 0.624514 0.691652 0.000000
O O5 0.205056 0.770801 0.223396
O O6 0.278947 0.000000 0.196592
O O7 0.257624 0.786020 0.000000
O O8 0.166194 0.500000 0.860105
O O9 0.100081 0.288362 0.755726
O O10 0.140997 0.238665 0.000000
O O11 0.926454 0.754939 0.500000
O O12 0.000000 0.763906 0.306658
O O13 0.928171 0.000000 0.326657
O O14 0.500000 0.000000 0.214352
O O15 0.564950 0.000000 0.000000
#
# Coordination Sequence:
#
# PCOD8196638 Si02
#       5
#     8   8   8   8   4
#     4   9  15  23  35  50  71 102 140 183 230 276
#     4   9  15  25  41  59  81 109 142 182 230 279
#     4  10  20  31  45  70  98 120 149 192 238 283
#     4   9  19  36  54  69  88 119 158 194 231 283
#     4   9  16  24  32  46  70 102 144 187 224 268
#
# _framework density 18.183102000000002
#
# number of rings (size 3 to 8) (size 9 to 14) (size 15 to 20)
#    0.000    2.778    1.111    2.000    0.000    5.778 
#    0.000    5.556    0.000    0.000    0.000    0.000 
#    0.000    0.000    0.000    0.000    0.000    2.222 
#
# Total GULP energy -446115.918470 kJ/mol
# GULP energy per Si atom -12392.108846 kJ/mol
# Density = 1.814172 g / cm^3
# Si number density = 18.183102 Si / 1000 Ang^3
#
#
#
# Elastic Constant Matrix: (Units=GPa)
#
#
# Indices 1 2 3 4 5 6 
#
# 1 129.4931 58.1452 28.5650 0.0000 0.0000 0.0000
# 2 58.1452 98.7857 15.0400 0.0000 0.0000 0.0000
# 3 28.5650 15.0400 26.7526 0.0000 0.0000 0.0000
# 4 0.0000 0.0000 0.0000 12.2943 0.0000 0.0000
# 5 0.0000 0.0000 0.0000 0.0000 -1.0221 0.0000
# 6 0.0000 0.0000 0.0000 0.0000 0.0000 26.3765
#
#
#
# Elastic Compliance Matrix: (Units=1/GPa)
#
#
# Indices 1 2 3 4 5 6 
#
# 1 0.012597 -0.005869 -0.010151 0.000000 0.000000 0.000000
# 2 -0.005869 0.013805 -0.001494 0.000000 0.000000 0.000000
# 3 -0.010151 -0.001494 0.049058 0.000000 0.000000 0.000000
# 4 0.000000 0.000000 0.000000 0.081338 0.000000 0.000000
# 5 0.000000 0.000000 0.000000 0.000000 -0.978343 0.000000
# 6 0.000000 0.000000 0.000000 0.000000 0.000000 0.037912
#
#
# Mechanical properties :
#
#
# Convention : Reuss Voigt Hill
#
# Bulk Modulus (GPa) = 24.73312 50.94799 37.84055
# Shear Modulus (GPa) = -6.80155 17.74850 5.47347
#
# Velocity S-wave (km/s) = -1.93616 3.12765 1.73687
# Velocity P-wave (km/s) = 2.93828 6.41273 4.98782
#
# Compressibility (1/GPa) = 0.04043161
#
# Stress axis : x y z
#
# Youngs Moduli (GPa) = 79.38436 72.43766 20.38402
#
# Poissons Ratio (x) = 0.42514 0.20691
# Poissons Ratio (y) = 0.46592 0.03046
# Poissons Ratio (z) = 0.80581 0.10824
#
# Static dielectric constant tensor:
#      x y z
#    x 3.489950 0.000000 0.000000 
#    y 0.000000 3.476770 0.000000 
#    z 0.000000 0.000000 2.726410 
# 
# 
# High freq. dielectric constant tensor:
#      x y z
#    x 1.714010 0.000000 0.000000 
#    y 0.000000 1.716840 0.000000 
#    z 0.000000 0.000000 1.618660 
# 
# From -- ./inp_files/1351.got.cif
#   From: 2010.03.12/outbox.cif.g09.slc.cpg/sg47_1_cif.got.tgz:1351.got - 2010.04.14 03:12:58.
