data_PCOD8196067
_publ_section_title
;
Structure prediction by ZEFSAII (Michael W. Deem and Ramdas Pophale) SiO2 
 PCOD8196067
Probable space group: P M M M
;
_chemical_formula_sum "Si O2"
_cell_formula_units_Z 48
_cell_length_a 29.322193
_cell_length_b 8.817742
_cell_length_c 9.592243
_cell_angle_alpha 90.000000
_cell_angle_beta 90.000000
_cell_angle_gamma 90.000000
_cell_volume 2480.127499
_symmetry_space_group_name_H-M "P M M M"
_symmetry_group_IT_number 47
_symmetry_cell_setting 'orthorhombic'
loop_
_space_group_symop_operation_xyz
x,y,z
-x,-y,z
x,-y,-z
-x,y,-z
-x,-y,-z
x,y,-z
-x,y,z
x,-y,z
loop_
_atom_site_type_symbol
_atom_site_label
_atom_site_fract_x
_atom_site_fract_y
_atom_site_fract_z
Si Si1 0.552734 0.323080 0.657059
Si Si2 0.888036 0.820390 0.753511
Si Si3 0.794654 0.679542 0.838993
Si Si4 0.713604 0.179929 0.661954
Si Si5 0.950000 0.179535 0.000000
Si Si6 0.627557 0.179277 0.158617
Si Si7 0.948505 0.820323 0.500000
O O1 0.566131 0.270280 0.500000
O O2 0.500000 0.286890 0.684576
O O3 0.562748 0.500000 0.673327
O O4 0.580600 0.234314 0.773965
O O5 0.840683 0.733854 0.765479
O O6 0.917399 0.763834 0.624787
O O7 0.878136 0.000000 0.754172
O O8 0.921185 0.763030 0.872210
O O9 0.791811 0.500000 0.835174
O O10 0.755013 0.747115 0.744783
O O11 0.791539 0.737881 0.000000
O O12 0.712369 0.234018 0.500000
O O13 0.668383 0.237006 0.742075
O O14 0.718574 0.000000 0.669081
O O15 0.000000 0.255062 0.000000
O O16 0.955395 0.000000 0.000000
O O17 0.627015 0.000000 0.153742
O O18 0.632917 0.242904 0.000000
O O19 0.000000 0.750146 0.500000
O O20 0.954018 0.000000 0.500000
#
# Coordination Sequence:
#
# PCOD8196067 Si02
#       7
#     8   8   8   8   4   8   4
#     4   9  19  36  57  82 115 157 202 243 282 329
#     4  10  19  33  55  81 110 143 179 224 273 322
#     4  11  24  40  57  80 113 149 185 226 275 333
#     4  10  22  40  63  87 110 141 185 234 284 339
#     4   9  16  28  51  81 107 137 181 227 270 315
#     4  10  21  37  58  86 118 150 186 233 287 341
#     4   9  18  32  53  83 113 139 175 225 274 321
#
# _framework density 19.353843999999999
#
# number of rings (size 3 to 8) (size 9 to 14) (size 15 to 20)
#    0.000    2.167    0.833    2.500    1.167    6.667 
#    0.000    2.500    0.000    3.000    0.000    0.000 
#    0.000    0.000    0.000    0.000    0.000    0.000 
#
# Total GULP energy -594966.197770 kJ/mol
# GULP energy per Si atom -12395.129120 kJ/mol
# Density = 1.930979 g / cm^3
# Si number density = 19.353844 Si / 1000 Ang^3
#
#
#
# Elastic Constant Matrix: (Units=GPa)
#
#
# Indices 1 2 3 4 5 6 
#
# 1 147.7793 21.9122 91.1804 0.0000 0.0000 0.0000
# 2 21.9122 10.2865 26.6308 0.0000 0.0000 0.0000
# 3 91.1804 26.6308 187.1031 0.0000 0.0000 0.0000
# 4 0.0000 0.0000 0.0000 25.3600 0.0000 0.0000
# 5 0.0000 0.0000 0.0000 0.0000 29.0147 0.0000
# 6 0.0000 0.0000 0.0000 0.0000 0.0000 -37.8686
#
#
#
# Elastic Compliance Matrix: (Units=1/GPa)
#
#
# Indices 1 2 3 4 5 6 
#
# 1 0.010982 -0.015104 -0.003202 0.000000 0.000000 0.000000
# 2 -0.015104 0.174713 -0.017507 0.000000 0.000000 0.000000
# 3 -0.003202 -0.017507 0.009397 0.000000 0.000000 0.000000
# 4 0.000000 0.000000 0.000000 0.039432 0.000000 0.000000
# 5 0.000000 0.000000 0.000000 0.000000 0.034465 0.000000
# 6 0.000000 0.000000 0.000000 0.000000 0.000000 -0.026407
#
#
# Mechanical properties :
#
#
# Convention : Reuss Voigt Hill
#
# Bulk Modulus (GPa) = 8.09937 69.40174 38.75055
# Shear Modulus (GPa) = 14.07008 16.99760 15.53384
#
# Velocity S-wave (km/s) = 2.69920 2.96675 2.83613
# Velocity P-wave (km/s) = 3.72937 6.90454 5.54892
#
# Compressibility (1/GPa) = 0.12346647
#
# Stress axis : x y z
#
# Youngs Moduli (GPa) = 91.05697 5.72366 106.41842
#
# Poissons Ratio (x) = 0.08645 0.34076
# Poissons Ratio (y) = 1.37534 1.86303
# Poissons Ratio (z) = 0.29157 0.10020
#
# Static dielectric constant tensor:
#      x y z
#    x 3.983200 0.000000 0.000000 
#    y 0.000000 3.169050 0.000000 
#    z 0.000000 0.000000 3.011010 
# 
# 
# High freq. dielectric constant tensor:
#      x y z
#    x 1.769500 0.000000 0.000000 
#    y 0.000000 1.719230 0.000000 
#    z 0.000000 0.000000 1.770830 
# 
# From -- ./inp_files/13955.got.cif
#   From: 2010.03.12/outbox.cif.g09.slc.cpg/sg47_7_cif.got.tgz:13955.got - 2010.04.14 03:12:58.
