data_PCOD8196503
_publ_section_title
;
Structure prediction by ZEFSAII (Michael W. Deem and Ramdas Pophale) SiO2 
 PCOD8196503
Probable space group: P M M M
;
_chemical_formula_sum "Si O2"
_cell_formula_units_Z 56
_cell_length_a 9.365068
_cell_length_b 18.697976
_cell_length_c 21.228996
_cell_angle_alpha 90.000000
_cell_angle_beta 90.000000
_cell_angle_gamma 90.000000
_cell_volume 3717.363140
_symmetry_space_group_name_H-M "P M M M"
_symmetry_group_IT_number 47
_symmetry_cell_setting 'orthorhombic'
loop_
_space_group_symop_operation_xyz
x,y,z
-x,-y,z
x,-y,-z
-x,y,-z
-x,-y,-z
x,y,-z
-x,y,z
x,-y,z
loop_
_atom_site_type_symbol
_atom_site_label
_atom_site_fract_x
_atom_site_fract_y
_atom_site_fract_z
Si Si1 0.836795 0.216664 0.427927
Si Si2 0.666938 0.708043 0.678947
Si Si3 0.165884 0.582465 0.500000
Si Si4 0.162753 0.920785 0.357039
Si Si5 0.334250 0.153569 0.750367
Si Si6 0.169114 0.417239 0.637688
Si Si7 0.334056 0.917152 0.120669
Si Si8 0.839016 0.084898 0.000000
O O1 0.802412 0.235340 0.500000
O O2 0.724958 0.257782 0.385120
O O3 0.815777 0.131869 0.416366
O O4 0.000000 0.239277 0.411202
O O5 0.500000 0.692726 0.672362
O O6 0.699843 0.762471 0.736698
O O7 0.748973 0.632253 0.688743
O O8 0.202308 0.500000 0.500000
O O9 0.221359 0.611696 0.432301
O O10 0.000000 0.596657 0.500000
O O11 0.253510 0.897634 0.297206
O O12 0.000000 0.919673 0.333983
O O13 0.209496 0.000000 0.378856
O O14 0.500000 0.137972 0.739659
O O15 0.288822 0.132912 0.820947
O O16 0.212356 0.500000 0.647829
O O17 0.000000 0.408497 0.645703
O O18 0.500000 0.908276 0.103679
O O19 0.242902 0.887951 0.061995
O O20 0.299430 0.000000 0.136479
O O21 0.000000 0.115367 0.000000
O O22 0.838537 0.000000 0.000000
#
# Coordination Sequence:
#
# PCOD8196503 Si02
#       8
#     8   8   4   8   8   8   8   4
#     4   9  18  31  44  56  73 102 135 165 206 259
#     4  10  20  31  43  61  85 107 131 169 211 248
#     4   7  12  24  41  59  75  93 122 157 192 237
#     4   9  17  28  42  60  78  96 128 176 219 251
#     4   9  18  31  44  59  81 112 144 170 202 245
#     4   9  17  30  47  64  81 104 134 165 201 251
#     4   9  16  27  44  62  81 111 150 181 201 232
#     4   9  17  27  39  61  91 115 136 169 214 249
#
# _framework density 15.064442
#
# number of rings (size 3 to 8) (size 9 to 14) (size 15 to 20)
#    0.000    3.000    0.000    1.929    1.000    3.714 
#    0.000    2.857    0.000    1.286    0.000    4.000 
#    0.000    0.000    0.000    0.643    0.000   13.429 
#
# Total GULP energy -693921.188076 kJ/mol
# GULP energy per Si atom -12391.449787 kJ/mol
# Density = 1.503015 g / cm^3
# Si number density = 15.064442 Si / 1000 Ang^3
#
#
#
# Elastic Constant Matrix: (Units=GPa)
#
#
# Indices 1 2 3 4 5 6 
#
# 1 52.2318 31.6944 33.4314 0.0000 0.0000 0.0000
# 2 31.6944 80.5692 29.2540 0.0000 0.0000 0.0000
# 3 33.4314 29.2540 75.1085 0.0000 0.0000 0.0000
# 4 0.0000 0.0000 0.0000 17.2307 0.0000 0.0000
# 5 0.0000 0.0000 0.0000 0.0000 19.4913 0.0000
# 6 0.0000 0.0000 0.0000 0.0000 0.0000 21.8341
#
#
#
# Elastic Compliance Matrix: (Units=1/GPa)
#
#
# Indices 1 2 3 4 5 6 
#
# 1 0.030950 -0.008355 -0.010522 0.000000 0.000000 0.000000
# 2 -0.008355 0.016711 -0.002790 0.000000 0.000000 0.000000
# 3 -0.010522 -0.002790 0.019084 0.000000 0.000000 0.000000
# 4 0.000000 0.000000 0.000000 0.058036 0.000000 0.000000
# 5 0.000000 0.000000 0.000000 0.000000 0.051305 0.000000
# 6 0.000000 0.000000 0.000000 0.000000 0.000000 0.045800
#
#
# Mechanical properties :
#
#
# Convention : Reuss Voigt Hill
#
# Bulk Modulus (GPa) = 42.71351 44.07434 43.39393
# Shear Modulus (GPa) = 18.31346 19.27988 18.79667
#
# Velocity S-wave (km/s) = 3.49044 3.58135 3.53618
# Velocity P-wave (km/s) = 6.68278 6.81338 6.74840
#
# Compressibility (1/GPa) = 0.02341179
#
# Stress axis : x y z
#
# Youngs Moduli (GPa) = 32.31055 59.83967 52.39933
#
# Poissons Ratio (x) = 0.49994 0.55134
# Poissons Ratio (y) = 0.26994 0.14620
# Poissons Ratio (z) = 0.33997 0.16696
#
# Static dielectric constant tensor:
#      x y z
#    x 2.884090 0.000000 0.000000 
#    y 0.000000 3.036800 0.000000 
#    z 0.000000 0.000000 2.804580 
# 
# 
# High freq. dielectric constant tensor:
#      x y z
#    x 1.572770 0.000000 0.000000 
#    y 0.000000 1.569680 0.000000 
#    z 0.000000 0.000000 1.543520 
# 
# From -- ./inp_files/30086.got.cif
#   From: 2010.03.12/outbox.cif.g09.slc.cpg/sg47_16_cif.got.tgz:30086.got - 2010.04.14 03:12:58.
