data_PCOD8196323
_publ_section_title
;
Structure prediction by ZEFSAII (Michael W. Deem and Ramdas Pophale) SiO2 
 PCOD8196323
Probable space group: P M M M
;
_chemical_formula_sum "Si O2"
_cell_formula_units_Z 64
_cell_length_a 25.153112
_cell_length_b 14.424500
_cell_length_c 9.430536
_cell_angle_alpha 90.000000
_cell_angle_beta 90.000000
_cell_angle_gamma 90.000000
_cell_volume 3421.597106
_symmetry_space_group_name_H-M "P M M M"
_symmetry_group_IT_number 47
_symmetry_cell_setting 'orthorhombic'
loop_
_space_group_symop_operation_xyz
x,y,z
-x,-y,z
x,-y,-z
-x,y,-z
-x,-y,-z
x,y,-z
-x,y,z
x,-y,z
loop_
_atom_site_type_symbol
_atom_site_label
_atom_site_fract_x
_atom_site_fract_y
_atom_site_fract_z
Si Si1 0.860774 0.892546 0.163423
Si Si2 0.937238 0.225227 0.336609
Si Si3 0.558956 0.770072 0.337255
Si Si4 0.063149 0.602289 0.158580
Si Si5 0.247870 0.203774 0.167503
Si Si6 0.342361 0.892593 0.334019
Si Si7 0.282479 0.599969 0.167805
Si Si8 0.402653 0.395165 0.835734
O O1 0.910241 0.861346 0.259009
O O2 0.808611 0.837485 0.212338
O O3 0.849969 0.000000 0.190507
O O4 0.874817 0.872443 0.000000
O O5 0.920734 0.226319 0.500000
O O6 0.915542 0.320629 0.266995
O O7 0.000000 0.214222 0.316521
O O8 0.569318 0.744698 0.500000
O O9 0.500000 0.813514 0.316287
O O10 0.602959 0.843558 0.284923
O O11 0.560807 0.674782 0.250540
O O12 0.083717 0.500000 0.204852
O O13 0.000000 0.602213 0.158493
O O14 0.084080 0.625438 0.000000
O O15 0.293661 0.148842 0.247109
O O16 0.247254 0.312112 0.215929
O O17 0.257987 0.193080 0.000000
O O18 0.331184 0.877714 0.500000
O O19 0.348232 0.000000 0.295763
O O20 0.260556 0.500000 0.226359
O O21 0.342467 0.615242 0.221799
O O22 0.283858 0.593845 0.000000
O O23 0.423069 0.500000 0.811726
O O24 0.406037 0.367915 0.000000
#
# Coordination Sequence:
#
# PCOD8196323 Si02
#       8
#     8   8   8   8   8   8   8   8
#     4  10  22  38  55  79 109 140 177 223 276 329
#     4  10  21  36  55  80 110 146 186 226 269 317
#     4  10  21  35  50  72 104 140 178 219 262 312
#     4   8  14  27  50  79 109 142 180 219 259 308
#     4  10  19  35  60  84 107 135 171 218 265 315
#     4  10  21  36  54  76 101 133 175 221 271 322
#     4   8  14  27  51  81 108 134 165 203 252 309
#     4   9  17  31  52  77 104 136 174 213 257 312
#
# _framework density 18.704715
#
# number of rings (size 3 to 8) (size 9 to 14) (size 15 to 20)
#    0.000    2.625    1.250    1.875    0.000    3.750 
#    0.000    5.625    0.000    2.625    0.000    1.750 
#    0.000    0.000    0.000    0.000    0.000    0.000 
#
# Total GULP energy -793407.154901 kJ/mol
# GULP energy per Si atom -12396.986795 kJ/mol
# Density = 1.866214 g / cm^3
# Si number density = 18.704715 Si / 1000 Ang^3
#
#
#
# Elastic Constant Matrix: (Units=GPa)
#
#
# Indices 1 2 3 4 5 6 
#
# 1 71.6387 53.6568 42.3227 0.0000 0.0000 0.0000
# 2 53.6568 132.0084 50.9400 0.0000 0.0000 0.0000
# 3 42.3227 50.9400 66.9745 0.0000 0.0000 0.0000
# 4 0.0000 0.0000 0.0000 25.7932 0.0000 0.0000
# 5 0.0000 0.0000 0.0000 0.0000 25.2495 0.0000
# 6 0.0000 0.0000 0.0000 0.0000 0.0000 25.2375
#
#
#
# Elastic Compliance Matrix: (Units=1/GPa)
#
#
# Indices 1 2 3 4 5 6 
#
# 1 0.025029 -0.005761 -0.011435 0.000000 0.000000 0.000000
# 2 -0.005761 0.012048 -0.005523 0.000000 0.000000 0.000000
# 3 -0.011435 -0.005523 0.026358 0.000000 0.000000 0.000000
# 4 0.000000 0.000000 0.000000 0.038770 0.000000 0.000000
# 5 0.000000 0.000000 0.000000 0.000000 0.039605 0.000000
# 6 0.000000 0.000000 0.000000 0.000000 0.000000 0.039624
#
#
# Mechanical properties :
#
#
# Convention : Reuss Voigt Hill
#
# Bulk Modulus (GPa) = 55.56389 62.71786 59.14088
# Shear Modulus (GPa) = 21.47110 23.50285 22.48697
#
# Velocity S-wave (km/s) = 3.39174 3.54859 3.47105
# Velocity P-wave (km/s) = 6.71631 7.09882 6.91021
#
# Compressibility (1/GPa) = 0.01799730
#
# Stress axis : x y z
#
# Youngs Moduli (GPa) = 39.95299 82.99943 37.93922
#
# Poissons Ratio (x) = 0.47816 0.43383
# Poissons Ratio (y) = 0.23017 0.20955
# Poissons Ratio (z) = 0.45686 0.45843
#
# Static dielectric constant tensor:
#      x y z
#    x 3.263820 0.000000 0.000000 
#    y 0.000000 3.779590 0.000000 
#    z 0.000000 0.000000 3.269410 
# 
# 
# High freq. dielectric constant tensor:
#      x y z
#    x 1.709960 0.000000 0.000000 
#    y 0.000000 1.737920 0.000000 
#    z 0.000000 0.000000 1.704540 
# 
# From -- ./inp_files/12665.got.cif
#   From: 2010.03.12/outbox.cif.g09.slc.cpg/sg47_7_cif.got.tgz:12665.got - 2010.04.14 03:12:58.
