data_PCOD8196848
_publ_section_title
;
Structure prediction by ZEFSAII (Michael W. Deem and Ramdas Pophale) SiO2 
 PCOD8196848
Probable space group: P M M M
;
_chemical_formula_sum "Si O2"
_cell_formula_units_Z 44
_cell_length_a 20.777740
_cell_length_b 14.146791
_cell_length_c 8.917505
_cell_angle_alpha 90.000000
_cell_angle_beta 90.000000
_cell_angle_gamma 90.000000
_cell_volume 2621.196663
_symmetry_space_group_name_H-M "P M M M"
_symmetry_group_IT_number 47
_symmetry_cell_setting 'orthorhombic'
loop_
_space_group_symop_operation_xyz
x,y,z
-x,-y,z
x,-y,-z
-x,y,-z
-x,-y,-z
x,y,-z
-x,y,z
x,-y,z
loop_
_atom_site_type_symbol
_atom_site_label
_atom_site_fract_x
_atom_site_fract_y
_atom_site_fract_z
Si Si1 0.302537 0.389106 0.826510
Si Si2 0.000000 0.112009 0.332109
Si Si3 0.070801 0.394266 0.677527
Si Si4 0.429452 0.387950 0.668030
Si Si5 0.809666 0.725141 0.322163
Si Si6 0.130524 0.891204 0.176485
O O1 0.293436 0.500000 0.791218
O O2 0.374056 0.353686 0.781532
O O3 0.253327 0.330570 0.726686
O O4 0.291191 0.366676 0.000000
O O5 0.063594 0.146326 0.246508
O O6 0.000000 0.155914 0.500000
O O7 0.000000 0.000000 0.339311
O O8 0.076900 0.398957 0.500000
O O9 0.078796 0.500000 0.743379
O O10 0.127748 0.329817 0.741989
O O11 0.000000 0.353755 0.722907
O O12 0.414296 0.350959 0.500000
O O13 0.500000 0.350024 0.720360
O O14 0.431295 0.500000 0.666738
O O15 0.809820 0.735711 0.500000
O O16 0.811781 0.829108 0.247104
O O17 0.143760 0.000000 0.219212
O O18 0.127118 0.877169 0.000000
#
# Coordination Sequence:
#
# PCOD8196848 Si02
#       6
#     8   4   8   8   8   8
#     4  10  20  32  46  67  99 135 167 199 235 281
#     4   9  17  31  51  71  88 109 144 189 235 287
#     4   8  15  28  44  63  87 114 149 194 238 277
#     4   8  14  26  45  68  94 125 161 199 236 275
#     4  11  21  31  49  71  92 122 161 203 245 289
#     4  10  21  36  51  68  93 122 151 191 248 305
#
# _framework density 16.786225999999999
#
# number of rings (size 3 to 8) (size 9 to 14) (size 15 to 20)
#    0.000    2.636    0.000    3.545    1.273    4.364 
#    0.000    1.818    0.000    0.000    0.000    3.818 
#    0.000    0.727    0.000    7.636    0.000    3.636 
#
# Total GULP energy -545439.389516 kJ/mol
# GULP energy per Si atom -12396.349762 kJ/mol
# Density = 1.674802 g / cm^3
# Si number density = 16.786226 Si / 1000 Ang^3
#
#
#
# Elastic Constant Matrix: (Units=GPa)
#
#
# Indices 1 2 3 4 5 6 
#
# 1 106.0348 42.4881 37.0740 0.0000 0.0000 0.0000
# 2 42.4881 54.2294 33.1862 0.0000 0.0000 0.0000
# 3 37.0740 33.1862 72.6887 0.0000 0.0000 0.0000
# 4 0.0000 0.0000 0.0000 20.4077 0.0000 0.0000
# 5 0.0000 0.0000 0.0000 0.0000 26.3779 0.0000
# 6 0.0000 0.0000 0.0000 0.0000 0.0000 10.7998
#
#
#
# Elastic Compliance Matrix: (Units=1/GPa)
#
#
# Indices 1 2 3 4 5 6 
#
# 1 0.014204 -0.009291 -0.003003 0.000000 0.000000 0.000000
# 2 -0.009291 0.031667 -0.009719 0.000000 0.000000 0.000000
# 3 -0.003003 -0.009719 0.019726 0.000000 0.000000 0.000000
# 4 0.000000 0.000000 0.000000 0.049001 0.000000 0.000000
# 5 0.000000 0.000000 0.000000 0.000000 0.037911 0.000000
# 6 0.000000 0.000000 0.000000 0.000000 0.000000 0.092594
#
#
# Mechanical properties :
#
#
# Convention : Reuss Voigt Hill
#
# Bulk Modulus (GPa) = 46.35697 50.93884 48.64790
# Shear Modulus (GPa) = 16.87375 19.53070 18.20223
#
# Velocity S-wave (km/s) = 3.17395 3.41471 3.29653
# Velocity P-wave (km/s) = 6.41155 6.77927 6.59797
#
# Compressibility (1/GPa) = 0.02157173
#
# Stress axis : x y z
#
# Youngs Moduli (GPa) = 70.40499 31.57847 50.69464
#
# Poissons Ratio (x) = 0.29339 0.15221
# Poissons Ratio (y) = 0.65412 0.49270
# Poissons Ratio (z) = 0.21140 0.30691
#
# Static dielectric constant tensor:
#      x y z
#    x 3.351630 0.000000 0.000000 
#    y 0.000000 3.004980 0.000000 
#    z 0.000000 0.000000 3.042410 
# 
# 
# High freq. dielectric constant tensor:
#      x y z
#    x 1.637740 0.000000 0.000000 
#    y 0.000000 1.616330 0.000000 
#    z 0.000000 0.000000 1.640570 
# 
# From -- ./inp_files/8940.got.cif
#   From: 2010.03.12/outbox.cif.g09.slc.cpg/sg47_5_cif.got.tgz:8940.got - 2010.04.14 03:12:58.
