data_PCOD8196590
_publ_section_title
;
Structure prediction by ZEFSAII (Michael W. Deem and Ramdas Pophale) SiO2 
 PCOD8196590
Probable space group: P M M M
;
_chemical_formula_sum "Si O2"
_cell_formula_units_Z 64
_cell_length_a 20.712184
_cell_length_b 18.583351
_cell_length_c 9.323747
_cell_angle_alpha 90.000000
_cell_angle_beta 90.000000
_cell_angle_gamma 90.000000
_cell_volume 3588.726866
_symmetry_space_group_name_H-M "P M M M"
_symmetry_group_IT_number 47
_symmetry_cell_setting 'orthorhombic'
loop_
_space_group_symop_operation_xyz
x,y,z
-x,-y,z
x,-y,-z
-x,y,-z
-x,-y,-z
x,y,-z
-x,y,z
x,-y,z
loop_
_atom_site_type_symbol
_atom_site_label
_atom_site_fract_x
_atom_site_fract_y
_atom_site_fract_z
Si Si1 0.068599 0.672488 0.661623
Si Si2 0.193986 0.174768 0.333171
Si Si3 0.206666 0.656320 0.337889
Si Si4 0.574173 0.154121 0.832630
Si Si5 0.928910 0.184211 0.832667
Si Si6 0.314415 0.917293 0.665794
Si Si7 0.428858 0.683698 0.829508
Si Si8 0.317000 0.581729 0.829942
O O1 0.074054 0.706351 0.500000
O O2 0.133356 0.625178 0.684295
O O3 0.067507 0.734328 0.778990
O O4 0.000000 0.628925 0.674439
O O5 0.183368 0.159109 0.500000
O O6 0.206645 0.258843 0.301674
O O7 0.129802 0.145564 0.251549
O O8 0.255444 0.130710 0.274330
O O9 0.231019 0.643144 0.500000
O O10 0.250788 0.613037 0.229593
O O11 0.500000 0.134048 0.799449
O O12 0.619822 0.099889 0.748514
O O13 0.588806 0.235592 0.780312
O O14 0.588792 0.146254 0.000000
O O15 0.000000 0.148042 0.805369
O O16 0.912126 0.183805 0.000000
O O17 0.326855 0.899856 0.500000
O O18 0.296143 0.000000 0.690929
O O19 0.500000 0.662318 0.771217
O O20 0.376669 0.627919 0.767040
O O21 0.429862 0.680761 0.000000
O O22 0.326319 0.500000 0.778482
O O23 0.313897 0.587122 0.000000
#
# Coordination Sequence:
#
# PCOD8196590 Si02
#       8
#     8   8   8   8   8   8   8   8
#     4   8  14  26  44  66  92 120 152 192 235 276
#     4   9  18  32  49  69  93 123 160 198 235 278
#     4   9  17  29  47  69  91 119 153 188 229 275
#     4   9  18  33  53  75  97 123 156 192 232 282
#     4   9  16  25  41  69  99 122 150 191 237 283
#     4  10  21  35  50  70  97 127 159 197 238 278
#     4   8  15  30  51  72  93 118 151 191 230 268
#     4  10  20  31  45  68  95 122 153 189 229 274
#
# _framework density 17.833622999999999
#
# number of rings (size 3 to 8) (size 9 to 14) (size 15 to 20)
#    0.000    3.000    0.000    2.625    0.000    4.500 
#    0.000    2.500    0.000    1.875    0.000    6.125 
#    0.000    0.000    0.000    0.000    0.000    0.000 
#
# Total GULP energy -793057.668651 kJ/mol
# GULP energy per Si atom -12391.526073 kJ/mol
# Density = 1.779303 g / cm^3
# Si number density = 17.833623 Si / 1000 Ang^3
#
#
#
# Elastic Constant Matrix: (Units=GPa)
#
#
# Indices 1 2 3 4 5 6 
#
# 1 129.4277 35.6722 40.6836 0.0000 0.0000 0.0000
# 2 35.6722 47.0094 20.0215 0.0000 0.0000 0.0000
# 3 40.6836 20.0215 45.1528 0.0000 0.0000 0.0000
# 4 0.0000 0.0000 0.0000 17.5231 0.0000 0.0000
# 5 0.0000 0.0000 0.0000 0.0000 29.5481 0.0000
# 6 0.0000 0.0000 0.0000 0.0000 0.0000 5.3633
#
#
#
# Elastic Compliance Matrix: (Units=1/GPa)
#
#
# Indices 1 2 3 4 5 6 
#
# 1 0.011818 -0.005465 -0.008225 0.000000 0.000000 0.000000
# 2 -0.005465 0.028752 -0.007825 0.000000 0.000000 0.000000
# 3 -0.008225 -0.007825 0.033028 0.000000 0.000000 0.000000
# 4 0.000000 0.000000 0.000000 0.057068 0.000000 0.000000
# 5 0.000000 0.000000 0.000000 0.000000 0.033843 0.000000
# 6 0.000000 0.000000 0.000000 0.000000 0.000000 0.186453
#
#
# Mechanical properties :
#
#
# Convention : Reuss Voigt Hill
#
# Bulk Modulus (GPa) = 32.71436 46.03828 39.37632
# Shear Modulus (GPa) = 12.37071 18.83439 15.60255
#
# Velocity S-wave (km/s) = 2.63663 3.25332 2.96107
# Velocity P-wave (km/s) = 5.25862 6.32326 5.81535
#
# Compressibility (1/GPa) = 0.03056761
#
# Stress axis : x y z
#
# Youngs Moduli (GPa) = 84.61747 34.78024 30.27754
#
# Poissons Ratio (x) = 0.19006 0.24903
# Poissons Ratio (y) = 0.46241 0.23693
# Poissons Ratio (z) = 0.69598 0.27216
#
# Static dielectric constant tensor:
#      x y z
#    x 3.786730 0.000000 0.000000 
#    y 0.000000 3.010860 0.000000 
#    z 0.000000 0.000000 3.101730 
# 
# 
# High freq. dielectric constant tensor:
#      x y z
#    x 1.713850 0.000000 0.000000 
#    y 0.000000 1.645710 0.000000 
#    z 0.000000 0.000000 1.672520 
# 
# From -- ./inp_files/9964.got.cif
#   From: 2010.03.12/outbox.cif.g09.slc.cpg/sg47_5_cif.got.tgz:9964.got - 2010.04.14 03:12:58.
