data_PCOD8196479
_publ_section_title
;
Structure prediction by ZEFSAII (Michael W. Deem and Ramdas Pophale) SiO2 
 PCOD8196479
Probable space group: P M M M
;
_chemical_formula_sum "Si O2"
_cell_formula_units_Z 36
_cell_length_a 14.293030
_cell_length_b 8.959120
_cell_length_c 18.158495
_cell_angle_alpha 90.000000
_cell_angle_beta 90.000000
_cell_angle_gamma 90.000000
_cell_volume 2325.249232
_symmetry_space_group_name_H-M "P M M M"
_symmetry_group_IT_number 47
_symmetry_cell_setting 'orthorhombic'
loop_
_space_group_symop_operation_xyz
x,y,z
-x,-y,z
x,-y,-z
-x,y,-z
-x,-y,-z
x,y,-z
-x,y,z
x,-y,z
loop_
_atom_site_type_symbol
_atom_site_label
_atom_site_fract_x
_atom_site_fract_y
_atom_site_fract_z
Si Si1 0.601673 0.823076 0.417302
Si Si2 0.889888 0.327940 0.774869
Si Si3 0.111016 0.167481 0.080794
Si Si4 0.889300 0.670350 0.500000
Si Si5 0.796243 0.823044 0.361409
O O1 0.618515 0.761677 0.500000
O O2 0.500000 0.765246 0.387740
O O3 0.687545 0.769936 0.366218
O O4 0.600191 0.000000 0.420078
O O5 0.865208 0.500000 0.762786
O O6 0.853429 0.278918 0.855704
O O7 0.835627 0.229706 0.716044
O O8 0.000000 0.298052 0.765995
O O9 0.000000 0.167658 0.079668
O O10 0.147296 0.000000 0.097471
O O11 0.147828 0.220125 0.000000
O O12 0.853789 0.500000 0.500000
O O13 0.854122 0.751627 0.427271
O O14 0.000000 0.677386 0.500000
O O15 0.805948 0.000000 0.367757
#
# Coordination Sequence:
#
# PCOD8196479 Si02
#       5
#     8   8   8   4   8
#     4   8  14  27  47  68  86 103 132 179 230 272
#     4  10  20  31  42  60  90 125 153 179 216 257
#     4   8  14  26  44  64  85 111 146 186 221 252
#     4  11  23  35  44  57  84 120 151 181 218 257
#     4  11  20  31  48  67  84 110 149 186 219 257
#
# _framework density 15.48221
#
# number of rings (size 3 to 8) (size 9 to 14) (size 15 to 20)
#    0.000    2.556    1.111    3.667    0.000    5.333 
#    0.000    2.222    0.000    3.333    0.000    0.000 
#    0.000    0.889    0.000   10.222    0.000    3.333 
#
# Total GULP energy -446151.302293 kJ/mol
# GULP energy per Si atom -12393.091730 kJ/mol
# Density = 1.544697 g / cm^3
# Si number density = 15.482210 Si / 1000 Ang^3
#
#
#
# Elastic Constant Matrix: (Units=GPa)
#
#
# Indices 1 2 3 4 5 6 
#
# 1 70.8460 37.0443 43.0948 0.0000 0.0000 0.0000
# 2 37.0443 70.1063 41.9519 0.0000 0.0000 0.0000
# 3 43.0948 41.9519 109.2178 0.0000 0.0000 0.0000
# 4 0.0000 0.0000 0.0000 15.8091 0.0000 0.0000
# 5 0.0000 0.0000 0.0000 0.0000 0.3901 0.0000
# 6 0.0000 0.0000 0.0000 0.0000 0.0000 6.3968
#
#
#
# Elastic Compliance Matrix: (Units=1/GPa)
#
#
# Indices 1 2 3 4 5 6 
#
# 1 0.021708 -0.008239 -0.005401 0.000000 0.000000 0.000000
# 2 -0.008239 0.021648 -0.005064 0.000000 0.000000 0.000000
# 3 -0.005401 -0.005064 0.013232 0.000000 0.000000 0.000000
# 4 0.000000 0.000000 0.000000 0.063255 0.000000 0.000000
# 5 0.000000 0.000000 0.000000 0.000000 2.563731 0.000000
# 6 0.000000 0.000000 0.000000 0.000000 0.000000 0.156327
#
#
# Mechanical properties :
#
#
# Convention : Reuss Voigt Hill
#
# Bulk Modulus (GPa) = 52.13655 54.92804 53.53229
# Shear Modulus (GPa) = 1.73388 13.05780 7.39584
#
# Velocity S-wave (km/s) = 1.05941 2.90730 2.18800
# Velocity P-wave (km/s) = 5.93673 6.84288 6.40585
#
# Compressibility (1/GPa) = 0.01918040
#
# Stress axis : x y z
#
# Youngs Moduli (GPa) = 46.06504 46.19361 75.57176
#
# Poissons Ratio (x) = 0.38058 0.40817
# Poissons Ratio (y) = 0.37952 0.38273
# Poissons Ratio (z) = 0.24880 0.23394
#
# Static dielectric constant tensor:
#      x y z
#    x 3.041800 0.000000 0.000000 
#    y 0.000000 2.941390 0.000000 
#    z 0.000000 0.000000 3.227540 
# 
# 
# High freq. dielectric constant tensor:
#      x y z
#    x 1.562350 0.000000 0.000000 
#    y 0.000000 1.587670 0.000000 
#    z 0.000000 0.000000 1.589160 
# 
# From -- ./inp_files/5946.got.cif
#   From: 2010.03.12/outbox.cif.g09.slc.cpg/sg47_3_cif.got.tgz:5946.got - 2010.04.14 03:12:58.
