data_PCOD8196639
_publ_section_title
;
Structure prediction by ZEFSAII (Michael W. Deem and Ramdas Pophale) SiO2 
 PCOD8196639
Probable space group: P M M M
;
_chemical_formula_sum "Si O2"
_cell_formula_units_Z 52
_cell_length_a 8.257629
_cell_length_b 9.915266
_cell_length_c 34.925893
_cell_angle_alpha 90.000000
_cell_angle_beta 90.000000
_cell_angle_gamma 90.000000
_cell_volume 2859.612954
_symmetry_space_group_name_H-M "P M M M"
_symmetry_group_IT_number 47
_symmetry_cell_setting 'orthorhombic'
loop_
_space_group_symop_operation_xyz
x,y,z
-x,-y,z
x,-y,-z
-x,y,-z
-x,-y,-z
x,y,-z
-x,y,z
x,-y,z
loop_
_atom_site_type_symbol
_atom_site_label
_atom_site_fract_x
_atom_site_fract_y
_atom_site_fract_z
Si Si1 0.312839 0.348864 0.745322
Si Si2 0.818430 0.340392 0.333767
Si Si3 0.690457 0.347561 0.957199
Si Si4 0.188547 0.843733 0.809246
Si Si5 0.319310 0.339423 0.587784
Si Si6 0.189555 0.146783 0.894137
Si Si7 0.000000 0.339612 0.543671
O O1 0.500000 0.359239 0.736214
O O2 0.244213 0.500000 0.754022
O O3 0.231813 0.281957 0.707605
O O4 0.285858 0.252256 0.781122
O O5 0.803885 0.500000 0.330801
O O6 0.705158 0.288931 0.368435
O O7 0.000000 0.294371 0.343520
O O8 0.500000 0.337644 0.952354
O O9 0.749602 0.500000 0.950150
O O10 0.773042 0.254391 0.926287
O O11 0.741275 0.301451 0.000000
O O12 0.253825 0.810309 0.852166
O O13 0.000000 0.810173 0.804981
O O14 0.222970 0.000000 0.799538
O O15 0.500000 0.289851 0.574035
O O16 0.314222 0.500000 0.585859
O O17 0.167654 0.283173 0.562631
O O18 0.000000 0.130915 0.889878
O O19 0.262935 0.000000 0.905635
O O20 0.000000 0.500000 0.547340
O O21 0.000000 0.290837 0.500000
#
# Coordination Sequence:
#
# PCOD8196639 Si02
#       7
#     8   8   8   8   8   8   4
#     4  10  20  31  45  70  98 121 153 198 241 283
#     4   9  15  25  41  59  81 110 145 187 236 285
#     4   9  19  35  52  72 100 130 158 191 234 283
#     4   9  19  36  53  68  92 127 162 194 235 288
#     4   9  15  23  35  50  71 102 141 187 238 288
#     4   9  19  35  53  73  96 123 158 198 236 279
#     4   9  16  24  32  46  70 102 145 191 235 289
#
# _framework density 18.184279
#
# number of rings (size 3 to 8) (size 9 to 14) (size 15 to 20)
#    0.000    2.846    0.769    2.308    0.000    5.846 
#    0.000    8.462    0.000    0.000    0.000    0.000 
#    0.000    0.000    0.000    0.000    0.000    1.538 
#
# Total GULP energy -644359.907580 kJ/mol
# GULP energy per Si atom -12391.536684 kJ/mol
# Density = 1.814289 g / cm^3
# Si number density = 18.184279 Si / 1000 Ang^3
#
#
#
# Elastic Constant Matrix: (Units=GPa)
#
#
# Indices 1 2 3 4 5 6 
#
# 1 82.1792 16.2908 45.1763 0.0000 0.0000 0.0000
# 2 16.2908 37.0567 38.6838 0.0000 0.0000 0.0000
# 3 45.1763 38.6838 131.7052 0.0000 0.0000 0.0000
# 4 0.0000 0.0000 0.0000 -10.9234 0.0000 0.0000
# 5 0.0000 0.0000 0.0000 0.0000 25.1847 0.0000
# 6 0.0000 0.0000 0.0000 0.0000 0.0000 -13.2968
#
#
#
# Elastic Compliance Matrix: (Units=1/GPa)
#
#
# Indices 1 2 3 4 5 6 
#
# 1 0.015077 -0.001773 -0.004651 0.000000 0.000000 0.000000
# 2 -0.001773 0.039127 -0.010884 0.000000 0.000000 0.000000
# 3 -0.004651 -0.010884 0.012385 0.000000 0.000000 0.000000
# 4 0.000000 0.000000 0.000000 -0.091546 0.000000 0.000000
# 5 0.000000 0.000000 0.000000 0.000000 0.039707 0.000000
# 6 0.000000 0.000000 0.000000 0.000000 0.000000 -0.075206
#
#
# Mechanical properties :
#
#
# Convention : Reuss Voigt Hill
#
# Bulk Modulus (GPa) = 31.27649 50.13810 40.70730
# Shear Modulus (GPa) = -329.29420 10.24556 -159.52432
#
# Velocity S-wave (km/s) = -13.47147 2.37624 -9.37640
# Velocity P-wave (km/s) = 14.99122 5.92965 9.73591
#
# Compressibility (1/GPa) = 0.03197290
#
# Stress axis : x y z
#
# Youngs Moduli (GPa) = 66.32785 25.55776 80.74441
#
# Poissons Ratio (x) = 0.04532 0.37552
# Poissons Ratio (y) = 0.11760 0.87883
# Poissons Ratio (z) = 0.30847 0.27817
#
# Static dielectric constant tensor:
#      x y z
#    x 3.403710 0.000000 0.000000 
#    y 0.000000 2.588080 0.000000 
#    z 0.000000 0.000000 4.038040 
# 
# 
# High freq. dielectric constant tensor:
#      x y z
#    x 1.707970 0.000000 0.000000 
#    y 0.000000 1.645860 0.000000 
#    z 0.000000 0.000000 1.713170 
# 
# From -- ./inp_files/34302.got.cif
#   From: 2010.03.12/outbox.cif.g09.slc.cpg/sg47_18_cif.got.tgz:34302.got - 2010.04.14 03:12:58.
