data_PCOD8196624
_publ_section_title
;
Structure prediction by ZEFSAII (Michael W. Deem and Ramdas Pophale) SiO2 
 PCOD8196624
Probable space group: P M M M
;
_chemical_formula_sum "Si O2"
_cell_formula_units_Z 48
_cell_length_a 9.479875
_cell_length_b 9.218997
_cell_length_c 30.574609
_cell_angle_alpha 90.000000
_cell_angle_beta 90.000000
_cell_angle_gamma 90.000000
_cell_volume 2672.066094
_symmetry_space_group_name_H-M "P M M M"
_symmetry_group_IT_number 47
_symmetry_cell_setting 'orthorhombic'
loop_
_space_group_symop_operation_xyz
x,y,z
-x,-y,z
x,-y,-z
-x,y,-z
-x,-y,-z
x,y,-z
-x,y,z
x,-y,z
loop_
_atom_site_type_symbol
_atom_site_label
_atom_site_fract_x
_atom_site_fract_y
_atom_site_fract_z
Si Si1 0.661217 0.167011 0.449396
Si Si2 0.161199 0.172270 0.871191
Si Si3 0.341802 0.827611 0.951612
Si Si4 0.335842 0.331482 0.798577
Si Si5 0.839845 0.672286 0.620781
Si Si6 0.344050 0.672135 0.299590
O O1 0.695546 0.194574 0.500000
O O2 0.500000 0.210161 0.439157
O O3 0.764452 0.267295 0.421953
O O4 0.687591 0.000000 0.437191
O O5 0.234520 0.233481 0.915326
O O6 0.239145 0.236069 0.829480
O O7 0.000000 0.224831 0.871512
O O8 0.172532 0.000000 0.868807
O O9 0.500000 0.772370 0.940817
O O10 0.339680 0.000000 0.951099
O O11 0.296028 0.772431 0.000000
O O12 0.500000 0.301243 0.808421
O O13 0.300510 0.500000 0.805753
O O14 0.297914 0.281848 0.749188
O O15 0.831447 0.500000 0.618930
O O16 0.764922 0.733399 0.664625
O O17 0.000000 0.727615 0.621590
O O18 0.500000 0.734393 0.310204
O O19 0.349950 0.500000 0.301539
#
# Coordination Sequence:
#
# PCOD8196624 Si02
#       6
#     8   8   8   8   8   8
#     4   9  19  36  55  73  95 127 167 205 239 280
#     4  10  20  31  45  70 102 131 158 192 237 287
#     4   8  14  26  45  67  90 120 159 199 238 281
#     4   9  18  33  53  74  94 122 163 204 240 283
#     4  10  20  32  49  76 105 129 156 194 240 288
#     4   8  15  30  51  72  94 123 161 202 240 280
#
# _framework density 17.963628
#
# number of rings (size 3 to 8) (size 9 to 14) (size 15 to 20)
#    0.000    3.000    0.000    3.000    0.000    4.333 
#    0.000    6.667    0.000    1.500    0.000    3.500 
#    0.000    0.000    0.000    0.000    0.000    0.000 
#
# Total GULP energy -595053.656952 kJ/mol
# GULP energy per Si atom -12396.951187 kJ/mol
# Density = 1.792274 g / cm^3
# Si number density = 17.963628 Si / 1000 Ang^3
#
#
#
# Elastic Constant Matrix: (Units=GPa)
#
#
# Indices 1 2 3 4 5 6 
#
# 1 134.3943 27.3419 91.2815 0.0000 0.0000 0.0000
# 2 27.3419 16.3286 25.3472 0.0000 0.0000 0.0000
# 3 91.2815 25.3472 136.9019 0.0000 0.0000 0.0000
# 4 0.0000 0.0000 0.0000 27.7519 0.0000 0.0000
# 5 0.0000 0.0000 0.0000 0.0000 15.2994 0.0000
# 6 0.0000 0.0000 0.0000 0.0000 0.0000 23.6951
#
#
#
# Elastic Compliance Matrix: (Units=1/GPa)
#
#
# Indices 1 2 3 4 5 6 
#
# 1 0.015586 -0.013986 -0.007803 0.000000 0.000000 0.000000
# 2 -0.013986 0.098493 -0.008911 0.000000 0.000000 0.000000
# 3 -0.007803 -0.008911 0.014157 0.000000 0.000000 0.000000
# 4 0.000000 0.000000 0.000000 0.036034 0.000000 0.000000
# 5 0.000000 0.000000 0.000000 0.000000 0.065362 0.000000
# 6 0.000000 0.000000 0.000000 0.000000 0.000000 0.042203
#
#
# Mechanical properties :
#
#
# Convention : Reuss Voigt Hill
#
# Bulk Modulus (GPa) = 14.96158 63.95178 39.45668
# Shear Modulus (GPa) = 14.06423 22.92622 18.49522
#
# Velocity S-wave (km/s) = 2.80112 3.57635 3.21221
# Velocity P-wave (km/s) = 4.33689 7.26166 5.98082
#
# Compressibility (1/GPa) = 0.06683784
#
# Stress axis : x y z
#
# Youngs Moduli (GPa) = 64.16138 10.15296 70.63766
#
# Poissons Ratio (x) = 0.14200 0.55115
# Poissons Ratio (y) = 0.89736 0.62942
# Poissons Ratio (z) = 0.50062 0.09047
#
# Static dielectric constant tensor:
#      x y z
#    x 3.489020 0.000000 0.000000 
#    y 0.000000 2.876160 0.000000 
#    z 0.000000 0.000000 3.549020 
# 
# 
# High freq. dielectric constant tensor:
#      x y z
#    x 1.696840 0.000000 0.000000 
#    y 0.000000 1.650940 0.000000 
#    z 0.000000 0.000000 1.709860 
# 
# From -- ./inp_files/2419.got.cif
#   From: 2010.03.12/outbox.cif.g09.slc.cpg/sg47_2_cif.got.tgz:2419.got - 2010.04.14 03:12:58.
