data_PCOD8196874
_publ_section_title
;
Structure prediction by ZEFSAII (Michael W. Deem and Ramdas Pophale) SiO2 
 PCOD8196874
Probable space group: P M M M
;
_chemical_formula_sum "Si O2"
_cell_formula_units_Z 56
_cell_length_a 18.790070
_cell_length_b 9.073719
_cell_length_c 18.865937
_cell_angle_alpha 90.000000
_cell_angle_beta 90.000000
_cell_angle_gamma 90.000000
_cell_volume 3216.563308
_symmetry_space_group_name_H-M "P M M M"
_symmetry_group_IT_number 47
_symmetry_cell_setting 'orthorhombic'
loop_
_space_group_symop_operation_xyz
x,y,z
-x,-y,z
x,-y,-z
-x,y,-z
-x,-y,-z
x,y,-z
-x,y,z
x,-y,z
loop_
_atom_site_type_symbol
_atom_site_label
_atom_site_fract_x
_atom_site_fract_y
_atom_site_fract_z
Si Si1 0.711144 0.826501 0.142267
Si Si2 0.076415 0.161091 0.582158
Si Si3 0.786115 0.671764 0.420040
Si Si4 0.838787 0.669504 0.078600
Si Si5 0.419273 0.329088 0.081434
Si Si6 0.917945 0.673153 0.780902
Si Si7 0.213922 0.826298 0.284394
O O1 0.766383 0.762256 0.085504
O O2 0.632204 0.765851 0.130663
O O3 0.736011 0.775531 0.220268
O O4 0.710116 0.000000 0.133985
O O5 0.064311 0.141732 0.500000
O O6 0.131146 0.293123 0.594977
O O7 0.000000 0.202401 0.617371
O O8 0.103686 0.000000 0.611438
O O9 0.763443 0.723460 0.500000
O O10 0.771415 0.500000 0.411361
O O11 0.748367 0.761675 0.356291
O O12 0.816822 0.500000 0.087592
O O13 0.896795 0.713767 0.137870
O O14 0.870891 0.699242 0.000000
O O15 0.500000 0.295665 0.105119
O O16 0.401371 0.500000 0.091605
O O17 0.408355 0.282802 0.000000
O O18 0.907152 0.500000 0.766618
O O19 0.866705 0.763535 0.727273
O O20 0.000000 0.720274 0.769629
O O21 0.209927 0.000000 0.289920
#
# Coordination Sequence:
#
# PCOD8196874 Si02
#       7
#     8   8   8   8   8   8   8
#     4  10  20  32  47  69  96 126 161 196 227 265
#     4   8  14  25  40  57  78 105 135 167 211 271
#     4  10  20  32  47  67  87 107 138 184 233 278
#     4   9  17  29  46  67  90 119 155 194 238 285
#     4   9  18  32  50  74 104 136 166 192 221 261
#     4   9  18  32  48  65  86 114 151 197 245 287
#     4  10  21  35  49  65  88 121 157 190 230 283
#
# _framework density 17.409884999999999
#
# number of rings (size 3 to 8) (size 9 to 14) (size 15 to 20)
#    0.000    2.714    0.000    2.571    0.000    6.571 
#    0.000    3.571    0.000    0.000    0.000    4.000 
#    0.000    0.571    0.000    6.286    0.000    4.571 
#
# Total GULP energy -693912.438097 kJ/mol
# GULP energy per Si atom -12391.293537 kJ/mol
# Density = 1.737026 g / cm^3
# Si number density = 17.409885 Si / 1000 Ang^3
#
#
#
# Elastic Constant Matrix: (Units=GPa)
#
#
# Indices 1 2 3 4 5 6 
#
# 1 66.2972 24.6899 26.5592 0.0000 0.0000 0.0000
# 2 24.6899 57.7885 35.0545 0.0000 0.0000 0.0000
# 3 26.5592 35.0545 110.6085 0.0000 0.0000 0.0000
# 4 0.0000 0.0000 0.0000 22.7238 0.0000 0.0000
# 5 0.0000 0.0000 0.0000 0.0000 15.8237 0.0000
# 6 0.0000 0.0000 0.0000 0.0000 0.0000 13.7387
#
#
#
# Elastic Compliance Matrix: (Units=1/GPa)
#
#
# Indices 1 2 3 4 5 6 
#
# 1 0.018434 -0.006426 -0.002390 0.000000 0.000000 0.000000
# 2 -0.006426 0.023663 -0.005956 0.000000 0.000000 0.000000
# 3 -0.002390 -0.005956 0.011502 0.000000 0.000000 0.000000
# 4 0.000000 0.000000 0.000000 0.044007 0.000000 0.000000
# 5 0.000000 0.000000 0.000000 0.000000 0.063196 0.000000
# 6 0.000000 0.000000 0.000000 0.000000 0.000000 0.072787
#
#
# Mechanical properties :
#
#
# Convention : Reuss Voigt Hill
#
# Bulk Modulus (GPa) = 41.57139 45.25569 43.41354
# Shear Modulus (GPa) = 18.43975 20.34994 19.39484
#
# Velocity S-wave (km/s) = 3.25800 3.42259 3.34130
# Velocity P-wave (km/s) = 6.17111 6.45519 6.31475
#
# Compressibility (1/GPa) = 0.02405500
#
# Stress axis : x y z
#
# Youngs Moduli (GPa) = 54.24699 42.25962 86.93812
#
# Poissons Ratio (x) = 0.27157 0.20776
# Poissons Ratio (y) = 0.34861 0.51784
# Poissons Ratio (z) = 0.12964 0.25171
#
# Static dielectric constant tensor:
#      x y z
#    x 2.976160 0.000000 0.000000 
#    y 0.000000 3.170070 0.000000 
#    z 0.000000 0.000000 3.552490 
# 
# 
# High freq. dielectric constant tensor:
#      x y z
#    x 1.624300 0.000000 0.000000 
#    y 0.000000 1.673080 0.000000 
#    z 0.000000 0.000000 1.683970 
# 
# From -- ./inp_files/9820.got.cif
#   From: 2010.03.12/outbox.cif.g09.slc.cpg/sg47_5_cif.got.tgz:9820.got - 2010.04.14 03:12:58.
