data_PCOD8196318
_publ_section_title
;
Structure prediction by ZEFSAII (Michael W. Deem and Ramdas Pophale) SiO2 
 PCOD8196318
Probable space group: P M M M
;
_chemical_formula_sum "Si O2"
_cell_formula_units_Z 48
_cell_length_a 9.158715
_cell_length_b 15.057680
_cell_length_c 17.450084
_cell_angle_alpha 90.000000
_cell_angle_beta 90.000000
_cell_angle_gamma 90.000000
_cell_volume 2406.523629
_symmetry_space_group_name_H-M "P M M M"
_symmetry_group_IT_number 47
_symmetry_cell_setting 'orthorhombic'
loop_
_space_group_symop_operation_xyz
x,y,z
-x,-y,z
x,-y,-z
-x,y,-z
-x,-y,-z
x,y,-z
-x,y,z
x,-y,z
loop_
_atom_site_type_symbol
_atom_site_label
_atom_site_fract_x
_atom_site_fract_y
_atom_site_fract_z
Si Si1 0.328659 0.843124 0.586544
Si Si2 0.172892 0.597040 0.913176
Si Si3 0.826818 0.211359 0.134484
Si Si4 0.663548 0.500000 0.591784
Si Si5 0.835807 0.096898 0.722997
Si Si6 0.161549 0.665791 0.590069
Si Si7 0.326538 0.104596 0.000000
O O1 0.287925 0.873663 0.500000
O O2 0.500000 0.830015 0.593902
O O3 0.269525 0.911662 0.648971
O O4 0.250561 0.752685 0.610116
O O5 0.229483 0.500000 0.881065
O O6 0.225375 0.684855 0.866707
O O7 0.000000 0.595124 0.912243
O O8 0.229490 0.608446 0.000000
O O9 0.785511 0.172549 0.217732
O O10 0.000000 0.202914 0.117953
O O11 0.740820 0.152220 0.073791
O O12 0.500000 0.500000 0.624669
O O13 0.659363 0.500000 0.500000
O O14 0.748975 0.415691 0.625407
O O15 0.000000 0.116970 0.694288
O O16 0.828661 0.000000 0.763393
O O17 0.146708 0.652423 0.500000
O O18 0.000000 0.669995 0.627384
O O19 0.500000 0.117783 0.000000
O O20 0.285845 0.000000 0.000000
#
# Coordination Sequence:
#
# PCOD8196318 Si02
#       7
#     8   8   8   4   8   8   4
#     4  10  21  37  57  79 103 137 182 230 288 356
#     4   8  13  24  49  86 119 146 183 228 270 315
#     4  10  19  35  59  84 112 151 195 235 277 332
#     4   9  15  23  39  67 103 137 169 208 259 322
#     4  10  22  38  56  80 109 143 185 235 292 348
#     4   9  16  27  46  72 100 130 167 214 266 321
#     4  11  23  35  50  79 118 156 193 235 284 333
#
# _framework density 19.945784
#
# number of rings (size 3 to 8) (size 9 to 14) (size 15 to 20)
#    0.000    2.500    0.833    2.500    0.000    6.667 
#    0.000    1.667    1.833    1.000    0.000    0.000 
#    0.000    0.000    0.000    0.000    0.000    0.000 
#
# Total GULP energy -594803.305166 kJ/mol
# GULP energy per Si atom -12391.735524 kJ/mol
# Density = 1.990039 g / cm^3
# Si number density = 19.945784 Si / 1000 Ang^3
#
#
#
# Elastic Constant Matrix: (Units=GPa)
#
#
# Indices 1 2 3 4 5 6 
#
# 1 84.1304 41.4776 41.7144 0.0000 0.0000 0.0000
# 2 41.4776 157.2375 54.0286 0.0000 0.0000 0.0000
# 3 41.7144 54.0286 85.1485 0.0000 0.0000 0.0000
# 4 0.0000 0.0000 0.0000 23.9034 0.0000 0.0000
# 5 0.0000 0.0000 0.0000 0.0000 19.1835 0.0000
# 6 0.0000 0.0000 0.0000 0.0000 0.0000 23.1056
#
#
#
# Elastic Compliance Matrix: (Units=1/GPa)
#
#
# Indices 1 2 3 4 5 6 
#
# 1 0.016165 -0.001973 -0.006667 0.000000 0.000000 0.000000
# 2 -0.001973 0.008374 -0.004347 0.000000 0.000000 0.000000
# 3 -0.006667 -0.004347 0.017769 0.000000 0.000000 0.000000
# 4 0.000000 0.000000 0.000000 0.041835 0.000000 0.000000
# 5 0.000000 0.000000 0.000000 0.000000 0.052128 0.000000
# 6 0.000000 0.000000 0.000000 0.000000 0.000000 0.043280
#
#
# Mechanical properties :
#
#
# Convention : Reuss Voigt Hill
#
# Bulk Modulus (GPa) = 61.22531 66.77305 63.99918
# Shear Modulus (GPa) = 23.70017 25.85821 24.77919
#
# Velocity S-wave (km/s) = 3.45081 3.60450 3.52849
# Velocity P-wave (km/s) = 6.82935 7.13254 6.98259
#
# Compressibility (1/GPa) = 0.01633312
#
# Stress axis : x y z
#
# Youngs Moduli (GPa) = 61.86231 119.41853 56.27919
#
# Poissons Ratio (x) = 0.23564 0.37522
# Poissons Ratio (y) = 0.12207 0.24463
# Poissons Ratio (z) = 0.41245 0.51908
#
# Static dielectric constant tensor:
#      x y z
#    x 3.535550 0.000000 0.000000 
#    y 0.000000 4.055020 0.000000 
#    z 0.000000 0.000000 3.306610 
# 
# 
# High freq. dielectric constant tensor:
#      x y z
#    x 1.758380 0.000000 0.000000 
#    y 0.000000 1.797900 0.000000 
#    z 0.000000 0.000000 1.740000 
# 
# From -- ./inp_files/26491.got.cif
#   From: 2010.03.12/outbox.cif.g09.slc.cpg/sg47_14_cif.got.tgz:26491.got - 2010.04.14 03:12:58.
