data_PCOD8196488
_publ_section_title
;
Structure prediction by ZEFSAII (Michael W. Deem and Ramdas Pophale) SiO2 
 PCOD8196488
Probable space group: P M M M
;
_chemical_formula_sum "Si O2"
_cell_formula_units_Z 52
_cell_length_a 15.093658
_cell_length_b 27.969378
_cell_length_c 9.087514
_cell_angle_alpha 90.000000
_cell_angle_beta 90.000000
_cell_angle_gamma 90.000000
_cell_volume 3836.386964
_symmetry_space_group_name_H-M "P M M M"
_symmetry_group_IT_number 47
_symmetry_cell_setting 'orthorhombic'
loop_
_space_group_symop_operation_xyz
x,y,z
-x,-y,z
x,-y,-z
-x,y,-z
-x,-y,-z
x,y,-z
-x,y,z
x,-y,z
loop_
_atom_site_type_symbol
_atom_site_label
_atom_site_fract_x
_atom_site_fract_y
_atom_site_fract_z
Si Si1 0.396580 0.375186 0.671541
Si Si2 0.605617 0.000000 0.333569
Si Si3 0.605433 0.280182 0.166230
Si Si4 0.268449 0.556564 0.831432
Si Si5 0.097422 0.556785 0.665300
Si Si6 0.605603 0.093490 0.166414
Si Si7 0.605665 0.812957 0.666456
O O1 0.376087 0.370274 0.500000
O O2 0.500000 0.383000 0.702101
O O3 0.360943 0.327420 0.750560
O O4 0.347009 0.420831 0.736982
O O5 0.641945 0.046758 0.250055
O O6 0.500000 0.000000 0.333885
O O7 0.642022 0.000000 0.500000
O O8 0.500000 0.278667 0.166505
O O9 0.642849 0.233777 0.250557
O O10 0.642286 0.280335 0.000000
O O11 0.275948 0.500000 0.811298
O O12 0.173495 0.576056 0.773913
O O13 0.278543 0.572098 0.000000
O O14 0.117242 0.575109 0.500000
O O15 0.097484 0.500000 0.666999
O O16 0.000000 0.575169 0.716914
O O17 0.500000 0.093426 0.166038
O O18 0.641785 0.140282 0.249823
O O19 0.642050 0.093470 0.000000
O O20 0.641942 0.813206 0.500000
O O21 0.500000 0.812711 0.666439
#
# Coordination Sequence:
#
# PCOD8196488 Si02
#       7
#     8   4   8   8   8   8   8
#     4  10  20  32  44  56  71  94 123 152 181 214
#     4   9  15  21  27  35  49  69  91 115 147 189
#     4   9  16  26  39  52  65  81 103 134 171 207
#     4  10  20  31  43  60  80 100 121 146 176 211
#     4   8  14  26  44  63  81 100 120 142 169 202
#     4   9  15  21  28  38  52  70  92 118 150 189
#     4   9  15  22  32  45  59  74  95 124 157 194
#
# _framework density 13.55442
#
# number of rings (size 3 to 8) (size 9 to 14) (size 15 to 20)
#    0.000    2.846    0.000    3.000    0.000    8.923 
#    0.000    3.077    0.000    0.000    0.000    0.000 
#    0.000    0.000    0.000    0.000    0.000    0.000 
#
# Total GULP energy -644658.429198 kJ/mol
# GULP energy per Si atom -12397.277485 kJ/mol
# Density = 1.352357 g / cm^3
# Si number density = 13.554420 Si / 1000 Ang^3
#
#
#
# Elastic Constant Matrix: (Units=GPa)
#
#
# Indices 1 2 3 4 5 6 
#
# 1 31.3758 24.9258 30.8091 0.0000 0.0000 0.0000
# 2 24.9258 70.8661 51.1104 0.0000 0.0000 0.0000
# 3 30.8091 51.1104 126.2417 0.0000 0.0000 0.0000
# 4 0.0000 0.0000 0.0000 28.7131 0.0000 0.0000
# 5 0.0000 0.0000 0.0000 0.0000 12.9260 0.0000
# 6 0.0000 0.0000 0.0000 0.0000 0.0000 0.4410
#
#
#
# Elastic Compliance Matrix: (Units=1/GPa)
#
#
# Indices 1 2 3 4 5 6 
#
# 1 0.048155 -0.011951 -0.006913 0.000000 0.000000 0.000000
# 2 -0.011951 0.022897 -0.006353 0.000000 0.000000 0.000000
# 3 -0.006913 -0.006353 0.012181 0.000000 0.000000 0.000000
# 4 0.000000 0.000000 0.000000 0.034827 0.000000 0.000000
# 5 0.000000 0.000000 0.000000 0.000000 0.077364 0.000000
# 6 0.000000 0.000000 0.000000 0.000000 0.000000 2.267602
#
#
# Mechanical properties :
#
#
# Convention : Reuss Voigt Hill
#
# Bulk Modulus (GPa) = 30.49145 49.13045 39.81095
# Shear Modulus (GPa) = 1.98067 16.52523 9.25295
#
# Velocity S-wave (km/s) = 1.21014 3.49546 2.61560
# Velocity P-wave (km/s) = 4.94945 7.25372 6.20941
#
# Compressibility (1/GPa) = 0.03279608
#
# Stress axis : x y z
#
# Youngs Moduli (GPa) = 20.76642 43.67382 82.09657
#
# Poissons Ratio (x) = 0.52196 0.56757
# Poissons Ratio (y) = 0.24819 0.52159
# Poissons Ratio (z) = 0.14357 0.27748
#
# Static dielectric constant tensor:
#      x y z
#    x 2.268680 0.000000 0.000000 
#    y 0.000000 2.705720 0.000000 
#    z 0.000000 0.000000 2.935440 
# 
# 
# High freq. dielectric constant tensor:
#      x y z
#    x 1.439100 0.000000 0.000000 
#    y 0.000000 1.509890 0.000000 
#    z 0.000000 0.000000 1.538450 
# 
# From -- ./inp_files/8047.got.cif
#   From: 2010.03.12/outbox.cif.g09.slc.cpg/sg47_5_cif.got.tgz:8047.got - 2010.04.14 03:12:58.
