data_PCOD8196642
_publ_section_title
;
Structure prediction by ZEFSAII (Michael W. Deem and Ramdas Pophale) SiO2 
 PCOD8196642
Probable space group: P M M M
;
_chemical_formula_sum "Si O2"
_cell_formula_units_Z 52
_cell_length_a 12.319090
_cell_length_b 17.651912
_cell_length_c 15.432073
_cell_angle_alpha 90.000000
_cell_angle_beta 90.000000
_cell_angle_gamma 90.000000
_cell_volume 3355.789036
_symmetry_space_group_name_H-M "P M M M"
_symmetry_group_IT_number 47
_symmetry_cell_setting 'orthorhombic'
loop_
_space_group_symop_operation_xyz
x,y,z
-x,-y,z
x,-y,-z
-x,y,-z
-x,-y,-z
x,y,-z
-x,y,z
x,-y,z
loop_
_atom_site_type_symbol
_atom_site_label
_atom_site_fract_x
_atom_site_fract_y
_atom_site_fract_z
Si Si1 0.500000 0.087214 0.092306
Si Si2 0.372419 0.715970 0.222818
Si Si3 0.374635 0.219134 0.596645
Si Si4 0.371695 0.584218 0.903510
Si Si5 0.226851 0.913647 0.339828
Si Si6 0.273526 0.136780 0.157974
Si Si7 0.000000 0.910084 0.595668
Si Si8 0.128288 0.910292 0.000000
O O1 0.393125 0.106795 0.143067
O O2 0.500000 0.000000 0.072840
O O3 0.500000 0.131245 0.000000
O O4 0.500000 0.733797 0.202944
O O5 0.351966 0.717869 0.327693
O O6 0.335969 0.637791 0.176708
O O7 0.289340 0.775381 0.180539
O O8 0.342560 0.250055 0.500000
O O9 0.500000 0.197081 0.598575
O O10 0.314375 0.140295 0.615235
O O11 0.500000 0.580332 0.905120
O O12 0.324430 0.500000 0.885577
O O13 0.332418 0.612326 0.000000
O O14 0.231723 0.913273 0.236822
O O15 0.108201 0.879707 0.359355
O O16 0.242622 0.000000 0.374109
O O17 0.186535 0.127087 0.082110
O O18 0.000000 0.876697 0.500000
O O19 0.000000 0.000000 0.597425
O O20 0.000000 0.891230 0.000000
O O21 0.148730 0.000000 0.000000
#
# Coordination Sequence:
#
# PCOD8196642 Si02
#       8
#     4   8   8   8   8   8   4   4
#     4  11  20  30  44  62  86 116 156 199 230 266
#     4   9  17  29  45  68  93 119 149 183 227 275
#     4   9  18  31  44  61  87 119 151 184 229 278
#     4   8  14  24  41  66  96 124 145 173 218 272
#     4  10  20  31  46  63  83 110 149 197 241 279
#     4  11  21  33  46  66  88 119 157 193 236 278
#     4   9  18  32  48  63  77 101 142 192 243 287
#     4  11  24  37  47  59  86 126 164 198 235 274
#
# _framework density 15.495609999999999
#
# number of rings (size 3 to 8) (size 9 to 14) (size 15 to 20)
#    0.000    2.385    1.538    2.308    3.231    1.231 
#    0.000    0.769    0.000    0.462    0.000    3.231 
#    0.000    1.231    0.000    0.000    0.000   19.077 
#
# Total GULP energy -644212.300524 kJ/mol
# GULP energy per Si atom -12388.698087 kJ/mol
# Density = 1.546034 g / cm^3
# Si number density = 15.495610 Si / 1000 Ang^3
#
#
#
# Elastic Constant Matrix: (Units=GPa)
#
#
# Indices 1 2 3 4 5 6 
#
# 1 75.5345 19.0056 50.0026 0.0000 0.0000 0.0000
# 2 19.0056 72.7760 49.4910 0.0000 0.0000 0.0000
# 3 50.0026 49.4910 143.5796 0.0000 0.0000 0.0000
# 4 0.0000 0.0000 0.0000 21.8823 0.0000 0.0000
# 5 0.0000 0.0000 0.0000 0.0000 21.2474 0.0000
# 6 0.0000 0.0000 0.0000 0.0000 0.0000 7.2041
#
#
#
# Elastic Compliance Matrix: (Units=1/GPa)
#
#
# Indices 1 2 3 4 5 6 
#
# 1 0.017222 -0.000547 -0.005809 0.000000 0.000000 0.000000
# 2 -0.000547 0.017965 -0.006002 0.000000 0.000000 0.000000
# 3 -0.005809 -0.006002 0.011057 0.000000 0.000000 0.000000
# 4 0.000000 0.000000 0.000000 0.045699 0.000000 0.000000
# 5 0.000000 0.000000 0.000000 0.000000 0.047065 0.000000
# 6 0.000000 0.000000 0.000000 0.000000 0.000000 0.138810
#
#
# Mechanical properties :
#
#
# Convention : Reuss Voigt Hill
#
# Bulk Modulus (GPa) = 46.45185 58.76540 52.60862
# Shear Modulus (GPa) = 16.14412 21.62616 18.88514
#
# Velocity S-wave (km/s) = 3.23127 3.73987 3.49484
# Velocity P-wave (km/s) = 6.63054 7.52695 7.09292
#
# Compressibility (1/GPa) = 0.02152767
#
# Stress axis : x y z
#
# Youngs Moduli (GPa) = 58.06454 55.66288 90.44282
#
# Poissons Ratio (x) = 0.03045 0.52540
# Poissons Ratio (y) = 0.03177 0.54284
# Poissons Ratio (z) = 0.33731 0.33409
#
# Static dielectric constant tensor:
#      x y z
#    x 2.854090 0.000000 0.000000 
#    y 0.000000 2.881080 0.000000 
#    z 0.000000 0.000000 3.323560 
# 
# 
# High freq. dielectric constant tensor:
#      x y z
#    x 1.572270 0.000000 0.000000 
#    y 0.000000 1.557310 0.000000 
#    z 0.000000 0.000000 1.611690 
# 
# From -- ./inp_files/22926.got.cif
#   From: 2010.03.12/outbox.cif.g09.slc.cpg/sg47_12_cif.got.tgz:22926.got - 2010.04.14 03:12:58.
