data_PCOD8196166
_publ_section_title
;
Structure prediction by ZEFSAII (Michael W. Deem and Ramdas Pophale) SiO2 
 PCOD8196166
Probable space group: P M M M
;
_chemical_formula_sum "Si O2"
_cell_formula_units_Z 52
_cell_length_a 11.962355
_cell_length_b 27.170612
_cell_length_c 9.159898
_cell_angle_alpha 90.000000
_cell_angle_beta 90.000000
_cell_angle_gamma 90.000000
_cell_volume 2977.191325
_symmetry_space_group_name_H-M "P M M M"
_symmetry_group_IT_number 47
_symmetry_cell_setting 'orthorhombic'
loop_
_space_group_symop_operation_xyz
x,y,z
-x,-y,z
x,-y,-z
-x,y,-z
-x,-y,-z
x,y,-z
-x,y,z
x,-y,z
loop_
_atom_site_type_symbol
_atom_site_label
_atom_site_fract_x
_atom_site_fract_y
_atom_site_fract_z
Si Si1 0.629236 0.719860 0.832502
Si Si2 0.368844 0.000000 0.171513
Si Si3 0.131149 0.555542 0.335328
Si Si4 0.697136 0.613007 0.828934
Si Si5 0.000000 0.944735 0.672399
Si Si6 0.500000 0.442759 0.671956
Si Si7 0.242124 0.087282 0.327268
Si Si8 0.373001 0.816226 0.328657
O O1 0.500000 0.709452 0.798601
O O2 0.694891 0.670631 0.787365
O O3 0.674076 0.766000 0.740412
O O4 0.649002 0.733354 0.000000
O O5 0.315146 0.047709 0.243197
O O6 0.500000 0.000000 0.205429
O O7 0.344047 0.000000 0.000000
O O8 0.166353 0.570464 0.500000
O O9 0.172578 0.500000 0.303938
O O10 0.182451 0.592646 0.217251
O O11 0.000000 0.558938 0.316172
O O12 0.608397 0.582168 0.738623
O O13 0.673869 0.605866 0.000000
O O14 0.887855 0.916147 0.722913
O O15 0.000000 0.948789 0.500000
O O16 0.000000 0.000000 0.739171
O O17 0.500000 0.500000 0.712919
O O18 0.500000 0.434272 0.500000
O O19 0.254774 0.077833 0.500000
O O20 0.290052 0.140234 0.280899
O O21 0.372037 0.809143 0.500000
O O22 0.500000 0.827304 0.273986
#
# Coordination Sequence:
#
# PCOD8196166 Si02
#       8
#     8   4   8   8   4   4   8   8
#     4   9  18  34  52  72 102 138 170 206 258 314
#     4  11  23  34  47  74 110 141 172 209 256 311
#     4   9  19  36  55  75 102 136 173 214 262 315
#     4  11  21  34  53  78 106 137 176 218 261 313
#     4   9  16  30  54  80 102 136 176 208 249 300
#     4  11  23  35  49  75 111 147 177 210 263 320
#     4  10  19  34  55  77 104 137 174 215 256 302
#     4   9  18  31  50  77 101 126 169 217 258 303
#
# _framework density 17.466125999999999
#
# number of rings (size 3 to 8) (size 9 to 14) (size 15 to 20)
#    0.000    2.231    1.538    2.308    0.000    6.154 
#    0.000    3.077    1.692    0.000    0.000    0.000 
#    0.000    0.000    0.000    0.000    0.000    0.000 
#
# Total GULP energy -644795.011179 kJ/mol
# GULP energy per Si atom -12399.904061 kJ/mol
# Density = 1.742637 g / cm^3
# Si number density = 17.466126 Si / 1000 Ang^3
#
#
#
# Elastic Constant Matrix: (Units=GPa)
#
#
# Indices 1 2 3 4 5 6 
#
# 1 93.6249 67.7285 36.0774 0.0000 0.0000 0.0000
# 2 67.7285 152.7058 58.3864 0.0000 0.0000 0.0000
# 3 36.0774 58.3864 54.1729 0.0000 0.0000 0.0000
# 4 0.0000 0.0000 0.0000 19.7171 0.0000 0.0000
# 5 0.0000 0.0000 0.0000 0.0000 22.3369 0.0000
# 6 0.0000 0.0000 0.0000 0.0000 0.0000 3.9484
#
#
#
# Elastic Compliance Matrix: (Units=1/GPa)
#
#
# Indices 1 2 3 4 5 6 
#
# 1 0.016575 -0.005326 -0.005299 0.000000 0.000000 0.000000
# 2 -0.005326 0.012850 -0.010302 0.000000 0.000000 0.000000
# 3 -0.005299 -0.010302 0.033092 0.000000 0.000000 0.000000
# 4 0.000000 0.000000 0.000000 0.050717 0.000000 0.000000
# 5 0.000000 0.000000 0.000000 0.000000 0.044769 0.000000
# 6 0.000000 0.000000 0.000000 0.000000 0.000000 0.253269
#
#
# Mechanical properties :
#
#
# Convention : Reuss Voigt Hill
#
# Bulk Modulus (GPa) = 48.39496 69.43203 58.91350
# Shear Modulus (GPa) = 10.86924 18.42123 14.64524
#
# Velocity S-wave (km/s) = 2.49731 3.25111 2.89882
# Velocity P-wave (km/s) = 6.00695 7.34382 6.70877
#
# Compressibility (1/GPa) = 0.02066331
#
# Stress axis : x y z
#
# Youngs Moduli (GPa) = 60.33085 77.82329 30.21877
#
# Poissons Ratio (x) = 0.41445 0.16012
# Poissons Ratio (y) = 0.32129 0.31133
# Poissons Ratio (z) = 0.31968 0.80177
#
# Static dielectric constant tensor:
#      x y z
#    x 4.035270 0.000000 0.000000 
#    y 0.000000 3.411160 0.000000 
#    z 0.000000 0.000000 3.178970 
# 
# 
# High freq. dielectric constant tensor:
#      x y z
#    x 1.666180 0.000000 0.000000 
#    y 0.000000 1.677810 0.000000 
#    z 0.000000 0.000000 1.667220 
# 
# From -- ./inp_files/4666.got.cif
#   From: 2010.03.12/outbox.cif.g09.slc.cpg/sg47_3_cif.got.tgz:4666.got - 2010.04.14 03:12:58.
