data_PCOD8196079
_publ_section_title
;
Structure prediction by ZEFSAII (Michael W. Deem and Ramdas Pophale) SiO2 
 PCOD8196079
Probable space group: P M M M
;
_chemical_formula_sum "Si O2"
_cell_formula_units_Z 52
_cell_length_a 8.788058
_cell_length_b 12.152712
_cell_length_c 25.405306
_cell_angle_alpha 90.000000
_cell_angle_beta 90.000000
_cell_angle_gamma 90.000000
_cell_volume 2713.254617
_symmetry_space_group_name_H-M "P M M M"
_symmetry_group_IT_number 47
_symmetry_cell_setting 'orthorhombic'
loop_
_space_group_symop_operation_xyz
x,y,z
-x,-y,z
x,-y,-z
-x,y,-z
-x,-y,-z
x,y,-z
-x,y,z
x,-y,z
loop_
_atom_site_type_symbol
_atom_site_label
_atom_site_fract_x
_atom_site_fract_y
_atom_site_fract_z
Si Si1 0.680749 0.718708 0.837689
Si Si2 0.819125 0.267458 0.653848
Si Si3 0.179629 0.776076 0.940255
Si Si4 0.180738 0.876932 0.441812
Si Si5 0.668227 0.000000 0.938588
Si Si6 0.819768 0.127293 0.245155
Si Si7 0.671490 0.500000 0.665120
Si Si8 0.330005 0.500000 0.211443
O O1 0.500000 0.727827 0.835625
O O2 0.736802 0.699856 0.897816
O O3 0.748784 0.826118 0.808926
O O4 0.749373 0.611368 0.808527
O O5 0.754336 0.202866 0.603074
O O6 0.761193 0.202199 0.705851
O O7 0.756709 0.390271 0.647075
O O8 0.000000 0.273167 0.654436
O O9 0.000000 0.765761 0.935349
O O10 0.231902 0.896547 0.922157
O O11 0.231988 0.747282 0.000000
O O12 0.232173 0.835996 0.500000
O O13 0.000000 0.879089 0.438430
O O14 0.243296 0.000000 0.431711
O O15 0.500000 0.000000 0.911244
O O16 0.641152 0.000000 0.000000
O O17 0.000000 0.133933 0.240669
O O18 0.768246 0.000000 0.252932
O O19 0.500000 0.500000 0.642586
O O20 0.670782 0.500000 0.727006
O O21 0.500000 0.500000 0.188149
#
# Coordination Sequence:
#
# PCOD8196079 Si02
#       8
#     8   8   8   8   4   8   4   4
#     4  11  22  38  59  80 105 139 183 227 269 324
#     4  10  19  33  55  83 110 142 187 231 272 325
#     4  10  21  37  55  78 109 142 175 217 272 328
#     4   8  14  27  51  83 116 148 183 228 280 327
#     4   9  17  31  53  79 105 139 181 217 254 311
#     4  10  21  35  52  79 114 144 171 215 277 334
#     4  11  21  37  56  75 106 146 187 229 275 324
#     4   9  20  39  58  77 102 138 183 229 272 315
#
# _framework density 19.165175000000001
#
# number of rings (size 3 to 8) (size 9 to 14) (size 15 to 20)
#    0.000    2.231    1.538    2.308    1.077    4.000 
#    0.000    2.308    0.000    6.462    0.000    1.077 
#    0.000    0.000    0.000    0.000    0.000    0.000 
#
# Total GULP energy -644504.267857 kJ/mol
# GULP energy per Si atom -12394.312843 kJ/mol
# Density = 1.912155 g / cm^3
# Si number density = 19.165175 Si / 1000 Ang^3
#
#
#
# Elastic Constant Matrix: (Units=GPa)
#
#
# Indices 1 2 3 4 5 6 
#
# 1 38.1661 27.3540 25.4724 0.0000 0.0000 0.0000
# 2 27.3540 123.0295 55.9271 0.0000 0.0000 0.0000
# 3 25.4724 55.9271 119.7168 0.0000 0.0000 0.0000
# 4 0.0000 0.0000 0.0000 55.7596 0.0000 0.0000
# 5 0.0000 0.0000 0.0000 0.0000 15.2926 0.0000
# 6 0.0000 0.0000 0.0000 0.0000 0.0000 50.7189
#
#
#
# Elastic Compliance Matrix: (Units=1/GPa)
#
#
# Indices 1 2 3 4 5 6 
#
# 1 0.033023 -0.005267 -0.004566 0.000000 0.000000 0.000000
# 2 -0.005267 0.011160 -0.004093 0.000000 0.000000 0.000000
# 3 -0.004566 -0.004093 0.011237 0.000000 0.000000 0.000000
# 4 0.000000 0.000000 0.000000 0.017934 0.000000 0.000000
# 5 0.000000 0.000000 0.000000 0.000000 0.065391 0.000000
# 6 0.000000 0.000000 0.000000 0.000000 0.000000 0.019717
#
#
# Mechanical properties :
#
#
# Convention : Reuss Voigt Hill
#
# Bulk Modulus (GPa) = 36.27318 55.37994 45.82656
# Shear Modulus (GPa) = 25.57520 35.83147 30.70333
#
# Velocity S-wave (km/s) = 3.65699 4.32859 4.00689
# Velocity P-wave (km/s) = 6.06623 7.34446 6.73574
#
# Compressibility (1/GPa) = 0.02756858
#
# Stress axis : x y z
#
# Youngs Moduli (GPa) = 30.28158 89.60897 88.99530
#
# Poissons Ratio (x) = 0.47194 0.40636
# Poissons Ratio (y) = 0.15948 0.36423
# Poissons Ratio (z) = 0.13827 0.36675
#
# Static dielectric constant tensor:
#      x y z
#    x 3.270630 0.000000 0.000000 
#    y 0.000000 3.898920 0.000000 
#    z 0.000000 0.000000 3.677540 
# 
# 
# High freq. dielectric constant tensor:
#      x y z
#    x 1.720590 0.000000 0.000000 
#    y 0.000000 1.742060 0.000000 
#    z 0.000000 0.000000 1.748600 
# 
# From -- ./inp_files/33332.got.cif
#   From: 2010.03.12/outbox.cif.g09.slc.cpg/sg47_17_cif.got.tgz:33332.got - 2010.04.14 03:12:58.
