data_PCOD8196659
_publ_section_title
;
Structure prediction by ZEFSAII (Michael W. Deem and Ramdas Pophale) SiO2 
 PCOD8196659
Probable space group: P M M M
;
_chemical_formula_sum "Si O2"
_cell_formula_units_Z 44
_cell_length_a 9.314219
_cell_length_b 27.858245
_cell_length_c 9.450686
_cell_angle_alpha 90.000000
_cell_angle_beta 90.000000
_cell_angle_gamma 90.000000
_cell_volume 2452.243163
_symmetry_space_group_name_H-M "P M M M"
_symmetry_group_IT_number 47
_symmetry_cell_setting 'orthorhombic'
loop_
_space_group_symop_operation_xyz
x,y,z
-x,-y,z
x,-y,-z
-x,y,-z
-x,-y,-z
x,y,-z
-x,y,z
x,-y,z
loop_
_atom_site_type_symbol
_atom_site_label
_atom_site_fract_x
_atom_site_fract_y
_atom_site_fract_z
Si Si1 0.838622 0.552798 0.668166
Si Si2 0.666320 0.907263 0.666432
Si Si3 0.335019 0.643101 0.666949
Si Si4 0.837370 0.000000 0.668199
Si Si5 0.835396 0.280374 0.162118
Si Si6 0.163597 0.169116 0.836430
O O1 0.834983 0.553464 0.500000
O O2 0.787088 0.500000 0.721342
O O3 0.736328 0.594419 0.728446
O O4 0.000000 0.562738 0.722206
O O5 0.688319 0.900491 0.500000
O O6 0.500000 0.914674 0.704738
O O7 0.725486 0.860152 0.742000
O O8 0.754096 0.953148 0.723967
O O9 0.312024 0.647320 0.500000
O O10 0.500000 0.641172 0.709715
O O11 0.265832 0.689574 0.736336
O O12 0.837555 0.000000 0.500000
O O13 0.000000 0.000000 0.727777
O O14 0.804471 0.224747 0.191641
O O15 0.000000 0.292714 0.197041
O O16 0.800468 0.293051 0.000000
O O17 0.000000 0.156721 0.792869
O O18 0.188527 0.156331 0.000000
#
# Coordination Sequence:
#
# PCOD8196659 Si02
#       6
#     8   8   8   4   8   8
#     4   8  14  26  45  68  94 126 163 200 239 285
#     4  10  20  33  51  77 107 135 163 199 244 293
#     4  10  20  31  46  73 105 132 160 198 244 293
#     4   9  17  31  52  75 100 133 170 204 240 285
#     4   9  19  36  55  72  93 127 169 208 247 292
#     4   9  19  36  55  74  97 127 166 209 249 291
#
# _framework density 17.942757
#
# number of rings (size 3 to 8) (size 9 to 14) (size 15 to 20)
#    0.000    2.818    0.000    3.000    0.000    5.818 
#    0.000    7.727    0.000    3.273    0.000    3.818 
#    0.000    0.000    0.000    0.000    0.000    0.000 
#
# Total GULP energy -545559.378745 kJ/mol
# GULP energy per Si atom -12399.076790 kJ/mol
# Density = 1.790192 g / cm^3
# Si number density = 17.942757 Si / 1000 Ang^3
#
#
#
# Elastic Constant Matrix: (Units=GPa)
#
#
# Indices 1 2 3 4 5 6 
#
# 1 142.0325 86.7324 45.5164 0.0000 0.0000 0.0000
# 2 86.7324 120.9447 40.5134 0.0000 0.0000 0.0000
# 3 45.5164 40.5134 30.8576 0.0000 0.0000 0.0000
# 4 0.0000 0.0000 0.0000 -0.3188 0.0000 0.0000
# 5 0.0000 0.0000 0.0000 0.0000 25.3691 0.0000
# 6 0.0000 0.0000 0.0000 0.0000 0.0000 23.5985
#
#
#
# Elastic Compliance Matrix: (Units=1/GPa)
#
#
# Indices 1 2 3 4 5 6 
#
# 1 0.015587 -0.006205 -0.014845 0.000000 0.000000 0.000000
# 2 -0.006205 0.017230 -0.013468 0.000000 0.000000 0.000000
# 3 -0.014845 -0.013468 0.071986 0.000000 0.000000 0.000000
# 4 0.000000 0.000000 0.000000 -3.136277 0.000000 0.000000
# 5 0.000000 0.000000 0.000000 0.000000 0.039418 0.000000
# 6 0.000000 0.000000 0.000000 0.000000 0.000000 0.042376
#
#
# Mechanical properties :
#
#
# Convention : Reuss Voigt Hill
#
# Bulk Modulus (GPa) = 27.95898 71.03992 49.49945
# Shear Modulus (GPa) = -1.74294 17.80125 8.02916
#
# Velocity S-wave (km/s) = -0.98666 3.15320 2.11768
# Velocity P-wave (km/s) = 3.78393 7.27567 5.79886
#
# Compressibility (1/GPa) = 0.03576668
#
# Stress axis : x y z
#
# Youngs Moduli (GPa) = 64.15549 58.03949 13.89163
#
# Poissons Ratio (x) = 0.36015 0.20622
# Poissons Ratio (y) = 0.39810 0.18709
# Poissons Ratio (z) = 0.95237 0.78167
#
# Static dielectric constant tensor:
#      x y z
#    x 3.389420 0.000000 0.000000 
#    y 0.000000 3.463520 0.000000 
#    z 0.000000 0.000000 2.930790 
# 
# 
# High freq. dielectric constant tensor:
#      x y z
#    x 1.698910 0.000000 0.000000 
#    y 0.000000 1.707320 0.000000 
#    z 0.000000 0.000000 1.656950 
# 
# From -- ./inp_files/2076.got.cif
#   From: 2010.03.12/outbox.cif.g09.slc.cpg/sg47_2_cif.got.tgz:2076.got - 2010.04.14 03:12:58.
