data_PCOD8196127
_publ_section_title
;
Structure prediction by ZEFSAII (Michael W. Deem and Ramdas Pophale) SiO2 
 PCOD8196127
Probable space group: P M M M
;
_chemical_formula_sum "Si O2"
_cell_formula_units_Z 56
_cell_length_a 8.260680
_cell_length_b 15.403825
_cell_length_c 20.466179
_cell_angle_alpha 90.000000
_cell_angle_beta 90.000000
_cell_angle_gamma 90.000000
_cell_volume 2604.240827
_symmetry_space_group_name_H-M "P M M M"
_symmetry_group_IT_number 47
_symmetry_cell_setting 'orthorhombic'
loop_
_space_group_symop_operation_xyz
x,y,z
-x,-y,z
x,-y,-z
-x,y,-z
-x,-y,-z
x,y,-z
-x,y,z
x,-y,z
loop_
_atom_site_type_symbol
_atom_site_label
_atom_site_fract_x
_atom_site_fract_y
_atom_site_fract_z
Si Si1 0.179326 0.670081 0.130882
Si Si2 0.182846 0.134912 0.175465
Si Si3 0.690528 0.097315 0.681518
Si Si4 0.500000 0.405402 0.074440
Si Si5 0.313116 0.770755 0.428073
Si Si6 0.188763 0.598089 0.385806
Si Si7 0.322973 0.599812 0.747932
Si Si8 0.689524 0.000000 0.925882
O O1 0.194344 0.768388 0.150920
O O2 0.332940 0.646128 0.086414
O O3 0.189542 0.615257 0.197156
O O4 0.000000 0.651516 0.099058
O O5 0.274086 0.126012 0.244178
O O6 0.000000 0.103381 0.186583
O O7 0.259646 0.083087 0.115639
O O8 0.500000 0.094667 0.672113
O O9 0.763319 0.164866 0.627568
O O10 0.761324 0.000000 0.669735
O O11 0.500000 0.500000 0.112371
O O12 0.500000 0.428063 0.000000
O O13 0.291139 0.814233 0.500000
O O14 0.500000 0.754804 0.411759
O O15 0.229658 0.675335 0.435611
O O16 0.252558 0.500000 0.405661
O O17 0.268293 0.639684 0.320511
O O18 0.000000 0.589482 0.374857
O O19 0.500000 0.637330 0.770117
O O20 0.336197 0.500000 0.732563
O O21 0.500000 0.000000 0.934056
O O22 0.765905 0.000000 0.000000
#
# Coordination Sequence:
#
# PCOD8196127 Si02
#       8
#     8   8   8   4   8   8   8   4
#     4  11  24  40  64  95 127 167 214 267 325 386
#     4  11  24  41  64  97 133 168 209 261 322 390
#     4  10  21  38  64  93 125 165 209 261 322 393
#     4  11  26  46  66  91 127 173 222 272 325 383
#     4  10  22  39  59  86 120 162 214 269 325 387
#     4  10  21  36  55  83 120 161 206 259 320 385
#     4  10  19  33  57  89 122 156 200 256 317 377
#     4  11  25  43  67  97 128 167 208 253 315 388
#
# _framework density 21.503388000000001
#
# number of rings (size 3 to 8) (size 9 to 14) (size 15 to 20)
#    0.000    1.571    1.429    2.786    2.000    7.714 
#    0.000    5.000    0.000    0.000    0.000    2.000 
#    0.000    0.000    0.000    0.000    0.000    0.000 
#
# Total GULP energy -693788.014122 kJ/mol
# GULP energy per Si atom -12389.071681 kJ/mol
# Density = 2.145445 g / cm^3
# Si number density = 21.503388 Si / 1000 Ang^3
#
#
#
# Elastic Constant Matrix: (Units=GPa)
#
#
# Indices 1 2 3 4 5 6 
#
# 1 92.0558 43.3909 23.2195 0.0000 0.0000 0.0000
# 2 43.3909 101.8707 44.4290 0.0000 0.0000 0.0000
# 3 23.2195 44.4290 123.4143 0.0000 0.0000 0.0000
# 4 0.0000 0.0000 0.0000 28.6151 0.0000 0.0000
# 5 0.0000 0.0000 0.0000 0.0000 10.5663 0.0000
# 6 0.0000 0.0000 0.0000 0.0000 0.0000 25.9924
#
#
#
# Elastic Compliance Matrix: (Units=1/GPa)
#
#
# Indices 1 2 3 4 5 6 
#
# 1 0.013625 -0.005558 -0.000563 0.000000 0.000000 0.000000
# 2 -0.005558 0.013912 -0.003963 0.000000 0.000000 0.000000
# 3 -0.000563 -0.003963 0.009635 0.000000 0.000000 0.000000
# 4 0.000000 0.000000 0.000000 0.034947 0.000000 0.000000
# 5 0.000000 0.000000 0.000000 0.000000 0.094640 0.000000
# 6 0.000000 0.000000 0.000000 0.000000 0.000000 0.038473
#
#
# Mechanical properties :
#
#
# Convention : Reuss Voigt Hill
#
# Bulk Modulus (GPa) = 58.80423 59.93553 59.36988
# Shear Modulus (GPa) = 21.63882 26.78819 24.21350
#
# Velocity S-wave (km/s) = 3.17566 3.53337 3.35928
# Velocity P-wave (km/s) = 6.39158 6.67678 6.53574
#
# Compressibility (1/GPa) = 0.01700558
#
# Stress axis : x y z
#
# Youngs Moduli (GPa) = 73.39649 71.88065 103.78666
#
# Poissons Ratio (x) = 0.39951 0.05838
# Poissons Ratio (y) = 0.40794 0.41126
# Poissons Ratio (z) = 0.04129 0.28483
#
# Static dielectric constant tensor:
#      x y z
#    x 4.141220 0.000000 0.000000 
#    y 0.000000 3.993090 0.000000 
#    z 0.000000 0.000000 3.902340 
# 
# 
# High freq. dielectric constant tensor:
#      x y z
#    x 1.839190 0.000000 0.000000 
#    y 0.000000 1.849700 0.000000 
#    z 0.000000 0.000000 1.841360 
# 
# From -- ./inp_files/29733.got.cif
#   From: 2010.03.12/outbox.cif.g09.slc.cpg/sg47_15_cif.got.tgz:29733.got - 2010.04.14 03:12:58.
