data_PCOD8196458
_publ_section_title
;
Structure prediction by ZEFSAII (Michael W. Deem and Ramdas Pophale) SiO2 
 PCOD8196458
Probable space group: P M M M
;
_chemical_formula_sum "Si O2"
_cell_formula_units_Z 64
_cell_length_a 23.440837
_cell_length_b 19.298987
_cell_length_c 9.485195
_cell_angle_alpha 90.000000
_cell_angle_beta 90.000000
_cell_angle_gamma 90.000000
_cell_volume 4290.954330
_symmetry_space_group_name_H-M "P M M M"
_symmetry_group_IT_number 47
_symmetry_cell_setting 'orthorhombic'
loop_
_space_group_symop_operation_xyz
x,y,z
-x,-y,z
x,-y,-z
-x,y,-z
-x,-y,-z
x,y,-z
-x,y,z
x,-y,z
loop_
_atom_site_type_symbol
_atom_site_label
_atom_site_fract_x
_atom_site_fract_y
_atom_site_fract_z
Si Si1 0.774378 0.423658 0.333294
Si Si2 0.660400 0.651980 0.666876
Si Si3 0.759516 0.924494 0.664623
Si Si4 0.273195 0.780201 0.334600
Si Si5 0.565693 0.420831 0.162597
Si Si6 0.934750 0.215081 0.164330
Si Si7 0.159063 0.708434 0.333256
Si Si8 0.873265 0.076808 0.161331
O O1 0.772841 0.427623 0.500000
O O2 0.786316 0.500000 0.268063
O O3 0.712237 0.397381 0.283584
O O4 0.824392 0.370398 0.288989
O O5 0.650056 0.648098 0.500000
O O6 0.676279 0.730257 0.720399
O O7 0.602680 0.630371 0.742868
O O8 0.773808 0.919881 0.500000
O O9 0.716612 0.861301 0.706136
O O10 0.818306 0.913174 0.743273
O O11 0.732332 0.000000 0.702244
O O12 0.271526 0.767565 0.500000
O O13 0.210789 0.757324 0.279594
O O14 0.500000 0.401681 0.188637
O O15 0.577310 0.500000 0.207890
O O16 0.581957 0.410191 0.000000
O O17 0.897868 0.269733 0.252460
O O18 0.919046 0.135430 0.201676
O O19 0.000000 0.226496 0.207866
O O20 0.924748 0.229917 0.000000
O O21 0.148333 0.715005 0.500000
O O22 0.900095 0.000000 0.186251
O O23 0.853434 0.084996 0.000000
#
# Coordination Sequence:
#
# PCOD8196458 Si02
#       8
#     8   8   8   8   8   8   8   8
#     4   8  14  25  43  66  87 105 127 162 207 246
#     4   9  16  26  43  65  87 111 140 173 203 235
#     4   9  15  24  41  61  82 110 137 159 192 242
#     4   8  14  25  40  61  87 108 130 166 207 239
#     4   9  18  31  43  57  85 122 150 173 203 236
#     4  10  20  31  42  57  78 103 131 166 205 244
#     4   9  16  28  45  61  79 103 130 161 200 246
#     4   9  17  28  41  57  77 102 133 166 197 233
#
# _framework density 14.915096999999999
#
# number of rings (size 3 to 8) (size 9 to 14) (size 15 to 20)
#    0.000    3.125    1.250    2.250    0.000    1.500 
#    0.000    5.000    0.000    1.500    0.000    5.250 
#    0.000    0.500    0.000    6.250    0.000    1.000 
#
# Total GULP energy -792994.282385 kJ/mol
# GULP energy per Si atom -12390.535662 kJ/mol
# Density = 1.488115 g / cm^3
# Si number density = 14.915097 Si / 1000 Ang^3
#
#
#
# Elastic Constant Matrix: (Units=GPa)
#
#
# Indices 1 2 3 4 5 6 
#
# 1 81.5336 61.0675 33.7559 0.0000 0.0000 0.0000
# 2 61.0675 136.7151 35.5287 0.0000 0.0000 0.0000
# 3 33.7559 35.5287 33.1034 0.0000 0.0000 0.0000
# 4 0.0000 0.0000 0.0000 17.5374 0.0000 0.0000
# 5 0.0000 0.0000 0.0000 0.0000 5.7540 0.0000
# 6 0.0000 0.0000 0.0000 0.0000 0.0000 24.4642
#
#
#
# Elastic Compliance Matrix: (Units=1/GPa)
#
#
# Indices 1 2 3 4 5 6 
#
# 1 0.024477 -0.006167 -0.018341 0.000000 0.000000 0.000000
# 2 -0.006167 0.011698 -0.006266 0.000000 0.000000 0.000000
# 3 -0.018341 -0.006266 0.055636 0.000000 0.000000 0.000000
# 4 0.000000 0.000000 0.000000 0.057021 0.000000 0.000000
# 5 0.000000 0.000000 0.000000 0.000000 0.173791 0.000000
# 6 0.000000 0.000000 0.000000 0.000000 0.000000 0.040876
#
#
# Mechanical properties :
#
#
# Convention : Reuss Voigt Hill
#
# Bulk Modulus (GPa) = 33.04378 56.89515 44.96947
# Shear Modulus (GPa) = 11.49072 17.61779 14.55426
#
# Velocity S-wave (km/s) = 2.77864 3.44060 3.12718
# Velocity P-wave (km/s) = 5.70062 7.34931 6.57684
#
# Compressibility (1/GPa) = 0.03026288
#
# Stress axis : x y z
#
# Youngs Moduli (GPa) = 40.85412 85.48809 17.97408
#
# Poissons Ratio (x) = 0.52722 0.32966
# Poissons Ratio (y) = 0.25195 0.11262
# Poissons Ratio (z) = 0.74930 0.53565
#
# Static dielectric constant tensor:
#      x y z
#    x 2.624160 0.000000 0.000000 
#    y 0.000000 3.327080 0.000000 
#    z 0.000000 0.000000 2.660450 
# 
# 
# High freq. dielectric constant tensor:
#      x y z
#    x 1.534940 0.000000 0.000000 
#    y 0.000000 1.580190 0.000000 
#    z 0.000000 0.000000 1.550350 
# 
# From -- ./inp_files/12957.got.cif
#   From: 2010.03.12/outbox.cif.g09.slc.cpg/sg47_7_cif.got.tgz:12957.got - 2010.04.14 03:12:58.
