data_PCOD8196162
_publ_section_title
;
Structure prediction by ZEFSAII (Michael W. Deem and Ramdas Pophale) SiO2 
 PCOD8196162
Probable space group: P M M M
;
_chemical_formula_sum "Si O2"
_cell_formula_units_Z 60
_cell_length_a 17.726044
_cell_length_b 9.682888
_cell_length_c 20.122201
_cell_angle_alpha 90.000000
_cell_angle_beta 90.000000
_cell_angle_gamma 90.000000
_cell_volume 3453.760469
_symmetry_space_group_name_H-M "P M M M"
_symmetry_group_IT_number 47
_symmetry_cell_setting 'orthorhombic'
loop_
_space_group_symop_operation_xyz
x,y,z
-x,-y,z
x,-y,-z
-x,y,-z
-x,-y,-z
x,y,-z
-x,y,z
x,-y,z
loop_
_atom_site_type_symbol
_atom_site_label
_atom_site_fract_x
_atom_site_fract_y
_atom_site_fract_z
Si Si1 0.222220 0.840781 0.426593
Si Si2 0.840461 0.346213 0.897172
Si Si3 0.085084 0.659736 0.383104
Si Si4 0.292245 0.839697 0.707914
Si Si5 0.413233 0.160715 0.187205
Si Si6 0.161452 0.652527 0.749498
Si Si7 0.332900 0.339788 0.922735
Si Si8 0.911860 0.847766 0.000000
O O1 0.257547 0.816302 0.500000
O O2 0.146130 0.751048 0.421713
O O3 0.285249 0.799187 0.370875
O O4 0.198476 0.000000 0.417122
O O5 0.852702 0.500000 0.927147
O O6 0.872994 0.339992 0.822782
O O7 0.752503 0.308850 0.901554
O O8 0.887677 0.233483 0.935173
O O9 0.097083 0.500000 0.403138
O O10 0.096128 0.681974 0.304040
O O11 0.000000 0.706646 0.401491
O O12 0.370970 0.799134 0.743369
O O13 0.227265 0.763003 0.747267
O O14 0.276630 0.000000 0.716880
O O15 0.500000 0.194927 0.200689
O O16 0.386135 0.248077 0.123901
O O17 0.400395 0.000000 0.170090
O O18 0.196453 0.500000 0.736690
O O19 0.353119 0.500000 0.911193
O O20 0.345451 0.299229 0.000000
O O21 0.000000 0.862792 0.000000
O O22 0.874473 0.000000 0.000000
#
# Coordination Sequence:
#
# PCOD8196162 Si02
#       8
#     8   8   8   8   8   8   8   4
#     4   9  18  32  50  72  97 129 170 209 245 291
#     4  10  19  34  55  75  95 126 167 211 256 305
#     4   9  18  31  46  69 101 131 160 199 249 299
#     4   9  17  31  51  73  99 131 164 201 245 292
#     4  10  21  35  52  77 106 134 165 202 248 302
#     4   9  17  30  51  74  94 120 161 208 248 294
#     4  10  20  35  54  77 104 132 168 208 248 298
#     4  11  25  39  49  69 100 131 168 213 257 302
#
# _framework density 17.372368999999999
#
# number of rings (size 3 to 8) (size 9 to 14) (size 15 to 20)
#    0.000    2.467    2.000    0.200    0.000    3.733 
#    0.000    4.000    0.000    0.400    0.000    2.800 
#    0.000    0.000    0.000    7.867    0.000    8.267 
#
# Total GULP energy -743630.203253 kJ/mol
# GULP energy per Si atom -12393.836721 kJ/mol
# Density = 1.733283 g / cm^3
# Si number density = 17.372369 Si / 1000 Ang^3
#
#
#
# Elastic Constant Matrix: (Units=GPa)
#
#
# Indices 1 2 3 4 5 6 
#
# 1 67.8390 34.6863 38.6789 0.0000 0.0000 0.0000
# 2 34.6863 61.5084 40.8659 0.0000 0.0000 0.0000
# 3 38.6789 40.8659 122.1714 0.0000 0.0000 0.0000
# 4 0.0000 0.0000 0.0000 27.3883 0.0000 0.0000
# 5 0.0000 0.0000 0.0000 0.0000 19.8287 0.0000
# 6 0.0000 0.0000 0.0000 0.0000 0.0000 21.0459
#
#
#
# Elastic Compliance Matrix: (Units=1/GPa)
#
#
# Indices 1 2 3 4 5 6 
#
# 1 0.021879 -0.009946 -0.003600 0.000000 0.000000 0.000000
# 2 -0.009946 0.025425 -0.005356 0.000000 0.000000 0.000000
# 3 -0.003600 -0.005356 0.011116 0.000000 0.000000 0.000000
# 4 0.000000 0.000000 0.000000 0.036512 0.000000 0.000000
# 5 0.000000 0.000000 0.000000 0.000000 0.050432 0.000000
# 6 0.000000 0.000000 0.000000 0.000000 0.000000 0.047515
#
#
# Mechanical properties :
#
#
# Convention : Reuss Voigt Hill
#
# Bulk Modulus (GPa) = 48.50409 53.33123 50.91766
# Shear Modulus (GPa) = 21.04771 22.80510 21.92641
#
# Velocity S-wave (km/s) = 3.48453 3.62708 3.55652
# Velocity P-wave (km/s) = 6.64606 6.95029 6.79987
#
# Compressibility (1/GPa) = 0.02061682
#
# Stress axis : x y z
#
# Youngs Moduli (GPa) = 45.70627 39.33083 89.95786
#
# Poissons Ratio (x) = 0.39120 0.32382
# Poissons Ratio (y) = 0.45462 0.48179
# Poissons Ratio (z) = 0.16453 0.21064
#
# Static dielectric constant tensor:
#      x y z
#    x 3.045540 0.000000 0.000000 
#    y 0.000000 3.336670 0.000000 
#    z 0.000000 0.000000 3.396770 
# 
# 
# High freq. dielectric constant tensor:
#      x y z
#    x 1.640860 0.000000 0.000000 
#    y 0.000000 1.674340 0.000000 
#    z 0.000000 0.000000 1.681020 
# 
# From -- ./inp_files/31329.got.cif
#   From: 2010.03.12/outbox.cif.g09.slc.cpg/sg47_16_cif.got.tgz:31329.got - 2010.04.14 03:12:58.
