data_PCOD8196811
_publ_section_title
;
Structure prediction by ZEFSAII (Michael W. Deem and Ramdas Pophale) SiO2 
 PCOD8196811
Probable space group: P M M M
;
_chemical_formula_sum "Si O2"
_cell_formula_units_Z 52
_cell_length_a 23.568905
_cell_length_b 9.466722
_cell_length_c 13.980020
_cell_angle_alpha 90.000000
_cell_angle_beta 90.000000
_cell_angle_gamma 90.000000
_cell_volume 3119.225858
_symmetry_space_group_name_H-M "P M M M"
_symmetry_group_IT_number 47
_symmetry_cell_setting 'orthorhombic'
loop_
_space_group_symop_operation_xyz
x,y,z
-x,-y,z
x,-y,-z
-x,y,-z
-x,-y,-z
x,y,-z
-x,y,z
x,-y,z
loop_
_atom_site_type_symbol
_atom_site_label
_atom_site_fract_x
_atom_site_fract_y
_atom_site_fract_z
Si Si1 0.062314 0.659297 0.113703
Si Si2 0.833311 0.835950 0.889537
Si Si3 0.607837 0.836730 0.887902
Si Si4 0.500000 0.337264 0.113608
Si Si5 0.559651 0.342236 0.613498
Si Si6 0.317791 0.331866 0.609598
Si Si7 0.721766 0.834564 0.777543
O O1 0.073518 0.500000 0.148380
O O2 0.112237 0.756875 0.155826
O O3 0.000000 0.710031 0.150261
O O4 0.063002 0.667696 0.000000
O O5 0.776480 0.786834 0.836925
O O6 0.844906 0.000000 0.875285
O O7 0.824901 0.796350 0.000000
O O8 0.556620 0.739991 0.846265
O O9 0.666075 0.791920 0.837143
O O10 0.592493 0.000000 0.868310
O O11 0.616634 0.809397 0.000000
O O12 0.500000 0.500000 0.146313
O O13 0.500000 0.321956 0.000000
O O14 0.559444 0.350918 0.500000
O O15 0.500000 0.267098 0.648733
O O16 0.559172 0.500000 0.655646
O O17 0.619535 0.270710 0.641493
O O18 0.303759 0.292642 0.500000
O O19 0.314770 0.500000 0.623906
O O20 0.274243 0.251506 0.678227
O O21 0.722672 0.000000 0.754831
#
# Coordination Sequence:
#
# PCOD8196811 Si02
#       7
#     8   8   8   4   8   8   8
#     4   8  14  25  41  63  93 127 158 185 216 255
#     4   9  17  29  45  66  93 124 158 192 221 254
#     4   9  17  31  49  64  83 116 151 180 219 273
#     4   9  17  29  45  65  86 107 140 189 233 264
#     4   7  10  20  40  61  77  95 123 161 207 262
#     4   9  18  32  48  65  86 113 146 183 225 277
#     4  10  20  32  46  66  90 117 150 188 227 267
#
# _framework density 16.670801999999998
#
# number of rings (size 3 to 8) (size 9 to 14) (size 15 to 20)
#    0.000    3.308    0.000    2.538    0.000    4.615 
#    1.385    1.538    0.000    4.615    0.000    2.154 
#    0.000    0.615    0.000    6.769    0.000    5.231 
#
# Total GULP energy -644264.141755 kJ/mol
# GULP energy per Si atom -12389.695034 kJ/mol
# Density = 1.663286 g / cm^3
# Si number density = 16.670802 Si / 1000 Ang^3
#
#
#
# Elastic Constant Matrix: (Units=GPa)
#
#
# Indices 1 2 3 4 5 6 
#
# 1 150.1308 64.1992 49.2145 0.0000 0.0000 0.0000
# 2 64.1992 57.7464 32.2005 0.0000 0.0000 0.0000
# 3 49.2145 32.2005 47.7225 0.0000 0.0000 0.0000
# 4 0.0000 0.0000 0.0000 18.7827 0.0000 0.0000
# 5 0.0000 0.0000 0.0000 0.0000 11.3899 0.0000
# 6 0.0000 0.0000 0.0000 0.0000 0.0000 25.4666
#
#
#
# Elastic Compliance Matrix: (Units=1/GPa)
#
#
# Indices 1 2 3 4 5 6 
#
# 1 0.013753 -0.011833 -0.006198 0.000000 0.000000 0.000000
# 2 -0.011833 0.037945 -0.013400 0.000000 0.000000 0.000000
# 3 -0.006198 -0.013400 0.036388 0.000000 0.000000 0.000000
# 4 0.000000 0.000000 0.000000 0.053241 0.000000 0.000000
# 5 0.000000 0.000000 0.000000 0.000000 0.087797 0.000000
# 6 0.000000 0.000000 0.000000 0.000000 0.000000 0.039267
#
#
# Mechanical properties :
#
#
# Convention : Reuss Voigt Hill
#
# Bulk Modulus (GPa) = 39.64671 60.75868 50.20269
# Shear Modulus (GPa) = 14.72056 18.46021 16.59039
#
# Velocity S-wave (km/s) = 2.97478 3.33128 3.15806
# Velocity P-wave (km/s) = 5.96933 7.16393 6.59374
#
# Compressibility (1/GPa) = 0.02522277
#
# Stress axis : x y z
#
# Youngs Moduli (GPa) = 72.71138 26.35405 27.48162
#
# Poissons Ratio (x) = 0.31186 0.17034
# Poissons Ratio (y) = 0.86043 0.36824
# Poissons Ratio (z) = 0.45069 0.35313
#
# Static dielectric constant tensor:
#      x y z
#    x 3.462430 0.000000 0.000000 
#    y 0.000000 2.966520 0.000000 
#    z 0.000000 0.000000 2.834790 
# 
# 
# High freq. dielectric constant tensor:
#      x y z
#    x 1.638300 0.000000 0.000000 
#    y 0.000000 1.622650 0.000000 
#    z 0.000000 0.000000 1.612000 
# 
# From -- ./inp_files/25055.got.cif
#   From: 2010.03.12/outbox.cif.g09.slc.cpg/sg47_13_cif.got.tgz:25055.got - 2010.04.14 03:12:58.
