data_PCOD8196316
_publ_section_title
;
Structure prediction by ZEFSAII (Michael W. Deem and Ramdas Pophale) SiO2 
 PCOD8196316
Probable space group: P M M M
;
_chemical_formula_sum "Si O2"
_cell_formula_units_Z 48
_cell_length_a 9.010158
_cell_length_b 10.132289
_cell_length_c 29.661408
_cell_angle_alpha 90.000000
_cell_angle_beta 90.000000
_cell_angle_gamma 90.000000
_cell_volume 2707.894487
_symmetry_space_group_name_H-M "P M M M"
_symmetry_group_IT_number 47
_symmetry_cell_setting 'orthorhombic'
loop_
_space_group_symop_operation_xyz
x,y,z
-x,-y,z
x,-y,-z
-x,y,-z
-x,-y,-z
x,y,-z
-x,y,z
x,-y,z
loop_
_atom_site_type_symbol
_atom_site_label
_atom_site_fract_x
_atom_site_fract_y
_atom_site_fract_z
Si Si1 0.334444 0.656385 0.047661
Si Si2 0.668577 0.848861 0.305239
Si Si3 0.676367 0.000000 0.449684
Si Si4 0.175530 0.500000 0.448469
Si Si5 0.173829 0.151723 0.785800
Si Si6 0.673673 0.740825 0.599495
Si Si7 0.677331 0.349005 0.145011
O O1 0.500000 0.715518 0.046231
O O2 0.344480 0.500000 0.048929
O O3 0.260019 0.698011 0.095383
O O4 0.253599 0.700585 0.000000
O O5 0.500000 0.827702 0.288453
O O6 0.778434 0.811628 0.264853
O O7 0.703604 0.752859 0.347054
O O8 0.690712 0.000000 0.321163
O O9 0.735134 0.128282 0.424245
O O10 0.500000 0.000000 0.449578
O O11 0.741303 0.000000 0.500000
O O12 0.235759 0.500000 0.500000
O O13 0.232830 0.624470 0.421301
O O14 0.000000 0.500000 0.448314
O O15 0.256509 0.249424 0.819173
O O16 0.000000 0.174196 0.790577
O O17 0.218076 0.000000 0.796601
O O18 0.500000 0.717615 0.589824
O O19 0.500000 0.339961 0.145459
O O20 0.726671 0.500000 0.155737
#
# Coordination Sequence:
#
# PCOD8196316 Si02
#       7
#     8   8   4   4   8   8   8
#     4   7  10  19  39  68  99 127 157 200 254 305
#     4   9  17  33  57  82 104 125 161 213 262 305
#     4   9  16  28  53  87 111 125 155 207 256 297
#     4  11  25  41  53  73 111 151 179 203 238 291
#     4  10  21  35  51  72 100 137 176 208 248 304
#     4  10  19  35  59  84 105 131 168 210 255 301
#     4   9  17  30  50  77 104 130 166 212 259 303
#
# _framework density 17.725949
#
# number of rings (size 3 to 8) (size 9 to 14) (size 15 to 20)
#    0.000    2.833    0.833    2.750    0.000    3.333 
#    1.500    0.417    0.000    2.500    0.000    5.833 
#    0.000    0.000    0.000    0.000    0.000    0.000 
#
# Total GULP energy -594718.252309 kJ/mol
# GULP energy per Si atom -12389.963590 kJ/mol
# Density = 1.768560 g / cm^3
# Si number density = 17.725949 Si / 1000 Ang^3
#
#
#
# Elastic Constant Matrix: (Units=GPa)
#
#
# Indices 1 2 3 4 5 6 
#
# 1 39.4581 34.2075 38.2947 0.0000 0.0000 0.0000
# 2 34.2075 99.4071 69.5650 0.0000 0.0000 0.0000
# 3 38.2947 69.5650 139.5895 0.0000 0.0000 0.0000
# 4 0.0000 0.0000 0.0000 26.2370 0.0000 0.0000
# 5 0.0000 0.0000 0.0000 0.0000 5.3304 0.0000
# 6 0.0000 0.0000 0.0000 0.0000 0.0000 -20.6813
#
#
#
# Elastic Compliance Matrix: (Units=1/GPa)
#
#
# Indices 1 2 3 4 5 6 
#
# 1 0.039340 -0.009190 -0.006213 0.000000 0.000000 0.000000
# 2 -0.009190 0.017593 -0.006247 0.000000 0.000000 0.000000
# 3 -0.006213 -0.006247 0.011981 0.000000 0.000000 0.000000
# 4 0.000000 0.000000 0.000000 0.038114 0.000000 0.000000
# 5 0.000000 0.000000 0.000000 0.000000 0.187604 0.000000
# 6 0.000000 0.000000 0.000000 0.000000 0.000000 -0.048353
#
#
# Mechanical properties :
#
#
# Convention : Reuss Voigt Hill
#
# Bulk Modulus (GPa) = 39.03771 62.50990 50.77381
# Shear Modulus (GPa) = 16.77198 11.26972 14.02085
#
# Velocity S-wave (km/s) = 3.07934 2.52419 2.81549
# Velocity P-wave (km/s) = 5.89185 6.62092 6.26700
#
# Compressibility (1/GPa) = 0.02561626
#
# Stress axis : x y z
#
# Youngs Moduli (GPa) = 25.41964 56.83955 83.46381
#
# Poissons Ratio (x) = 0.52234 0.51853
# Poissons Ratio (y) = 0.23360 0.52137
# Poissons Ratio (z) = 0.15792 0.35506
#
# Static dielectric constant tensor:
#      x y z
#    x 2.961640 0.000000 0.000000 
#    y 0.000000 2.960600 0.000000 
#    z 0.000000 0.000000 3.766880 
# 
# 
# High freq. dielectric constant tensor:
#      x y z
#    x 1.649830 0.000000 0.000000 
#    y 0.000000 1.661580 0.000000 
#    z 0.000000 0.000000 1.707840 
# 
# From -- ./inp_files/34164.got.cif
#   From: 2010.03.12/outbox.cif.g09.slc.cpg/sg47_18_cif.got.tgz:34164.got - 2010.04.14 03:12:58.
