data_PCOD8196404
_publ_section_title
;
Structure prediction by ZEFSAII (Michael W. Deem and Ramdas Pophale) SiO2 
 PCOD8196404
Probable space group: P M M M
;
_chemical_formula_sum "Si O2"
_cell_formula_units_Z 44
_cell_length_a 9.060420
_cell_length_b 15.394816
_cell_length_c 23.064981
_cell_angle_alpha 90.000000
_cell_angle_beta 90.000000
_cell_angle_gamma 90.000000
_cell_volume 3217.184249
_symmetry_space_group_name_H-M "P M M M"
_symmetry_group_IT_number 47
_symmetry_cell_setting 'orthorhombic'
loop_
_space_group_symop_operation_xyz
x,y,z
-x,-y,z
x,-y,-z
-x,y,-z
-x,-y,-z
x,y,-z
-x,y,z
x,-y,z
loop_
_atom_site_type_symbol
_atom_site_label
_atom_site_fract_x
_atom_site_fract_y
_atom_site_fract_z
Si Si1 0.671203 0.398078 0.158050
Si Si2 0.833237 0.603539 0.500000
Si Si3 0.166650 0.603401 0.726843
Si Si4 0.824987 0.720412 0.067199
Si Si5 0.666820 0.603599 0.386378
Si Si6 0.834335 0.091818 0.931194
O O1 0.500000 0.374987 0.163065
O O2 0.697562 0.500000 0.150223
O O3 0.750300 0.362962 0.215954
O O4 0.740753 0.352829 0.102402
O O5 0.833144 0.500000 0.500000
O O6 0.750044 0.639187 0.443203
O O7 0.000000 0.639251 0.500000
O O8 0.167451 0.500000 0.725211
O O9 0.250276 0.640048 0.670347
O O10 0.000000 0.639425 0.727099
O O11 0.764214 0.815993 0.088760
O O12 0.000000 0.713667 0.077648
O O13 0.787170 0.704968 0.000000
O O14 0.500000 0.639131 0.386575
O O15 0.667254 0.500000 0.386149
O O16 0.000000 0.088363 0.906813
O O17 0.754348 0.000000 0.911571
O O18 0.839792 0.095347 0.000000
#
# Coordination Sequence:
#
# PCOD8196404 Si02
#       6
#     8   4   8   8   8   8
#     4  10  20  31  40  50  67  93 123 153 185 219
#     4   9  15  21  29  43  63  85 109 137 170 207
#     4   9  16  26  39  51  62  80 110 147 182 214
#     4   9  17  28  42  59  75  91 114 145 180 217
#     4   9  15  22  32  46  64  84 106 135 174 216
#     4   7  10  19  37  59  78  92 107 131 166 209
#
# _framework density 13.676556
#
# number of rings (size 3 to 8) (size 9 to 14) (size 15 to 20)
#    0.000    3.182    0.000    3.545    0.000    7.273 
#    0.000    1.818    0.000    0.545    0.000    2.545 
#    0.000    0.000    0.000    0.000    0.000    0.000 
#
# Total GULP energy -545097.141475 kJ/mol
# GULP energy per Si atom -12388.571397 kJ/mol
# Density = 1.364543 g / cm^3
# Si number density = 13.676556 Si / 1000 Ang^3
#
#
#
# Elastic Constant Matrix: (Units=GPa)
#
#
# Indices 1 2 3 4 5 6 
#
# 1 100.1471 27.4322 59.2989 0.0000 0.0000 0.0000
# 2 27.4322 31.4996 33.1157 0.0000 0.0000 0.0000
# 3 59.2989 33.1157 97.9509 0.0000 0.0000 0.0000
# 4 0.0000 0.0000 0.0000 0.3056 0.0000 0.0000
# 5 0.0000 0.0000 0.0000 0.0000 23.2664 0.0000
# 6 0.0000 0.0000 0.0000 0.0000 0.0000 5.3760
#
#
#
# Elastic Compliance Matrix: (Units=1/GPa)
#
#
# Indices 1 2 3 4 5 6 
#
# 1 0.016244 -0.005908 -0.007837 0.000000 0.000000 0.000000
# 2 -0.005908 0.051401 -0.013801 0.000000 0.000000 0.000000
# 3 -0.007837 -0.013801 0.019619 0.000000 0.000000 0.000000
# 4 0.000000 0.000000 0.000000 3.272412 0.000000 0.000000
# 5 0.000000 0.000000 0.000000 0.000000 0.042980 0.000000
# 6 0.000000 0.000000 0.000000 0.000000 0.000000 0.186013
#
#
# Mechanical properties :
#
#
# Convention : Reuss Voigt Hill
#
# Bulk Modulus (GPa) = 31.08221 52.14348 41.61285
# Shear Modulus (GPa) = 1.36818 13.10631 7.23725
#
# Velocity S-wave (km/s) = 1.00128 3.09901 2.30287
# Velocity P-wave (km/s) = 4.91047 7.14241 6.12890
#
# Compressibility (1/GPa) = 0.03217274
#
# Stress axis : x y z
#
# Youngs Moduli (GPa) = 61.56232 19.45499 50.96984
#
# Poissons Ratio (x) = 0.11493 0.39943
# Poissons Ratio (y) = 0.36369 0.70345
# Poissons Ratio (z) = 0.48244 0.26851
#
# Static dielectric constant tensor:
#      x y z
#    x 2.724650 0.000000 0.000000 
#    y 0.000000 2.545350 0.000000 
#    z 0.000000 0.000000 2.692040 
# 
# 
# High freq. dielectric constant tensor:
#      x y z
#    x 1.520300 0.000000 0.000000 
#    y 0.000000 1.464280 0.000000 
#    z 0.000000 0.000000 1.511140 
# 
# From -- ./inp_files/12420.got.cif
#   From: 2010.03.12/outbox.cif.g09.slc.cpg/sg47_7_cif.got.tgz:12420.got - 2010.04.14 03:12:58.
