data_PCOD8196299
_publ_section_title
;
Structure prediction by ZEFSAII (Michael W. Deem and Ramdas Pophale) SiO2 
 PCOD8196299
Probable space group: P M M M
;
_chemical_formula_sum "Si O2"
_cell_formula_units_Z 48
_cell_length_a 15.540756
_cell_length_b 17.599019
_cell_length_c 9.164038
_cell_angle_alpha 90.000000
_cell_angle_beta 90.000000
_cell_angle_gamma 90.000000
_cell_volume 2506.383272
_symmetry_space_group_name_H-M "P M M M"
_symmetry_group_IT_number 47
_symmetry_cell_setting 'orthorhombic'
loop_
_space_group_symop_operation_xyz
x,y,z
-x,-y,z
x,-y,-z
-x,y,-z
-x,-y,-z
x,y,-z
-x,y,z
x,-y,z
loop_
_atom_site_type_symbol
_atom_site_label
_atom_site_fract_x
_atom_site_fract_y
_atom_site_fract_z
Si Si1 0.362994 0.317944 0.329524
Si Si2 0.500000 0.410456 0.165371
Si Si3 0.902725 0.500000 0.674153
Si Si4 0.097492 0.186534 0.671350
Si Si5 0.828952 0.343504 0.327648
Si Si6 0.240075 0.912191 0.167767
Si Si7 0.403125 0.853573 0.669167
O O1 0.370669 0.336146 0.500000
O O2 0.415108 0.381133 0.244152
O O3 0.265813 0.322823 0.272202
O O4 0.399546 0.235257 0.292888
O O5 0.500000 0.500000 0.174883
O O6 0.500000 0.381125 0.000000
O O7 0.897489 0.500000 0.500000
O O8 0.858492 0.575903 0.740034
O O9 0.000000 0.500000 0.728693
O O10 0.116711 0.177929 0.500000
O O11 0.108817 0.274430 0.719903
O O12 0.164969 0.134170 0.754134
O O13 0.000000 0.161552 0.709317
O O14 0.830552 0.351629 0.500000
O O15 0.333993 0.899021 0.236579
O O16 0.216075 0.000000 0.184254
O O17 0.244019 0.886880 0.000000
O O18 0.380493 0.866848 0.500000
O O19 0.500000 0.882738 0.704475
#
# Coordination Sequence:
#
# PCOD8196299 Si02
#       7
#     8   4   4   8   8   8   8
#     4  10  19  35  58  82 110 145 190 240 284 334
#     4  11  25  39  51  77 118 157 196 239 287 342
#     4   9  16  26  44  77 117 146 172 217 277 331
#     4  10  20  37  62  88 116 153 197 245 293 343
#     4   9  17  30  51  82 115 146 182 228 281 335
#     4  11  25  42  59  84 120 157 192 237 293 354
#     4  10  20  38  63  89 115 146 188 239 293 347
#
# _framework density 19.151101000000001
#
# number of rings (size 3 to 8) (size 9 to 14) (size 15 to 20)
#    0.000    2.000    2.500    1.250    1.167    6.000 
#    0.000    3.333    0.000    0.000    0.000    0.000 
#    0.000    2.667    0.000    0.000    0.000    0.000 
#
# Total GULP energy -595204.080413 kJ/mol
# GULP energy per Si atom -12400.085009 kJ/mol
# Density = 1.910751 g / cm^3
# Si number density = 19.151101 Si / 1000 Ang^3
#
#
#
# Elastic Constant Matrix: (Units=GPa)
#
#
# Indices 1 2 3 4 5 6 
#
# 1 142.4646 53.8935 49.5927 0.0000 0.0000 0.0000
# 2 53.8935 95.9024 43.1335 0.0000 0.0000 0.0000
# 3 49.5927 43.1335 64.6941 0.0000 0.0000 0.0000
# 4 0.0000 0.0000 0.0000 16.9811 0.0000 0.0000
# 5 0.0000 0.0000 0.0000 0.0000 2.9335 0.0000
# 6 0.0000 0.0000 0.0000 0.0000 0.0000 48.7616
#
#
#
# Elastic Compliance Matrix: (Units=1/GPa)
#
#
# Indices 1 2 3 4 5 6 
#
# 1 0.010205 -0.003166 -0.005712 0.000000 0.000000 0.000000
# 2 -0.003166 0.015875 -0.008158 0.000000 0.000000 0.000000
# 3 -0.005712 -0.008158 0.025275 0.000000 0.000000 0.000000
# 4 0.000000 0.000000 0.000000 0.058889 0.000000 0.000000
# 5 0.000000 0.000000 0.000000 0.000000 0.340885 0.000000
# 6 0.000000 0.000000 0.000000 0.000000 0.000000 0.020508
#
#
# Mechanical properties :
#
#
# Convention : Reuss Voigt Hill
#
# Bulk Modulus (GPa) = 57.85650 66.25561 62.05605
# Shear Modulus (GPa) = 9.77571 24.16468 16.97020
#
# Velocity S-wave (km/s) = 2.26177 3.55602 2.98001
# Velocity P-wave (km/s) = 6.09072 7.17856 6.65690
#
# Compressibility (1/GPa) = 0.01728414
#
# Stress axis : x y z
#
# Youngs Moduli (GPa) = 97.98698 62.99044 39.56408
#
# Poissons Ratio (x) = 0.19942 0.22601
# Poissons Ratio (y) = 0.31021 0.32276
# Poissons Ratio (z) = 0.55975 0.51386
#
# Static dielectric constant tensor:
#      x y z
#    x 3.686570 0.000000 0.000000 
#    y 0.000000 3.570860 0.000000 
#    z 0.000000 0.000000 3.234030 
# 
# 
# High freq. dielectric constant tensor:
#      x y z
#    x 1.760620 0.000000 0.000000 
#    y 0.000000 1.750200 0.000000 
#    z 0.000000 0.000000 1.707230 
# 
# From -- ./inp_files/6481.got.cif
#   From: 2010.03.12/outbox.cif.g09.slc.cpg/sg47_4_cif.got.tgz:6481.got - 2010.04.14 03:12:58.
