data_PCOD8196181
_publ_section_title
;
Structure prediction by ZEFSAII (Michael W. Deem and Ramdas Pophale) SiO2 
 PCOD8196181
Probable space group: P M M M
;
_chemical_formula_sum "Si O2"
_cell_formula_units_Z 52
_cell_length_a 21.553287
_cell_length_b 13.995569
_cell_length_c 9.277297
_cell_angle_alpha 90.000000
_cell_angle_beta 90.000000
_cell_angle_gamma 90.000000
_cell_volume 2798.501421
_symmetry_space_group_name_H-M "P M M M"
_symmetry_group_IT_number 47
_symmetry_cell_setting 'orthorhombic'
loop_
_space_group_symop_operation_xyz
x,y,z
-x,-y,z
x,-y,-z
-x,y,-z
-x,-y,-z
x,y,-z
-x,y,z
x,-y,z
loop_
_atom_site_type_symbol
_atom_site_label
_atom_site_fract_x
_atom_site_fract_y
_atom_site_fract_z
Si Si1 0.569161 0.897985 0.329337
Si Si2 0.859798 0.393229 0.832982
Si Si3 0.614010 0.299691 0.669959
Si Si4 0.929720 0.206179 0.169084
Si Si5 0.246473 0.703160 0.331276
Si Si6 0.177861 0.107994 0.331459
Si Si7 0.500000 0.387716 0.162234
O O1 0.566434 0.902029 0.500000
O O2 0.500000 0.880208 0.268613
O O3 0.611786 0.810999 0.280250
O O4 0.595086 0.000000 0.270825
O O5 0.883703 0.500000 0.794008
O O6 0.912096 0.315798 0.791203
O O7 0.796961 0.372079 0.747762
O O8 0.842904 0.385533 0.000000
O O9 0.600548 0.312292 0.500000
O O10 0.683829 0.328598 0.711085
O O11 0.562571 0.358370 0.755345
O O12 0.886126 0.131209 0.250304
O O13 0.000000 0.188958 0.220037
O O14 0.922189 0.187982 0.000000
O O15 0.236192 0.691320 0.500000
O O16 0.230189 0.813481 0.287159
O O17 0.163721 0.114550 0.500000
O O18 0.199874 0.000000 0.290354
O O19 0.500000 0.500000 0.154882
O O20 0.500000 0.344778 0.000000
#
# Coordination Sequence:
#
# PCOD8196181 Si02
#       7
#     8   8   8   8   8   8   4
#     4   8  13  23  44  74 100 119 145 185 232 281
#     4   9  18  33  52  72  96 129 166 205 253 306
#     4  10  19  34  56  78 100 128 164 205 248 294
#     4   9  18  32  50  74 102 131 168 213 254 293
#     4   9  19  33  51  76 102 129 164 207 249 291
#     4   9  18  33  51  73 105 141 172 203 242 290
#     4  11  25  41  54  71  98 132 167 205 252 303
#
# _framework density 18.581372999999999
#
# number of rings (size 3 to 8) (size 9 to 14) (size 15 to 20)
#    0.000    2.846    0.769    0.692    0.000    4.000 
#    0.000    9.231    0.000    0.923    0.000    6.462 
#    0.000    0.000    0.000    0.000    0.000    0.000 
#
# Total GULP energy -644404.948681 kJ/mol
# GULP energy per Si atom -12392.402859 kJ/mol
# Density = 1.853908 g / cm^3
# Si number density = 18.581373 Si / 1000 Ang^3
#
#
#
# Elastic Constant Matrix: (Units=GPa)
#
#
# Indices 1 2 3 4 5 6 
#
# 1 95.6423 16.1187 36.1805 0.0000 0.0000 0.0000
# 2 16.1187 69.0203 19.7929 0.0000 0.0000 0.0000
# 3 36.1805 19.7929 40.1114 0.0000 0.0000 0.0000
# 4 0.0000 0.0000 0.0000 21.7394 0.0000 0.0000
# 5 0.0000 0.0000 0.0000 0.0000 21.7209 0.0000
# 6 0.0000 0.0000 0.0000 0.0000 0.0000 16.3898
#
#
#
# Elastic Compliance Matrix: (Units=1/GPa)
#
#
# Indices 1 2 3 4 5 6 
#
# 1 0.015884 0.000465 -0.014557 0.000000 0.000000 0.000000
# 2 0.000465 0.016890 -0.008754 0.000000 0.000000 0.000000
# 3 -0.014557 -0.008754 0.042380 0.000000 0.000000 0.000000
# 4 0.000000 0.000000 0.000000 0.045999 0.000000 0.000000
# 5 0.000000 0.000000 0.000000 0.000000 0.046039 0.000000
# 6 0.000000 0.000000 0.000000 0.000000 0.000000 0.061014
#
#
# Mechanical properties :
#
#
# Convention : Reuss Voigt Hill
#
# Bulk Modulus (GPa) = 33.94060 38.77312 36.35686
# Shear Modulus (GPa) = 17.62311 20.81548 19.21930
#
# Velocity S-wave (km/s) = 3.08300 3.35062 3.21959
# Velocity P-wave (km/s) = 5.56586 5.99006 5.78185
#
# Compressibility (1/GPa) = 0.02946324
#
# Stress axis : x y z
#
# Youngs Moduli (GPa) = 62.95671 59.20578 23.59586
#
# Poissons Ratio (x) = -0.02753 0.34348
# Poissons Ratio (y) = -0.02927 0.20655
# Poissons Ratio (z) = 0.91644 0.51828
#
# Static dielectric constant tensor:
#      x y z
#    x 3.401300 0.000000 0.000000 
#    y 0.000000 3.722950 0.000000 
#    z 0.000000 0.000000 3.223110 
# 
# 
# High freq. dielectric constant tensor:
#      x y z
#    x 1.712430 0.000000 0.000000 
#    y 0.000000 1.728930 0.000000 
#    z 0.000000 0.000000 1.693280 
# 
# From -- ./inp_files/11049.got.cif
#   From: 2010.03.12/outbox.cif.g09.slc.cpg/sg47_6_cif.got.tgz:11049.got - 2010.04.14 03:12:58.
