data_PCOD8196837
_publ_section_title
;
Structure prediction by ZEFSAII (Michael W. Deem and Ramdas Pophale) SiO2 
 PCOD8196837
Probable space group: P M M M
;
_chemical_formula_sum "Si O2"
_cell_formula_units_Z 52
_cell_length_a 33.964406
_cell_length_b 9.752764
_cell_length_c 9.160367
_cell_angle_alpha 90.000000
_cell_angle_beta 90.000000
_cell_angle_gamma 90.000000
_cell_volume 3034.342586
_symmetry_space_group_name_H-M "P M M M"
_symmetry_group_IT_number 47
_symmetry_cell_setting 'orthorhombic'
loop_
_space_group_symop_operation_xyz
x,y,z
-x,-y,z
x,-y,-z
-x,y,-z
-x,-y,-z
x,y,-z
-x,y,z
x,-y,z
loop_
_atom_site_type_symbol
_atom_site_label
_atom_site_fract_x
_atom_site_fract_y
_atom_site_fract_z
Si Si1 0.271834 0.337120 0.836725
Si Si2 0.043580 0.846446 0.673630
Si Si3 0.500000 0.158818 0.169384
Si Si4 0.888764 0.652736 0.674282
Si Si5 0.197644 0.336502 0.662744
Si Si6 0.414634 0.161672 0.827837
Si Si7 0.650234 0.341092 0.328259
O O1 0.269410 0.500000 0.839216
O O2 0.231731 0.276766 0.766947
O O3 0.308944 0.289564 0.741415
O O4 0.276290 0.277979 0.000000
O O5 0.046241 0.844778 0.500000
O O6 0.077134 0.748768 0.741354
O O7 0.000000 0.795841 0.722332
O O8 0.050955 0.000000 0.731818
O O9 0.541974 0.214852 0.228986
O O10 0.500000 0.000000 0.202434
O O11 0.500000 0.188585 0.000000
O O12 0.890253 0.650151 0.500000
O O13 0.895956 0.500000 0.735789
O O14 0.845538 0.708174 0.722188
O O15 0.204810 0.278079 0.500000
O O16 0.199103 0.500000 0.657207
O O17 0.384028 0.248794 0.736573
O O18 0.409104 0.000000 0.796291
O O19 0.409366 0.190252 0.000000
O O20 0.652992 0.318146 0.500000
O O21 0.642071 0.500000 0.289512
#
# Coordination Sequence:
#
# PCOD8196837 Si02
#       7
#     8   8   4   8   8   8   8
#     4   9  16  26  42  63  85 111 145 182 217 257
#     4   8  13  20  29  43  67  99 130 158 191 233
#     4   7  12  26  48  71  92 116 150 189 226 267
#     4   8  13  20  31  48  69  95 127 160 195 238
#     4   8  13  22  36  54  77 104 134 169 209 252
#     4   9  17  31  52  74  94 119 153 192 231 270
#     4  10  20  32  46  67  96 127 156 187 225 268
#
# _framework density 17.137156999999998
#
# number of rings (size 3 to 8) (size 9 to 14) (size 15 to 20)
#    0.000    3.462    0.000    3.231    0.000    3.385 
#    0.000    2.308    0.000    4.615    0.000    2.154 
#    0.000    0.615    0.000    7.692    0.000    8.923 
#
# Total GULP energy -644216.830141 kJ/mol
# GULP energy per Si atom -12388.785195 kJ/mol
# Density = 1.709815 g / cm^3
# Si number density = 17.137157 Si / 1000 Ang^3
#
#
#
# Elastic Constant Matrix: (Units=GPa)
#
#
# Indices 1 2 3 4 5 6 
#
# 1 197.9515 63.2099 59.6497 0.0000 0.0000 0.0000
# 2 63.2099 47.5163 27.4813 0.0000 0.0000 0.0000
# 3 59.6497 27.4813 64.7267 0.0000 0.0000 0.0000
# 4 0.0000 0.0000 0.0000 13.7816 0.0000 0.0000
# 5 0.0000 0.0000 0.0000 0.0000 7.4009 0.0000
# 6 0.0000 0.0000 0.0000 0.0000 0.0000 2.7574
#
#
#
# Elastic Compliance Matrix: (Units=1/GPa)
#
#
# Indices 1 2 3 4 5 6 
#
# 1 0.009714 -0.010266 -0.004593 0.000000 0.000000 0.000000
# 2 -0.010266 0.038744 -0.006989 0.000000 0.000000 0.000000
# 3 -0.004593 -0.006989 0.022650 0.000000 0.000000 0.000000
# 4 0.000000 0.000000 0.000000 0.072560 0.000000 0.000000
# 5 0.000000 0.000000 0.000000 0.000000 0.135118 0.000000
# 6 0.000000 0.000000 0.000000 0.000000 0.000000 0.362667
#
#
# Mechanical properties :
#
#
# Convention : Reuss Voigt Hill
#
# Bulk Modulus (GPa) = 36.48134 67.87517 52.17826
# Shear Modulus (GPa) = 7.20164 15.44489 11.32326
#
# Velocity S-wave (km/s) = 2.05219 3.00534 2.57328
# Velocity P-wave (km/s) = 5.19128 7.19276 6.27237
#
# Compressibility (1/GPa) = 0.02741127
#
# Stress axis : x y z
#
# Youngs Moduli (GPa) = 102.94506 25.81060 44.14965
#
# Poissons Ratio (x) = 0.26496 0.20280
# Poissons Ratio (y) = 1.05679 0.30857
# Poissons Ratio (z) = 0.47288 0.18040
#
# Static dielectric constant tensor:
#      x y z
#    x 3.702810 0.000000 0.000000 
#    y 0.000000 2.910130 0.000000 
#    z 0.000000 0.000000 2.912980 
# 
# 
# High freq. dielectric constant tensor:
#      x y z
#    x 1.685690 0.000000 0.000000 
#    y 0.000000 1.613300 0.000000 
#    z 0.000000 0.000000 1.620830 
# 
# From -- ./inp_files/14091.got.cif
#   From: 2010.03.12/outbox.cif.g09.slc.cpg/sg47_8_cif.got.tgz:14091.got - 2010.04.14 03:12:58.
