data_PCOD8196250
_publ_section_title
;
Structure prediction by ZEFSAII (Michael W. Deem and Ramdas Pophale) SiO2 
 PCOD8196250
Probable space group: P M M M
;
_chemical_formula_sum "Si O2"
_cell_formula_units_Z 48
_cell_length_a 17.613698
_cell_length_b 9.361834
_cell_length_c 14.901672
_cell_angle_alpha 90.000000
_cell_angle_beta 90.000000
_cell_angle_gamma 90.000000
_cell_volume 2457.233807
_symmetry_space_group_name_H-M "P M M M"
_symmetry_group_IT_number 47
_symmetry_cell_setting 'orthorhombic'
loop_
_space_group_symop_operation_xyz
x,y,z
-x,-y,z
x,-y,-z
-x,y,-z
-x,-y,-z
x,y,-z
-x,y,z
x,-y,z
loop_
_atom_site_type_symbol
_atom_site_label
_atom_site_fract_x
_atom_site_fract_y
_atom_site_fract_z
Si Si1 0.674827 0.833822 0.103162
Si Si2 0.234134 0.663082 0.596108
Si Si3 0.151812 0.834406 0.151484
Si Si4 0.914079 0.652852 0.000000
Si Si5 0.638847 0.330837 0.726334
Si Si6 0.500000 0.668563 0.601823
Si Si7 0.086976 0.661417 0.308856
O O1 0.762004 0.803048 0.125518
O O2 0.626831 0.744541 0.176509
O O3 0.654852 0.000000 0.114165
O O4 0.657622 0.785247 0.000000
O O5 0.253935 0.737056 0.500000
O O6 0.261613 0.500000 0.590811
O O7 0.282613 0.726304 0.679785
O O8 0.142575 0.669509 0.605619
O O9 0.099782 0.745998 0.086297
O O10 0.126684 0.779250 0.247709
O O11 0.132549 0.000000 0.143139
O O12 0.868629 0.500000 0.000000
O O13 0.000000 0.609457 0.000000
O O14 0.638038 0.500000 0.744594
O O15 0.573216 0.281223 0.658049
O O16 0.500000 0.500000 0.593226
O O17 0.500000 0.733664 0.500000
O O18 0.089597 0.500000 0.267666
O O19 0.000000 0.701870 0.333817
#
# Coordination Sequence:
#
# PCOD8196250 Si02
#       7
#     8   8   8   4   8   4   8
#     4  10  21  38  57  79 109 146 187 231 277 328
#     4   9  17  30  51  79 108 141 183 226 273 331
#     4  11  21  35  53  73 101 141 187 233 282 336
#     4  11  23  35  49  73 105 138 179 236 293 341
#     4  10  19  34  59  88 115 146 182 224 273 327
#     4   9  18  34  60  95 128 150 175 221 276 325
#     4  10  20  33  49  73 106 141 182 233 282 327
#
# _framework density 19.53416
#
# number of rings (size 3 to 8) (size 9 to 14) (size 15 to 20)
#    0.000    2.000    2.500    1.750    0.000    6.333 
#    0.000    2.500    0.000    6.500    0.000    1.167 
#    0.000    0.000    0.000    0.000    0.000    0.000 
#
# Total GULP energy -594668.967817 kJ/mol
# GULP energy per Si atom -12388.936830 kJ/mol
# Density = 1.948970 g / cm^3
# Si number density = 19.534160 Si / 1000 Ang^3
#
#
#
# Elastic Constant Matrix: (Units=GPa)
#
#
# Indices 1 2 3 4 5 6 
#
# 1 96.1564 25.2736 49.5922 0.0000 0.0000 0.0000
# 2 25.2736 62.3374 44.2545 0.0000 0.0000 0.0000
# 3 49.5922 44.2545 155.7316 0.0000 0.0000 0.0000
# 4 0.0000 0.0000 0.0000 23.6361 0.0000 0.0000
# 5 0.0000 0.0000 0.0000 0.0000 -3.5210 0.0000
# 6 0.0000 0.0000 0.0000 0.0000 0.0000 16.5174
#
#
#
# Elastic Compliance Matrix: (Units=1/GPa)
#
#
# Indices 1 2 3 4 5 6 
#
# 1 0.012845 -0.002886 -0.003270 0.000000 0.000000 0.000000
# 2 -0.002886 0.020744 -0.004976 0.000000 0.000000 0.000000
# 3 -0.003270 -0.004976 0.008877 0.000000 0.000000 0.000000
# 4 0.000000 0.000000 0.000000 0.042308 0.000000 0.000000
# 5 0.000000 0.000000 0.000000 0.000000 -0.284009 0.000000
# 6 0.000000 0.000000 0.000000 0.000000 0.000000 0.060542
#
#
# Mechanical properties :
#
#
# Convention : Reuss Voigt Hill
#
# Bulk Modulus (GPa) = 49.50144 61.38511 55.44328
# Shear Modulus (GPa) = -45.58118 20.33351 -12.62384
#
# Velocity S-wave (km/s) = -4.83578 3.22983 -2.54489
# Velocity P-wave (km/s) = 2.40493 6.73808 4.45074
#
# Compressibility (1/GPa) = 0.02020143
#
# Stress axis : x y z
#
# Youngs Moduli (GPa) = 77.85173 48.20594 112.65438
#
# Poissons Ratio (x) = 0.13913 0.36841
# Poissons Ratio (y) = 0.22469 0.56055
# Poissons Ratio (z) = 0.25460 0.23987
#
# Static dielectric constant tensor:
#      x y z
#    x 3.512920 0.000000 0.000000 
#    y 0.000000 3.268590 0.000000 
#    z 0.000000 0.000000 4.464530 
# 
# 
# High freq. dielectric constant tensor:
#      x y z
#    x 1.752520 0.000000 0.000000 
#    y 0.000000 1.726640 0.000000 
#    z 0.000000 0.000000 1.767580 
# 
# From -- ./inp_files/6520.got.cif
#   From: 2010.03.12/outbox.cif.g09.slc.cpg/sg47_4_cif.got.tgz:6520.got - 2010.04.14 03:12:58.
