data_PCOD8196198
_publ_section_title
;
Structure prediction by ZEFSAII (Michael W. Deem and Ramdas Pophale) SiO2 
 PCOD8196198
Probable space group: P M M M
;
_chemical_formula_sum "Si O2"
_cell_formula_units_Z 48
_cell_length_a 9.011571
_cell_length_b 17.719641
_cell_length_c 15.566386
_cell_angle_alpha 90.000000
_cell_angle_beta 90.000000
_cell_angle_gamma 90.000000
_cell_volume 2485.668582
_symmetry_space_group_name_H-M "P M M M"
_symmetry_group_IT_number 47
_symmetry_cell_setting 'orthorhombic'
loop_
_space_group_symop_operation_xyz
x,y,z
-x,-y,z
x,-y,-z
-x,y,-z
-x,-y,-z
x,y,-z
-x,y,z
x,-y,z
loop_
_atom_site_type_symbol
_atom_site_label
_atom_site_fract_x
_atom_site_fract_y
_atom_site_fract_z
Si Si1 0.828575 0.853862 0.096492
Si Si2 0.671918 0.914442 0.258855
Si Si3 0.827930 0.315387 0.155126
Si Si4 0.175283 0.500000 0.598825
Si Si5 0.176138 0.416428 0.000000
Si Si6 0.675348 0.194807 0.405558
Si Si7 0.673957 0.351989 0.671127
O O1 0.744262 0.904210 0.165842
O O2 0.803302 0.766469 0.115808
O O3 0.000000 0.875383 0.102711
O O4 0.769620 0.871249 0.000000
O O5 0.500000 0.895137 0.247809
O O6 0.744182 0.859264 0.331383
O O7 0.697223 0.000000 0.290014
O O8 0.720841 0.326666 0.234769
O O9 0.000000 0.328504 0.180760
O O10 0.769647 0.374643 0.085194
O O11 0.224231 0.500000 0.500000
O O12 0.238365 0.574130 0.643468
O O13 0.000000 0.500000 0.610394
O O14 0.244425 0.500000 0.000000
O O15 0.000000 0.417375 0.000000
O O16 0.737665 0.172122 0.500000
O O17 0.500000 0.183657 0.404011
O O18 0.716215 0.282301 0.390662
O O19 0.500000 0.369820 0.668540
#
# Coordination Sequence:
#
# PCOD8196198 Si02
#       7
#     8   8   8   4   4   8   8
#     4  10  20  36  58  82 112 152 196 238 282 340
#     4  10  21  37  57  84 117 149 188 242 297 347
#     4  10  19  34  56  82 111 147 192 235 280 338
#     4  11  25  43  61  84 115 150 191 237 284 337
#     4   9  18  32  53  81 110 143 185 233 282 334
#     4   9  18  34  57  84 113 148 189 231 281 343
#     4  11  22  37  59  86 118 152 188 233 288 343
#
# _framework density 19.310700000000001
#
# number of rings (size 3 to 8) (size 9 to 14) (size 15 to 20)
#    0.000    2.000    2.500    1.250    1.167    2.667 
#    0.000    3.750    0.000    2.000    0.000    1.167 
#    0.000    0.000    0.000    0.000    0.000    0.000 
#
# Total GULP energy -595186.322154 kJ/mol
# GULP energy per Si atom -12399.715045 kJ/mol
# Density = 1.926675 g / cm^3
# Si number density = 19.310700 Si / 1000 Ang^3
#
#
#
# Elastic Constant Matrix: (Units=GPa)
#
#
# Indices 1 2 3 4 5 6 
#
# 1 38.2067 28.4696 30.7926 0.0000 0.0000 0.0000
# 2 28.4696 86.9952 44.0538 0.0000 0.0000 0.0000
# 3 30.7926 44.0538 149.3477 0.0000 0.0000 0.0000
# 4 0.0000 0.0000 0.0000 32.4588 0.0000 0.0000
# 5 0.0000 0.0000 0.0000 0.0000 26.9747 0.0000
# 6 0.0000 0.0000 0.0000 0.0000 0.0000 5.0769
#
#
#
# Elastic Compliance Matrix: (Units=1/GPa)
#
#
# Indices 1 2 3 4 5 6 
#
# 1 0.037343 -0.009783 -0.004814 0.000000 0.000000 0.000000
# 2 -0.009783 0.016076 -0.002725 0.000000 0.000000 0.000000
# 3 -0.004814 -0.002725 0.008492 0.000000 0.000000 0.000000
# 4 0.000000 0.000000 0.000000 0.030808 0.000000 0.000000
# 5 0.000000 0.000000 0.000000 0.000000 0.037072 0.000000
# 6 0.000000 0.000000 0.000000 0.000000 0.000000 0.196972
#
#
# Mechanical properties :
#
#
# Convention : Reuss Voigt Hill
#
# Bulk Modulus (GPa) = 36.67327 53.46464 45.06895
# Shear Modulus (GPa) = 13.49543 24.31766 18.90654
#
# Velocity S-wave (km/s) = 2.64646 3.55249 3.13241
# Velocity P-wave (km/s) = 5.32642 6.67634 6.03922
#
# Compressibility (1/GPa) = 0.02726782
#
# Stress axis : x y z
#
# Youngs Moduli (GPa) = 26.77902 62.20315 117.75676
#
# Poissons Ratio (x) = 0.60853 0.56684
# Poissons Ratio (y) = 0.26198 0.32089
# Poissons Ratio (z) = 0.12890 0.16951
#
# Static dielectric constant tensor:
#      x y z
#    x 3.255310 0.000000 0.000000 
#    y 0.000000 3.717460 0.000000 
#    z 0.000000 0.000000 4.616460 
# 
# 
# High freq. dielectric constant tensor:
#      x y z
#    x 1.718380 0.000000 0.000000 
#    y 0.000000 1.759940 0.000000 
#    z 0.000000 0.000000 1.766390 
# 
# From -- ./inp_files/21072.got.cif
#   From: 2010.03.12/outbox.cif.g09.slc.cpg/sg47_11_cif.got.tgz:21072.got - 2010.04.14 03:12:58.
