data_PCOD8196898
_publ_section_title
;
Structure prediction by ZEFSAII (Michael W. Deem and Ramdas Pophale) SiO2 
 PCOD8196898
Probable space group: P M M M
;
_chemical_formula_sum "Si O2"
_cell_formula_units_Z 44
_cell_length_a 28.794073
_cell_length_b 9.324533
_cell_length_c 8.562477
_cell_angle_alpha 90.000000
_cell_angle_beta 90.000000
_cell_angle_gamma 90.000000
_cell_volume 2298.950443
_symmetry_space_group_name_H-M "P M M M"
_symmetry_group_IT_number 47
_symmetry_cell_setting 'orthorhombic'
loop_
_space_group_symop_operation_xyz
x,y,z
-x,-y,z
x,-y,-z
-x,y,-z
-x,-y,-z
x,y,-z
-x,y,z
x,-y,z
loop_
_atom_site_type_symbol
_atom_site_label
_atom_site_fract_x
_atom_site_fract_y
_atom_site_fract_z
Si Si1 0.910484 0.664641 0.814708
Si Si2 0.737605 0.661409 0.314368
Si Si3 0.000000 0.163066 0.185782
Si Si4 0.550688 0.839221 0.685748
Si Si5 0.635400 0.660558 0.685737
Si Si6 0.824431 0.162236 0.314434
O O1 0.913603 0.500000 0.756909
O O2 0.865550 0.738834 0.744973
O O3 0.955038 0.751982 0.751938
O O4 0.907989 0.671039 0.000000
O O5 0.739686 0.657265 0.500000
O O6 0.746817 0.500000 0.250692
O O7 0.686429 0.716393 0.260675
O O8 0.776425 0.770134 0.249091
O O9 0.000000 0.000000 0.251536
O O10 0.000000 0.160226 0.000000
O O11 0.554512 0.837790 0.500000
O O12 0.500000 0.775743 0.735073
O O13 0.593430 0.751629 0.760938
O O14 0.554966 0.000000 0.749474
O O15 0.632432 0.665665 0.500000
O O16 0.628787 0.500000 0.746978
O O17 0.824781 0.161513 0.500000
O O18 0.829344 0.000000 0.249508
#
# Coordination Sequence:
#
# PCOD8196898 Si02
#       6
#     8   8   4   8   8   8
#     4  10  20  34  53  75  97 123 155 187 221 265
#     4   8  14  25  39  54  75 104 137 174 216 261
#     4   9  17  31  52  75  98 123 150 184 224 263
#     4   8  13  19  25  35  54  81 114 155 203 250
#     4   8  13  20  30  44  61  85 121 163 205 249
#     4  10  20  32  47  69  95 122 153 189 229 270
#
# _framework density 19.139167
#
# number of rings (size 3 to 8) (size 9 to 14) (size 15 to 20)
#    0.000    3.182    0.000    3.000    0.000    4.364 
#    0.000    5.909    0.000    2.727    0.000    0.000 
#    0.000    0.000    0.000    0.000    0.000    0.909 
#
# Total GULP energy -545239.362965 kJ/mol
# GULP energy per Si atom -12391.803704 kJ/mol
# Density = 1.909561 g / cm^3
# Si number density = 19.139167 Si / 1000 Ang^3
#
#
#
# Elastic Constant Matrix: (Units=GPa)
#
#
# Indices 1 2 3 4 5 6 
#
# 1 208.7634 107.4853 9.3887 0.0000 0.0000 0.0000
# 2 107.4853 147.7226 10.0841 0.0000 0.0000 0.0000
# 3 9.3887 10.0841 3.8798 0.0000 0.0000 0.0000
# 4 0.0000 0.0000 0.0000 12.5158 0.0000 0.0000
# 5 0.0000 0.0000 0.0000 0.0000 -19.1203 0.0000
# 6 0.0000 0.0000 0.0000 0.0000 0.0000 42.7932
#
#
#
# Elastic Compliance Matrix: (Units=1/GPa)
#
#
# Indices 1 2 3 4 5 6 
#
# 1 0.007738 -0.005291 -0.004974 0.000000 0.000000 0.000000
# 2 -0.005291 0.011847 -0.017989 0.000000 0.000000 0.000000
# 3 -0.004974 -0.017989 0.316532 0.000000 0.000000 0.000000
# 4 0.000000 0.000000 0.000000 0.079899 0.000000 0.000000
# 5 0.000000 0.000000 0.000000 0.000000 -0.052300 0.000000
# 6 0.000000 0.000000 0.000000 0.000000 0.000000 0.023368
#
#
# Mechanical properties :
#
#
# Convention : Reuss Voigt Hill
#
# Bulk Modulus (GPa) = 3.57640 68.25356 35.91498
# Shear Modulus (GPa) = 9.31457 22.79825 16.05641
#
# Velocity S-wave (km/s) = 2.20847 3.45510 2.89957
# Velocity P-wave (km/s) = 2.89409 7.18722 5.47868
#
# Compressibility (1/GPa) = 0.27961103
#
# Stress axis : x y z
#
# Youngs Moduli (GPa) = 129.23670 84.40998 3.15924
#
# Poissons Ratio (x) = 0.44658 0.01571
# Poissons Ratio (y) = 0.68374 0.05683
# Poissons Ratio (z) = 0.64277 1.51843
#
# Static dielectric constant tensor:
#      x y z
#    x 4.005360 0.000000 0.000000 
#    y 0.000000 3.816540 0.000000 
#    z 0.000000 0.000000 2.756400 
# 
# 
# High freq. dielectric constant tensor:
#      x y z
#    x 1.767460 0.000000 0.000000 
#    y 0.000000 1.746690 0.000000 
#    z 0.000000 0.000000 1.666070 
# 
# From -- ./inp_files/13564.got.cif
#   From: 2010.03.12/outbox.cif.g09.slc.cpg/sg47_7_cif.got.tgz:13564.got - 2010.04.14 03:12:58.
