data_PCOD8196963
_publ_section_title
;
Structure prediction by ZEFSAII (Michael W. Deem and Ramdas Pophale) SiO2 
 PCOD8196963
Probable space group: P M M M
;
_chemical_formula_sum "Si O2"
_cell_formula_units_Z 44
_cell_length_a 9.786718
_cell_length_b 9.167997
_cell_length_c 27.849072
_cell_angle_alpha 90.000000
_cell_angle_beta 90.000000
_cell_angle_gamma 90.000000
_cell_volume 2498.746881
_symmetry_space_group_name_H-M "P M M M"
_symmetry_group_IT_number 47
_symmetry_cell_setting 'orthorhombic'
loop_
_space_group_symop_operation_xyz
x,y,z
-x,-y,z
x,-y,-z
-x,y,-z
-x,-y,-z
x,y,-z
-x,y,z
x,-y,z
loop_
_atom_site_type_symbol
_atom_site_label
_atom_site_fract_x
_atom_site_fract_y
_atom_site_fract_z
Si Si1 0.845204 0.331754 0.872929
Si Si2 0.345890 0.828051 0.946466
Si Si3 0.336906 0.834716 0.500000
Si Si4 0.337599 0.664715 0.592811
Si Si5 0.841567 0.667483 0.762405
Si Si6 0.658520 0.829217 0.312070
O O1 0.827166 0.500000 0.886080
O O2 0.749447 0.239378 0.906660
O O3 0.805572 0.303959 0.817797
O O4 0.000000 0.281426 0.882035
O O5 0.500000 0.773105 0.937634
O O6 0.338608 0.000000 0.941321
O O7 0.298195 0.781097 0.000000
O O8 0.500000 0.835343 0.500000
O O9 0.279862 0.751234 0.546791
O O10 0.281000 0.000000 0.500000
O O11 0.500000 0.662690 0.590635
O O12 0.279478 0.500000 0.592616
O O13 0.287985 0.746516 0.640618
O O14 0.809641 0.500000 0.748712
O O15 0.746664 0.775404 0.732601
O O16 0.000000 0.702669 0.752197
O O17 0.500000 0.793552 0.301896
O O18 0.681417 0.000000 0.320063
#
# Coordination Sequence:
#
# PCOD8196963 Si02
#       6
#     8   8   4   8   8   8
#     4   9  19  35  53  74  99 126 160 203 246 288
#     4   9  19  35  52  72 101 134 165 198 238 286
#     4   9  15  23  37  59  90 125 158 197 246 293
#     4   9  16  26  41  62  90 125 163 200 240 289
#     4   9  19  36  54  71  95 128 164 201 243 292
#     4  10  20  32  47  71 101 129 160 201 247 292
#
# _framework density 17.608827000000002
#
# number of rings (size 3 to 8) (size 9 to 14) (size 15 to 20)
#    0.000    2.818    0.000    3.000    0.000    7.636 
#    0.000    8.182    0.000    0.000    0.000    0.636 
#    0.000    5.091    0.000    0.000    0.000    0.000 
#
# Total GULP energy -545568.237787 kJ/mol
# GULP energy per Si atom -12399.278132 kJ/mol
# Density = 1.756875 g / cm^3
# Si number density = 17.608827 Si / 1000 Ang^3
#
#
#
# Elastic Constant Matrix: (Units=GPa)
#
#
# Indices 1 2 3 4 5 6 
#
# 1 52.7285 38.6016 52.2340 0.0000 0.0000 0.0000
# 2 38.6016 101.5791 61.1140 0.0000 0.0000 0.0000
# 3 52.2340 61.1140 114.5240 0.0000 0.0000 0.0000
# 4 0.0000 0.0000 0.0000 39.6225 0.0000 0.0000
# 5 0.0000 0.0000 0.0000 0.0000 -166.3843 0.0000
# 6 0.0000 0.0000 0.0000 0.0000 0.0000 27.4054
#
#
#
# Elastic Compliance Matrix: (Units=1/GPa)
#
#
# Indices 1 2 3 4 5 6 
#
# 1 0.036716 -0.005711 -0.013698 0.000000 0.000000 0.000000
# 2 -0.005711 0.015388 -0.005607 0.000000 0.000000 0.000000
# 3 -0.013698 -0.005607 0.017972 0.000000 0.000000 0.000000
# 4 0.000000 0.000000 0.000000 0.025238 0.000000 0.000000
# 5 0.000000 0.000000 0.000000 0.000000 -0.006010 0.000000
# 6 0.000000 0.000000 0.000000 0.000000 0.000000 0.036489
#
#
# Mechanical properties :
#
#
# Convention : Reuss Voigt Hill
#
# Bulk Modulus (GPa) = 49.89262 63.63675 56.76468
# Shear Modulus (GPa) = 27.39626 -12.07916 7.65855
#
# Velocity S-wave (km/s) = 3.94867 -2.62195 2.08775
# Velocity P-wave (km/s) = 7.01318 5.20110 6.17398
#
# Compressibility (1/GPa) = 0.02004305
#
# Stress axis : x y z
#
# Youngs Moduli (GPa) = 27.23609 64.98502 55.64337
#
# Poissons Ratio (x) = 0.37114 0.76222
# Poissons Ratio (y) = 0.15555 0.31198
# Poissons Ratio (z) = 0.37309 0.36436
#
# Static dielectric constant tensor:
#      x y z
#    x 2.972330 0.000000 0.000000 
#    y 0.000000 3.284140 0.000000 
#    z 0.000000 0.000000 3.645620 
# 
# 
# High freq. dielectric constant tensor:
#      x y z
#    x 1.644470 0.000000 0.000000 
#    y 0.000000 1.686660 0.000000 
#    z 0.000000 0.000000 1.692300 
# 
# From -- ./inp_files/2091.got.cif
#   From: 2010.03.12/outbox.cif.g09.slc.cpg/sg47_2_cif.got.tgz:2091.got - 2010.04.14 03:12:58.
