data_PCOD8196077
_publ_section_title
;
Structure prediction by ZEFSAII (Michael W. Deem and Ramdas Pophale) SiO2 
 PCOD8196077
Probable space group: P M M M
;
_chemical_formula_sum "Si O2"
_cell_formula_units_Z 60
_cell_length_a 19.530207
_cell_length_b 7.890110
_cell_length_c 19.590309
_cell_angle_alpha 90.000000
_cell_angle_beta 90.000000
_cell_angle_gamma 90.000000
_cell_volume 3018.778099
_symmetry_space_group_name_H-M "P M M M"
_symmetry_group_IT_number 47
_symmetry_cell_setting 'orthorhombic'
loop_
_space_group_symop_operation_xyz
x,y,z
-x,-y,z
x,-y,-z
-x,y,-z
-x,-y,-z
x,y,-z
-x,y,z
x,-y,z
loop_
_atom_site_type_symbol
_atom_site_label
_atom_site_fract_x
_atom_site_fract_y
_atom_site_fract_z
Si Si1 0.666253 0.193200 0.697436
Si Si2 0.579115 0.303547 0.424184
Si Si3 0.810632 0.690401 0.175889
Si Si4 0.184604 0.192545 0.680815
Si Si5 0.656346 0.304117 0.156782
Si Si6 0.076119 0.201549 0.423535
Si Si7 0.076308 0.196816 0.921571
Si Si8 0.580876 0.000000 0.080487
O O1 0.616659 0.195548 0.632960
O O2 0.739467 0.274875 0.675531
O O3 0.635579 0.291083 0.763009
O O4 0.677496 0.000000 0.720807
O O5 0.606742 0.257299 0.500000
O O6 0.500000 0.256544 0.420136
O O7 0.591366 0.500000 0.408867
O O8 0.802105 0.500000 0.202206
O O9 0.838444 0.798177 0.240056
O O10 0.736217 0.751141 0.148819
O O11 0.866527 0.696361 0.116755
O O12 0.129996 0.283107 0.630399
O O13 0.188704 0.000000 0.656375
O O14 0.643559 0.500000 0.132827
O O15 0.612131 0.172816 0.112144
O O16 0.098283 0.255375 0.500000
O O17 0.000000 0.272547 0.407365
O O18 0.074050 0.000000 0.417130
O O19 0.000000 0.238663 0.893749
O O20 0.092714 0.000000 0.911781
O O21 0.080515 0.249508 0.000000
O O22 0.500000 0.000000 0.095490
O O23 0.596468 0.000000 0.000000
#
# Coordination Sequence:
#
# PCOD8196077 Si02
#       8
#     8   8   8   8   8   8   8   4
#     4  10  19  33  55  82 113 149 191 240 290 344
#     4   9  19  35  52  73 106 147 188 231 282 340
#     4  10  21  35  55  82 112 148 188 230 282 341
#     4   9  18  31  50  75 104 137 176 226 280 331
#     4  10  22  42  65  90 123 159 197 243 297 357
#     4   8  14  26  45  70 100 135 181 236 287 335
#     4   9  19  35  54  78 109 146 186 227 274 329
#     4  11  26  46  68  96 124 152 192 239 292 356
#
# _framework density 19.875592000000001
#
# number of rings (size 3 to 8) (size 9 to 14) (size 15 to 20)
#    0.000    2.600    0.667    2.000    1.867    4.267 
#    0.000    6.000    0.000    0.400    0.000    0.933 
#    0.000    0.000    0.000    0.000    0.000    0.000 
#
# Total GULP energy -743695.048848 kJ/mol
# GULP energy per Si atom -12394.917481 kJ/mol
# Density = 1.983035 g / cm^3
# Si number density = 19.875592 Si / 1000 Ang^3
#
#
#
# Elastic Constant Matrix: (Units=GPa)
#
#
# Indices 1 2 3 4 5 6 
#
# 1 108.4283 36.5316 77.1036 0.0000 0.0000 0.0000
# 2 36.5316 60.2893 33.3451 0.0000 0.0000 0.0000
# 3 77.1036 33.3451 119.7252 0.0000 0.0000 0.0000
# 4 0.0000 0.0000 0.0000 17.6346 0.0000 0.0000
# 5 0.0000 0.0000 0.0000 0.0000 43.7884 0.0000
# 6 0.0000 0.0000 0.0000 0.0000 0.0000 19.4426
#
#
#
# Elastic Compliance Matrix: (Units=1/GPa)
#
#
# Indices 1 2 3 4 5 6 
#
# 1 0.018407 -0.005434 -0.010341 0.000000 0.000000 0.000000
# 2 -0.005434 0.021211 -0.002408 0.000000 0.000000 0.000000
# 3 -0.010341 -0.002408 0.015682 0.000000 0.000000 0.000000
# 4 0.000000 0.000000 0.000000 0.056707 0.000000 0.000000
# 5 0.000000 0.000000 0.000000 0.000000 0.022837 0.000000
# 6 0.000000 0.000000 0.000000 0.000000 0.000000 0.051433
#
#
# Mechanical properties :
#
#
# Convention : Reuss Voigt Hill
#
# Bulk Modulus (GPa) = 52.81200 64.71149 58.76175
# Shear Modulus (GPa) = 21.83836 25.60395 23.72116
#
# Velocity S-wave (km/s) = 3.31834 3.59306 3.45843
# Velocity P-wave (km/s) = 6.42735 7.05991 6.75104
#
# Compressibility (1/GPa) = 0.01893509
#
# Stress axis : x y z
#
# Youngs Moduli (GPa) = 54.32792 47.14468 63.76542
#
# Poissons Ratio (x) = 0.25619 0.65937
# Poissons Ratio (y) = 0.29523 0.15355
# Poissons Ratio (z) = 0.56178 0.11353
#
# Static dielectric constant tensor:
#      x y z
#    x 3.718430 0.000000 0.000000 
#    y 0.000000 3.365270 0.000000 
#    z 0.000000 0.000000 3.576000 
# 
# 
# High freq. dielectric constant tensor:
#      x y z
#    x 1.771920 0.000000 0.000000 
#    y 0.000000 1.759900 0.000000 
#    z 0.000000 0.000000 1.770170 
# 
# From -- ./inp_files/31335.got.cif
#   From: 2010.03.12/outbox.cif.g09.slc.cpg/sg47_16_cif.got.tgz:31335.got - 2010.04.14 03:12:58.
