data_PCOD8196781
_publ_section_title
;
Structure prediction by ZEFSAII (Michael W. Deem and Ramdas Pophale) SiO2 
 PCOD8196781
Probable space group: P M M M
;
_chemical_formula_sum "Si O2"
_cell_formula_units_Z 64
_cell_length_a 28.098214
_cell_length_b 9.322296
_cell_length_c 14.635478
_cell_angle_alpha 90.000000
_cell_angle_beta 90.000000
_cell_angle_gamma 90.000000
_cell_volume 3833.615175
_symmetry_space_group_name_H-M "P M M M"
_symmetry_group_IT_number 47
_symmetry_cell_setting 'orthorhombic'
loop_
_space_group_symop_operation_xyz
x,y,z
-x,-y,z
x,-y,-z
-x,y,-z
-x,-y,-z
x,y,-z
-x,y,z
x,-y,z
loop_
_atom_site_type_symbol
_atom_site_label
_atom_site_fract_x
_atom_site_fract_y
_atom_site_fract_z
Si Si1 0.553822 0.834636 0.775037
Si Si2 0.857488 0.831281 0.605264
Si Si3 0.363152 0.339691 0.150416
Si Si4 0.052157 0.338846 0.391530
Si Si5 0.319613 0.656649 0.650513
Si Si6 0.765066 0.168562 0.710142
Si Si7 0.579889 0.666251 0.599919
Si Si8 0.276088 0.835206 0.900557
O O1 0.500000 0.823766 0.811944
O O2 0.587294 0.748046 0.845566
O O3 0.555072 0.768310 0.673247
O O4 0.570665 0.000000 0.769846
O O5 0.847469 0.785603 0.500000
O O6 0.905913 0.762680 0.645103
O O7 0.815114 0.774759 0.670630
O O8 0.863705 0.000000 0.612718
O O9 0.372098 0.500000 0.110384
O O10 0.341765 0.350396 0.249874
O O11 0.324513 0.255466 0.090447
O O12 0.052055 0.334970 0.500000
O O13 0.061764 0.500000 0.356619
O O14 0.000000 0.286433 0.356194
O O15 0.299738 0.500000 0.622092
O O16 0.276480 0.768234 0.646134
O O17 0.363828 0.703279 0.587584
O O18 0.758199 0.215845 0.816862
O O19 0.762372 0.000000 0.698391
O O20 0.556405 0.690701 0.500000
O O21 0.573927 0.500000 0.631259
O O22 0.290350 0.000000 0.882232
O O23 0.250089 0.819085 0.000000
#
# Coordination Sequence:
#
# PCOD8196781 Si02
#       8
#     8   8   8   8   8   8   8   8
#     4  10  20  32  46  64  85 109 138 173 214 260
#     4   9  17  27  38  56  85 119 151 181 215 255
#     4   9  17  30  48  67  86 108 135 168 206 251
#     4   8  14  25  40  57  78 107 146 189 226 259
#     4   8  15  27  41  57  77 104 138 172 207 248
#     4   9  17  28  41  60  88 117 145 178 213 254
#     4   9  18  31  44  59  81 109 143 182 220 259
#     4   9  17  30  49  70  91 117 146 175 212 257
#
# _framework density 16.694424000000001
#
# number of rings (size 3 to 8) (size 9 to 14) (size 15 to 20)
#    0.000    3.125    0.000    1.875    0.000    6.000 
#    0.000    2.500    0.000    0.375    0.000    2.625 
#    0.000    0.500    0.000    6.250    0.000    1.250 
#
# Total GULP energy -792973.433229 kJ/mol
# GULP energy per Si atom -12390.209894 kJ/mol
# Density = 1.665643 g / cm^3
# Si number density = 16.694424 Si / 1000 Ang^3
#
#
#
# Elastic Constant Matrix: (Units=GPa)
#
#
# Indices 1 2 3 4 5 6 
#
# 1 115.5094 44.6302 28.2983 0.0000 0.0000 0.0000
# 2 44.6302 64.5903 18.3797 0.0000 0.0000 0.0000
# 3 28.2983 18.3797 51.9895 0.0000 0.0000 0.0000
# 4 0.0000 0.0000 0.0000 10.3287 0.0000 0.0000
# 5 0.0000 0.0000 0.0000 0.0000 12.4367 0.0000
# 6 0.0000 0.0000 0.0000 0.0000 0.0000 25.2080
#
#
#
# Elastic Compliance Matrix: (Units=1/GPa)
#
#
# Indices 1 2 3 4 5 6 
#
# 1 0.012584 -0.007501 -0.004198 0.000000 0.000000 0.000000
# 2 -0.007501 0.021685 -0.003583 0.000000 0.000000 0.000000
# 3 -0.004198 -0.003583 0.022786 0.000000 0.000000 0.000000
# 4 0.000000 0.000000 0.000000 0.096817 0.000000 0.000000
# 5 0.000000 0.000000 0.000000 0.000000 0.080407 0.000000
# 6 0.000000 0.000000 0.000000 0.000000 0.000000 0.039670
#
#
# Mechanical properties :
#
#
# Convention : Reuss Voigt Hill
#
# Bulk Modulus (GPa) = 37.74853 46.07842 41.91348
# Shear Modulus (GPa) = 15.95696 18.98010 17.46853
#
# Velocity S-wave (km/s) = 3.09500 3.37547 3.23827
# Velocity P-wave (km/s) = 5.95253 6.54620 6.25641
#
# Compressibility (1/GPa) = 0.02649109
#
# Stress axis : x y z
#
# Youngs Moduli (GPa) = 79.46769 46.11577 43.88585
#
# Poissons Ratio (x) = 0.34589 0.18422
# Poissons Ratio (y) = 0.59605 0.15726
# Poissons Ratio (z) = 0.33359 0.16526
#
# Static dielectric constant tensor:
#      x y z
#    x 3.290730 0.000000 0.000000 
#    y 0.000000 3.271670 0.000000 
#    z 0.000000 0.000000 3.043840 
# 
# 
# High freq. dielectric constant tensor:
#      x y z
#    x 1.626120 0.000000 0.000000 
#    y 0.000000 1.644350 0.000000 
#    z 0.000000 0.000000 1.609720 
# 
# From -- ./inp_files/28954.got.cif
#   From: 2010.03.12/outbox.cif.g09.slc.cpg/sg47_15_cif.got.tgz:28954.got - 2010.04.14 03:12:58.
