data_PCOD8196252
_publ_section_title
;
Structure prediction by ZEFSAII (Michael W. Deem and Ramdas Pophale) SiO2 
 PCOD8196252
Probable space group: P M M M
;
_chemical_formula_sum "Si O2"
_cell_formula_units_Z 64
_cell_length_a 23.867870
_cell_length_b 8.939371
_cell_length_c 15.212776
_cell_angle_alpha 90.000000
_cell_angle_beta 90.000000
_cell_angle_gamma 90.000000
_cell_volume 3245.854858
_symmetry_space_group_name_H-M "P M M M"
_symmetry_group_IT_number 47
_symmetry_cell_setting 'orthorhombic'
loop_
_space_group_symop_operation_xyz
x,y,z
-x,-y,z
x,-y,-z
-x,y,-z
-x,-y,-z
x,y,-z
-x,y,z
x,-y,z
loop_
_atom_site_type_symbol
_atom_site_label
_atom_site_fract_x
_atom_site_fract_y
_atom_site_fract_z
Si Si1 0.364411 0.670687 0.598561
Si Si2 0.739338 0.170752 0.146888
Si Si3 0.629398 0.328953 0.099084
Si Si4 0.139633 0.326699 0.601601
Si Si5 0.934818 0.175228 0.741199
Si Si6 0.564222 0.176326 0.252769
Si Si7 0.861736 0.822326 0.097285
Si Si8 0.255114 0.170827 0.352727
O O1 0.389024 0.681406 0.500000
O O2 0.361431 0.500000 0.630996
O O3 0.404543 0.761277 0.662453
O O4 0.301945 0.736623 0.596070
O O5 0.692819 0.270521 0.100428
O O6 0.799638 0.236789 0.119703
O O7 0.731086 0.181399 0.250519
O O8 0.732964 0.000000 0.114460
O O9 0.628852 0.500000 0.130728
O O10 0.589730 0.234550 0.162180
O O11 0.606184 0.313569 0.000000
O O12 0.124558 0.302064 0.500000
O O13 0.149316 0.500000 0.623508
O O14 0.087782 0.263953 0.657225
O O15 0.194873 0.237240 0.626886
O O16 0.905100 0.237121 0.829762
O O17 0.000000 0.208714 0.751327
O O18 0.922332 0.000000 0.727573
O O19 0.500000 0.227078 0.257888
O O20 0.571344 0.000000 0.253779
O O21 0.861367 0.000000 0.100180
O O22 0.879609 0.765440 0.000000
O O23 0.256045 0.000000 0.385240
#
# Coordination Sequence:
#
# PCOD8196252 Si02
#       8
#     8   8   8   8   8   8   8   8
#     4  11  24  41  63  92 125 160 198 242 297 361
#     4  10  19  34  59  88 120 157 194 238 294 354
#     4  11  24  40  61  91 125 160 198 244 301 362
#     4  11  24  40  59  84 116 155 197 243 297 356
#     4  10  21  38  59  84 115 151 196 248 297 349
#     4  11  25  44  65  89 118 157 206 256 302 350
#     4   9  17  32  56  86 118 150 186 232 287 345
#     4  11  21  36  62  93 123 155 194 241 294 353
#
# _framework density 19.717455999999999
#
# number of rings (size 3 to 8) (size 9 to 14) (size 15 to 20)
#    0.000    1.500    2.500    2.625    0.000    7.750 
#    0.000    5.000    0.000    0.375    0.000    0.875 
#    0.000    0.000    0.000    0.000    0.000    0.000 
#
# Total GULP energy -793847.751639 kJ/mol
# GULP energy per Si atom -12403.871119 kJ/mol
# Density = 1.967258 g / cm^3
# Si number density = 19.717456 Si / 1000 Ang^3
#
#
#
# Elastic Constant Matrix: (Units=GPa)
#
#
# Indices 1 2 3 4 5 6 
#
# 1 111.9629 40.3385 37.4548 0.0000 0.0000 0.0000
# 2 40.3385 67.7294 31.6428 0.0000 0.0000 0.0000
# 3 37.4548 31.6428 99.8649 0.0000 0.0000 0.0000
# 4 0.0000 0.0000 0.0000 11.7473 0.0000 0.0000
# 5 0.0000 0.0000 0.0000 0.0000 9.4665 0.0000
# 6 0.0000 0.0000 0.0000 0.0000 0.0000 4.4269
#
#
#
# Elastic Compliance Matrix: (Units=1/GPa)
#
#
# Indices 1 2 3 4 5 6 
#
# 1 0.011924 -0.005883 -0.002608 0.000000 0.000000 0.000000
# 2 -0.005883 0.020233 -0.004204 0.000000 0.000000 0.000000
# 3 -0.002608 -0.004204 0.012324 0.000000 0.000000 0.000000
# 4 0.000000 0.000000 0.000000 0.085126 0.000000 0.000000
# 5 0.000000 0.000000 0.000000 0.000000 0.105636 0.000000
# 6 0.000000 0.000000 0.000000 0.000000 0.000000 0.225891
#
#
# Mechanical properties :
#
#
# Convention : Reuss Voigt Hill
#
# Bulk Modulus (GPa) = 52.38510 55.38105 53.88307
# Shear Modulus (GPa) = 10.14433 16.46955 13.30694
#
# Velocity S-wave (km/s) = 2.27069 2.89325 2.60067
# Velocity P-wave (km/s) = 5.78794 6.26973 6.03365
#
# Compressibility (1/GPa) = 0.01908940
#
# Stress axis : x y z
#
# Youngs Moduli (GPa) = 83.86787 49.42481 81.14364
#
# Poissons Ratio (x) = 0.29077 0.21161
# Poissons Ratio (y) = 0.49340 0.34116
# Poissons Ratio (z) = 0.21872 0.20780
#
# Static dielectric constant tensor:
#      x y z
#    x 3.581690 0.000000 0.000000 
#    y 0.000000 3.626880 0.000000 
#    z 0.000000 0.000000 3.823950 
# 
# 
# High freq. dielectric constant tensor:
#      x y z
#    x 1.766090 0.000000 0.000000 
#    y 0.000000 1.760390 0.000000 
#    z 0.000000 0.000000 1.784500 
# 
# From -- ./inp_files/12671.got.cif
#   From: 2010.03.12/outbox.cif.g09.slc.cpg/sg47_7_cif.got.tgz:12671.got - 2010.04.14 03:12:58.
