data_PCOD8196926
_publ_section_title
;
Structure prediction by ZEFSAII (Michael W. Deem and Ramdas Pophale) SiO2 
 PCOD8196926
Probable space group: P M M M
;
_chemical_formula_sum "Si O2"
_cell_formula_units_Z 44
_cell_length_a 13.479565
_cell_length_b 19.182801
_cell_length_c 8.902619
_cell_angle_alpha 90.000000
_cell_angle_beta 90.000000
_cell_angle_gamma 90.000000
_cell_volume 2302.001945
_symmetry_space_group_name_H-M "P M M M"
_symmetry_group_IT_number 47
_symmetry_cell_setting 'orthorhombic'
loop_
_space_group_symop_operation_xyz
x,y,z
-x,-y,z
x,-y,-z
-x,y,-z
-x,-y,-z
x,y,-z
-x,y,z
x,-y,z
loop_
_atom_site_type_symbol
_atom_site_label
_atom_site_fract_x
_atom_site_fract_y
_atom_site_fract_z
Si Si1 0.264353 0.922648 0.822527
Si Si2 0.309275 0.651476 0.177617
Si Si3 0.608453 0.202419 0.177846
Si Si4 0.500000 0.582371 0.672189
Si Si5 0.888599 0.325178 0.677690
Si Si6 0.887084 0.166294 0.665799
O O1 0.347441 0.869763 0.758017
O O2 0.159657 0.889840 0.777687
O O3 0.279061 0.000000 0.753113
O O4 0.269919 0.927366 0.000000
O O5 0.324096 0.732245 0.223586
O O6 0.399408 0.607921 0.247779
O O7 0.199919 0.630638 0.241982
O O8 0.310996 0.638852 0.000000
O O9 0.500000 0.213012 0.249140
O O10 0.600989 0.198096 0.000000
O O11 0.500000 0.500000 0.682241
O O12 0.500000 0.608248 0.500000
O O13 0.876182 0.332853 0.500000
O O14 0.877743 0.244852 0.728491
O O15 0.000000 0.351724 0.724172
O O16 0.837902 0.161558 0.500000
O O17 0.000000 0.144172 0.654188
#
# Coordination Sequence:
#
# PCOD8196926 Si02
#       6
#     8   8   8   4   8   8
#     4  10  20  32  47  69  98 135 180 230 283 338
#     4  11  20  34  60  90 118 149 189 238 284 331
#     4   9  17  31  50  74 102 133 175 224 276 332
#     4  11  25  43  63  91 126 159 188 220 268 332
#     4   9  18  33  54  82 115 151 193 238 285 342
#     4   9  18  32  49  69  96 134 180 229 279 332
#
# _framework density 19.113797000000002
#
# number of rings (size 3 to 8) (size 9 to 14) (size 15 to 20)
#    0.000    2.273    2.727    1.909    0.000    2.545 
#    0.000    5.455    0.000    0.545    0.000    5.091 
#    0.000    0.000    0.000    0.000    0.000    0.000 
#
# Total GULP energy -545255.658742 kJ/mol
# GULP energy per Si atom -12392.174062 kJ/mol
# Density = 1.907029 g / cm^3
# Si number density = 19.113797 Si / 1000 Ang^3
#
#
#
# Elastic Constant Matrix: (Units=GPa)
#
#
# Indices 1 2 3 4 5 6 
#
# 1 158.9796 38.4290 50.0013 0.0000 0.0000 0.0000
# 2 38.4290 55.3533 26.1443 0.0000 0.0000 0.0000
# 3 50.0013 26.1443 56.3660 0.0000 0.0000 0.0000
# 4 0.0000 0.0000 0.0000 21.0139 0.0000 0.0000
# 5 0.0000 0.0000 0.0000 0.0000 28.3254 0.0000
# 6 0.0000 0.0000 0.0000 0.0000 0.0000 18.6186
#
#
#
# Elastic Compliance Matrix: (Units=1/GPa)
#
#
# Indices 1 2 3 4 5 6 
#
# 1 0.009153 -0.003226 -0.006623 0.000000 0.000000 0.000000
# 2 -0.003226 0.024271 -0.008396 0.000000 0.000000 0.000000
# 3 -0.006623 -0.008396 0.027511 0.000000 0.000000 0.000000
# 4 0.000000 0.000000 0.000000 0.047588 0.000000 0.000000
# 5 0.000000 0.000000 0.000000 0.000000 0.035304 0.000000
# 6 0.000000 0.000000 0.000000 0.000000 0.000000 0.053710
#
#
# Mechanical properties :
#
#
# Convention : Reuss Voigt Hill
#
# Bulk Modulus (GPa) = 40.90883 55.53868 48.22375
# Shear Modulus (GPa) = 20.64629 23.99985 22.32307
#
# Velocity S-wave (km/s) = 3.29017 3.54733 3.42117
# Velocity P-wave (km/s) = 5.99023 6.77481 6.39456
#
# Compressibility (1/GPa) = 0.02444460
#
# Stress axis : x y z
#
# Youngs Moduli (GPa) = 109.25348 41.20130 36.34974
#
# Poissons Ratio (x) = 0.13293 0.24075
# Poissons Ratio (y) = 0.35249 0.30518
# Poissons Ratio (z) = 0.72359 0.34591
#
# Static dielectric constant tensor:
#      x y z
#    x 3.735020 0.000000 0.000000 
#    y 0.000000 3.384190 0.000000 
#    z 0.000000 0.000000 3.335800 
# 
# 
# High freq. dielectric constant tensor:
#      x y z
#    x 1.757270 0.000000 0.000000 
#    y 0.000000 1.715300 0.000000 
#    z 0.000000 0.000000 1.721420 
# 
# From -- ./inp_files/6077.got.cif
#   From: 2010.03.12/outbox.cif.g09.slc.cpg/sg47_4_cif.got.tgz:6077.got - 2010.04.14 03:12:58.
