data_PCOD8196322
_publ_section_title
;
Structure prediction by ZEFSAII (Michael W. Deem and Ramdas Pophale) SiO2 
 PCOD8196322
Probable space group: P M M M
;
_chemical_formula_sum "Si O2"
_cell_formula_units_Z 44
_cell_length_a 13.430930
_cell_length_b 9.480252
_cell_length_c 18.798179
_cell_angle_alpha 90.000000
_cell_angle_beta 90.000000
_cell_angle_gamma 90.000000
_cell_volume 2393.545833
_symmetry_space_group_name_H-M "P M M M"
_symmetry_group_IT_number 47
_symmetry_cell_setting 'orthorhombic'
loop_
_space_group_symop_operation_xyz
x,y,z
-x,-y,z
x,-y,-z
-x,y,-z
-x,-y,-z
x,y,-z
-x,y,z
x,-y,z
loop_
_atom_site_type_symbol
_atom_site_label
_atom_site_fract_x
_atom_site_fract_y
_atom_site_fract_z
Si Si1 0.390186 0.336292 0.316827
Si Si2 0.000000 0.837521 0.584064
Si Si3 0.389449 0.159704 0.824361
Si Si4 0.821815 0.663760 0.651647
Si Si5 0.790012 0.165640 0.080141
Si Si6 0.112973 0.343471 0.805577
O O1 0.500000 0.298586 0.350777
O O2 0.386596 0.500000 0.297008
O O3 0.375088 0.254910 0.243948
O O4 0.295050 0.303319 0.368976
O O5 0.898922 0.762145 0.610083
O O6 0.000000 0.829869 0.500000
O O7 0.000000 0.000000 0.610632
O O8 0.500000 0.173830 0.855875
O O9 0.317192 0.207050 0.887916
O O10 0.365917 0.000000 0.800496
O O11 0.849335 0.500000 0.636186
O O12 0.824537 0.697727 0.735805
O O13 0.872977 0.237284 0.129209
O O14 0.809561 0.000000 0.081058
O O15 0.796939 0.224558 0.000000
O O16 0.141854 0.500000 0.831936
O O17 0.000000 0.336256 0.779834
#
# Coordination Sequence:
#
# PCOD8196322 Si02
#       6
#     8   4   8   8   8   8
#     4   9  17  30  52  82 112 140 175 223 271 315
#     4  11  25  41  59  89 122 147 176 215 259 310
#     4   9  17  29  46  69  98 133 174 219 268 321
#     4  10  19  35  59  85 113 146 182 219 264 320
#     4  10  21  34  47  67  97 134 178 226 274 323
#     4  10  20  35  53  74  99 129 173 221 266 322
#
# _framework density 18.382770000000001
#
# number of rings (size 3 to 8) (size 9 to 14) (size 15 to 20)
#    0.000    2.273    2.727    0.273    0.000    3.636 
#    0.000    3.636    0.000    0.545    0.000    7.636 
#    0.000    0.000    0.000    0.000    0.000    0.000 
#
# Total GULP energy -545255.965136 kJ/mol
# GULP energy per Si atom -12392.181026 kJ/mol
# Density = 1.834093 g / cm^3
# Si number density = 18.382770 Si / 1000 Ang^3
#
#
#
# Elastic Constant Matrix: (Units=GPa)
#
#
# Indices 1 2 3 4 5 6 
#
# 1 135.4090 48.7353 37.6618 0.0000 0.0000 0.0000
# 2 48.7353 61.5678 30.7691 0.0000 0.0000 0.0000
# 3 37.6618 30.7691 49.8918 0.0000 0.0000 0.0000
# 4 0.0000 0.0000 0.0000 14.5515 0.0000 0.0000
# 5 0.0000 0.0000 0.0000 0.0000 16.1963 0.0000
# 6 0.0000 0.0000 0.0000 0.0000 0.0000 25.8049
#
#
#
# Elastic Compliance Matrix: (Units=1/GPa)
#
#
# Indices 1 2 3 4 5 6 
#
# 1 0.010905 -0.006531 -0.004204 0.000000 0.000000 0.000000
# 2 -0.006531 0.027390 -0.011962 0.000000 0.000000 0.000000
# 3 -0.004204 -0.011962 0.030594 0.000000 0.000000 0.000000
# 4 0.000000 0.000000 0.000000 0.068721 0.000000 0.000000
# 5 0.000000 0.000000 0.000000 0.000000 0.061742 0.000000
# 6 0.000000 0.000000 0.000000 0.000000 0.000000 0.038752
#
#
# Mechanical properties :
#
#
# Convention : Reuss Voigt Hill
#
# Bulk Modulus (GPa) = 42.56194 53.46678 48.01436
# Shear Modulus (GPa) = 17.16266 19.95738 18.56002
#
# Velocity S-wave (km/s) = 3.05885 3.29851 3.18093
# Velocity P-wave (km/s) = 5.97318 6.60721 6.29818
#
# Compressibility (1/GPa) = 0.02349517
#
# Stress axis : x y z
#
# Youngs Moduli (GPa) = 91.70200 36.50969 32.68633
#
# Poissons Ratio (x) = 0.23844 0.13741
# Poissons Ratio (y) = 0.59891 0.39099
# Poissons Ratio (z) = 0.38552 0.43672
#
# Static dielectric constant tensor:
#      x y z
#    x 3.846460 0.000000 0.000000 
#    y 0.000000 3.414940 0.000000 
#    z 0.000000 0.000000 3.042220 
# 
# 
# High freq. dielectric constant tensor:
#      x y z
#    x 1.736460 0.000000 0.000000 
#    y 0.000000 1.709090 0.000000 
#    z 0.000000 0.000000 1.670090 
# 
# From -- ./inp_files/6146.got.cif
#   From: 2010.03.12/outbox.cif.g09.slc.cpg/sg47_4_cif.got.tgz:6146.got - 2010.04.14 03:12:58.
