data_PCOD8196952
_publ_section_title
;
Structure prediction by ZEFSAII (Michael W. Deem and Ramdas Pophale) SiO2 
 PCOD8196952
Probable space group: P M M M
;
_chemical_formula_sum "Si O2"
_cell_formula_units_Z 44
_cell_length_a 9.095481
_cell_length_b 9.538527
_cell_length_c 28.330607
_cell_angle_alpha 90.000000
_cell_angle_beta 90.000000
_cell_angle_gamma 90.000000
_cell_volume 2457.892385
_symmetry_space_group_name_H-M "P M M M"
_symmetry_group_IT_number 47
_symmetry_cell_setting 'orthorhombic'
loop_
_space_group_symop_operation_xyz
x,y,z
-x,-y,z
x,-y,-z
-x,y,-z
-x,-y,-z
x,y,-z
-x,y,z
x,-y,z
loop_
_atom_site_type_symbol
_atom_site_label
_atom_site_fract_x
_atom_site_fract_y
_atom_site_fract_z
Si Si1 0.332167 0.337965 0.445481
Si Si2 0.334001 0.833060 0.276189
Si Si3 0.833734 0.832846 0.000000
Si Si4 0.666237 0.167136 0.092195
Si Si5 0.833782 0.832771 0.184418
Si Si6 0.171123 0.837464 0.630654
O O1 0.298406 0.307111 0.500000
O O2 0.500000 0.297296 0.433486
O O3 0.304009 0.500000 0.433790
O O4 0.221762 0.245077 0.415358
O O5 0.500000 0.775304 0.274947
O O6 0.247263 0.773797 0.230884
O O7 0.256052 0.778497 0.323617
O O8 0.331878 0.000000 0.274991
O O9 0.750318 0.775338 0.046162
O O10 0.000000 0.775200 0.000000
O O11 0.834051 0.000000 0.000000
O O12 0.500000 0.224831 0.091976
O O13 0.748867 0.224480 0.138511
O O14 0.665922 0.000000 0.092139
O O15 0.000000 0.775401 0.183640
O O16 0.833407 0.000000 0.184638
O O17 0.000000 0.812382 0.639393
O O18 0.207369 0.000000 0.622334
#
# Coordination Sequence:
#
# PCOD8196952 Si02
#       6
#     8   8   4   8   8   8
#     4   9  19  36  55  73  94 122 156 191 226 267
#     4   9  16  26  40  57  78 105 136 170 210 256
#     4   9  15  21  27  35  49  71 103 147 198 245
#     4   9  15  21  28  38  53  76 109 149 194 245
#     4   9  15  22  32  46  65  89 118 155 201 251
#     4  10  20  32  47  70  98 124 151 186 228 272
#
# _framework density 17.901516999999998
#
# number of rings (size 3 to 8) (size 9 to 14) (size 15 to 20)
#    0.000    2.818    0.000    3.000    0.000    9.818 
#    0.000    2.727    0.000    0.000    0.000    0.000 
#    0.000    0.000    0.000    0.000    0.000    0.000 
#
# Total GULP energy -545587.394349 kJ/mol
# GULP energy per Si atom -12399.713508 kJ/mol
# Density = 1.786077 g / cm^3
# Si number density = 17.901517 Si / 1000 Ang^3
#
#
#
# Elastic Constant Matrix: (Units=GPa)
#
#
# Indices 1 2 3 4 5 6 
#
# 1 163.4267 24.1015 89.3344 0.0000 0.0000 0.0000
# 2 24.1015 16.6809 28.8342 0.0000 0.0000 0.0000
# 3 89.3344 28.8342 153.2168 0.0000 0.0000 0.0000
# 4 0.0000 0.0000 0.0000 -0.8149 0.0000 0.0000
# 5 0.0000 0.0000 0.0000 0.0000 42.7559 0.0000
# 6 0.0000 0.0000 0.0000 0.0000 0.0000 12.9752
#
#
#
# Elastic Compliance Matrix: (Units=1/GPa)
#
#
# Indices 1 2 3 4 5 6 
#
# 1 0.009379 -0.006075 -0.004325 0.000000 0.000000 0.000000
# 2 -0.006075 0.092788 -0.013920 0.000000 0.000000 0.000000
# 3 -0.004325 -0.013920 0.011668 0.000000 0.000000 0.000000
# 4 0.000000 0.000000 0.000000 -1.227071 0.000000 0.000000
# 5 0.000000 0.000000 0.000000 0.000000 0.023389 0.000000
# 6 0.000000 0.000000 0.000000 0.000000 0.000000 0.077070
#
#
# Mechanical properties :
#
#
# Convention : Reuss Voigt Hill
#
# Bulk Modulus (GPa) = 15.33863 68.65162 41.99513
# Shear Modulus (GPa) = -5.30557 23.72020 9.20731
#
# Velocity S-wave (km/s) = -1.72342 3.64406 2.27035
# Velocity P-wave (km/s) = 2.15097 7.49256 5.51204
#
# Compressibility (1/GPa) = 0.06519487
#
# Stress axis : x y z
#
# Youngs Moduli (GPa) = 106.61832 10.77729 85.70229
#
# Poissons Ratio (x) = 0.06547 0.37070
# Poissons Ratio (y) = 0.64769 1.19297
# Poissons Ratio (z) = 0.46117 0.15002
#
# Static dielectric constant tensor:
#      x y z
#    x 3.492680 0.000000 0.000000 
#    y 0.000000 2.526160 0.000000 
#    z 0.000000 0.000000 3.488830 
# 
# 
# High freq. dielectric constant tensor:
#      x y z
#    x 1.710650 0.000000 0.000000 
#    y 0.000000 1.603640 0.000000 
#    z 0.000000 0.000000 1.711420 
# 
# From -- ./inp_files/15287.got.cif
#   From: 2010.03.12/outbox.cif.g09.slc.cpg/sg47_8_cif.got.tgz:15287.got - 2010.04.14 03:12:58.
