data_PCOD8196732
_publ_section_title
;
Structure prediction by ZEFSAII (Michael W. Deem and Ramdas Pophale) SiO2 
 PCOD8196732
Probable space group: P M M M
;
_chemical_formula_sum "Si O2"
_cell_formula_units_Z 64
_cell_length_a 20.354848
_cell_length_b 9.721145
_cell_length_c 20.099315
_cell_angle_alpha 90.000000
_cell_angle_beta 90.000000
_cell_angle_gamma 90.000000
_cell_volume 3977.100277
_symmetry_space_group_name_H-M "P M M M"
_symmetry_group_IT_number 47
_symmetry_cell_setting 'orthorhombic'
loop_
_space_group_symop_operation_xyz
x,y,z
-x,-y,z
x,-y,-z
-x,y,-z
-x,-y,-z
x,y,-z
-x,y,z
x,-y,z
loop_
_atom_site_type_symbol
_atom_site_label
_atom_site_fract_x
_atom_site_fract_y
_atom_site_fract_z
Si Si1 0.190329 0.162104 0.837867
Si Si2 0.262361 0.839370 0.712939
Si Si3 0.573305 0.656951 0.890005
Si Si4 0.694113 0.158804 0.427622
Si Si5 0.926981 0.836331 0.074909
Si Si6 0.619242 0.346608 0.746454
Si Si7 0.426962 0.656909 0.603661
Si Si8 0.690668 0.155446 0.074396
O O1 0.197891 0.197264 0.758304
O O2 0.124147 0.225867 0.870496
O O3 0.254158 0.219471 0.876861
O O4 0.187548 0.000000 0.849544
O O5 0.257395 0.797780 0.634031
O O6 0.322588 0.762775 0.746765
O O7 0.276901 0.000000 0.719604
O O8 0.500000 0.695055 0.914384
O O9 0.590122 0.500000 0.909352
O O10 0.574886 0.677317 0.810680
O O11 0.624928 0.755025 0.925443
O O12 0.729010 0.182021 0.500000
O O13 0.627125 0.244991 0.428725
O O14 0.674272 0.000000 0.418908
O O15 0.000000 0.781216 0.092666
O O16 0.927126 0.000000 0.077838
O O17 0.907465 0.789018 0.000000
O O18 0.650361 0.500000 0.745949
O O19 0.572839 0.325767 0.683035
O O20 0.500000 0.696653 0.578099
O O21 0.410412 0.500000 0.583156
O O22 0.672643 0.000000 0.096060
O O23 0.719972 0.157195 0.000000
#
# Coordination Sequence:
#
# PCOD8196732 Si02
#       8
#     8   8   8   8   8   8   8   8
#     4   9  15  25  42  62  84 110 140 172 203 240
#     4   9  16  27  44  62  80 103 134 170 205 239
#     4  10  20  32  45  59  77 103 135 174 219 260
#     4   9  18  30  41  55  78 105 131 164 207 251
#     4   8  13  21  35  59  92 124 145 162 196 248
#     4   9  16  28  44  60  78 100 129 168 212 254
#     4   9  17  28  42  59  77  98 128 165 206 256
#     4  10  20  32  45  61  81 105 134 171 214 253
#
# _framework density 16.092126
#
# number of rings (size 3 to 8) (size 9 to 14) (size 15 to 20)
#    0.000    2.875    1.250    1.125    0.000    4.500 
#    0.000    2.500    0.000    2.250    0.000    0.000 
#    0.000    2.500    0.000   13.875    0.000    6.250 
#
# Total GULP energy -792873.961951 kJ/mol
# GULP energy per Si atom -12388.655655 kJ/mol
# Density = 1.605550 g / cm^3
# Si number density = 16.092126 Si / 1000 Ang^3
#
#
#
# Elastic Constant Matrix: (Units=GPa)
#
#
# Indices 1 2 3 4 5 6 
#
# 1 90.3000 22.3243 53.3104 0.0000 0.0000 0.0000
# 2 22.3243 30.8175 19.8108 0.0000 0.0000 0.0000
# 3 53.3104 19.8108 112.5541 0.0000 0.0000 0.0000
# 4 0.0000 0.0000 0.0000 13.7099 0.0000 0.0000
# 5 0.0000 0.0000 0.0000 0.0000 16.4604 0.0000
# 6 0.0000 0.0000 0.0000 0.0000 0.0000 0.9324
#
#
#
# Elastic Compliance Matrix: (Units=1/GPa)
#
#
# Indices 1 2 3 4 5 6 
#
# 1 0.016971 -0.008036 -0.006624 0.000000 0.000000 0.000000
# 2 -0.008036 0.040394 -0.003304 0.000000 0.000000 0.000000
# 3 -0.006624 -0.003304 0.012603 0.000000 0.000000 0.000000
# 4 0.000000 0.000000 0.000000 0.072940 0.000000 0.000000
# 5 0.000000 0.000000 0.000000 0.000000 0.060752 0.000000
# 6 0.000000 0.000000 0.000000 0.000000 0.000000 1.072478
#
#
# Mechanical properties :
#
#
# Convention : Reuss Voigt Hill
#
# Bulk Modulus (GPa) = 29.37561 47.17361 38.27461
# Shear Modulus (GPa) = 3.77811 15.43564 9.60687
#
# Velocity S-wave (km/s) = 1.53392 3.10046 2.44599
# Velocity P-wave (km/s) = 4.62941 6.49581 5.64035
#
# Compressibility (1/GPa) = 0.03404185
#
# Stress axis : x y z
#
# Youngs Moduli (GPa) = 58.92233 24.75607 79.34318
#
# Poissons Ratio (x) = 0.19894 0.52557
# Poissons Ratio (y) = 0.47350 0.26212
# Poissons Ratio (z) = 0.39030 0.08178
#
# Static dielectric constant tensor:
#      x y z
#    x 2.942140 0.000000 0.000000 
#    y 0.000000 2.855080 0.000000 
#    z 0.000000 0.000000 3.349510 
# 
# 
# High freq. dielectric constant tensor:
#      x y z
#    x 1.574930 0.000000 0.000000 
#    y 0.000000 1.591750 0.000000 
#    z 0.000000 0.000000 1.631520 
# 
# From -- ./inp_files/30132.got.cif
#   From: 2010.03.12/outbox.cif.g09.slc.cpg/sg47_16_cif.got.tgz:30132.got - 2010.04.14 03:12:58.
