data_PCOD8196537
_publ_section_title
;
Structure prediction by ZEFSAII (Michael W. Deem and Ramdas Pophale) SiO2 
 PCOD8196537
Probable space group: P M M M
;
_chemical_formula_sum "Si O2"
_cell_formula_units_Z 52
_cell_length_a 9.555058
_cell_length_b 28.665482
_cell_length_c 12.304543
_cell_angle_alpha 90.000000
_cell_angle_beta 90.000000
_cell_angle_gamma 90.000000
_cell_volume 3370.218549
_symmetry_space_group_name_H-M "P M M M"
_symmetry_group_IT_number 47
_symmetry_cell_setting 'orthorhombic'
loop_
_space_group_symop_operation_xyz
x,y,z
-x,-y,z
x,-y,-z
-x,y,-z
-x,-y,-z
x,y,-z
-x,y,z
x,-y,z
loop_
_atom_site_type_symbol
_atom_site_label
_atom_site_fract_x
_atom_site_fract_y
_atom_site_fract_z
Si Si1 0.664595 0.802609 0.371862
Si Si2 0.752983 0.386684 0.629367
Si Si3 0.841026 0.713404 0.628903
Si Si4 0.341060 0.946253 0.127181
Si Si5 0.500000 0.446738 0.370167
Si Si6 0.831837 0.889451 0.707322
Si Si7 0.834947 0.051603 0.500000
Si Si8 0.000000 0.551322 0.370542
O O1 0.684020 0.811259 0.500000
O O2 0.500000 0.802841 0.340385
O O3 0.735055 0.754073 0.335417
O O4 0.751654 0.840809 0.305421
O O5 0.748431 0.383537 0.500000
O O6 0.774393 0.334488 0.676093
O O7 0.622794 0.414742 0.675763
O O8 0.872259 0.419720 0.673930
O O9 0.849542 0.710450 0.500000
O O10 0.000000 0.721164 0.673628
O O11 0.500000 0.933688 0.163819
O O12 0.225516 0.914307 0.185089
O O13 0.309181 0.000000 0.155258
O O14 0.324403 0.937170 0.000000
O O15 0.500000 0.500000 0.323829
O O16 0.500000 0.450258 0.500000
O O17 0.785127 0.921268 0.606344
O O18 0.000000 0.882114 0.713864
O O19 0.000000 0.047323 0.500000
O O20 0.766764 0.000000 0.500000
O O21 0.000000 0.500000 0.318793
O O22 0.000000 0.547742 0.500000
#
# Coordination Sequence:
#
# PCOD8196537 Si02
#       8
#     8   8   8   8   4   8   4   4
#     4  10  20  31  44  61  83 112 145 181 222 270
#     4   9  15  22  31  43  60  83 115 155 204 257
#     4   9  16  26  38  51  68  93 128 169 214 262
#     4   9  19  36  55  74  98 126 153 183 221 263
#     4   9  16  22  28  40  60  84 112 152 203 256
#     4  11  20  32  50  70  97 123 151 187 225 267
#     4   9  18  30  45  67  95 123 147 175 218 265
#     4   9  14  20  30  42  58  80 112 152 201 254
#
# _framework density 15.429266
#
# number of rings (size 3 to 8) (size 9 to 14) (size 15 to 20)
#    0.000    2.538    1.538    2.308    1.077    3.692 
#    0.000    0.769    0.000    1.846    0.000    0.000 
#    0.000    0.000    0.000    0.000    0.000    0.000 
#
# Total GULP energy -644302.415347 kJ/mol
# GULP energy per Si atom -12390.431064 kJ/mol
# Density = 1.539415 g / cm^3
# Si number density = 15.429266 Si / 1000 Ang^3
#
#
#
# Elastic Constant Matrix: (Units=GPa)
#
#
# Indices 1 2 3 4 5 6 
#
# 1 135.8528 77.5424 23.3858 0.0000 0.0000 0.0000
# 2 77.5424 149.0352 27.2445 0.0000 0.0000 0.0000
# 3 23.3858 27.2445 27.7731 0.0000 0.0000 0.0000
# 4 0.0000 0.0000 0.0000 7.0205 0.0000 0.0000
# 5 0.0000 0.0000 0.0000 0.0000 14.8244 0.0000
# 6 0.0000 0.0000 0.0000 0.0000 0.0000 24.7395
#
#
#
# Elastic Compliance Matrix: (Units=1/GPa)
#
#
# Indices 1 2 3 4 5 6 
#
# 1 0.010895 -0.004864 -0.004403 0.000000 0.000000 0.000000
# 2 -0.004864 0.010347 -0.006055 0.000000 0.000000 0.000000
# 3 -0.004403 -0.006055 0.045653 0.000000 0.000000 0.000000
# 4 0.000000 0.000000 0.000000 0.142440 0.000000 0.000000
# 5 0.000000 0.000000 0.000000 0.000000 0.067456 0.000000
# 6 0.000000 0.000000 0.000000 0.000000 0.000000 0.040421
#
#
# Mechanical properties :
#
#
# Convention : Reuss Voigt Hill
#
# Bulk Modulus (GPa) = 27.58435 63.22292 45.40364
# Shear Modulus (GPa) = 13.89120 21.61610 17.75365
#
# Velocity S-wave (km/s) = 3.00378 3.74703 3.39580
# Velocity P-wave (km/s) = 5.47239 7.73209 6.69822
#
# Compressibility (1/GPa) = 0.03625244
#
# Stress axis : x y z
#
# Youngs Moduli (GPa) = 91.78582 96.64367 21.90441
#
# Poissons Ratio (x) = 0.47005 0.09644
# Poissons Ratio (y) = 0.44642 0.13263
# Poissons Ratio (z) = 0.40410 0.58517
#
# Static dielectric constant tensor:
#      x y z
#    x 3.078250 0.000000 0.000000 
#    y 0.000000 3.205360 0.000000 
#    z 0.000000 0.000000 2.316450 
# 
# 
# High freq. dielectric constant tensor:
#      x y z
#    x 1.606070 0.000000 0.000000 
#    y 0.000000 1.609000 0.000000 
#    z 0.000000 0.000000 1.506210 
# 
# From -- ./inp_files/15574.got.cif
#   From: 2010.03.12/outbox.cif.g09.slc.cpg/sg47_8_cif.got.tgz:15574.got - 2010.04.14 03:12:58.
