data_PCOD8196813
_publ_section_title
;
Structure prediction by ZEFSAII (Michael W. Deem and Ramdas Pophale) SiO2 
 PCOD8196813
Probable space group: P M M M
;
_chemical_formula_sum "Si O2"
_cell_formula_units_Z 52
_cell_length_a 30.387495
_cell_length_b 10.624305
_cell_length_c 9.361991
_cell_angle_alpha 90.000000
_cell_angle_beta 90.000000
_cell_angle_gamma 90.000000
_cell_volume 3022.481487
_symmetry_space_group_name_H-M "P M M M"
_symmetry_group_IT_number 47
_symmetry_cell_setting 'orthorhombic'
loop_
_space_group_symop_operation_xyz
x,y,z
-x,-y,z
x,-y,-z
-x,y,-z
-x,-y,-z
x,y,-z
-x,y,z
x,-y,z
loop_
_atom_site_type_symbol
_atom_site_label
_atom_site_fract_x
_atom_site_fract_y
_atom_site_fract_z
Si Si1 0.378971 0.144555 0.844241
Si Si2 0.717177 0.850791 0.161987
Si Si3 0.115780 0.855059 0.168545
Si Si4 0.447949 0.500000 0.841152
Si Si5 0.049370 0.640356 0.830579
Si Si6 0.202303 0.148988 0.340406
Si Si7 0.449375 0.259850 0.666859
O O1 0.331690 0.201832 0.795214
O O2 0.417022 0.152894 0.724478
O O3 0.369443 0.000000 0.868406
O O4 0.393645 0.201211 0.000000
O O5 0.753995 0.791962 0.266652
O O6 0.719298 0.000000 0.176487
O O7 0.727815 0.809847 0.000000
O O8 0.079382 0.755734 0.225680
O O9 0.160226 0.813850 0.247057
O O10 0.102106 0.000000 0.205984
O O11 0.123668 0.842016 0.000000
O O12 0.500000 0.500000 0.850175
O O13 0.432093 0.380527 0.752414
O O14 0.427293 0.500000 0.000000
O O15 0.065936 0.500000 0.781705
O O16 0.000000 0.662425 0.771621
O O17 0.048791 0.644867 0.000000
O O18 0.197933 0.205278 0.500000
O O19 0.206473 0.000000 0.347736
O O20 0.443153 0.283133 0.500000
O O21 0.500000 0.224909 0.701524
#
# Coordination Sequence:
#
# PCOD8196813 Si02
#       7
#     8   8   8   4   8   8   8
#     4   9  18  31  46  66  92 122 154 185 220 266
#     4   8  14  26  43  62  86 115 147 183 220 259
#     4   9  16  25  40  64  90 114 143 182 227 268
#     4   9  17  31  51  69  83 105 143 187 225 263
#     4   8  14  25  41  62  88 117 150 187 224 262
#     4   9  16  25  39  61  88 115 142 175 218 266
#     4  10  20  32  46  66  92 119 148 185 228 271
#
# _framework density 17.204407
#
# number of rings (size 3 to 8) (size 9 to 14) (size 15 to 20)
#    0.000    3.154    0.000    2.538    0.000    5.231 
#    0.000    4.615    0.000    0.923    2.000    3.231 
#    0.000    0.000    0.000    0.000    0.000    0.000 
#
# Total GULP energy -644210.188681 kJ/mol
# GULP energy per Si atom -12388.657475 kJ/mol
# Density = 1.716525 g / cm^3
# Si number density = 17.204407 Si / 1000 Ang^3
#
#
#
# Elastic Constant Matrix: (Units=GPa)
#
#
# Indices 1 2 3 4 5 6 
#
# 1 125.0067 45.0750 60.7675 0.0000 0.0000 0.0000
# 2 45.0750 52.0556 25.0245 0.0000 0.0000 0.0000
# 3 60.7675 25.0245 84.8966 0.0000 0.0000 0.0000
# 4 0.0000 0.0000 0.0000 14.6779 0.0000 0.0000
# 5 0.0000 0.0000 0.0000 0.0000 12.0424 0.0000
# 6 0.0000 0.0000 0.0000 0.0000 0.0000 4.9030
#
#
#
# Elastic Compliance Matrix: (Units=1/GPa)
#
#
# Indices 1 2 3 4 5 6 
#
# 1 0.015385 -0.009354 -0.008256 0.000000 0.000000 0.000000
# 2 -0.009354 0.028068 -0.001578 0.000000 0.000000 0.000000
# 3 -0.008256 -0.001578 0.018153 0.000000 0.000000 0.000000
# 4 0.000000 0.000000 0.000000 0.068130 0.000000 0.000000
# 5 0.000000 0.000000 0.000000 0.000000 0.083040 0.000000
# 6 0.000000 0.000000 0.000000 0.000000 0.000000 0.203959
#
#
# Mechanical properties :
#
#
# Convention : Reuss Voigt Hill
#
# Bulk Modulus (GPa) = 43.04383 58.18811 50.61597
# Shear Modulus (GPa) = 10.80253 15.06410 12.93332
#
# Velocity S-wave (km/s) = 2.50850 2.96226 2.74477
# Velocity P-wave (km/s) = 5.78476 6.75241 6.28723
#
# Compressibility (1/GPa) = 0.02323214
#
# Stress axis : x y z
#
# Youngs Moduli (GPa) = 64.99662 35.62740 55.08598
#
# Poissons Ratio (x) = 0.33324 0.45476
# Poissons Ratio (y) = 0.60795 0.08695
# Poissons Ratio (z) = 0.53658 0.05623
#
# Static dielectric constant tensor:
#      x y z
#    x 3.349200 0.000000 0.000000 
#    y 0.000000 2.998370 0.000000 
#    z 0.000000 0.000000 3.184510 
# 
# 
# High freq. dielectric constant tensor:
#      x y z
#    x 1.664380 0.000000 0.000000 
#    y 0.000000 1.619770 0.000000 
#    z 0.000000 0.000000 1.651990 
# 
# From -- ./inp_files/4568.got.cif
#   From: 2010.03.12/outbox.cif.g09.slc.cpg/sg47_3_cif.got.tgz:4568.got - 2010.04.14 03:12:58.
