data_PCOD8196470
_publ_section_title
;
Structure prediction by ZEFSAII (Michael W. Deem and Ramdas Pophale) SiO2 
 PCOD8196470
Probable space group: P M M M
;
_chemical_formula_sum "Si O2"
_cell_formula_units_Z 64
_cell_length_a 9.216974
_cell_length_b 21.217830
_cell_length_c 21.590293
_cell_angle_alpha 90.000000
_cell_angle_beta 90.000000
_cell_angle_gamma 90.000000
_cell_volume 4222.288107
_symmetry_space_group_name_H-M "P M M M"
_symmetry_group_IT_number 47
_symmetry_cell_setting 'orthorhombic'
loop_
_space_group_symop_operation_xyz
x,y,z
-x,-y,z
x,-y,-z
-x,y,-z
-x,-y,-z
x,y,-z
-x,y,z
x,-y,z
loop_
_atom_site_type_symbol
_atom_site_label
_atom_site_fract_x
_atom_site_fract_y
_atom_site_fract_z
Si Si1 0.831431 0.674478 0.570984
Si Si2 0.829394 0.842791 0.928477
Si Si3 0.667325 0.925765 0.167423
Si Si4 0.839866 0.262552 0.839601
Si Si5 0.169116 0.571604 0.669780
Si Si6 0.337809 0.344256 0.242628
Si Si7 0.163294 0.153338 0.261092
Si Si8 0.336051 0.236719 0.654405
O O1 0.793135 0.660427 0.500000
O O2 0.787920 0.612120 0.609401
O O3 0.740437 0.734743 0.593661
O O4 0.000000 0.690688 0.580444
O O5 0.738888 0.896484 0.893886
O O6 0.788245 0.773400 0.901927
O O7 0.000000 0.855701 0.917303
O O8 0.786507 0.844728 0.000000
O O9 0.500000 0.904091 0.171598
O O10 0.749632 0.903836 0.229528
O O11 0.681902 0.000000 0.161710
O O12 0.733119 0.319524 0.821421
O O13 0.843524 0.211138 0.785726
O O14 0.000000 0.291591 0.848674
O O15 0.215565 0.500000 0.656212
O O16 0.251206 0.596119 0.730748
O O17 0.000000 0.577596 0.684269
O O18 0.500000 0.366202 0.227340
O O19 0.335097 0.288684 0.292228
O O20 0.247521 0.175226 0.323080
O O21 0.000000 0.131420 0.278371
O O22 0.500000 0.216705 0.637758
#
# Coordination Sequence:
#
# PCOD8196470 Si02
#       8
#     8   8   8   8   8   8   8   8
#     4   9  17  28  41  58  82 112 145 178 208 241
#     4   9  18  31  45  61  82 111 146 179 209 243
#     4  10  20  31  42  59  85 115 145 176 209 245
#     4   8  14  25  41  59  78 100 128 166 209 248
#     4   9  17  28  41  57  79 109 143 176 209 244
#     4   9  16  25  39  58  78 101 130 166 208 251
#     4   9  16  27  44  62  79 102 134 172 213 253
#     4   9  16  26  41  60  81 104 132 169 213 256
#
# _framework density 15.157657
#
# number of rings (size 3 to 8) (size 9 to 14) (size 15 to 20)
#    0.000    3.000    0.000    2.250    0.000    8.250 
#    0.000    2.500    0.000    0.000    0.000    3.500 
#    0.000    1.000    0.000   11.000    0.000    4.625 
#
# Total GULP energy -793421.335675 kJ/mol
# GULP energy per Si atom -12397.208370 kJ/mol
# Density = 1.512316 g / cm^3
# Si number density = 15.157657 Si / 1000 Ang^3
#
#
#
# Elastic Constant Matrix: (Units=GPa)
#
#
# Indices 1 2 3 4 5 6 
#
# 1 100.8907 49.6103 50.0057 0.0000 0.0000 0.0000
# 2 49.6103 59.6280 59.5157 0.0000 0.0000 0.0000
# 3 50.0057 59.5157 62.3497 0.0000 0.0000 0.0000
# 4 0.0000 0.0000 0.0000 16.2952 0.0000 0.0000
# 5 0.0000 0.0000 0.0000 0.0000 16.2603 0.0000
# 6 0.0000 0.0000 0.0000 0.0000 0.0000 21.1685
#
#
#
# Elastic Compliance Matrix: (Units=1/GPa)
#
#
# Indices 1 2 3 4 5 6 
#
# 1 0.016797 -0.011193 -0.002787 0.000000 0.000000 0.000000
# 2 -0.011193 0.362390 -0.336941 0.000000 0.000000 0.000000
# 3 -0.002787 -0.336941 0.339900 0.000000 0.000000 0.000000
# 4 0.000000 0.000000 0.000000 0.061368 0.000000 0.000000
# 5 0.000000 0.000000 0.000000 0.000000 0.061499 0.000000
# 6 0.000000 0.000000 0.000000 0.000000 0.000000 0.047240
#
#
# Mechanical properties :
#
#
# Convention : Reuss Voigt Hill
#
# Bulk Modulus (GPa) = 57.99058 60.12576 59.05817
# Shear Modulus (GPa) = 3.13129 14.99390 9.06259
#
# Velocity S-wave (km/s) = 1.43885 3.14856 2.44783
# Velocity P-wave (km/s) = 6.41106 7.27811 6.85830
#
# Compressibility (1/GPa) = 0.01724418
#
# Stress axis : x y z
#
# Youngs Moduli (GPa) = 59.53397 2.75946 2.94204
#
# Poissons Ratio (x) = 0.03089 0.00820
# Poissons Ratio (y) = 0.66638 0.99129
# Poissons Ratio (z) = 0.16593 0.92978
#
# Static dielectric constant tensor:
#      x y z
#    x 3.121220 0.000000 0.000000 
#    y 0.000000 2.730260 0.000000 
#    z 0.000000 0.000000 2.832150 
# 
# 
# High freq. dielectric constant tensor:
#      x y z
#    x 1.592800 0.000000 0.000000 
#    y 0.000000 1.549060 0.000000 
#    z 0.000000 0.000000 1.552450 
# 
# From -- ./inp_files/10177.got.cif
#   From: 2010.03.12/outbox.cif.g09.slc.cpg/sg47_6_cif.got.tgz:10177.got - 2010.04.14 03:12:58.
