data_PCOD8196256
_publ_section_title
;
Structure prediction by ZEFSAII (Michael W. Deem and Ramdas Pophale) SiO2 
 PCOD8196256
Probable space group: P M M M
;
_chemical_formula_sum "Si O2"
_cell_formula_units_Z 56
_cell_length_a 9.218912
_cell_length_b 14.686745
_cell_length_c 22.725648
_cell_angle_alpha 90.000000
_cell_angle_beta 90.000000
_cell_angle_gamma 90.000000
_cell_volume 3076.957512
_symmetry_space_group_name_H-M "P M M M"
_symmetry_group_IT_number 47
_symmetry_cell_setting 'orthorhombic'
loop_
_space_group_symop_operation_xyz
x,y,z
-x,-y,z
x,-y,-z
-x,y,-z
-x,-y,-z
x,y,-z
-x,y,z
x,-y,z
loop_
_atom_site_type_symbol
_atom_site_label
_atom_site_fract_x
_atom_site_fract_y
_atom_site_fract_z
Si Si1 0.835815 0.394195 0.254946
Si Si2 0.165790 0.845097 0.066756
Si Si3 0.170045 0.107373 0.616473
Si Si4 0.331697 0.500000 0.063533
Si Si5 0.158172 0.648404 0.120730
Si Si6 0.663849 0.100356 0.825198
Si Si7 0.664323 0.892236 0.500000
Si Si8 0.326779 0.221343 0.283567
O O1 0.781311 0.500000 0.256780
O O2 0.833064 0.351433 0.190473
O O3 0.729738 0.325932 0.290535
O O4 0.000000 0.389667 0.280121
O O5 0.182995 0.744334 0.091141
O O6 0.250446 0.906366 0.113294
O O7 0.000000 0.877038 0.066355
O O8 0.228556 0.852848 0.000000
O O9 0.246524 0.141242 0.556689
O O10 0.248693 0.160425 0.668248
O O11 0.000000 0.132160 0.614115
O O12 0.192282 0.000000 0.626281
O O13 0.500000 0.500000 0.055705
O O14 0.288719 0.588377 0.098722
O O15 0.254557 0.500000 0.000000
O O16 0.000000 0.609602 0.101944
O O17 0.500000 0.124359 0.842074
O O18 0.719415 0.176544 0.779159
O O19 0.675966 0.000000 0.795639
O O20 0.500000 0.851797 0.500000
O O21 0.655707 0.000000 0.500000
O O22 0.500000 0.219098 0.292354
#
# Coordination Sequence:
#
# PCOD8196256 Si02
#       8
#     8   8   8   4   8   8   4   8
#     4  10  20  36  57  79 103 134 174 221 273 331
#     4  10  21  36  54  74  95 124 167 218 269 324
#     4  10  20  34  55  85 121 160 198 233 270 315
#     4  11  23  33  45  71 101 125 157 204 259 326
#     4  10  19  35  55  72  94 126 164 209 265 330
#     4  10  22  38  54  74 102 137 175 218 271 327
#     4   9  17  31  53  83 122 163 198 233 271 313
#     4  11  22  36  56  81 111 145 182 228 276 327
#
# _framework density 18.199795999999999
#
# number of rings (size 3 to 8) (size 9 to 14) (size 15 to 20)
#    0.000    1.857    2.143    2.143    0.000    6.286 
#    0.000    1.429    0.000    0.000    0.000    0.500 
#    0.000    4.000    0.000    0.000    0.000    0.000 
#
# Total GULP energy -694036.006645 kJ/mol
# GULP energy per Si atom -12393.500119 kJ/mol
# Density = 1.815837 g / cm^3
# Si number density = 18.199796 Si / 1000 Ang^3
#
#
#
# Elastic Constant Matrix: (Units=GPa)
#
#
# Indices 1 2 3 4 5 6 
#
# 1 97.8592 46.2877 52.4014 0.0000 0.0000 0.0000
# 2 46.2877 86.7254 37.9881 0.0000 0.0000 0.0000
# 3 52.4014 37.9881 99.1919 0.0000 0.0000 0.0000
# 4 0.0000 0.0000 0.0000 -5.5518 0.0000 0.0000
# 5 0.0000 0.0000 0.0000 0.0000 29.8199 0.0000
# 6 0.0000 0.0000 0.0000 0.0000 0.0000 28.8844
#
#
#
# Elastic Compliance Matrix: (Units=1/GPa)
#
#
# Indices 1 2 3 4 5 6 
#
# 1 0.016488 -0.005989 -0.006416 0.000000 0.000000 0.000000
# 2 -0.005989 0.016031 -0.002975 0.000000 0.000000 0.000000
# 3 -0.006416 -0.002975 0.014611 0.000000 0.000000 0.000000
# 4 0.000000 0.000000 0.000000 -0.180121 0.000000 0.000000
# 5 0.000000 0.000000 0.000000 0.000000 0.033535 0.000000
# 6 0.000000 0.000000 0.000000 0.000000 0.000000 0.034621
#
#
# Mechanical properties :
#
#
# Convention : Reuss Voigt Hill
#
# Bulk Modulus (GPa) = 61.09914 61.90344 61.50129
# Shear Modulus (GPa) = -174.70838 20.43711 -77.13564
#
# Velocity S-wave (km/s) = -9.80832 3.35465 -6.51726
# Velocity P-wave (km/s) = 9.72762 7.00657 4.77151
#
# Compressibility (1/GPa) = 0.01636684
#
# Stress axis : x y z
#
# Youngs Moduli (GPa) = 60.65191 62.38088 68.44364
#
# Poissons Ratio (x) = 0.37362 0.43916
# Poissons Ratio (y) = 0.36326 0.20364
# Poissons Ratio (z) = 0.38916 0.18560
#
# Static dielectric constant tensor:
#      x y z
#    x 3.522180 0.000000 0.000000 
#    y 0.000000 3.263260 0.000000 
#    z 0.000000 0.000000 3.312510 
# 
# 
# High freq. dielectric constant tensor:
#      x y z
#    x 1.710190 0.000000 0.000000 
#    y 0.000000 1.696510 0.000000 
#    z 0.000000 0.000000 1.687160 
# 
# From -- ./inp_files/21619.got.cif
#   From: 2010.03.12/outbox.cif.g09.slc.cpg/sg47_11_cif.got.tgz:21619.got - 2010.04.14 03:12:58.
