data_PCOD8196195
_publ_section_title
;
Structure prediction by ZEFSAII (Michael W. Deem and Ramdas Pophale) SiO2 
 PCOD8196195
Probable space group: P M M M
;
_chemical_formula_sum "Si O2"
_cell_formula_units_Z 56
_cell_length_a 9.385922
_cell_length_b 15.293872
_cell_length_c 21.062673
_cell_angle_alpha 90.000000
_cell_angle_beta 90.000000
_cell_angle_gamma 90.000000
_cell_volume 3023.485410
_symmetry_space_group_name_H-M "P M M M"
_symmetry_group_IT_number 47
_symmetry_cell_setting 'orthorhombic'
loop_
_space_group_symop_operation_xyz
x,y,z
-x,-y,z
x,-y,-z
-x,y,-z
-x,-y,-z
x,y,-z
-x,y,z
x,-y,z
loop_
_atom_site_type_symbol
_atom_site_label
_atom_site_fract_x
_atom_site_fract_y
_atom_site_fract_z
Si Si1 0.166065 0.336413 0.378279
Si Si2 0.338095 0.818104 0.570400
Si Si3 0.169296 0.600285 0.000000
Si Si4 0.164915 0.267588 0.892366
Si Si5 0.664900 0.903790 0.699616
Si Si6 0.333705 0.500000 0.425525
Si Si7 0.660643 0.097497 0.924926
Si Si8 0.161295 0.750364 0.248219
O O1 0.223892 0.258667 0.421988
O O2 0.259779 0.418688 0.393665
O O3 0.193495 0.318092 0.303924
O O4 0.000000 0.352082 0.393467
O O5 0.318297 0.859439 0.500000
O O6 0.500000 0.781401 0.577838
O O7 0.307075 0.889482 0.624458
O O8 0.224028 0.655019 0.938205
O O9 0.230974 0.500000 0.000000
O O10 0.000000 0.593647 0.000000
O O11 0.239074 0.173929 0.899552
O O12 0.188810 0.297117 0.819307
O O13 0.000000 0.252556 0.908657
O O14 0.500000 0.895026 0.715537
O O15 0.742601 0.835862 0.744999
O O16 0.722139 0.000000 0.716190
O O17 0.500000 0.500000 0.409357
O O18 0.305310 0.500000 0.500000
O O19 0.500000 0.114273 0.900281
O O20 0.710985 0.000000 0.902193
O O21 0.663720 0.100613 0.000000
O O22 0.000000 0.783957 0.253109
#
# Coordination Sequence:
#
# PCOD8196195 Si02
#       8
#     8   8   4   8   8   4   8   8
#     4  10  20  35  52  73 102 135 170 209 255 309
#     4   9  17  30  49  72  99 132 169 213 263 306
#     4   9  18  34  56  83 106 128 165 215 264 309
#     4  10  19  34  56  81 106 136 176 218 262 311
#     4   9  18  32  50  73 101 136 177 215 252 301
#     4  11  23  37  55  79 105 132 165 210 262 312
#     4   9  18  32  50  75 108 143 174 209 261 317
#     4   9  20  36  52  74 104 137 172 210 256 305
#
# _framework density 18.521671000000001
#
# number of rings (size 3 to 8) (size 9 to 14) (size 15 to 20)
#    0.000    2.571    0.714    1.500    0.000    5.143 
#    1.286    5.000    0.000    0.857    0.000    4.000 
#    0.000    0.000    0.000    0.000    0.000    0.000 
#
# Total GULP energy -694105.660308 kJ/mol
# GULP energy per Si atom -12394.743934 kJ/mol
# Density = 1.847951 g / cm^3
# Si number density = 18.521671 Si / 1000 Ang^3
#
#
#
# Elastic Constant Matrix: (Units=GPa)
#
#
# Indices 1 2 3 4 5 6 
#
# 1 70.2449 55.9440 37.8906 0.0000 0.0000 0.0000
# 2 55.9440 119.6174 47.4830 0.0000 0.0000 0.0000
# 3 37.8906 47.4830 107.4315 0.0000 0.0000 0.0000
# 4 0.0000 0.0000 0.0000 17.2176 0.0000 0.0000
# 5 0.0000 0.0000 0.0000 0.0000 22.5362 0.0000
# 6 0.0000 0.0000 0.0000 0.0000 0.0000 29.7870
#
#
#
# Elastic Compliance Matrix: (Units=1/GPa)
#
#
# Indices 1 2 3 4 5 6 
#
# 1 0.024211 -0.009622 -0.004286 0.000000 0.000000 0.000000
# 2 -0.009622 0.013963 -0.002778 0.000000 0.000000 0.000000
# 3 -0.004286 -0.002778 0.012048 0.000000 0.000000 0.000000
# 4 0.000000 0.000000 0.000000 0.058080 0.000000 0.000000
# 5 0.000000 0.000000 0.000000 0.000000 0.044373 0.000000
# 6 0.000000 0.000000 0.000000 0.000000 0.000000 0.033572
#
#
# Mechanical properties :
#
#
# Convention : Reuss Voigt Hill
#
# Bulk Modulus (GPa) = 59.34873 64.43658 61.89265
# Shear Modulus (GPa) = 22.19910 24.30657 23.25283
#
# Velocity S-wave (km/s) = 3.46576 3.62654 3.54706
# Velocity P-wave (km/s) = 6.93742 7.23886 7.08974
#
# Compressibility (1/GPa) = 0.01684956
#
# Stress axis : x y z
#
# Youngs Moduli (GPa) = 41.30375 71.61993 83.00289
#
# Poissons Ratio (x) = 0.68910 0.35579
# Poissons Ratio (y) = 0.39741 0.23056
# Poissons Ratio (z) = 0.17705 0.19894
#
# Static dielectric constant tensor:
#      x y z
#    x 3.413980 0.000000 0.000000 
#    y 0.000000 3.646020 0.000000 
#    z 0.000000 0.000000 3.606970 
# 
# 
# High freq. dielectric constant tensor:
#      x y z
#    x 1.708540 0.000000 0.000000 
#    y 0.000000 1.704290 0.000000 
#    z 0.000000 0.000000 1.727360 
# 
# From -- ./inp_files/29822.got.cif
#   From: 2010.03.12/outbox.cif.g09.slc.cpg/sg47_15_cif.got.tgz:29822.got - 2010.04.14 03:12:58.
