data_PCOD8196724
_publ_section_title
;
Structure prediction by ZEFSAII (Michael W. Deem and Ramdas Pophale) SiO2 
 PCOD8196724
Probable space group: P M M M
;
_chemical_formula_sum "Si O2"
_cell_formula_units_Z 56
_cell_length_a 31.432674
_cell_length_b 9.074751
_cell_length_c 14.063528
_cell_angle_alpha 90.000000
_cell_angle_beta 90.000000
_cell_angle_gamma 90.000000
_cell_volume 4011.532619
_symmetry_space_group_name_H-M "P M M M"
_symmetry_group_IT_number 47
_symmetry_cell_setting 'orthorhombic'
loop_
_space_group_symop_operation_xyz
x,y,z
-x,-y,z
x,-y,-z
-x,y,-z
-x,-y,-z
x,y,-z
-x,y,z
x,-y,z
loop_
_atom_site_type_symbol
_atom_site_label
_atom_site_fract_x
_atom_site_fract_y
_atom_site_fract_z
Si Si1 0.000000 0.174916 0.106401
Si Si2 0.591114 0.834215 0.886161
Si Si3 0.327051 0.334346 0.113463
Si Si4 0.916915 0.825146 0.217222
Si Si5 0.950937 0.670306 0.608310
Si Si6 0.159787 0.672649 0.889031
Si Si7 0.755188 0.165585 0.112900
Si Si8 0.500000 0.824739 0.895608
O O1 0.958159 0.232193 0.159986
O O2 0.000000 0.000000 0.103729
O O3 0.000000 0.240508 0.000000
O O4 0.628652 0.730998 0.846792
O O5 0.544807 0.778986 0.844966
O O6 0.600927 0.000000 0.851741
O O7 0.589026 0.830108 0.000000
O O8 0.322361 0.500000 0.151524
O O9 0.287661 0.239669 0.153824
O O10 0.326991 0.330318 0.000000
O O11 0.921408 0.771808 0.325740
O O12 0.876094 0.752857 0.170692
O O13 0.912125 0.000000 0.213791
O O14 0.936671 0.697997 0.500000
O O15 0.944623 0.500000 0.635962
O O16 0.000000 0.716461 0.621498
O O17 0.159450 0.500000 0.867369
O O18 0.204685 0.737918 0.854278
O O19 0.152019 0.705643 0.000000
O O20 0.759210 0.000000 0.153697
O O21 0.752792 0.161764 0.000000
O O22 0.500000 0.000000 0.905801
O O23 0.500000 0.751867 0.000000
#
# Coordination Sequence:
#
# PCOD8196724 Si02
#       8
#     4   8   8   8   8   8   8   4
#     4   9  18  30  42  59  84 110 133 157 184 213
#     4   8  12  18  27  37  49  68  95 126 161 204
#     4   9  15  21  29  42  59  77  99 131 170 210
#     4  11  20  31  47  66  86 108 132 160 189 220
#     4   9  18  33  51  68  87 109 130 156 190 225
#     4  10  20  32  44  59  80 105 130 156 187 225
#     4   9  16  26  39  52  65  85 114 146 178 213
#     4   7  10  16  25  35  47  65  91 123 159 201
#
# _framework density 13.959751000000001
#
# number of rings (size 3 to 8) (size 9 to 14) (size 15 to 20)
#    0.000    2.857    0.714    3.429    0.000    5.143 
#    0.000    1.071    0.000    3.857    0.000    0.000 
#    0.000    0.000    0.000    0.000    0.000    0.000 
#
# Total GULP energy -694071.417670 kJ/mol
# GULP energy per Si atom -12394.132458 kJ/mol
# Density = 1.392798 g / cm^3
# Si number density = 13.959751 Si / 1000 Ang^3
#
#
#
# Elastic Constant Matrix: (Units=GPa)
#
#
# Indices 1 2 3 4 5 6 
#
# 1 132.8970 57.9618 29.8830 0.0000 0.0000 0.0000
# 2 57.9618 87.9948 24.8852 0.0000 0.0000 0.0000
# 3 29.8830 24.8852 37.2053 0.0000 0.0000 0.0000
# 4 0.0000 0.0000 0.0000 13.1022 0.0000 0.0000
# 5 0.0000 0.0000 0.0000 0.0000 0.9820 0.0000
# 6 0.0000 0.0000 0.0000 0.0000 0.0000 21.6767
#
#
#
# Elastic Compliance Matrix: (Units=1/GPa)
#
#
# Indices 1 2 3 4 5 6 
#
# 1 0.011276 -0.006001 -0.005043 0.000000 0.000000 0.000000
# 2 -0.006001 0.017209 -0.006691 0.000000 0.000000 0.000000
# 3 -0.005043 -0.006691 0.035403 0.000000 0.000000 0.000000
# 4 0.000000 0.000000 0.000000 0.076323 0.000000 0.000000
# 5 0.000000 0.000000 0.000000 0.000000 1.018289 0.000000
# 6 0.000000 0.000000 0.000000 0.000000 0.000000 0.046132
#
#
# Mechanical properties :
#
#
# Convention : Reuss Voigt Hill
#
# Bulk Modulus (GPa) = 35.18713 53.72859 44.45786
# Shear Modulus (GPa) = 4.00136 16.84333 10.42234
#
# Velocity S-wave (km/s) = 1.69487 3.47733 2.73536
# Velocity P-wave (km/s) = 5.39360 7.39555 6.47245
#
# Compressibility (1/GPa) = 0.02841949
#
# Stress axis : x y z
#
# Youngs Moduli (GPa) = 88.68444 58.10761 28.24605
#
# Poissons Ratio (x) = 0.34872 0.14244
# Poissons Ratio (y) = 0.53222 0.18898
# Poissons Ratio (z) = 0.44721 0.38877
#
# Static dielectric constant tensor:
#      x y z
#    x 3.003510 0.000000 0.000000 
#    y 0.000000 2.780060 0.000000 
#    z 0.000000 0.000000 2.244980 
# 
# 
# High freq. dielectric constant tensor:
#      x y z
#    x 1.543060 0.000000 0.000000 
#    y 0.000000 1.536830 0.000000 
#    z 0.000000 0.000000 1.453850 
# 
# From -- ./inp_files/25809.got.cif
#   From: 2010.03.12/outbox.cif.g09.slc.cpg/sg47_13_cif.got.tgz:25809.got - 2010.04.14 03:12:58.
