data_PCOD8196772
_publ_section_title
;
Structure prediction by ZEFSAII (Michael W. Deem and Ramdas Pophale) SiO2 
 PCOD8196772
Probable space group: P M M M
;
_chemical_formula_sum "Si O2"
_cell_formula_units_Z 40
_cell_length_a 23.635599
_cell_length_b 11.706952
_cell_length_c 8.756834
_cell_angle_alpha 90.000000
_cell_angle_beta 90.000000
_cell_angle_gamma 90.000000
_cell_volume 2423.023175
_symmetry_space_group_name_H-M "P M M M"
_symmetry_group_IT_number 47
_symmetry_cell_setting 'orthorhombic'
loop_
_space_group_symop_operation_xyz
x,y,z
-x,-y,z
x,-y,-z
-x,y,-z
-x,-y,-z
x,y,-z
-x,y,z
x,-y,z
loop_
_atom_site_type_symbol
_atom_site_label
_atom_site_fract_x
_atom_site_fract_y
_atom_site_fract_z
Si Si1 0.319532 0.364142 0.171147
Si Si2 0.000000 0.373364 0.181407
Si Si3 0.794620 0.632681 0.322607
Si Si4 0.440105 0.628012 0.181557
Si Si5 0.064851 0.000000 0.680726
Si Si6 0.105840 0.770635 0.180276
O O1 0.325475 0.500000 0.166954
O O2 0.269102 0.327167 0.283439
O O3 0.380330 0.313988 0.234337
O O4 0.306266 0.318784 0.000000
O O5 0.055273 0.308881 0.241755
O O6 0.000000 0.500000 0.252377
O O7 0.000000 0.379253 0.000000
O O8 0.806190 0.652963 0.500000
O O9 0.803703 0.500000 0.277243
O O10 0.835763 0.711015 0.223974
O O11 0.500000 0.689812 0.232018
O O12 0.442780 0.500000 0.247476
O O13 0.437130 0.623616 0.000000
O O14 0.099716 0.892101 0.739947
O O15 0.064586 0.000000 0.500000
O O16 0.000000 0.000000 0.743581
O O17 0.102796 0.788159 0.000000
#
# Coordination Sequence:
#
# PCOD8196772 Si02
#       6
#     8   4   8   8   4   8
#     4   8  13  22  37  56  79 112 153 191 227 270
#     4   9  18  31  49  74  98 117 142 183 228 263
#     4  10  20  32  45  65  95 127 157 191 236 284
#     4   7   9  14  27  49  75 103 141 189 231 263
#     4  11  23  39  57  75  99 123 146 179 228 283
#     4  11  21  35  55  74  94 119 155 194 228 270
#
# _framework density 16.508303000000002
#
# number of rings (size 3 to 8) (size 9 to 14) (size 15 to 20)
#    0.000    2.800    1.000    3.900    0.000    2.400 
#    0.000    0.000    0.000    3.000    0.000    4.200 
#    0.000    0.000    0.000    0.900    0.000   19.000 
#
# Total GULP energy -495528.512770 kJ/mol
# GULP energy per Si atom -12388.212819 kJ/mol
# Density = 1.647073 g / cm^3
# Si number density = 16.508303 Si / 1000 Ang^3
#
#
#
# Elastic Constant Matrix: (Units=GPa)
#
#
# Indices 1 2 3 4 5 6 
#
# 1 145.4895 41.4436 23.3481 0.0000 0.0000 0.0000
# 2 41.4436 70.5873 19.4201 0.0000 0.0000 0.0000
# 3 23.3481 19.4201 42.8420 0.0000 0.0000 0.0000
# 4 0.0000 0.0000 0.0000 15.4617 0.0000 0.0000
# 5 0.0000 0.0000 0.0000 0.0000 14.9374 0.0000
# 6 0.0000 0.0000 0.0000 0.0000 0.0000 1.0569
#
#
#
# Elastic Compliance Matrix: (Units=1/GPa)
#
#
# Indices 1 2 3 4 5 6 
#
# 1 0.008521 -0.004256 -0.002715 0.000000 0.000000 0.000000
# 2 -0.004256 0.018311 -0.005981 0.000000 0.000000 0.000000
# 3 -0.002715 -0.005981 0.027532 0.000000 0.000000 0.000000
# 4 0.000000 0.000000 0.000000 0.064676 0.000000 0.000000
# 5 0.000000 0.000000 0.000000 0.000000 0.066946 0.000000
# 6 0.000000 0.000000 0.000000 0.000000 0.000000 0.946206
#
#
# Mechanical properties :
#
#
# Convention : Reuss Voigt Hill
#
# Bulk Modulus (GPa) = 35.13549 47.48249 41.30899
# Shear Modulus (GPa) = 4.28235 17.93833 11.11034
#
# Velocity S-wave (km/s) = 1.61236 3.29998 2.59707
# Velocity P-wave (km/s) = 4.97956 6.58369 5.83699
#
# Compressibility (1/GPa) = 0.02846125
#
# Stress axis : x y z
#
# Youngs Moduli (GPa) = 117.35128 54.61119 36.32128
#
# Poissons Ratio (x) = 0.23244 0.09860
# Poissons Ratio (y) = 0.49948 0.21723
# Poissons Ratio (z) = 0.31857 0.32662
#
# Static dielectric constant tensor:
#      x y z
#    x 3.678630 0.000000 0.000000 
#    y 0.000000 2.687010 0.000000 
#    z 0.000000 0.000000 2.855330 
# 
# 
# High freq. dielectric constant tensor:
#      x y z
#    x 1.660350 0.000000 0.000000 
#    y 0.000000 1.570030 0.000000 
#    z 0.000000 0.000000 1.614660 
# 
# From -- ./inp_files/10684.got.cif
#   From: 2010.03.12/outbox.cif.g09.slc.cpg/sg47_6_cif.got.tgz:10684.got - 2010.04.14 03:12:58.
