data_PCOD8196976
_publ_section_title
;
Structure prediction by ZEFSAII (Michael W. Deem and Ramdas Pophale) SiO2 
 PCOD8196976
Probable space group: P M M M
;
_chemical_formula_sum "Si O2"
_cell_formula_units_Z 44
_cell_length_a 30.249180
_cell_length_b 7.959792
_cell_length_c 9.234010
_cell_angle_alpha 90.000000
_cell_angle_beta 90.000000
_cell_angle_gamma 90.000000
_cell_volume 2223.338897
_symmetry_space_group_name_H-M "P M M M"
_symmetry_group_IT_number 47
_symmetry_cell_setting 'orthorhombic'
loop_
_space_group_symop_operation_xyz
x,y,z
-x,-y,z
x,-y,-z
-x,y,-z
-x,-y,-z
x,y,-z
-x,y,z
x,-y,z
loop_
_atom_site_type_symbol
_atom_site_label
_atom_site_fract_x
_atom_site_fract_y
_atom_site_fract_z
Si Si1 0.047619 0.691055 0.171484
Si Si2 0.390232 0.307318 0.670268
Si Si3 0.779367 0.693382 0.340447
Si Si4 0.450717 0.000000 0.328515
Si Si5 0.859839 0.808830 0.164594
Si Si6 0.698028 0.301460 0.838418
O O1 0.053641 0.500000 0.222134
O O2 0.090172 0.793594 0.228149
O O3 0.000000 0.760161 0.231413
O O4 0.046095 0.704231 0.000000
O O5 0.381094 0.292176 0.500000
O O6 0.404699 0.500000 0.709063
O O7 0.426911 0.172650 0.722405
O O8 0.345812 0.253326 0.751410
O O9 0.781129 0.778752 0.500000
O O10 0.767447 0.500000 0.360199
O O11 0.826637 0.705058 0.263371
O O12 0.740516 0.777464 0.244176
O O13 0.500000 0.000000 0.261507
O O14 0.453148 0.000000 0.500000
O O15 0.844699 0.000000 0.169570
O O16 0.857809 0.738475 0.000000
O O17 0.703051 0.500000 0.849317
O O18 0.695817 0.223831 0.000000
#
# Coordination Sequence:
#
# PCOD8196976 Si02
#       6
#     8   8   8   4   8   8
#     4   8  14  26  46  71  96 124 161 204 249 297
#     4   9  17  31  52  77 106 140 178 220 265 314
#     4  10  20  34  53  75  99 131 171 212 256 308
#     4   9  18  32  51  79 111 141 179 223 264 309
#     4  10  20  32  47  71 103 135 167 204 249 303
#     4   9  17  31  53  78 102 130 167 211 258 308
#
# _framework density 19.790054000000001
#
# number of rings (size 3 to 8) (size 9 to 14) (size 15 to 20)
#    0.000    2.818    0.000    2.182    0.000    5.091 
#    1.636    4.091    0.000    1.636    0.000    6.364 
#    0.000    0.000    0.000    0.000    0.000    0.000 
#
# Total GULP energy -545270.965017 kJ/mol
# GULP energy per Si atom -12392.521932 kJ/mol
# Density = 1.974501 g / cm^3
# Si number density = 19.790054 Si / 1000 Ang^3
#
#
#
# Elastic Constant Matrix: (Units=GPa)
#
#
# Indices 1 2 3 4 5 6 
#
# 1 179.2226 42.9075 63.9378 0.0000 0.0000 0.0000
# 2 42.9075 57.3828 21.2102 0.0000 0.0000 0.0000
# 3 63.9378 21.2102 87.1318 0.0000 0.0000 0.0000
# 4 0.0000 0.0000 0.0000 9.9168 0.0000 0.0000
# 5 0.0000 0.0000 0.0000 0.0000 22.1579 0.0000
# 6 0.0000 0.0000 0.0000 0.0000 0.0000 15.5662
#
#
#
# Elastic Compliance Matrix: (Units=1/GPa)
#
#
# Indices 1 2 3 4 5 6 
#
# 1 0.008476 -0.004438 -0.005139 0.000000 0.000000 0.000000
# 2 -0.004438 0.021474 -0.001971 0.000000 0.000000 0.000000
# 3 -0.005139 -0.001971 0.015728 0.000000 0.000000 0.000000
# 4 0.000000 0.000000 0.000000 0.100839 0.000000 0.000000
# 5 0.000000 0.000000 0.000000 0.000000 0.045131 0.000000
# 6 0.000000 0.000000 0.000000 0.000000 0.000000 0.064242
#
#
# Mechanical properties :
#
#
# Convention : Reuss Voigt Hill
#
# Bulk Modulus (GPa) = 44.28412 64.42761 54.35587
# Shear Modulus (GPa) = 17.45132 22.57361 20.01247
#
# Velocity S-wave (km/s) = 2.97277 3.38102 3.18345
# Velocity P-wave (km/s) = 5.84882 6.91867 6.40612
#
# Compressibility (1/GPa) = 0.02258146
#
# Stress axis : x y z
#
# Youngs Moduli (GPa) = 117.98713 46.56866 63.58232
#
# Poissons Ratio (x) = 0.20667 0.32675
# Poissons Ratio (y) = 0.52362 0.12530
# Poissons Ratio (z) = 0.60634 0.09177
#
# Static dielectric constant tensor:
#      x y z
#    x 4.895340 0.000000 0.000000 
#    y 0.000000 3.386150 0.000000 
#    z 0.000000 0.000000 3.456870 
# 
# 
# High freq. dielectric constant tensor:
#      x y z
#    x 1.780740 0.000000 0.000000 
#    y 0.000000 1.749800 0.000000 
#    z 0.000000 0.000000 1.735230 
# 
# From -- ./inp_files/13566.got.cif
#   From: 2010.03.12/outbox.cif.g09.slc.cpg/sg47_7_cif.got.tgz:13566.got - 2010.04.14 03:12:58.
