data_PCOD8196798
_publ_section_title
;
Structure prediction by ZEFSAII (Michael W. Deem and Ramdas Pophale) SiO2 
 PCOD8196798
Probable space group: P M M M
;
_chemical_formula_sum "Si O2"
_cell_formula_units_Z 64
_cell_length_a 14.609617
_cell_length_b 8.805514
_cell_length_c 29.245650
_cell_angle_alpha 90.000000
_cell_angle_beta 90.000000
_cell_angle_gamma 90.000000
_cell_volume 3762.312114
_symmetry_space_group_name_H-M "P M M M"
_symmetry_group_IT_number 47
_symmetry_cell_setting 'orthorhombic'
loop_
_space_group_symop_operation_xyz
x,y,z
-x,-y,z
x,-y,-z
-x,y,-z
-x,-y,-z
x,y,-z
-x,y,z
x,-y,z
loop_
_atom_site_type_symbol
_atom_site_label
_atom_site_fract_x
_atom_site_fract_y
_atom_site_fract_z
Si Si1 0.772684 0.678668 0.270928
Si Si2 0.896479 0.318061 0.646600
Si Si3 0.278148 0.321954 0.950021
Si Si4 0.102114 0.673925 0.898371
Si Si5 0.105538 0.174722 0.196122
Si Si6 0.606010 0.324190 0.865975
Si Si7 0.108590 0.669719 0.451626
Si Si8 0.396023 0.820790 0.229343
O O1 0.760009 0.500000 0.274253
O O2 0.825700 0.743171 0.315506
O O3 0.832433 0.718546 0.226977
O O4 0.671880 0.752769 0.267552
O O5 0.897103 0.500000 0.645285
O O6 0.861687 0.253560 0.596738
O O7 0.000000 0.260596 0.657773
O O8 0.297775 0.500000 0.952419
O O9 0.171923 0.288378 0.939115
O O10 0.341079 0.253546 0.909648
O O11 0.300595 0.249896 0.000000
O O12 0.113582 0.500000 0.881730
O O13 0.124550 0.782896 0.856171
O O14 0.000000 0.703547 0.917194
O O15 0.000000 0.204966 0.208732
O O16 0.132787 0.000000 0.204002
O O17 0.500000 0.301301 0.876409
O O18 0.631644 0.500000 0.858116
O O19 0.636088 0.235088 0.820602
O O20 0.139037 0.752102 0.500000
O O21 0.149094 0.500000 0.453227
O O22 0.000000 0.661160 0.449949
O O23 0.500000 0.765593 0.239518
O O24 0.389346 0.000000 0.230621
#
# Coordination Sequence:
#
# PCOD8196798 Si02
#       8
#     8   8   8   8   8   8   8   8
#     4  11  20  29  45  67  93 122 149 182 224 268
#     4   8  14  23  35  57  90 124 155 184 216 256
#     4   9  17  28  43  65  89 109 132 166 208 251
#     4   9  17  29  45  63  82 108 144 181 213 246
#     4  10  20  32  46  65  90 120 153 186 218 256
#     4   9  17  30  49  70  88 107 134 168 207 254
#     4   7   9  15  29  49  77 116 156 187 214 248
#     4  10  21  36  52  68  87 113 146 184 224 266
#
# _framework density 17.010815000000001
#
# number of rings (size 3 to 8) (size 9 to 14) (size 15 to 20)
#    0.000    2.875    0.000    3.375    0.000    3.500 
#    0.000    2.500    0.000    1.500    0.000    3.500 
#    0.000    2.500    0.000   20.375    0.000   12.750 
#
# Total GULP energy -793024.720360 kJ/mol
# GULP energy per Si atom -12391.011256 kJ/mol
# Density = 1.697210 g / cm^3
# Si number density = 17.010815 Si / 1000 Ang^3
#
#
#
# Elastic Constant Matrix: (Units=GPa)
#
#
# Indices 1 2 3 4 5 6 
#
# 1 83.8014 18.8594 65.8020 0.0000 0.0000 0.0000
# 2 18.8594 30.8129 19.8035 0.0000 0.0000 0.0000
# 3 65.8020 19.8035 119.9597 0.0000 0.0000 0.0000
# 4 0.0000 0.0000 0.0000 0.9903 0.0000 0.0000
# 5 0.0000 0.0000 0.0000 0.0000 16.9177 0.0000
# 6 0.0000 0.0000 0.0000 0.0000 0.0000 17.5960
#
#
#
# Elastic Compliance Matrix: (Units=1/GPa)
#
#
# Indices 1 2 3 4 5 6 
#
# 1 0.022034 -0.006397 -0.011030 0.000000 0.000000 0.000000
# 2 -0.006397 0.038163 -0.002791 0.000000 0.000000 0.000000
# 3 -0.011030 -0.002791 0.014847 0.000000 0.000000 0.000000
# 4 0.000000 0.000000 0.000000 1.009812 0.000000 0.000000
# 5 0.000000 0.000000 0.000000 0.000000 0.059110 0.000000
# 6 0.000000 0.000000 0.000000 0.000000 0.000000 0.056831
#
#
# Mechanical properties :
#
#
# Convention : Reuss Voigt Hill
#
# Bulk Modulus (GPa) = 28.89539 49.27820 39.08679
# Shear Modulus (GPa) = 3.99116 15.77474 9.88295
#
# Velocity S-wave (km/s) = 1.53341 3.04852 2.41297
# Velocity P-wave (km/s) = 4.48982 6.43607 5.54894
#
# Compressibility (1/GPa) = 0.03460760
#
# Stress axis : x y z
#
# Youngs Moduli (GPa) = 45.38516 26.20327 67.35198
#
# Poissons Ratio (x) = 0.16762 0.74291
# Poissons Ratio (y) = 0.29032 0.18800
# Poissons Ratio (z) = 0.50061 0.07314
#
# Static dielectric constant tensor:
#      x y z
#    x 3.229310 0.000000 0.000000 
#    y 0.000000 2.859950 0.000000 
#    z 0.000000 0.000000 3.579560 
# 
# 
# High freq. dielectric constant tensor:
#      x y z
#    x 1.640130 0.000000 0.000000 
#    y 0.000000 1.618840 0.000000 
#    z 0.000000 0.000000 1.651160 
# 
# From -- ./inp_files/14364.got.cif
#   From: 2010.03.12/outbox.cif.g09.slc.cpg/sg47_8_cif.got.tgz:14364.got - 2010.04.14 03:12:58.
