data_PCOD8196516
_publ_section_title
;
Structure prediction by ZEFSAII (Michael W. Deem and Ramdas Pophale) SiO2 
 PCOD8196516
Probable space group: P M M M
;
_chemical_formula_sum "Si O2"
_cell_formula_units_Z 64
_cell_length_a 19.097248
_cell_length_b 24.034009
_cell_length_c 8.998205
_cell_angle_alpha 90.000000
_cell_angle_beta 90.000000
_cell_angle_gamma 90.000000
_cell_volume 4130.026998
_symmetry_space_group_name_H-M "P M M M"
_symmetry_group_IT_number 47
_symmetry_cell_setting 'orthorhombic'
loop_
_space_group_symop_operation_xyz
x,y,z
-x,-y,z
x,-y,-z
-x,y,-z
-x,-y,-z
x,y,-z
-x,y,z
x,-y,z
loop_
_atom_site_type_symbol
_atom_site_label
_atom_site_fract_x
_atom_site_fract_y
_atom_site_fract_z
Si Si1 0.303977 0.161031 0.670322
Si Si2 0.921430 0.112654 0.172472
Si Si3 0.206742 0.062825 0.671965
Si Si4 0.421319 0.439081 0.323472
Si Si5 0.217813 0.728627 0.330755
Si Si6 0.419548 0.225762 0.827965
Si Si7 0.351403 0.671549 0.321720
Si Si8 0.076809 0.230776 0.675509
O O1 0.328335 0.155124 0.500000
O O2 0.267815 0.104300 0.729199
O O3 0.246738 0.209249 0.687958
O O4 0.372376 0.174980 0.767317
O O5 0.865797 0.070043 0.240349
O O6 0.913457 0.171954 0.248555
O O7 0.000000 0.089026 0.198327
O O8 0.905286 0.120392 0.000000
O O9 0.191234 0.075681 0.500000
O O10 0.233494 0.000000 0.696652
O O11 0.422155 0.437262 0.500000
O O12 0.500000 0.429534 0.263559
O O13 0.393878 0.500000 0.269900
O O14 0.371930 0.389781 0.262544
O O15 0.212066 0.710523 0.500000
O O16 0.273051 0.685133 0.258424
O O17 0.138561 0.728006 0.263831
O O18 0.500000 0.208918 0.803462
O O19 0.405089 0.282972 0.740543
O O20 0.402031 0.235541 0.000000
O O21 0.354482 0.675978 0.500000
O O22 0.086264 0.221298 0.500000
O O23 0.000000 0.256280 0.712247
#
# Coordination Sequence:
#
# PCOD8196516 Si02
#       8
#     8   8   8   8   8   8   8   8
#     4   9  17  31  48  65  84 105 134 171 211 255
#     4  10  20  31  43  62  88 115 142 172 206 247
#     4  10  20  34  51  67  83 106 139 177 212 250
#     4   8  13  21  35  57  83 111 145 180 211 247
#     4   8  13  23  39  60  81 101 131 171 209 246
#     4  10  20  31  44  65  90 112 136 169 207 252
#     4   9  16  26  42  62  86 113 141 177 215 248
#     4   9  15  25  42  59  79 109 141 172 208 249
#
# _framework density 15.496267
#
# number of rings (size 3 to 8) (size 9 to 14) (size 15 to 20)
#    0.000    2.875    1.250    2.250    0.000    3.250 
#    0.000    1.250    0.000    0.750    0.000    4.375 
#    0.000    0.500    0.000    7.000    0.000    0.000 
#
# Total GULP energy -793026.387751 kJ/mol
# GULP energy per Si atom -12391.037309 kJ/mol
# Density = 1.546100 g / cm^3
# Si number density = 15.496267 Si / 1000 Ang^3
#
#
#
# Elastic Constant Matrix: (Units=GPa)
#
#
# Indices 1 2 3 4 5 6 
#
# 1 114.8091 63.4315 29.9525 0.0000 0.0000 0.0000
# 2 63.4315 104.4432 20.1660 0.0000 0.0000 0.0000
# 3 29.9525 20.1660 35.5716 0.0000 0.0000 0.0000
# 4 0.0000 0.0000 0.0000 4.7786 0.0000 0.0000
# 5 0.0000 0.0000 0.0000 0.0000 17.7868 0.0000
# 6 0.0000 0.0000 0.0000 0.0000 0.0000 25.6645
#
#
#
# Elastic Compliance Matrix: (Units=1/GPa)
#
#
# Indices 1 2 3 4 5 6 
#
# 1 0.015063 -0.007522 -0.008419 0.000000 0.000000 0.000000
# 2 -0.007522 0.014508 -0.001891 0.000000 0.000000 0.000000
# 3 -0.008419 -0.001891 0.036273 0.000000 0.000000 0.000000
# 4 0.000000 0.000000 0.000000 0.209268 0.000000 0.000000
# 5 0.000000 0.000000 0.000000 0.000000 0.056221 0.000000
# 6 0.000000 0.000000 0.000000 0.000000 0.000000 0.038964
#
#
# Mechanical properties :
#
#
# Convention : Reuss Voigt Hill
#
# Bulk Modulus (GPa) = 33.13439 53.54712 43.34076
# Shear Modulus (GPa) = 12.01862 19.06422 15.54142
#
# Velocity S-wave (km/s) = 2.78795 3.51129 3.17032
# Velocity P-wave (km/s) = 5.63845 7.14624 6.43665
#
# Compressibility (1/GPa) = 0.03018012
#
# Stress axis : x y z
#
# Youngs Moduli (GPa) = 66.38964 68.92618 27.56876
#
# Poissons Ratio (x) = 0.51850 0.23209
# Poissons Ratio (y) = 0.49942 0.05213
# Poissons Ratio (z) = 0.55891 0.13032
#
# Static dielectric constant tensor:
#      x y z
#    x 3.279050 0.000000 0.000000 
#    y 0.000000 2.962500 0.000000 
#    z 0.000000 0.000000 2.793030 
# 
# 
# High freq. dielectric constant tensor:
#      x y z
#    x 1.595790 0.000000 0.000000 
#    y 0.000000 1.564050 0.000000 
#    z 0.000000 0.000000 1.572300 
# 
# From -- ./inp_files/10267.got.cif
#   From: 2010.03.12/outbox.cif.g09.slc.cpg/sg47_6_cif.got.tgz:10267.got - 2010.04.14 03:12:58.
