data_PCOD8196757
_publ_section_title
;
Structure prediction by ZEFSAII (Michael W. Deem and Ramdas Pophale) SiO2 
 PCOD8196757
Probable space group: P M M M
;
_chemical_formula_sum "Si O2"
_cell_formula_units_Z 64
_cell_length_a 14.332730
_cell_length_b 9.030256
_cell_length_c 31.281987
_cell_angle_alpha 90.000000
_cell_angle_beta 90.000000
_cell_angle_gamma 90.000000
_cell_volume 4048.771929
_symmetry_space_group_name_H-M "P M M M"
_symmetry_group_IT_number 47
_symmetry_cell_setting 'orthorhombic'
loop_
_space_group_symop_operation_xyz
x,y,z
-x,-y,z
x,-y,-z
-x,y,-z
-x,-y,-z
x,y,-z
-x,y,z
x,-y,z
loop_
_atom_site_type_symbol
_atom_site_label
_atom_site_fract_x
_atom_site_fract_y
_atom_site_fract_z
Si Si1 0.714850 0.825486 0.046806
Si Si2 0.282459 0.175620 0.789162
Si Si3 0.395265 0.823644 0.872099
Si Si4 0.103940 0.169163 0.094131
Si Si5 0.610974 0.834491 0.371268
Si Si6 0.610034 0.670816 0.713470
Si Si7 0.610945 0.333520 0.547019
Si Si8 0.894481 0.326992 0.817545
O O1 0.647537 0.759777 0.083611
O O2 0.822482 0.787773 0.057574
O O3 0.699991 0.000000 0.044737
O O4 0.691432 0.756694 0.000000
O O5 0.332917 0.231491 0.832508
O O6 0.340392 0.234399 0.749514
O O7 0.177854 0.240700 0.787252
O O8 0.278055 0.000000 0.786651
O O9 0.500000 0.761315 0.866985
O O10 0.395683 0.000000 0.873029
O O11 0.119725 0.275452 0.134005
O O12 0.000000 0.187981 0.075001
O O13 0.121092 0.000000 0.109789
O O14 0.500000 0.836652 0.373421
O O15 0.644183 0.731652 0.332292
O O16 0.652450 0.770188 0.415681
O O17 0.650321 0.000000 0.364824
O O18 0.500000 0.692368 0.719111
O O19 0.639238 0.500000 0.717006
O O20 0.642546 0.275337 0.500000
O O21 0.500000 0.334090 0.549600
O O22 0.648189 0.500000 0.554127
O O23 0.873152 0.500000 0.814922
O O24 0.000000 0.291153 0.802204
#
# Coordination Sequence:
#
# PCOD8196757 Si02
#       8
#     8   8   8   8   8   8   8   8
#     4   9  16  26  41  64  91 115 141 172 210 257
#     4  11  20  32  50  69  90 114 144 182 221 264
#     4   9  17  28  42  63  89 114 140 175 216 251
#     4   9  16  28  46  67  90 113 138 170 211 256
#     4   9  16  25  37  54  78 109 147 191 235 274
#     4  10  20  32  45  63  89 120 153 188 228 272
#     4   8  13  21  33  49  71 103 144 189 236 281
#     4  10  20  33  50  71  92 113 138 170 211 261
#
# _framework density 15.807262
#
# number of rings (size 3 to 8) (size 9 to 14) (size 15 to 20)
#    0.000    2.625    1.250    2.250    0.000    4.250 
#    0.000    3.750    0.000    0.375    0.000    1.750 
#    0.000    1.000    0.000    0.000    0.000    0.625 
#
# Total GULP energy -793334.860276 kJ/mol
# GULP energy per Si atom -12395.857192 kJ/mol
# Density = 1.577128 g / cm^3
# Si number density = 15.807262 Si / 1000 Ang^3
#
#
#
# Elastic Constant Matrix: (Units=GPa)
#
#
# Indices 1 2 3 4 5 6 
#
# 1 68.8639 30.2117 37.3312 0.0000 0.0000 0.0000
# 2 30.2117 67.6952 41.5618 0.0000 0.0000 0.0000
# 3 37.3312 41.5618 113.3620 0.0000 0.0000 0.0000
# 4 0.0000 0.0000 0.0000 18.6452 0.0000 0.0000
# 5 0.0000 0.0000 0.0000 0.0000 4.8654 0.0000
# 6 0.0000 0.0000 0.0000 0.0000 0.0000 15.8707
#
#
#
# Elastic Compliance Matrix: (Units=1/GPa)
#
#
# Indices 1 2 3 4 5 6 
#
# 1 0.019469 -0.006133 -0.004163 0.000000 0.000000 0.000000
# 2 -0.006133 0.020995 -0.005678 0.000000 0.000000 0.000000
# 3 -0.004163 -0.005678 0.012274 0.000000 0.000000 0.000000
# 4 0.000000 0.000000 0.000000 0.053633 0.000000 0.000000
# 5 0.000000 0.000000 0.000000 0.000000 0.205533 0.000000
# 6 0.000000 0.000000 0.000000 0.000000 0.000000 0.063009
#
#
# Mechanical properties :
#
#
# Convention : Reuss Voigt Hill
#
# Bulk Modulus (GPa) = 48.09858 52.01449 50.05654
# Shear Modulus (GPa) = 12.08344 17.26402 14.67373
#
# Velocity S-wave (km/s) = 2.76782 3.30837 3.05009
# Velocity P-wave (km/s) = 6.38033 6.89714 6.64377
#
# Compressibility (1/GPa) = 0.02079063
#
# Stress axis : x y z
#
# Youngs Moduli (GPa) = 51.36475 47.63028 81.47479
#
# Poissons Ratio (x) = 0.29211 0.33915
# Poissons Ratio (y) = 0.31502 0.46259
# Poissons Ratio (z) = 0.21382 0.27043
#
# Static dielectric constant tensor:
#      x y z
#    x 2.909280 0.000000 0.000000 
#    y 0.000000 2.932950 0.000000 
#    z 0.000000 0.000000 3.129770 
# 
# 
# High freq. dielectric constant tensor:
#      x y z
#    x 1.570550 0.000000 0.000000 
#    y 0.000000 1.593340 0.000000 
#    z 0.000000 0.000000 1.601420 
# 
# From -- ./inp_files/34458.got.cif
#   From: 2010.03.12/outbox.cif.g09.slc.cpg/sg47_18_cif.got.tgz:34458.got - 2010.04.14 03:12:58.
