data_PCOD8196713
_publ_section_title
;
Structure prediction by ZEFSAII (Michael W. Deem and Ramdas Pophale) SiO2 
 PCOD8196713
Probable space group: P M M M
;
_chemical_formula_sum "Si O2"
_cell_formula_units_Z 60
_cell_length_a 20.287717
_cell_length_b 28.019218
_cell_length_c 9.087346
_cell_angle_alpha 90.000000
_cell_angle_beta 90.000000
_cell_angle_gamma 90.000000
_cell_volume 5165.665169
_symmetry_space_group_name_H-M "P M M M"
_symmetry_group_IT_number 47
_symmetry_cell_setting 'orthorhombic'
loop_
_space_group_symop_operation_xyz
x,y,z
-x,-y,z
x,-y,-z
-x,y,-z
-x,-y,-z
x,y,-z
-x,y,z
x,-y,z
loop_
_atom_site_type_symbol
_atom_site_label
_atom_site_fract_x
_atom_site_fract_y
_atom_site_fract_z
Si Si1 0.078566 0.093345 0.333552
Si Si2 0.827943 0.443766 0.669990
Si Si3 0.078576 0.000000 0.166458
Si Si4 0.697946 0.556824 0.164837
Si Si5 0.921392 0.186764 0.166518
Si Si6 0.921563 0.279826 0.666312
Si Si7 0.427448 0.556753 0.334570
Si Si8 0.077411 0.374659 0.829105
O O1 0.105684 0.093424 0.500000
O O2 0.105590 0.046660 0.250075
O O3 0.105465 0.139980 0.249709
O O4 0.000000 0.093287 0.334026
O O5 0.830073 0.428958 0.500000
O O6 0.836033 0.500000 0.691359
O O7 0.758935 0.425421 0.736909
O O8 0.888030 0.419900 0.755849
O O9 0.000000 0.000000 0.166066
O O10 0.105663 0.000000 0.000000
O O11 0.695304 0.500000 0.164726
O O12 0.629841 0.577921 0.230857
O O13 0.706477 0.576735 0.000000
O O14 0.893830 0.233248 0.250534
O O15 0.000000 0.187009 0.166254
O O16 0.894389 0.186794 0.000000
O O17 0.894070 0.280591 0.500000
O O18 0.896534 0.326548 0.751820
O O19 0.000000 0.278365 0.665771
O O20 0.416008 0.575677 0.500000
O O21 0.500000 0.573043 0.277570
O O22 0.423645 0.500000 0.334728
O O23 0.000000 0.381400 0.804617
O O24 0.095699 0.371754 0.000000
#
# Coordination Sequence:
#
# PCOD8196713 Si02
#       8
#     8   8   4   8   8   8   8   8
#     4   9  15  21  28  38  52  70  91 112 133 158
#     4  10  20  32  44  55  67  84 104 124 147 179
#     4   9  15  21  27  35  49  69  91 113 135 157
#     4   9  16  25  37  52  69  87 106 127 148 170
#     4   9  15  22  32  45  59  73  89 109 134 164
#     4   9  16  26  39  52  64  76  90 110 138 173
#     4   8  13  21  33  49  69  91 111 128 145 165
#     4  10  20  32  44  56  68  80  95 119 152 187
#
# _framework density 11.615155
#
# number of rings (size 3 to 8) (size 9 to 14) (size 15 to 20)
#    0.000    2.867    0.000    3.000    0.000    9.333 
#    0.000    2.667    0.000    0.000    0.000    0.000 
#    0.000    0.000    0.000    0.000    0.000    0.000 
#
# Total GULP energy -743829.448972 kJ/mol
# GULP energy per Si atom -12397.157483 kJ/mol
# Density = 1.158872 g / cm^3
# Si number density = 11.615155 Si / 1000 Ang^3
#
#
#
# Elastic Constant Matrix: (Units=GPa)
#
#
# Indices 1 2 3 4 5 6 
#
# 1 32.3959 22.3339 31.3516 0.0000 0.0000 0.0000
# 2 22.3339 52.8155 42.2525 0.0000 0.0000 0.0000
# 3 31.3516 42.2525 116.0272 0.0000 0.0000 0.0000
# 4 0.0000 0.0000 0.0000 21.4764 0.0000 0.0000
# 5 0.0000 0.0000 0.0000 0.0000 13.7072 0.0000
# 6 0.0000 0.0000 0.0000 0.0000 0.0000 0.2588
#
#
#
# Elastic Compliance Matrix: (Units=1/GPa)
#
#
# Indices 1 2 3 4 5 6 
#
# 1 0.048215 -0.014063 -0.007907 0.000000 0.000000 0.000000
# 2 -0.014063 0.030819 -0.007423 0.000000 0.000000 0.000000
# 3 -0.007907 -0.007423 0.013458 0.000000 0.000000 0.000000
# 4 0.000000 0.000000 0.000000 0.046563 0.000000 0.000000
# 5 0.000000 0.000000 0.000000 0.000000 0.072954 0.000000
# 6 0.000000 0.000000 0.000000 0.000000 0.000000 3.864579
#
#
# Mechanical properties :
#
#
# Convention : Reuss Voigt Hill
#
# Bulk Modulus (GPa) = 29.66781 43.67940 36.67361
# Shear Modulus (GPa) = 1.20580 14.10850 7.65715
#
# Velocity S-wave (km/s) = 1.01999 3.48898 2.57035
# Velocity P-wave (km/s) = 5.19470 7.34288 6.36014
#
# Compressibility (1/GPa) = 0.03370656
#
# Stress axis : x y z
#
# Youngs Moduli (GPa) = 20.74029 32.44739 74.30274
#
# Poissons Ratio (x) = 0.45631 0.58752
# Poissons Ratio (y) = 0.29167 0.55156
# Poissons Ratio (z) = 0.16399 0.24086
#
# Static dielectric constant tensor:
#      x y z
#    x 2.126300 0.000000 0.000000 
#    y 0.000000 2.333930 0.000000 
#    z 0.000000 0.000000 2.675150 
# 
# 
# High freq. dielectric constant tensor:
#      x y z
#    x 1.380270 0.000000 0.000000 
#    y 0.000000 1.415370 0.000000 
#    z 0.000000 0.000000 1.462180 
# 
# From -- ./inp_files/10256.got.cif
#   From: 2010.03.12/outbox.cif.g09.slc.cpg/sg47_6_cif.got.tgz:10256.got - 2010.04.14 03:12:58.
