data_PCOD8196530
_publ_section_title
;
Structure prediction by ZEFSAII (Michael W. Deem and Ramdas Pophale) SiO2 
 PCOD8196530
Probable space group: P M M M
;
_chemical_formula_sum "Si O2"
_cell_formula_units_Z 52
_cell_length_a 20.525247
_cell_length_b 14.414107
_cell_length_c 9.007813
_cell_angle_alpha 90.000000
_cell_angle_beta 90.000000
_cell_angle_gamma 90.000000
_cell_volume 2664.989458
_symmetry_space_group_name_H-M "P M M M"
_symmetry_group_IT_number 47
_symmetry_cell_setting 'orthorhombic'
loop_
_space_group_symop_operation_xyz
x,y,z
-x,-y,z
x,-y,-z
-x,y,-z
-x,-y,-z
x,y,-z
-x,y,z
x,-y,z
loop_
_atom_site_type_symbol
_atom_site_label
_atom_site_fract_x
_atom_site_fract_y
_atom_site_fract_z
Si Si1 0.251470 0.853293 0.334775
Si Si2 0.126668 0.101587 0.831033
Si Si3 0.797954 0.646365 0.337803
Si Si4 0.500000 0.108672 0.676365
Si Si5 0.927781 0.273748 0.326021
Si Si6 0.325027 0.600651 0.828179
Si Si7 0.376375 0.203226 0.822938
O O1 0.265590 0.894260 0.500000
O O2 0.195452 0.909974 0.252624
O O3 0.227520 0.749614 0.351378
O O4 0.315945 0.858009 0.233585
O O5 0.078908 0.175568 0.756099
O O6 0.093024 0.000000 0.825378
O O7 0.139856 0.133051 0.000000
O O8 0.798591 0.598556 0.500000
O O9 0.872326 0.652247 0.273051
O O10 0.748256 0.591363 0.234780
O O11 0.500000 0.120044 0.500000
O O12 0.438813 0.161443 0.744347
O O13 0.500000 0.000000 0.721697
O O14 0.917157 0.254408 0.500000
O O15 0.000000 0.314094 0.293424
O O16 0.359468 0.500000 0.795953
O O17 0.367064 0.688404 0.769131
O O18 0.315195 0.617786 0.000000
O O19 0.383428 0.195590 0.000000
#
# Coordination Sequence:
#
# PCOD8196530 Si02
#       7
#     8   8   8   4   8   8   8
#     4   9  17  31  51  72  96 128 166 210 259 309
#     4  10  20  31  43  64  94 125 163 215 269 320
#     4   8  15  28  47  72  98 125 163 209 252 299
#     4  11  25  43  60  79 108 148 189 225 262 307
#     4   9  18  32  48  65  89 126 170 214 264 322
#     4   9  18  33  55  84 114 141 170 208 260 319
#     4  10  20  36  59  84 111 143 179 221 264 308
#
# _framework density 19.512270999999998
#
# number of rings (size 3 to 8) (size 9 to 14) (size 15 to 20)
#    0.000    2.692    0.000    2.538    0.000    7.692 
#    0.000    1.923    0.000    2.769    0.000    3.231 
#    0.000    0.000    0.000    0.000    0.000    0.000 
#
# Total GULP energy -644252.490407 kJ/mol
# GULP energy per Si atom -12389.470969 kJ/mol
# Density = 1.946786 g / cm^3
# Si number density = 19.512271 Si / 1000 Ang^3
#
#
#
# Elastic Constant Matrix: (Units=GPa)
#
#
# Indices 1 2 3 4 5 6 
#
# 1 126.3474 35.8070 33.7746 0.0000 0.0000 0.0000
# 2 35.8070 82.1955 29.5187 0.0000 0.0000 0.0000
# 3 33.7746 29.5187 76.2533 0.0000 0.0000 0.0000
# 4 0.0000 0.0000 0.0000 10.6764 0.0000 0.0000
# 5 0.0000 0.0000 0.0000 0.0000 23.6178 0.0000
# 6 0.0000 0.0000 0.0000 0.0000 0.0000 15.3662
#
#
#
# Elastic Compliance Matrix: (Units=1/GPa)
#
#
# Indices 1 2 3 4 5 6 
#
# 1 0.009607 -0.003086 -0.003061 0.000000 0.000000 0.000000
# 2 -0.003086 0.015122 -0.004487 0.000000 0.000000 0.000000
# 3 -0.003061 -0.004487 0.016207 0.000000 0.000000 0.000000
# 4 0.000000 0.000000 0.000000 0.093665 0.000000 0.000000
# 5 0.000000 0.000000 0.000000 0.000000 0.042341 0.000000
# 6 0.000000 0.000000 0.000000 0.000000 0.000000 0.065078
#
#
# Mechanical properties :
#
#
# Convention : Reuss Voigt Hill
#
# Bulk Modulus (GPa) = 50.84252 53.66630 52.25441
# Shear Modulus (GPa) = 18.52925 22.31180 20.42052
#
# Velocity S-wave (km/s) = 3.08493 3.38520 3.23855
# Velocity P-wave (km/s) = 6.22915 6.54546 6.38926
#
# Compressibility (1/GPa) = 0.01966858
#
# Stress axis : x y z
#
# Youngs Moduli (GPa) = 104.08560 66.12911 61.70238
#
# Poissons Ratio (x) = 0.20408 0.18885
# Poissons Ratio (y) = 0.32122 0.27686
# Poissons Ratio (z) = 0.31858 0.29672
#
# Static dielectric constant tensor:
#      x y z
#    x 3.799750 0.000000 0.000000 
#    y 0.000000 3.598340 0.000000 
#    z 0.000000 0.000000 3.686040 
# 
# 
# High freq. dielectric constant tensor:
#      x y z
#    x 1.746990 0.000000 0.000000 
#    y 0.000000 1.746060 0.000000 
#    z 0.000000 0.000000 1.761190 
# 
# From -- ./inp_files/11083.got.cif
#   From: 2010.03.12/outbox.cif.g09.slc.cpg/sg47_6_cif.got.tgz:11083.got - 2010.04.14 03:12:58.
