data_PCOD8196080
_publ_section_title
;
Structure prediction by ZEFSAII (Michael W. Deem and Ramdas Pophale) SiO2 
 PCOD8196080
Probable space group: P M M M
;
_chemical_formula_sum "Si O2"
_cell_formula_units_Z 44
_cell_length_a 30.135025
_cell_length_b 9.956928
_cell_length_c 7.815232
_cell_angle_alpha 90.000000
_cell_angle_beta 90.000000
_cell_angle_gamma 90.000000
_cell_volume 2344.978135
_symmetry_space_group_name_H-M "P M M M"
_symmetry_group_IT_number 47
_symmetry_cell_setting 'orthorhombic'
loop_
_space_group_symop_operation_xyz
x,y,z
-x,-y,z
x,-y,-z
-x,y,-z
-x,-y,-z
x,y,-z
-x,y,z
x,-y,z
loop_
_atom_site_type_symbol
_atom_site_label
_atom_site_fract_x
_atom_site_fract_y
_atom_site_fract_z
Si Si1 0.081095 0.156705 0.300770
Si Si2 0.450566 0.500000 0.700261
Si Si3 0.447694 0.000000 0.303409
Si Si4 0.695666 0.155279 0.689763
Si Si5 0.605421 0.248173 0.192132
Si Si6 0.853713 0.157094 0.000000
Si Si7 0.755337 0.840019 0.000000
Si Si8 0.000000 0.653227 0.299289
O O1 0.094664 0.178552 0.500000
O O2 0.121228 0.197855 0.175282
O O3 0.042221 0.258168 0.243539
O O4 0.066852 0.000000 0.273050
O O5 0.500000 0.500000 0.783496
O O6 0.456272 0.500000 0.500000
O O7 0.422714 0.374885 0.758331
O O8 0.428445 0.127402 0.209262
O O9 0.500000 0.000000 0.284054
O O10 0.432600 0.000000 0.500000
O O11 0.716498 0.172656 0.500000
O O12 0.649310 0.234918 0.692736
O O13 0.684760 0.000000 0.729833
O O14 0.730285 0.211680 0.829404
O O15 0.623116 0.257760 0.000000
O O16 0.804800 0.223741 0.000000
O O17 0.847184 0.000000 0.000000
O O18 0.757614 0.000000 0.000000
O O19 0.000000 0.500000 0.219682
O O20 0.000000 0.637009 0.500000
#
# Coordination Sequence:
#
# PCOD8196080 Si02
#       8
#     8   4   4   8   8   4   4   4
#     4   9  17  30  49  73 106 145 182 223 270 317
#     4  11  25  43  59  79 111 149 185 222 269 327
#     4  11  23  37  55  81 113 149 187 224 265 321
#     4  10  19  33  55  83 112 141 176 222 275 327
#     4  12  23  37  58  83 112 144 184 225 270 328
#     4   9  18  31  48  75 108 139 177 225 277 332
#     4   9  18  32  51  79 111 138 172 224 282 329
#     4   9  17  30  49  76 107 145 190 227 263 312
#
# _framework density 18.763500000000001
#
# number of rings (size 3 to 8) (size 9 to 14) (size 15 to 20)
#    0.000    1.909    1.818    3.000    0.000    5.818 
#    0.000    5.909    0.000    0.000    4.727    0.000 
#    0.000    0.000    0.000    0.000    0.000    0.000 
#
# Total GULP energy -545427.596667 kJ/mol
# GULP energy per Si atom -12396.081742 kJ/mol
# Density = 1.872079 g / cm^3
# Si number density = 18.763500 Si / 1000 Ang^3
#
#
#
# Elastic Constant Matrix: (Units=GPa)
#
#
# Indices 1 2 3 4 5 6 
#
# 1 147.1121 52.2553 63.9370 0.0000 0.0000 0.0000
# 2 52.2553 98.3497 25.4997 0.0000 0.0000 0.0000
# 3 63.9370 25.4997 120.1898 0.0000 0.0000 0.0000
# 4 0.0000 0.0000 0.0000 15.2839 0.0000 0.0000
# 5 0.0000 0.0000 0.0000 0.0000 26.5198 0.0000
# 6 0.0000 0.0000 0.0000 0.0000 0.0000 15.8085
#
#
#
# Elastic Compliance Matrix: (Units=1/GPa)
#
#
# Indices 1 2 3 4 5 6 
#
# 1 0.010310 -0.004292 -0.004574 0.000000 0.000000 0.000000
# 2 -0.004292 0.012546 -0.000379 0.000000 0.000000 0.000000
# 3 -0.004574 -0.000379 0.010834 0.000000 0.000000 0.000000
# 4 0.000000 0.000000 0.000000 0.065429 0.000000 0.000000
# 5 0.000000 0.000000 0.000000 0.000000 0.037708 0.000000
# 6 0.000000 0.000000 0.000000 0.000000 0.000000 0.063257
#
#
# Mechanical properties :
#
#
# Convention : Reuss Voigt Hill
#
# Bulk Modulus (GPa) = 65.78590 72.11508 68.95049
# Shear Modulus (GPa) = 22.35739 26.45307 24.40523
#
# Velocity S-wave (km/s) = 3.45561 3.75882 3.61040
# Velocity P-wave (km/s) = 7.14551 7.57334 7.36253
#
# Compressibility (1/GPa) = 0.01520083
#
# Stress axis : x y z
#
# Youngs Moduli (GPa) = 96.99324 79.70408 92.30445
#
# Poissons Ratio (x) = 0.34209 0.42220
# Poissons Ratio (y) = 0.41629 0.03495
# Poissons Ratio (z) = 0.44364 0.03018
#
# Static dielectric constant tensor:
#      x y z
#    x 3.599940 0.000000 0.000000 
#    y 0.000000 3.241910 0.000000 
#    z 0.000000 0.000000 3.619280 
# 
# 
# High freq. dielectric constant tensor:
#      x y z
#    x 1.723040 0.000000 0.000000 
#    y 0.000000 1.696310 0.000000 
#    z 0.000000 0.000000 1.741410 
# 
# From -- ./inp_files/13786.got.cif
#   From: 2010.03.12/outbox.cif.g09.slc.cpg/sg47_7_cif.got.tgz:13786.got - 2010.04.14 03:12:58.
