data_PCOD8196694
_publ_section_title
;
Structure prediction by ZEFSAII (Michael W. Deem and Ramdas Pophale) SiO2 
 PCOD8196694
Probable space group: P M M M
;
_chemical_formula_sum "Si O2"
_cell_formula_units_Z 60
_cell_length_a 23.237949
_cell_length_b 9.148829
_cell_length_c 25.075810
_cell_angle_alpha 90.000000
_cell_angle_beta 90.000000
_cell_angle_gamma 90.000000
_cell_volume 5331.117750
_symmetry_space_group_name_H-M "P M M M"
_symmetry_group_IT_number 47
_symmetry_cell_setting 'orthorhombic'
loop_
_space_group_symop_operation_xyz
x,y,z
-x,-y,z
x,-y,-z
-x,y,-z
-x,-y,-z
x,y,-z
-x,y,z
x,-y,z
loop_
_atom_site_type_symbol
_atom_site_label
_atom_site_fract_x
_atom_site_fract_y
_atom_site_fract_z
Si Si1 0.563515 0.164218 0.563419
Si Si2 0.935302 0.826074 0.056488
Si Si3 0.892525 0.327332 0.613331
Si Si4 0.214320 0.830179 0.437233
Si Si5 0.327963 0.663555 0.436655
Si Si6 0.065045 0.330380 0.727884
Si Si7 0.000000 0.166547 0.436905
Si Si8 0.931126 0.835369 0.829766
O O1 0.566984 0.163320 0.500000
O O2 0.500000 0.219068 0.581598
O O3 0.612660 0.270303 0.586988
O O4 0.574301 0.000000 0.584631
O O5 0.907066 0.772373 0.112803
O O6 0.000000 0.765134 0.053685
O O7 0.937020 0.000000 0.060006
O O8 0.904189 0.778197 0.000000
O O9 0.895368 0.500000 0.601739
O O10 0.832914 0.262013 0.593799
O O11 0.897146 0.293466 0.676196
O O12 0.943867 0.250330 0.582366
O O13 0.204512 0.808680 0.500000
O O14 0.275696 0.767106 0.418741
O O15 0.210755 0.000000 0.421391
O O16 0.331226 0.658377 0.500000
O O17 0.319487 0.500000 0.413715
O O18 0.064038 0.500000 0.740022
O O19 0.093218 0.255934 0.779955
O O20 0.000000 0.273181 0.717404
O O21 0.000000 0.165831 0.500000
O O22 0.000000 0.000000 0.415115
O O23 0.000000 0.826769 0.831551
O O24 0.909784 0.000000 0.820950
#
# Coordination Sequence:
#
# PCOD8196694 Si02
#       8
#     8   8   8   8   8   8   4   8
#     4   8  13  21  33  49  69  91 110 126 145 167
#     4   7   9  14  25  42  63  81  96 116 137 156
#     4  11  21  33  45  55  65  79  99 121 150 190
#     4  10  20  32  43  54  67  81  98 122 154 190
#     4   9  16  25  37  52  68  86 106 125 145 172
#     4   9  17  29  39  48  63  79  94 115 148 183
#     4  11  23  35  45  57  69  77  88 113 152 193
#     4   8  13  20  32  49  62  76  99 119 137 164
#
# _framework density 11.254675000000001
#
# number of rings (size 3 to 8) (size 9 to 14) (size 15 to 20)
#    0.000    3.000    0.667    3.400    0.000    5.867 
#    0.000    1.333    0.000    0.400    0.000    2.800 
#    0.000    0.000    0.000    0.000    0.000    0.000 
#
# Total GULP energy -743301.559273 kJ/mol
# GULP energy per Si atom -12388.359321 kJ/mol
# Density = 1.122906 g / cm^3
# Si number density = 11.254675 Si / 1000 Ang^3
#
#
#
# Elastic Constant Matrix: (Units=GPa)
#
#
# Indices 1 2 3 4 5 6 
#
# 1 61.2326 31.4534 25.1689 0.0000 0.0000 0.0000
# 2 31.4534 61.8271 33.9091 0.0000 0.0000 0.0000
# 3 25.1689 33.9091 63.9642 0.0000 0.0000 0.0000
# 4 0.0000 0.0000 0.0000 9.1365 0.0000 0.0000
# 5 0.0000 0.0000 0.0000 0.0000 -8.7826 0.0000
# 6 0.0000 0.0000 0.0000 0.0000 0.0000 18.8754
#
#
#
# Elastic Compliance Matrix: (Units=1/GPa)
#
#
# Indices 1 2 3 4 5 6 
#
# 1 0.022805 -0.009419 -0.003980 0.000000 0.000000 0.000000
# 2 -0.009419 0.026694 -0.010445 0.000000 0.000000 0.000000
# 3 -0.003980 -0.010445 0.022737 0.000000 0.000000 0.000000
# 4 0.000000 0.000000 0.000000 0.109451 0.000000 0.000000
# 5 0.000000 0.000000 0.000000 0.000000 -0.113861 0.000000
# 6 0.000000 0.000000 0.000000 0.000000 0.000000 0.052979
#
#
# Mechanical properties :
#
#
# Convention : Reuss Voigt Hill
#
# Bulk Modulus (GPa) = 40.73617 40.89850 40.81734
# Shear Modulus (GPa) = 28.30008 10.27870 19.28939
#
# Velocity S-wave (km/s) = 5.01994 3.02533 4.14442
# Velocity P-wave (km/s) = 8.35902 6.97292 7.69723
#
# Compressibility (1/GPa) = 0.02454821
#
# Stress axis : x y z
#
# Youngs Moduli (GPa) = 43.84917 37.46090 43.98062
#
# Poissons Ratio (x) = 0.35284 0.17506
# Poissons Ratio (y) = 0.41301 0.45939
# Poissons Ratio (z) = 0.17454 0.39129
#
# Static dielectric constant tensor:
#      x y z
#    x 2.233490 0.000000 0.000000 
#    y 0.000000 2.476930 0.000000 
#    z 0.000000 0.000000 2.442120 
# 
# 
# High freq. dielectric constant tensor:
#      x y z
#    x 1.387310 0.000000 0.000000 
#    y 0.000000 1.430300 0.000000 
#    z 0.000000 0.000000 1.398820 
# 
# From -- ./inp_files/33864.got.cif
#   From: 2010.03.12/outbox.cif.g09.slc.cpg/sg47_17_cif.got.tgz:33864.got - 2010.04.14 03:12:58.
