data_PCOD8196929
_publ_section_title
;
Structure prediction by ZEFSAII (Michael W. Deem and Ramdas Pophale) SiO2 
 PCOD8196929
Probable space group: P M M M
;
_chemical_formula_sum "Si O2"
_cell_formula_units_Z 56
_cell_length_a 18.706977
_cell_length_b 8.813739
_cell_length_c 19.231543
_cell_angle_alpha 90.000000
_cell_angle_beta 90.000000
_cell_angle_gamma 90.000000
_cell_volume 3170.866285
_symmetry_space_group_name_H-M "P M M M"
_symmetry_group_IT_number 47
_symmetry_cell_setting 'orthorhombic'
loop_
_space_group_symop_operation_xyz
x,y,z
-x,-y,z
x,-y,-z
-x,y,-z
-x,-y,-z
x,y,-z
-x,y,z
x,-y,z
loop_
_atom_site_type_symbol
_atom_site_label
_atom_site_fract_x
_atom_site_fract_y
_atom_site_fract_z
Si Si1 0.417932 0.326067 0.787449
Si Si2 0.703386 0.178494 0.702023
Si Si3 0.638116 0.823274 0.078348
Si Si4 0.078026 0.678388 0.345343
Si Si5 0.830786 0.674891 0.220645
Si Si6 0.781706 0.680203 0.578595
Si Si7 0.788031 0.673419 0.075460
O O1 0.500000 0.307426 0.765630
O O2 0.393108 0.500000 0.785453
O O3 0.372576 0.233699 0.730855
O O4 0.408847 0.266770 0.866109
O O5 0.763611 0.224512 0.757215
O O6 0.719630 0.251004 0.626628
O O7 0.701434 0.000000 0.693151
O O8 0.720964 0.781758 0.086603
O O9 0.629524 0.000000 0.094252
O O10 0.611728 0.783983 0.000000
O O11 0.071205 0.500000 0.355624
O O12 0.099424 0.718952 0.265473
O O13 0.139978 0.740321 0.396472
O O14 0.000000 0.752670 0.361109
O O15 0.810826 0.500000 0.236473
O O16 0.844576 0.702328 0.138172
O O17 0.769213 0.735522 0.500000
O O18 0.778629 0.500000 0.584847
O O19 0.760512 0.500000 0.078668
O O20 0.824358 0.706040 0.000000
#
# Coordination Sequence:
#
# PCOD8196929 Si02
#       7
#     8   8   8   8   8   8   8
#     4  11  23  37  53  72  97 132 171 208 248 297
#     4  11  21  33  52  75 100 128 161 205 251 295
#     4  10  20  32  47  70 100 131 165 208 256 301
#     4   8  14  25  44  73 105 135 168 204 241 284
#     4   9  16  28  47  68  94 129 170 212 251 296
#     4   9  18  33  54  78 103 133 166 200 240 289
#     4   9  16  26  43  65  90 125 169 215 258 298
#
# _framework density 17.660788
#
# number of rings (size 3 to 8) (size 9 to 14) (size 15 to 20)
#    0.000    2.429    1.429    3.000    0.000    2.857 
#    0.000    2.857    0.000    7.714    0.000   10.000 
#    0.000    0.000    0.000    8.714    0.000    9.429 
#
# Total GULP energy -694051.446151 kJ/mol
# GULP energy per Si atom -12393.775824 kJ/mol
# Density = 1.762059 g / cm^3
# Si number density = 17.660788 Si / 1000 Ang^3
#
#
#
# Elastic Constant Matrix: (Units=GPa)
#
#
# Indices 1 2 3 4 5 6 
#
# 1 68.4619 25.8310 47.1078 0.0000 0.0000 0.0000
# 2 25.8310 59.3897 35.1270 0.0000 0.0000 0.0000
# 3 47.1078 35.1270 152.3518 0.0000 0.0000 0.0000
# 4 0.0000 0.0000 0.0000 19.2296 0.0000 0.0000
# 5 0.0000 0.0000 0.0000 0.0000 20.2594 0.0000
# 6 0.0000 0.0000 0.0000 0.0000 0.0000 2.2237
#
#
#
# Elastic Compliance Matrix: (Units=1/GPa)
#
#
# Indices 1 2 3 4 5 6 
#
# 1 0.020191 -0.005893 -0.004884 0.000000 0.000000 0.000000
# 2 -0.005893 0.021217 -0.003070 0.000000 0.000000 0.000000
# 3 -0.004884 -0.003070 0.008782 0.000000 0.000000 0.000000
# 4 0.000000 0.000000 0.000000 0.052003 0.000000 0.000000
# 5 0.000000 0.000000 0.000000 0.000000 0.049360 0.000000
# 6 0.000000 0.000000 0.000000 0.000000 0.000000 0.449697
#
#
# Mechanical properties :
#
#
# Convention : Reuss Voigt Hill
#
# Bulk Modulus (GPa) = 44.45366 55.14834 49.80100
# Shear Modulus (GPa) = 7.85618 19.81840 13.83729
#
# Velocity S-wave (km/s) = 2.11141 3.35351 2.80215
# Velocity P-wave (km/s) = 5.58297 6.80360 6.22328
#
# Compressibility (1/GPa) = 0.02249534
#
# Stress axis : x y z
#
# Youngs Moduli (GPa) = 49.52696 47.13282 113.87175
#
# Poissons Ratio (x) = 0.27775 0.55620
# Poissons Ratio (y) = 0.29186 0.34955
# Poissons Ratio (z) = 0.24191 0.14468
#
# Static dielectric constant tensor:
#      x y z
#    x 3.121420 0.000000 0.000000 
#    y 0.000000 3.135790 0.000000 
#    z 0.000000 0.000000 3.544480 
# 
# 
# High freq. dielectric constant tensor:
#      x y z
#    x 1.648120 0.000000 0.000000 
#    y 0.000000 1.668340 0.000000 
#    z 0.000000 0.000000 1.689820 
# 
# From -- ./inp_files/28732.got.cif
#   From: 2010.03.12/outbox.cif.g09.slc.cpg/sg47_15_cif.got.tgz:28732.got - 2010.04.14 03:12:58.
