data_PCOD8196763
_publ_section_title
;
Structure prediction by ZEFSAII (Michael W. Deem and Ramdas Pophale) SiO2 
 PCOD8196763
Probable space group: P M M M
;
_chemical_formula_sum "Si O2"
_cell_formula_units_Z 44
_cell_length_a 14.413225
_cell_length_b 19.327187
_cell_length_c 9.062028
_cell_angle_alpha 90.000000
_cell_angle_beta 90.000000
_cell_angle_gamma 90.000000
_cell_volume 2524.382813
_symmetry_space_group_name_H-M "P M M M"
_symmetry_group_IT_number 47
_symmetry_cell_setting 'orthorhombic'
loop_
_space_group_symop_operation_xyz
x,y,z
-x,-y,z
x,-y,-z
-x,y,-z
-x,-y,-z
x,y,-z
-x,y,z
x,-y,z
loop_
_atom_site_type_symbol
_atom_site_label
_atom_site_fract_x
_atom_site_fract_y
_atom_site_fract_z
Si Si1 0.241301 0.702493 0.173358
Si Si2 0.685555 0.579152 0.326404
Si Si3 0.103120 0.819656 0.175039
Si Si4 0.257309 0.922684 0.176071
Si Si5 0.396507 0.809030 0.825075
Si Si6 0.500000 0.581419 0.163769
O O1 0.235573 0.630024 0.262105
O O2 0.151713 0.747406 0.219490
O O3 0.334175 0.743685 0.222167
O O4 0.241720 0.686490 0.000000
O O5 0.675843 0.587442 0.500000
O O6 0.710007 0.500000 0.283898
O O7 0.590259 0.604878 0.252388
O O8 0.164083 0.884278 0.233521
O O9 0.000000 0.822897 0.244778
O O10 0.097812 0.823890 0.000000
O O11 0.347378 0.879811 0.230844
O O12 0.260982 0.000000 0.242679
O O13 0.255912 0.924847 0.000000
O O14 0.500000 0.802990 0.756288
O O15 0.402303 0.811590 0.000000
O O16 0.500000 0.500000 0.147272
O O17 0.500000 0.615964 0.000000
#
# Coordination Sequence:
#
# PCOD8196763 Si02
#       6
#     8   8   8   8   8   4
#     4   9  17  28  44  64  84 114 155 190 223 272
#     4  10  20  32  45  64  92 120 146 184 232 270
#     4   8  14  25  40  59  84 112 145 189 235 272
#     4   8  13  20  31  52  83 117 150 179 216 272
#     4   8  14  23  34  52  80 113 149 186 219 254
#     4   9  17  29  45  65  89 119 152 179 208 255
#
# _framework density 17.430004
#
# number of rings (size 3 to 8) (size 9 to 14) (size 15 to 20)
#    0.000    3.364    0.000    3.000    1.273    2.909 
#    0.000    3.636    0.000    1.091    0.000    3.818 
#    0.000   11.636    0.000   13.091    0.000   14.545 
#
# Total GULP energy -545262.501321 kJ/mol
# GULP energy per Si atom -12392.329575 kJ/mol
# Density = 1.739033 g / cm^3
# Si number density = 17.430004 Si / 1000 Ang^3
#
#
#
# Elastic Constant Matrix: (Units=GPa)
#
#
# Indices 1 2 3 4 5 6 
#
# 1 111.3823 42.9042 10.2199 0.0000 0.0000 0.0000
# 2 42.9042 119.6855 27.7873 0.0000 0.0000 0.0000
# 3 10.2199 27.7873 33.2066 0.0000 0.0000 0.0000
# 4 0.0000 0.0000 0.0000 7.6055 0.0000 0.0000
# 5 0.0000 0.0000 0.0000 0.0000 7.6104 0.0000
# 6 0.0000 0.0000 0.0000 0.0000 0.0000 18.4692
#
#
#
# Elastic Compliance Matrix: (Units=1/GPa)
#
#
# Indices 1 2 3 4 5 6 
#
# 1 0.010417 -0.003711 -0.000101 0.000000 0.000000 0.000000
# 2 -0.003711 0.011692 -0.008642 0.000000 0.000000 0.000000
# 3 -0.000101 -0.008642 0.037377 0.000000 0.000000 0.000000
# 4 0.000000 0.000000 0.000000 0.131484 0.000000 0.000000
# 5 0.000000 0.000000 0.000000 0.000000 0.131399 0.000000
# 6 0.000000 0.000000 0.000000 0.000000 0.000000 0.054144
#
#
# Mechanical properties :
#
#
# Convention : Reuss Voigt Hill
#
# Bulk Modulus (GPa) = 28.91926 47.34414 38.13170
# Shear Modulus (GPa) = 12.10815 18.96122 15.53468
#
# Velocity S-wave (km/s) = 2.63852 3.30183 2.98864
# Velocity P-wave (km/s) = 5.09019 6.46201 5.81668
#
# Compressibility (1/GPa) = 0.03457903
#
# Stress axis : x y z
#
# Youngs Moduli (GPa) = 95.99979 85.53038 26.75452
#
# Poissons Ratio (x) = 0.31738 0.00270
# Poissons Ratio (y) = 0.35623 0.23120
# Poissons Ratio (z) = 0.00967 0.73912
#
# Static dielectric constant tensor:
#      x y z
#    x 3.544250 0.000000 0.000000 
#    y 0.000000 3.396050 0.000000 
#    z 0.000000 0.000000 2.670570 
# 
# 
# High freq. dielectric constant tensor:
#      x y z
#    x 1.658210 0.000000 0.000000 
#    y 0.000000 1.680140 0.000000 
#    z 0.000000 0.000000 1.613310 
# 
# From -- ./inp_files/6085.got.cif
#   From: 2010.03.12/outbox.cif.g09.slc.cpg/sg47_4_cif.got.tgz:6085.got - 2010.04.14 03:12:58.
