data_PCOD8196805
_publ_section_title
;
Structure prediction by ZEFSAII (Michael W. Deem and Ramdas Pophale) SiO2 
 PCOD8196805
Probable space group: P M M M
;
_chemical_formula_sum "Si O2"
_cell_formula_units_Z 64
_cell_length_a 30.982845
_cell_length_b 14.131762
_cell_length_c 9.023418
_cell_angle_alpha 90.000000
_cell_angle_beta 90.000000
_cell_angle_gamma 90.000000
_cell_volume 3950.833113
_symmetry_space_group_name_H-M "P M M M"
_symmetry_group_IT_number 47
_symmetry_cell_setting 'orthorhombic'
loop_
_space_group_symop_operation_xyz
x,y,z
-x,-y,z
x,-y,-z
-x,y,-z
-x,-y,-z
x,y,-z
-x,y,z
x,-y,z
loop_
_atom_site_type_symbol
_atom_site_label
_atom_site_fract_x
_atom_site_fract_y
_atom_site_fract_z
Si Si1 0.414315 0.106772 0.827948
Si Si2 0.130133 0.387314 0.834148
Si Si3 0.548713 0.722189 0.329328
Si Si4 0.621727 0.391222 0.827486
Si Si5 0.215268 0.612092 0.330589
Si Si6 0.047456 0.612517 0.333369
Si Si7 0.323225 0.892989 0.672546
Si Si8 0.291700 0.281637 0.825315
O O1 0.448415 0.178073 0.756600
O O2 0.368986 0.122571 0.749114
O O3 0.431454 0.000000 0.805476
O O4 0.407894 0.131116 0.000000
O O5 0.128526 0.500000 0.834686
O O6 0.169491 0.351903 0.732456
O O7 0.085180 0.345606 0.770241
O O8 0.136397 0.347945 0.000000
O O9 0.560533 0.739532 0.500000
O O10 0.500000 0.684034 0.311366
O O11 0.580575 0.644169 0.263180
O O12 0.630394 0.500000 0.787422
O O13 0.663779 0.332561 0.780116
O O14 0.611587 0.377540 0.000000
O O15 0.219369 0.645835 0.500000
O O16 0.219020 0.500000 0.317178
O O17 0.252685 0.655783 0.232168
O O18 0.054678 0.650154 0.500000
O O19 0.049925 0.500000 0.333636
O O20 0.000000 0.644805 0.275220
O O21 0.328034 0.869621 0.500000
O O22 0.289522 0.821224 0.747903
O O23 0.306518 0.000000 0.697862
O O24 0.287215 0.269545 0.000000
#
# Coordination Sequence:
#
# PCOD8196805 Si02
#       8
#     8   8   8   8   8   8   8   8
#     4  10  20  35  56  80 103 127 154 183 220 267
#     4   9  16  25  37  54  79 111 149 196 244 285
#     4  11  24  39  55  76 101 128 157 189 227 272
#     4  10  22  39  57  76  97 124 157 192 230 271
#     4  10  20  32  46  65  91 125 162 198 239 284
#     4   8  13  21  33  49  71 103 145 192 240 288
#     4  10  20  34  54  79 104 127 151 181 219 266
#     4  11  21  34  54  77  99 123 154 190 229 275
#
# _framework density 16.199114999999999
#
# number of rings (size 3 to 8) (size 9 to 14) (size 15 to 20)
#    0.000    2.125    1.250    3.000    0.000    6.750 
#    0.000    3.750    0.000    0.000    0.000    0.000 
#    0.000    0.000    0.000    0.000    0.000    0.625 
#
# Total GULP energy -793612.224007 kJ/mol
# GULP energy per Si atom -12400.191000 kJ/mol
# Density = 1.616224 g / cm^3
# Si number density = 16.199115 Si / 1000 Ang^3
#
#
#
# Elastic Constant Matrix: (Units=GPa)
#
#
# Indices 1 2 3 4 5 6 
#
# 1 98.9365 28.5517 53.3090 0.0000 0.0000 0.0000
# 2 28.5517 60.2211 38.2530 0.0000 0.0000 0.0000
# 3 53.3090 38.2530 103.3564 0.0000 0.0000 0.0000
# 4 0.0000 0.0000 0.0000 22.6805 0.0000 0.0000
# 5 0.0000 0.0000 0.0000 0.0000 28.3127 0.0000
# 6 0.0000 0.0000 0.0000 0.0000 0.0000 3.4807
#
#
#
# Elastic Compliance Matrix: (Units=1/GPa)
#
#
# Indices 1 2 3 4 5 6 
#
# 1 0.014337 -0.002746 -0.006378 0.000000 0.000000 0.000000
# 2 -0.002746 0.022235 -0.006813 0.000000 0.000000 0.000000
# 3 -0.006378 -0.006813 0.015487 0.000000 0.000000 0.000000
# 4 0.000000 0.000000 0.000000 0.044091 0.000000 0.000000
# 5 0.000000 0.000000 0.000000 0.000000 0.035320 0.000000
# 6 0.000000 0.000000 0.000000 0.000000 0.000000 0.287301
#
#
# Mechanical properties :
#
#
# Convention : Reuss Voigt Hill
#
# Bulk Modulus (GPa) = 49.54426 55.86017 52.70221
# Shear Modulus (GPa) = 10.93202 20.38812 15.66007
#
# Velocity S-wave (km/s) = 2.60061 3.55152 3.11259
# Velocity P-wave (km/s) = 6.29829 7.16771 6.74702
#
# Compressibility (1/GPa) = 0.02018397
#
# Stress axis : x y z
#
# Youngs Moduli (GPa) = 69.75138 44.97402 64.57142
#
# Poissons Ratio (x) = 0.12348 0.41186
# Poissons Ratio (y) = 0.19151 0.43994
# Poissons Ratio (z) = 0.44490 0.30642
#
# Static dielectric constant tensor:
#      x y z
#    x 3.084460 0.000000 0.000000 
#    y 0.000000 2.871290 0.000000 
#    z 0.000000 0.000000 3.260070 
# 
# 
# High freq. dielectric constant tensor:
#      x y z
#    x 1.614380 0.000000 0.000000 
#    y 0.000000 1.582520 0.000000 
#    z 0.000000 0.000000 1.640250 
# 
# From -- ./inp_files/14322.got.cif
#   From: 2010.03.12/outbox.cif.g09.slc.cpg/sg47_8_cif.got.tgz:14322.got - 2010.04.14 03:12:58.
