data_PCOD8196945
_publ_section_title
;
Structure prediction by ZEFSAII (Michael W. Deem and Ramdas Pophale) SiO2 
 PCOD8196945
Probable space group: P M M M
;
_chemical_formula_sum "Si O2"
_cell_formula_units_Z 40
_cell_length_a 8.207607
_cell_length_b 9.551893
_cell_length_c 27.490360
_cell_angle_alpha 90.000000
_cell_angle_beta 90.000000
_cell_angle_gamma 90.000000
_cell_volume 2155.194297
_symmetry_space_group_name_H-M "P M M M"
_symmetry_group_IT_number 47
_symmetry_cell_setting 'orthorhombic'
loop_
_space_group_symop_operation_xyz
x,y,z
-x,-y,z
x,-y,-z
-x,y,-z
-x,-y,-z
x,y,-z
-x,y,z
x,-y,z
loop_
_atom_site_type_symbol
_atom_site_label
_atom_site_fract_x
_atom_site_fract_y
_atom_site_fract_z
Si Si1 0.183487 0.166160 0.500000
Si Si2 0.818644 0.666764 0.887727
Si Si3 0.311481 0.838972 0.602084
Si Si4 0.683414 0.665156 0.787871
Si Si5 0.500000 0.333342 0.055380
Si Si6 0.187816 0.343931 0.687775
O O1 0.274383 0.221205 0.451755
O O2 0.000000 0.223952 0.500000
O O3 0.188245 0.000000 0.500000
O O4 0.811275 0.500000 0.889363
O O5 0.795081 0.720430 0.832176
O O6 0.667769 0.725327 0.920175
O O7 0.000000 0.717012 0.905602
O O8 0.500000 0.821655 0.613683
O O9 0.211658 0.751269 0.640912
O O10 0.255143 0.000000 0.605804
O O11 0.500000 0.707343 0.801114
O O12 0.705615 0.500000 0.783104
O O13 0.730466 0.728610 0.735267
O O14 0.500000 0.500000 0.059302
O O15 0.500000 0.281442 0.000000
O O16 0.259583 0.500000 0.677665
O O17 0.000000 0.355478 0.699991
#
# Coordination Sequence:
#
# PCOD8196945 Si02
#       6
#     4   8   8   8   4   8
#     4   9  17  31  52  73  92 119 154 190 228 275
#     4   9  15  23  35  50  70 100 140 183 227 276
#     4  10  20  34  52  73  96 123 156 192 232 281
#     4   9  15  25  41  59  81 110 144 184 229 276
#     4   9  16  24  32  46  70 100 139 186 231 272
#     4  10  20  32  47  70  97 123 155 196 239 282
#
# _framework density 18.559811
#
# number of rings (size 3 to 8) (size 9 to 14) (size 15 to 20)
#    0.000    2.600    1.000    2.100    0.000    6.400 
#    0.000    2.500    0.000    3.000    0.000    0.000 
#    0.000    0.000    0.000    0.000    0.000    2.000 
#
# Total GULP energy -495725.081765 kJ/mol
# GULP energy per Si atom -12393.127044 kJ/mol
# Density = 1.851757 g / cm^3
# Si number density = 18.559811 Si / 1000 Ang^3
#
#
#
# Elastic Constant Matrix: (Units=GPa)
#
#
# Indices 1 2 3 4 5 6 
#
# 1 105.3454 12.4609 54.2282 0.0000 0.0000 0.0000
# 2 12.4609 20.1547 20.7099 0.0000 0.0000 0.0000
# 3 54.2282 20.7099 141.4200 0.0000 0.0000 0.0000
# 4 0.0000 0.0000 0.0000 -4.4812 0.0000 0.0000
# 5 0.0000 0.0000 0.0000 0.0000 32.3565 0.0000
# 6 0.0000 0.0000 0.0000 0.0000 0.0000 12.2224
#
#
#
# Elastic Compliance Matrix: (Units=1/GPa)
#
#
# Indices 1 2 3 4 5 6 
#
# 1 0.011996 -0.003167 -0.004136 0.000000 0.000000 0.000000
# 2 -0.003167 0.059241 -0.007461 0.000000 0.000000 0.000000
# 3 -0.004136 -0.007461 0.009750 0.000000 0.000000 0.000000
# 4 0.000000 0.000000 0.000000 -0.223157 0.000000 0.000000
# 5 0.000000 0.000000 0.000000 0.000000 0.030906 0.000000
# 6 0.000000 0.000000 0.000000 0.000000 0.000000 0.081817
#
#
# Mechanical properties :
#
#
# Convention : Reuss Voigt Hill
#
# Bulk Modulus (GPa) = 19.43307 49.07981 34.25644
# Shear Modulus (GPa) = 290.13477 19.98764 155.06120
#
# Velocity S-wave (km/s) = 12.51653 3.28522 9.15031
# Velocity P-wave (km/s) = 14.81141 6.39467 11.40767
#
# Compressibility (1/GPa) = 0.05145868
#
# Stress axis : x y z
#
# Youngs Moduli (GPa) = 83.35829 16.88033 102.56556
#
# Poissons Ratio (x) = 0.05345 0.42425
# Poissons Ratio (y) = 0.26396 0.76525
# Poissons Ratio (z) = 0.34480 0.12595
#
# Static dielectric constant tensor:
#      x y z
#    x 3.606300 0.000000 0.000000 
#    y 0.000000 2.695160 0.000000 
#    z 0.000000 0.000000 3.594600 
# 
# 
# High freq. dielectric constant tensor:
#      x y z
#    x 1.737410 0.000000 0.000000 
#    y 0.000000 1.629130 0.000000 
#    z 0.000000 0.000000 1.732740 
# 
# From -- ./inp_files/32992.got.cif
#   From: 2010.03.12/outbox.cif.g09.slc.cpg/sg47_17_cif.got.tgz:32992.got - 2010.04.14 03:12:58.
