data_PCOD8196305
_publ_section_title
;
Structure prediction by ZEFSAII (Michael W. Deem and Ramdas Pophale) SiO2 
 PCOD8196305
Probable space group: P M M M
;
_chemical_formula_sum "Si O2"
_cell_formula_units_Z 40
_cell_length_a 9.047591
_cell_length_b 11.881896
_cell_length_c 20.251166
_cell_angle_alpha 90.000000
_cell_angle_beta 90.000000
_cell_angle_gamma 90.000000
_cell_volume 2177.051688
_symmetry_space_group_name_H-M "P M M M"
_symmetry_group_IT_number 47
_symmetry_cell_setting 'orthorhombic'
loop_
_space_group_symop_operation_xyz
x,y,z
-x,-y,z
x,-y,-z
-x,y,-z
-x,-y,-z
x,y,-z
-x,y,z
x,-y,z
loop_
_atom_site_type_symbol
_atom_site_label
_atom_site_fract_x
_atom_site_fract_y
_atom_site_fract_z
Si Si1 0.330454 0.776277 0.074945
Si Si2 0.825362 0.239110 0.687974
Si Si3 0.672497 0.627295 0.424571
Si Si4 0.175194 0.000000 0.266334
Si Si5 0.823890 0.000000 0.883706
Si Si6 0.171736 0.368400 0.818556
O O1 0.500000 0.799492 0.094719
O O2 0.264740 0.678980 0.120775
O O3 0.238224 0.890421 0.080698
O O4 0.318435 0.732581 0.000000
O O5 0.758205 0.286511 0.621199
O O6 0.772957 0.311098 0.750990
O O7 0.000000 0.244136 0.681279
O O8 0.767283 0.111256 0.696370
O O9 0.708520 0.659078 0.500000
O O10 0.500000 0.638170 0.410291
O O11 0.725403 0.500000 0.409848
O O12 0.233273 0.000000 0.191529
O O13 0.000000 0.000000 0.264018
O O14 0.000000 0.000000 0.888970
O O15 0.201750 0.500000 0.812300
O O16 0.000000 0.340566 0.831025
#
# Coordination Sequence:
#
# PCOD8196305 Si02
#       6
#     8   8   8   4   4   8
#     4  11  24  39  55  80 114 147 183 230 282 337
#     4  10  19  35  58  84 111 140 180 228 274 322
#     4   9  19  36  56  80 113 150 185 222 266 318
#     4   9  18  34  57  82 110 140 173 221 276 323
#     4  11  20  38  63  83 107 143 185 231 280 330
#     4  10  21  37  58  83 109 142 188 236 280 332
#
# _framework density 18.373474000000002
#
# number of rings (size 3 to 8) (size 9 to 14) (size 15 to 20)
#    0.000    2.000    2.000    2.400    0.000    6.000 
#    0.000    4.000    0.000    3.000    0.000    0.000 
#    0.000    0.000    0.000    0.000    0.000    0.000 
#
# Total GULP energy -496101.908787 kJ/mol
# GULP energy per Si atom -12402.547720 kJ/mol
# Density = 1.833165 g / cm^3
# Si number density = 18.373474 Si / 1000 Ang^3
#
#
#
# Elastic Constant Matrix: (Units=GPa)
#
#
# Indices 1 2 3 4 5 6 
#
# 1 64.8268 47.7416 48.2185 0.0000 0.0000 0.0000
# 2 47.7416 134.9352 71.8875 0.0000 0.0000 0.0000
# 3 48.2185 71.8875 124.2837 0.0000 0.0000 0.0000
# 4 0.0000 0.0000 0.0000 37.7494 0.0000 0.0000
# 5 0.0000 0.0000 0.0000 0.0000 12.4127 0.0000
# 6 0.0000 0.0000 0.0000 0.0000 0.0000 26.7702
#
#
#
# Elastic Compliance Matrix: (Units=1/GPa)
#
#
# Indices 1 2 3 4 5 6 
#
# 1 0.023867 -0.005075 -0.006324 0.000000 0.000000 0.000000
# 2 -0.005075 0.011791 -0.004851 0.000000 0.000000 0.000000
# 3 -0.006324 -0.004851 0.013306 0.000000 0.000000 0.000000
# 4 0.000000 0.000000 0.000000 0.026490 0.000000 0.000000
# 5 0.000000 0.000000 0.000000 0.000000 0.080563 0.000000
# 6 0.000000 0.000000 0.000000 0.000000 0.000000 0.037355
#
#
# Mechanical properties :
#
#
# Convention : Reuss Voigt Hill
#
# Bulk Modulus (GPa) = 60.74245 73.30454 67.02349
# Shear Modulus (GPa) = 21.61120 25.79965 23.70543
#
# Velocity S-wave (km/s) = 3.43332 3.75130 3.59583
# Velocity P-wave (km/s) = 6.98918 7.66463 7.33468
#
# Compressibility (1/GPa) = 0.01646295
#
# Stress axis : x y z
#
# Youngs Moduli (GPa) = 41.89816 84.80977 75.15585
#
# Poissons Ratio (x) = 0.43043 0.47531
# Poissons Ratio (y) = 0.21264 0.36459
# Poissons Ratio (z) = 0.26498 0.41142
#
# Static dielectric constant tensor:
#      x y z
#    x 3.253020 0.000000 0.000000 
#    y 0.000000 3.529950 0.000000 
#    z 0.000000 0.000000 3.406860 
# 
# 
# High freq. dielectric constant tensor:
#      x y z
#    x 1.701240 0.000000 0.000000 
#    y 0.000000 1.717870 0.000000 
#    z 0.000000 0.000000 1.715800 
# 
# From -- ./inp_files/4132.got.cif
#   From: 2010.03.12/outbox.cif.g09.slc.cpg/sg47_3_cif.got.tgz:4132.got - 2010.04.14 03:12:58.
