data_PCOD8196392
_publ_section_title
;
Structure prediction by ZEFSAII (Michael W. Deem and Ramdas Pophale) SiO2 
 PCOD8196392
Probable space group: P M M M
;
_chemical_formula_sum "Si O2"
_cell_formula_units_Z 64
_cell_length_a 19.638872
_cell_length_b 9.281001
_cell_length_c 19.917747
_cell_angle_alpha 90.000000
_cell_angle_beta 90.000000
_cell_angle_gamma 90.000000
_cell_volume 3630.375691
_symmetry_space_group_name_H-M "P M M M"
_symmetry_group_IT_number 47
_symmetry_cell_setting 'orthorhombic'
loop_
_space_group_symop_operation_xyz
x,y,z
-x,-y,z
x,-y,-z
-x,y,-z
-x,-y,-z
x,y,-z
-x,y,z
x,-y,z
loop_
_atom_site_type_symbol
_atom_site_label
_atom_site_fract_x
_atom_site_fract_y
_atom_site_fract_z
Si Si1 0.320404 0.171806 0.329892
Si Si2 0.204752 0.333178 0.926300
Si Si3 0.924145 0.832812 0.114681
Si Si4 0.075143 0.666635 0.390982
Si Si5 0.202016 0.162077 0.426165
Si Si6 0.738096 0.663762 0.788084
Si Si7 0.106855 0.337109 0.757921
Si Si8 0.580070 0.664899 0.576219
O O1 0.255106 0.225351 0.372576
O O2 0.313729 0.236213 0.254379
O O3 0.386004 0.233009 0.368128
O O4 0.326397 0.000000 0.325618
O O5 0.187193 0.500000 0.912116
O O6 0.133014 0.249865 0.927844
O O7 0.255344 0.281681 0.866267
O O8 0.239133 0.312221 0.000000
O O9 0.925268 0.773592 0.190075
O O10 0.000000 0.811196 0.083476
O O11 0.904286 0.000000 0.115644
O O12 0.092262 0.500000 0.400935
O O13 0.131717 0.752750 0.430908
O O14 0.076701 0.708371 0.313036
O O15 0.000000 0.703462 0.419369
O O16 0.236069 0.168959 0.500000
O O17 0.184049 0.000000 0.405301
O O18 0.710534 0.500000 0.785732
O O19 0.811860 0.676362 0.754679
O O20 0.085520 0.500000 0.777312
O O21 0.599882 0.711355 0.500000
O O22 0.500000 0.680701 0.586340
O O23 0.602982 0.500000 0.588381
#
# Coordination Sequence:
#
# PCOD8196392 Si02
#       8
#     8   8   8   8   8   8   8   8
#     4  11  21  33  53  79 107 137 171 211 250 294
#     4   9  19  35  52  69  92 125 163 205 255 308
#     4  10  20  30  42  64  92 120 153 196 249 311
#     4  10  20  33  49  67  86 112 154 210 265 312
#     4  10  22  37  49  65  93 128 164 203 250 304
#     4   9  17  31  52  74  96 124 163 207 250 298
#     4   9  17  31  49  66  87 116 154 202 254 307
#     4   9  19  36  57  82 113 148 182 213 248 292
#
# _framework density 17.62903
#
# number of rings (size 3 to 8) (size 9 to 14) (size 15 to 20)
#    0.000    2.375    1.250    2.625    0.000    6.750 
#    0.000    3.125    0.000    0.000    0.000    0.000 
#    0.000    0.500    0.000    5.750    0.000    1.625 
#
# Total GULP energy -793303.133640 kJ/mol
# GULP energy per Si atom -12395.361463 kJ/mol
# Density = 1.758891 g / cm^3
# Si number density = 17.629030 Si / 1000 Ang^3
#
#
#
# Elastic Constant Matrix: (Units=GPa)
#
#
# Indices 1 2 3 4 5 6 
#
# 1 51.3802 29.8559 36.5730 0.0000 0.0000 0.0000
# 2 29.8559 69.5994 43.6984 0.0000 0.0000 0.0000
# 3 36.5730 43.6984 111.8562 0.0000 0.0000 0.0000
# 4 0.0000 0.0000 0.0000 17.5336 0.0000 0.0000
# 5 0.0000 0.0000 0.0000 0.0000 18.4192 0.0000
# 6 0.0000 0.0000 0.0000 0.0000 0.0000 23.0507
#
#
#
# Elastic Compliance Matrix: (Units=1/GPa)
#
#
# Indices 1 2 3 4 5 6 
#
# 1 0.028729 -0.008515 -0.006067 0.000000 0.000000 0.000000
# 2 -0.008515 0.021561 -0.005639 0.000000 0.000000 0.000000
# 3 -0.006067 -0.005639 0.013127 0.000000 0.000000 0.000000
# 4 0.000000 0.000000 0.000000 0.057033 0.000000 0.000000
# 5 0.000000 0.000000 0.000000 0.000000 0.054291 0.000000
# 6 0.000000 0.000000 0.000000 0.000000 0.000000 0.043383
#
#
# Mechanical properties :
#
#
# Convention : Reuss Voigt Hill
#
# Bulk Modulus (GPa) = 43.52520 50.34339 46.93429
# Shear Modulus (GPa) = 18.78119 19.98126 19.38122
#
# Velocity S-wave (km/s) = 3.26752 3.37030 3.31931
# Velocity P-wave (km/s) = 6.24329 6.61546 6.43207
#
# Compressibility (1/GPa) = 0.02297520
#
# Stress axis : x y z
#
# Youngs Moduli (GPa) = 34.80810 46.37993 76.18015
#
# Poissons Ratio (x) = 0.39491 0.46218
# Poissons Ratio (y) = 0.29638 0.42959
# Poissons Ratio (z) = 0.21118 0.26155
#
# Static dielectric constant tensor:
#      x y z
#    x 2.929060 0.000000 0.000000 
#    y 0.000000 3.220140 0.000000 
#    z 0.000000 0.000000 3.327180 
# 
# 
# High freq. dielectric constant tensor:
#      x y z
#    x 1.639230 0.000000 0.000000 
#    y 0.000000 1.679010 0.000000 
#    z 0.000000 0.000000 1.682840 
# 
# From -- ./inp_files/30180.got.cif
#   From: 2010.03.12/outbox.cif.g09.slc.cpg/sg47_16_cif.got.tgz:30180.got - 2010.04.14 03:12:58.
