data_PCOD8196274
_publ_section_title
;
Structure prediction by ZEFSAII (Michael W. Deem and Ramdas Pophale) SiO2 
 PCOD8196274
Probable space group: P M M M
;
_chemical_formula_sum "Si O2"
_cell_formula_units_Z 48
_cell_length_a 9.444498
_cell_length_b 28.886505
_cell_length_c 9.800219
_cell_angle_alpha 90.000000
_cell_angle_beta 90.000000
_cell_angle_gamma 90.000000
_cell_volume 2673.681427
_symmetry_space_group_name_H-M "P M M M"
_symmetry_group_IT_number 47
_symmetry_cell_setting 'orthorhombic'
loop_
_space_group_symop_operation_xyz
x,y,z
-x,-y,z
x,-y,-z
-x,y,-z
-x,-y,-z
x,y,-z
-x,y,z
x,-y,z
loop_
_atom_site_type_symbol
_atom_site_label
_atom_site_fract_x
_atom_site_fract_y
_atom_site_fract_z
Si Si1 0.333593 0.948776 0.500000
Si Si2 0.337297 0.554374 0.845754
Si Si3 0.834178 0.707227 0.843684
Si Si4 0.665548 0.103265 0.232770
Si Si5 0.833075 0.378684 0.658800
Si Si6 0.339453 0.795516 0.157836
Si Si7 0.833677 0.053991 0.000000
O O1 0.500000 0.955180 0.500000
O O2 0.284753 0.918916 0.372835
O O3 0.262758 0.000000 0.500000
O O4 0.500000 0.568880 0.823570
O O5 0.318159 0.500000 0.825590
O O6 0.242336 0.578247 0.730757
O O7 0.289748 0.568361 0.000000
O O8 0.785283 0.666965 0.741179
O O9 0.759985 0.754009 0.792318
O O10 0.000000 0.715740 0.834095
O O11 0.789377 0.695005 0.000000
O O12 0.500000 0.094864 0.197155
O O13 0.697064 0.158055 0.240779
O O14 0.764928 0.077743 0.128541
O O15 0.787094 0.374715 0.500000
O O16 0.000000 0.386530 0.671162
O O17 0.500000 0.779619 0.183986
O O18 0.313230 0.807332 0.000000
O O19 0.000000 0.063285 0.000000
O O20 0.796968 0.000000 0.000000
#
# Coordination Sequence:
#
# PCOD8196274 Si02
#       7
#     4   8   8   8   8   8   4
#     4   9  18  32  53  79 103 133 175 215 254 307
#     4   9  19  36  57  81 109 142 182 227 273 321
#     4   9  18  33  53  74  98 135 177 216 260 311
#     4  10  19  35  56  78 105 137 174 216 262 314
#     4  10  21  36  53  77 111 146 182 224 265 313
#     4   9  17  31  51  77 103 128 165 215 265 312
#     4  11  23  35  51  79 109 137 173 217 262 311
#
# _framework density 17.952774000000002
#
# number of rings (size 3 to 8) (size 9 to 14) (size 15 to 20)
#    0.000    2.500    0.833    1.750    0.000    4.667 
#    1.500    4.583    0.000    1.500    0.000    0.000 
#    0.000    0.000    0.000    0.000    0.000    0.000 
#
# Total GULP energy -595133.689218 kJ/mol
# GULP energy per Si atom -12398.618525 kJ/mol
# Density = 1.791191 g / cm^3
# Si number density = 17.952774 Si / 1000 Ang^3
#
#
#
# Elastic Constant Matrix: (Units=GPa)
#
#
# Indices 1 2 3 4 5 6 
#
# 1 49.4412 48.0603 42.7177 0.0000 0.0000 0.0000
# 2 48.0603 118.9995 73.2887 0.0000 0.0000 0.0000
# 3 42.7177 73.2887 133.8154 0.0000 0.0000 0.0000
# 4 0.0000 0.0000 0.0000 36.6045 0.0000 0.0000
# 5 0.0000 0.0000 0.0000 0.0000 30.8714 0.0000
# 6 0.0000 0.0000 0.0000 0.0000 0.0000 35.0235
#
#
#
# Elastic Compliance Matrix: (Units=1/GPa)
#
#
# Indices 1 2 3 4 5 6 
#
# 1 0.035599 -0.011134 -0.005266 0.000000 0.000000 0.000000
# 2 -0.011134 0.016163 -0.005298 0.000000 0.000000 0.000000
# 3 -0.005266 -0.005298 0.012056 0.000000 0.000000 0.000000
# 4 0.000000 0.000000 0.000000 0.027319 0.000000 0.000000
# 5 0.000000 0.000000 0.000000 0.000000 0.032392 0.000000
# 6 0.000000 0.000000 0.000000 0.000000 0.000000 0.028552
#
#
# Mechanical properties :
#
#
# Convention : Reuss Voigt Hill
#
# Bulk Modulus (GPa) = 48.96837 70.04329 59.50583
# Shear Modulus (GPa) = 24.71755 29.71251 27.21503
#
# Velocity S-wave (km/s) = 3.71456 4.07263 3.89771
# Velocity P-wave (km/s) = 6.76260 7.82401 7.31259
#
# Compressibility (1/GPa) = 0.02042134
#
# Stress axis : x y z
#
# Youngs Moduli (GPa) = 28.09048 61.86992 82.94811
#
# Poissons Ratio (x) = 0.68886 0.43683
# Poissons Ratio (y) = 0.31276 0.43945
# Poissons Ratio (z) = 0.14793 0.32778
#
# Static dielectric constant tensor:
#      x y z
#    x 3.186650 0.000000 0.000000 
#    y 0.000000 3.409430 0.000000 
#    z 0.000000 0.000000 2.183990 
# 
# 
# High freq. dielectric constant tensor:
#      x y z
#    x 1.681100 0.000000 0.000000 
#    y 0.000000 1.704650 0.000000 
#    z 0.000000 0.000000 1.689300 
# 
# From -- ./inp_files/2659.got.cif
#   From: 2010.03.12/outbox.cif.g09.slc.cpg/sg47_2_cif.got.tgz:2659.got - 2010.04.14 03:12:58.
