data_PCOD8196269
_publ_section_title
;
Structure prediction by ZEFSAII (Michael W. Deem and Ramdas Pophale) SiO2 
 PCOD8196269
Probable space group: P M M M
;
_chemical_formula_sum "Si O2"
_cell_formula_units_Z 56
_cell_length_a 15.735687
_cell_length_b 9.387007
_cell_length_c 19.651456
_cell_angle_alpha 90.000000
_cell_angle_beta 90.000000
_cell_angle_gamma 90.000000
_cell_volume 2902.736296
_symmetry_space_group_name_H-M "P M M M"
_symmetry_group_IT_number 47
_symmetry_cell_setting 'orthorhombic'
loop_
_space_group_symop_operation_xyz
x,y,z
-x,-y,z
x,-y,-z
-x,y,-z
-x,-y,-z
x,y,-z
-x,y,z
x,-y,z
loop_
_atom_site_type_symbol
_atom_site_label
_atom_site_fract_x
_atom_site_fract_y
_atom_site_fract_z
Si Si1 0.405021 0.336047 0.297346
Si Si2 0.095233 0.647573 0.500000
Si Si3 0.158818 0.153954 0.609839
Si Si4 0.349181 0.165231 0.420750
Si Si5 0.500000 0.340197 0.080201
Si Si6 0.902304 0.158993 0.760189
Si Si7 0.255348 0.669544 0.806892
Si Si8 0.663879 0.166587 0.079580
O O1 0.500000 0.316910 0.264445
O O2 0.386853 0.500000 0.314341
O O3 0.408690 0.253173 0.369576
O O4 0.330828 0.282779 0.245360
O O5 0.149440 0.500000 0.500000
O O6 0.110351 0.730870 0.432055
O O7 0.000000 0.601246 0.500000
O O8 0.257351 0.195312 0.611726
O O9 0.111990 0.147949 0.680658
O O10 0.151944 0.000000 0.573679
O O11 0.354797 0.217055 0.500000
O O12 0.375001 0.000000 0.417081
O O13 0.500000 0.500000 0.113310
O O14 0.580077 0.249414 0.103825
O O15 0.500000 0.357176 0.000000
O O16 0.838251 0.281821 0.784313
O O17 0.000000 0.203545 0.776009
O O18 0.884082 0.000000 0.791382
O O19 0.256752 0.500000 0.818933
O O20 0.263310 0.755658 0.877679
O O21 0.655434 0.000000 0.097892
O O22 0.683208 0.186787 0.000000
#
# Coordination Sequence:
#
# PCOD8196269 Si02
#       8
#     8   4   8   8   4   8   8   8
#     4  10  23  41  58  81 114 153 197 241 290 348
#     4  11  23  33  45  73 108 139 176 225 283 346
#     4  10  19  35  56  77 104 142 184 229 286 350
#     4  10  20  36  58  82 108 142 190 246 296 344
#     4   9  17  31  53  83 121 161 198 237 284 341
#     4  10  21  38  61  86 113 148 191 240 293 354
#     4  11  23  38  61  89 120 158 195 242 298 353
#     4  10  21  37  58  87 123 162 204 246 290 348
#
# _framework density 19.292141999999998
#
# number of rings (size 3 to 8) (size 9 to 14) (size 15 to 20)
#    0.000    1.857    2.143    1.714    1.000    5.714 
#    0.000    1.429    0.000    0.429    0.000    3.000 
#    0.000    0.000    0.000    0.000    0.000    0.000 
#
# Total GULP energy -693881.979743 kJ/mol
# GULP energy per Si atom -12390.749638 kJ/mol
# Density = 1.924823 g / cm^3
# Si number density = 19.292142 Si / 1000 Ang^3
#
#
#
# Elastic Constant Matrix: (Units=GPa)
#
#
# Indices 1 2 3 4 5 6 
#
# 1 107.0979 49.8152 33.9096 0.0000 0.0000 0.0000
# 2 49.8152 110.5312 50.3649 0.0000 0.0000 0.0000
# 3 33.9096 50.3649 69.7247 0.0000 0.0000 0.0000
# 4 0.0000 0.0000 0.0000 31.9042 0.0000 0.0000
# 5 0.0000 0.0000 0.0000 0.0000 24.4846 0.0000
# 6 0.0000 0.0000 0.0000 0.0000 0.0000 29.6935
#
#
#
# Elastic Compliance Matrix: (Units=1/GPa)
#
#
# Indices 1 2 3 4 5 6 
#
# 1 0.012201 -0.004166 -0.002924 0.000000 0.000000 0.000000
# 2 -0.004166 0.014909 -0.008743 0.000000 0.000000 0.000000
# 3 -0.002924 -0.008743 0.022080 0.000000 0.000000 0.000000
# 4 0.000000 0.000000 0.000000 0.031344 0.000000 0.000000
# 5 0.000000 0.000000 0.000000 0.000000 0.040842 0.000000
# 6 0.000000 0.000000 0.000000 0.000000 0.000000 0.033677
#
#
# Mechanical properties :
#
#
# Convention : Reuss Voigt Hill
#
# Bulk Modulus (GPa) = 57.07006 61.72592 59.39799
# Shear Modulus (GPa) = 25.96583 27.43407 26.69995
#
# Velocity S-wave (km/s) = 3.67267 3.77508 3.72423
# Velocity P-wave (km/s) = 6.90151 7.14608 7.02486
#
# Compressibility (1/GPa) = 0.01752232
#
# Stress axis : x y z
#
# Youngs Moduli (GPa) = 81.95981 67.07444 45.29053
#
# Poissons Ratio (x) = 0.27946 0.13244
# Poissons Ratio (y) = 0.34148 0.39597
# Poissons Ratio (z) = 0.23967 0.58643
#
# Static dielectric constant tensor:
#      x y z
#    x 3.495340 0.000000 0.000000 
#    y 0.000000 3.625870 0.000000 
#    z 0.000000 0.000000 3.292020 
# 
# 
# High freq. dielectric constant tensor:
#      x y z
#    x 1.743110 0.000000 0.000000 
#    y 0.000000 1.759500 0.000000 
#    z 0.000000 0.000000 1.734980 
# 
# From -- ./inp_files/7375.got.cif
#   From: 2010.03.12/outbox.cif.g09.slc.cpg/sg47_4_cif.got.tgz:7375.got - 2010.04.14 03:12:58.
