data_PCOD8196474
_publ_section_title
;
Structure prediction by ZEFSAII (Michael W. Deem and Ramdas Pophale) SiO2 
 PCOD8196474
Probable space group: P M M M
;
_chemical_formula_sum "Si O2"
_cell_formula_units_Z 64
_cell_length_a 14.209846
_cell_length_b 31.557744
_cell_length_c 8.959879
_cell_angle_alpha 90.000000
_cell_angle_beta 90.000000
_cell_angle_gamma 90.000000
_cell_volume 4017.884654
_symmetry_space_group_name_H-M "P M M M"
_symmetry_group_IT_number 47
_symmetry_cell_setting 'orthorhombic'
loop_
_space_group_symop_operation_xyz
x,y,z
-x,-y,z
x,-y,-z
-x,y,-z
-x,-y,-z
x,y,-z
-x,y,z
x,-y,z
loop_
_atom_site_type_symbol
_atom_site_label
_atom_site_fract_x
_atom_site_fract_y
_atom_site_fract_z
Si Si1 0.605509 0.544874 0.677462
Si Si2 0.389652 0.877400 0.826405
Si Si3 0.104260 0.835862 0.669446
Si Si4 0.296086 0.202734 0.327472
Si Si5 0.387726 0.635256 0.332324
Si Si6 0.283552 0.047787 0.328634
Si Si7 0.391903 0.719148 0.175219
Si Si8 0.893318 0.077232 0.826099
O O1 0.601768 0.547307 0.500000
O O2 0.500000 0.542817 0.741571
O O3 0.656463 0.500000 0.726428
O O4 0.652892 0.589622 0.729753
O O5 0.500000 0.877262 0.797130
O O6 0.345328 0.838351 0.739564
O O7 0.348959 0.921584 0.767606
O O8 0.365074 0.872807 0.000000
O O9 0.112020 0.853438 0.500000
O O10 0.183229 0.800171 0.696049
O O11 0.123826 0.874027 0.782547
O O12 0.000000 0.816386 0.697821
O O13 0.323900 0.205600 0.500000
O O14 0.328825 0.244922 0.247169
O O15 0.351462 0.644459 0.500000
O O16 0.500000 0.631876 0.331364
O O17 0.353249 0.673399 0.227370
O O18 0.284657 0.062862 0.500000
O O19 0.176749 0.048054 0.268067
O O20 0.322529 0.000000 0.313575
O O21 0.500000 0.725559 0.225861
O O22 0.381662 0.722370 0.000000
O O23 0.000000 0.063347 0.788869
O O24 0.871076 0.071936 0.000000
#
# Coordination Sequence:
#
# PCOD8196474 Si02
#       8
#     8   8   8   8   8   8   8   8
#     4   7   9  14  27  48  71  96 132 181 232 274
#     4  11  24  40  57  76  98 123 151 187 229 268
#     4   9  18  33  53  76 100 122 144 174 216 266
#     4  11  21  33  53  76  95 119 150 183 220 265
#     4   8  13  22  36  53  75 105 144 189 231 272
#     4  11  24  40  57  77 100 127 157 187 221 262
#     4  10  20  31  42  59  87 122 156 192 233 269
#     4  10  20  34  55  81 105 128 152 180 217 262
#
# _framework density 15.928779
#
# number of rings (size 3 to 8) (size 9 to 14) (size 15 to 20)
#    0.000    2.375    1.250    3.375    0.000    6.000 
#    0.000    2.500    0.000    0.375    0.000    2.625 
#    0.000    0.000    0.000    0.000    0.000    0.625 
#
# Total GULP energy -793122.598942 kJ/mol
# GULP energy per Si atom -12392.540608 kJ/mol
# Density = 1.589252 g / cm^3
# Si number density = 15.928779 Si / 1000 Ang^3
#
#
#
# Elastic Constant Matrix: (Units=GPa)
#
#
# Indices 1 2 3 4 5 6 
#
# 1 49.7256 34.4866 19.1905 0.0000 0.0000 0.0000
# 2 34.4866 121.1878 28.1592 0.0000 0.0000 0.0000
# 3 19.1905 28.1592 44.1562 0.0000 0.0000 0.0000
# 4 0.0000 0.0000 0.0000 -3.4427 0.0000 0.0000
# 5 0.0000 0.0000 0.0000 0.0000 19.6091 0.0000
# 6 0.0000 0.0000 0.0000 0.0000 0.0000 4.6706
#
#
#
# Elastic Compliance Matrix: (Units=1/GPa)
#
#
# Indices 1 2 3 4 5 6 
#
# 1 0.027330 -0.005890 -0.008121 0.000000 0.000000 0.000000
# 2 -0.005890 0.010957 -0.004427 0.000000 0.000000 0.000000
# 3 -0.008121 -0.004427 0.029000 0.000000 0.000000 0.000000
# 4 0.000000 0.000000 0.000000 -0.290472 0.000000 0.000000
# 5 0.000000 0.000000 0.000000 0.000000 0.050997 0.000000
# 6 0.000000 0.000000 0.000000 0.000000 0.000000 0.214107
#
#
# Mechanical properties :
#
#
# Convention : Reuss Voigt Hill
#
# Bulk Modulus (GPa) = 32.88561 42.08247 37.48404
# Shear Modulus (GPa) = 56.22321 13.04962 34.63642
#
# Velocity S-wave (km/s) = 5.94754 2.86536 4.66816
# Velocity P-wave (km/s) = 8.23739 6.11748 7.25528
#
# Compressibility (1/GPa) = 0.03040843
#
# Stress axis : x y z
#
# Youngs Moduli (GPa) = 36.59032 91.26953 34.48302
#
# Poissons Ratio (x) = 0.53759 0.28005
# Poissons Ratio (y) = 0.21552 0.15267
# Poissons Ratio (z) = 0.29716 0.40408
#
# Static dielectric constant tensor:
#      x y z
#    x 2.905760 0.000000 0.000000 
#    y 0.000000 3.287660 0.000000 
#    z 0.000000 0.000000 3.056960 
# 
# 
# High freq. dielectric constant tensor:
#      x y z
#    x 1.571440 0.000000 0.000000 
#    y 0.000000 1.611050 0.000000 
#    z 0.000000 0.000000 1.613370 
# 
# From -- ./inp_files/8213.got.cif
#   From: 2010.03.12/outbox.cif.g09.slc.cpg/sg47_5_cif.got.tgz:8213.got - 2010.04.14 03:12:58.
