data_PCOD8196588
_publ_section_title
;
Structure prediction by ZEFSAII (Michael W. Deem and Ramdas Pophale) SiO2 
 PCOD8196588
Probable space group: P M M M
;
_chemical_formula_sum "Si O2"
_cell_formula_units_Z 56
_cell_length_a 14.586339
_cell_length_b 23.436728
_cell_length_c 9.220126
_cell_angle_alpha 90.000000
_cell_angle_beta 90.000000
_cell_angle_gamma 90.000000
_cell_volume 3151.955944
_symmetry_space_group_name_H-M "P M M M"
_symmetry_group_IT_number 47
_symmetry_cell_setting 'orthorhombic'
loop_
_space_group_symop_operation_xyz
x,y,z
-x,-y,z
x,-y,-z
-x,y,-z
-x,-y,-z
x,y,-z
-x,y,z
x,-y,z
loop_
_atom_site_type_symbol
_atom_site_label
_atom_site_fract_x
_atom_site_fract_y
_atom_site_fract_z
Si Si1 0.284022 0.341430 0.671533
Si Si2 0.606906 0.752238 0.836278
Si Si3 0.781661 0.936212 0.828044
Si Si4 0.400294 0.880402 0.828019
Si Si5 0.107580 0.157304 0.662263
Si Si6 0.101179 0.284132 0.672108
Si Si7 0.603997 0.566299 0.167786
O O1 0.292400 0.346799 0.500000
O O2 0.344134 0.288787 0.723838
O O3 0.178101 0.330079 0.719796
O O4 0.320577 0.399657 0.741170
O O5 0.500000 0.737875 0.834618
O O6 0.625341 0.816241 0.779945
O O7 0.644983 0.743238 0.000000
O O8 0.678265 0.923057 0.772655
O O9 0.851295 0.890956 0.764017
O O10 0.807588 0.000000 0.776522
O O11 0.786628 0.931017 0.000000
O O12 0.500000 0.898433 0.763517
O O13 0.407588 0.881028 0.000000
O O14 0.148359 0.150987 0.500000
O O15 0.128823 0.220505 0.727090
O O16 0.000000 0.147429 0.658724
O O17 0.095499 0.280031 0.500000
O O18 0.000000 0.302024 0.732598
O O19 0.500000 0.581052 0.218009
O O20 0.624025 0.500000 0.192952
O O21 0.615073 0.582842 0.000000
#
# Coordination Sequence:
#
# PCOD8196588 Si02
#       7
#     8   8   8   8   8   8   8
#     4  11  20  28  47  77 101 122 152 195 242 277
#     4   9  17  29  45  65  92 126 157 185 226 283
#     4  10  20  31  45  68  94 118 148 192 243 284
#     4   8  15  29  47  65  87 119 158 193 225 272
#     4   9  18  34  54  70  87 119 159 192 227 279
#     4   8  16  32  51  71  96 124 154 190 234 284
#     4   9  19  36  54  70  95 136 175 196 218 262
#
# _framework density 17.766746000000001
#
# number of rings (size 3 to 8) (size 9 to 14) (size 15 to 20)
#    0.000    2.857    0.000    3.857    0.000    3.714 
#    0.000    4.286    0.000    5.143    0.000    4.000 
#    0.000    0.000    0.000    0.000    0.000    0.000 
#
# Total GULP energy -694085.626964 kJ/mol
# GULP energy per Si atom -12394.386196 kJ/mol
# Density = 1.772631 g / cm^3
# Si number density = 17.766746 Si / 1000 Ang^3
#
#
#
# Elastic Constant Matrix: (Units=GPa)
#
#
# Indices 1 2 3 4 5 6 
#
# 1 93.2041 68.5219 36.9489 0.0000 0.0000 0.0000
# 2 68.5219 97.3565 38.8744 0.0000 0.0000 0.0000
# 3 36.9489 38.8744 44.6731 0.0000 0.0000 0.0000
# 4 0.0000 0.0000 0.0000 23.3353 0.0000 0.0000
# 5 0.0000 0.0000 0.0000 0.0000 21.0303 0.0000
# 6 0.0000 0.0000 0.0000 0.0000 0.0000 27.4358
#
#
#
# Elastic Compliance Matrix: (Units=1/GPa)
#
#
# Indices 1 2 3 4 5 6 
#
# 1 0.023910 -0.013688 -0.007865 0.000000 0.000000 0.000000
# 2 -0.013688 0.023577 -0.009195 0.000000 0.000000 0.000000
# 3 -0.007865 -0.009195 0.036891 0.000000 0.000000 0.000000
# 4 0.000000 0.000000 0.000000 0.042853 0.000000 0.000000
# 5 0.000000 0.000000 0.000000 0.000000 0.047550 0.000000
# 6 0.000000 0.000000 0.000000 0.000000 0.000000 0.036449
#
#
# Mechanical properties :
#
#
# Convention : Reuss Voigt Hill
#
# Bulk Modulus (GPa) = 43.70158 58.21381 50.95770
# Shear Modulus (GPa) = 17.83447 20.41952 19.12700
#
# Velocity S-wave (km/s) = 3.17174 3.39383 3.28466
# Velocity P-wave (km/s) = 6.16960 6.94220 6.56727
#
# Compressibility (1/GPa) = 0.02288247
#
# Stress axis : x y z
#
# Youngs Moduli (GPa) = 41.82303 42.41338 27.10656
#
# Poissons Ratio (x) = 0.58057 0.21318
# Poissons Ratio (y) = 0.57249 0.24926
# Poissons Ratio (z) = 0.32892 0.39001
#
# Static dielectric constant tensor:
#      x y z
#    x 3.592160 0.000000 0.000000 
#    y 0.000000 3.282410 0.000000 
#    z 0.000000 0.000000 3.050960 
# 
# 
# High freq. dielectric constant tensor:
#      x y z
#    x 1.690010 0.000000 0.000000 
#    y 0.000000 1.679820 0.000000 
#    z 0.000000 0.000000 1.655200 
# 
# From -- ./inp_files/7359.got.cif
#   From: 2010.03.12/outbox.cif.g09.slc.cpg/sg47_4_cif.got.tgz:7359.got - 2010.04.14 03:12:58.
