data_PCOD8196442
_publ_section_title
;
Structure prediction by ZEFSAII (Michael W. Deem and Ramdas Pophale) SiO2 
 PCOD8196442
Probable space group: P M M M
;
_chemical_formula_sum "Si O2"
_cell_formula_units_Z 60
_cell_length_a 17.804261
_cell_length_b 9.267672
_cell_length_c 23.029329
_cell_angle_alpha 90.000000
_cell_angle_beta 90.000000
_cell_angle_gamma 90.000000
_cell_volume 3799.932580
_symmetry_space_group_name_H-M "P M M M"
_symmetry_group_IT_number 47
_symmetry_cell_setting 'orthorhombic'
loop_
_space_group_symop_operation_xyz
x,y,z
-x,-y,z
x,-y,-z
-x,y,-z
-x,-y,-z
x,y,-z
-x,y,z
x,-y,z
loop_
_atom_site_type_symbol
_atom_site_label
_atom_site_fract_x
_atom_site_fract_y
_atom_site_fract_z
Si Si1 0.683884 0.832996 0.661868
Si Si2 0.500000 0.339155 0.068456
Si Si3 0.800808 0.662639 0.731879
Si Si4 0.584535 0.332198 0.258922
Si Si5 0.205323 0.168453 0.433888
Si Si6 0.916000 0.333572 0.359065
Si Si7 0.647194 0.168754 0.066869
Si Si8 0.290453 0.663520 0.164029
O O1 0.751930 0.786446 0.702937
O O2 0.609436 0.746291 0.681000
O O3 0.713843 0.799465 0.596625
O O4 0.666225 0.000000 0.670798
O O5 0.500000 0.500000 0.096984
O O6 0.572767 0.251390 0.088270
O O7 0.500000 0.353866 0.000000
O O8 0.771585 0.500000 0.715282
O O9 0.885366 0.682043 0.707647
O O10 0.789260 0.679944 0.801521
O O11 0.500000 0.283570 0.242125
O O12 0.587849 0.500000 0.272481
O O13 0.640819 0.291543 0.206622
O O14 0.212633 0.220296 0.500000
O O15 0.136651 0.251975 0.404374
O O16 0.186134 0.000000 0.429041
O O17 0.916890 0.500000 0.377756
O O18 0.000000 0.268560 0.360748
O O19 0.712697 0.230259 0.108409
O O20 0.635092 0.000000 0.076520
O O21 0.667271 0.202421 0.000000
O O22 0.301413 0.500000 0.141680
#
# Coordination Sequence:
#
# PCOD8196442 Si02
#       8
#     8   4   8   8   8   8   8   8
#     4   9  16  27  44  63  81 105 141 180 214 251
#     4   9  17  29  43  55  71 103 143 175 204 245
#     4   8  15  29  45  61  84 113 140 169 210 253
#     4   9  18  31  45  62  84 108 134 172 222 267
#     4   9  18  31  45  62  87 119 150 177 207 246
#     4   9  17  29  46  68  93 118 143 172 206 246
#     4  10  20  31  41  57  83 111 139 175 218 254
#     4   9  17  28  44  62  80 108 144 175 204 251
#
# _framework density 15.789754
#
# number of rings (size 3 to 8) (size 9 to 14) (size 15 to 20)
#    0.000    3.000    0.000    1.800    0.933    5.333 
#    0.000    1.333    0.000    0.400    0.000    2.800 
#    0.000    0.533    0.000    6.667    0.000    1.067 
#
# Total GULP energy -743376.844972 kJ/mol
# GULP energy per Si atom -12389.614083 kJ/mol
# Density = 1.575382 g / cm^3
# Si number density = 15.789754 Si / 1000 Ang^3
#
#
#
# Elastic Constant Matrix: (Units=GPa)
#
#
# Indices 1 2 3 4 5 6 
#
# 1 39.2917 21.6440 33.2392 0.0000 0.0000 0.0000
# 2 21.6440 59.9768 45.7609 0.0000 0.0000 0.0000
# 3 33.2392 45.7609 95.8773 0.0000 0.0000 0.0000
# 4 0.0000 0.0000 0.0000 24.5057 0.0000 0.0000
# 5 0.0000 0.0000 0.0000 0.0000 19.1375 0.0000
# 6 0.0000 0.0000 0.0000 0.0000 0.0000 17.6774
#
#
#
# Elastic Compliance Matrix: (Units=1/GPa)
#
#
# Indices 1 2 3 4 5 6 
#
# 1 0.037185 -0.005635 -0.010202 0.000000 0.000000 0.000000
# 2 -0.005635 0.027076 -0.010969 0.000000 0.000000 0.000000
# 3 -0.010202 -0.010969 0.019202 0.000000 0.000000 0.000000
# 4 0.000000 0.000000 0.000000 0.040807 0.000000 0.000000
# 5 0.000000 0.000000 0.000000 0.000000 0.052253 0.000000
# 6 0.000000 0.000000 0.000000 0.000000 0.000000 0.056569
#
#
# Mechanical properties :
#
#
# Convention : Reuss Voigt Hill
#
# Bulk Modulus (GPa) = 33.50018 44.04820 38.77419
# Shear Modulus (GPa) = 16.85450 18.56425 17.70938
#
# Velocity S-wave (km/s) = 3.27070 3.43259 3.35262
# Velocity P-wave (km/s) = 5.96035 6.60814 6.29259
#
# Compressibility (1/GPa) = 0.02985059
#
# Stress axis : x y z
#
# Youngs Moduli (GPa) = 26.89230 36.93293 52.07690
#
# Poissons Ratio (x) = 0.20813 0.53128
# Poissons Ratio (y) = 0.15155 0.57125
# Poissons Ratio (z) = 0.27435 0.40513
#
# Static dielectric constant tensor:
#      x y z
#    x 2.981520 0.000000 0.000000 
#    y 0.000000 3.035100 0.000000 
#    z 0.000000 0.000000 3.084800 
# 
# 
# High freq. dielectric constant tensor:
#      x y z
#    x 1.570810 0.000000 0.000000 
#    y 0.000000 1.612370 0.000000 
#    z 0.000000 0.000000 1.593580 
# 
# From -- ./inp_files/32927.got.cif
#   From: 2010.03.12/outbox.cif.g09.slc.cpg/sg47_17_cif.got.tgz:32927.got - 2010.04.14 03:12:58.
