data_PCOD8196449
_publ_section_title
;
Structure prediction by ZEFSAII (Michael W. Deem and Ramdas Pophale) SiO2 
 PCOD8196449
Probable space group: P M M M
;
_chemical_formula_sum "Si O2"
_cell_formula_units_Z 52
_cell_length_a 17.338400
_cell_length_b 9.244602
_cell_length_c 25.735599
_cell_angle_alpha 90.000000
_cell_angle_beta 90.000000
_cell_angle_gamma 90.000000
_cell_volume 4125.071851
_symmetry_space_group_name_H-M "P M M M"
_symmetry_group_IT_number 47
_symmetry_cell_setting 'orthorhombic'
loop_
_space_group_symop_operation_xyz
x,y,z
-x,-y,z
x,-y,-z
-x,y,-z
-x,-y,-z
x,y,-z
-x,y,z
x,-y,z
loop_
_atom_site_type_symbol
_atom_site_label
_atom_site_fract_x
_atom_site_fract_y
_atom_site_fract_z
Si Si1 0.091669 0.162310 0.152457
Si Si2 0.648827 0.335784 0.561793
Si Si3 0.908383 0.162742 0.266488
Si Si4 0.091698 0.337721 0.943399
Si Si5 0.908528 0.665749 0.365474
Si Si6 0.500000 0.164569 0.438026
Si Si7 0.800340 0.167842 0.438801
O O1 0.118425 0.219798 0.209400
O O2 0.129034 0.251595 0.104901
O O3 0.000000 0.168980 0.149016
O O4 0.121373 0.000000 0.145741
O O5 0.646453 0.338731 0.500000
O O6 0.649098 0.500000 0.583590
O O7 0.574714 0.249516 0.583263
O O8 0.724295 0.250792 0.581188
O O9 0.877311 0.270768 0.310703
O O10 0.000000 0.158470 0.267932
O O11 0.876902 0.000000 0.276484
O O12 0.123007 0.500000 0.939299
O O13 0.000000 0.335823 0.939026
O O14 0.115887 0.272326 0.000000
O O15 0.881412 0.500000 0.369878
O O16 0.874110 0.759537 0.412204
O O17 0.000000 0.679103 0.369598
O O18 0.500000 0.162135 0.500000
O O19 0.500000 0.000000 0.416739
O O20 0.811383 0.186119 0.500000
O O21 0.793797 0.000000 0.423161
#
# Coordination Sequence:
#
# PCOD8196449 Si02
#       7
#     8   8   8   8   8   4   8
#     4   8  13  20  30  43  56  71  92 118 148 181
#     4   9  16  26  40  57  76  95 113 133 157 185
#     4   8  14  25  38  49  61  76  96 125 160 196
#     4   8  13  19  25  35  53  75  95 114 139 174
#     4  10  20  31  42  55  68  83 106 137 172 208
#     4   9  15  23  37  57  79  99 117 133 149 177
#     4  10  20  32  44  56  70  89 111 134 164 203
#
# _framework density 12.605840000000001
#
# number of rings (size 3 to 8) (size 9 to 14) (size 15 to 20)
#    0.000    3.154    0.000    3.000    0.000    5.846 
#    0.000    6.154    0.000    0.000    0.000    0.000 
#    0.000    0.000    0.000    0.000    0.000    0.000 
#
# Total GULP energy -644378.671289 kJ/mol
# GULP energy per Si atom -12391.897525 kJ/mol
# Density = 1.257715 g / cm^3
# Si number density = 12.605840 Si / 1000 Ang^3
#
#
#
# Elastic Constant Matrix: (Units=GPa)
#
#
# Indices 1 2 3 4 5 6 
#
# 1 27.9768 26.9670 21.0680 0.0000 0.0000 0.0000
# 2 26.9670 99.1525 44.3788 0.0000 0.0000 0.0000
# 3 21.0680 44.3788 62.3388 0.0000 0.0000 0.0000
# 4 0.0000 0.0000 0.0000 21.6594 0.0000 0.0000
# 5 0.0000 0.0000 0.0000 0.0000 0.4274 0.0000
# 6 0.0000 0.0000 0.0000 0.0000 0.0000 16.6794
#
#
#
# Elastic Compliance Matrix: (Units=1/GPa)
#
#
# Indices 1 2 3 4 5 6 
#
# 1 0.053372 -0.009455 -0.011306 0.000000 0.000000 0.000000
# 2 -0.009455 0.016477 -0.008534 0.000000 0.000000 0.000000
# 3 -0.011306 -0.008534 0.025938 0.000000 0.000000 0.000000
# 4 0.000000 0.000000 0.000000 0.046169 0.000000 0.000000
# 5 0.000000 0.000000 0.000000 0.000000 2.339797 0.000000
# 6 0.000000 0.000000 0.000000 0.000000 0.000000 0.059954
#
#
# Mechanical properties :
#
#
# Convention : Reuss Voigt Hill
#
# Bulk Modulus (GPa) = 26.88534 41.58841 34.23687
# Shear Modulus (GPa) = 1.91373 14.22352 8.06862
#
# Velocity S-wave (km/s) = 1.23346 3.36270 2.53271
# Velocity P-wave (km/s) = 4.83762 6.93830 5.98091
#
# Compressibility (1/GPa) = 0.03719500
#
# Stress axis : x y z
#
# Youngs Moduli (GPa) = 18.73629 60.69099 38.55334
#
# Poissons Ratio (x) = 0.57385 0.43590
# Poissons Ratio (y) = 0.17716 0.32903
# Poissons Ratio (z) = 0.21184 0.51796
#
# Static dielectric constant tensor:
#      x y z
#    x 2.187250 0.000000 0.000000 
#    y 0.000000 2.792040 0.000000 
#    z 0.000000 0.000000 2.672650 
# 
# 
# High freq. dielectric constant tensor:
#      x y z
#    x 1.417450 0.000000 0.000000 
#    y 0.000000 1.493210 0.000000 
#    z 0.000000 0.000000 1.461150 
# 
# From -- ./inp_files/32170.got.cif
#   From: 2010.03.12/outbox.cif.g09.slc.cpg/sg47_17_cif.got.tgz:32170.got - 2010.04.14 03:12:58.
