data_PCOD8196018
_publ_section_title
;
Structure prediction by ZEFSAII (Michael W. Deem and Ramdas Pophale) SiO2 
 PCOD8196018
Probable space group: P M M M
;
_chemical_formula_sum "Si O2"
_cell_formula_units_Z 60
_cell_length_a 19.661016
_cell_length_b 19.439595
_cell_length_c 8.889252
_cell_angle_alpha 90.000000
_cell_angle_beta 90.000000
_cell_angle_gamma 90.000000
_cell_volume 3397.491567
_symmetry_space_group_name_H-M "P M M M"
_symmetry_group_IT_number 47
_symmetry_cell_setting 'orthorhombic'
loop_
_space_group_symop_operation_xyz
x,y,z
-x,-y,z
x,-y,-z
-x,y,-z
-x,-y,-z
x,y,-z
-x,y,z
x,-y,z
loop_
_atom_site_type_symbol
_atom_site_label
_atom_site_fract_x
_atom_site_fract_y
_atom_site_fract_z
Si Si1 0.075517 0.220164 0.177853
Si Si2 0.782564 0.827900 0.176919
Si Si3 0.123897 0.630735 0.177572
Si Si4 0.000000 0.575718 0.661905
Si Si5 0.578115 0.194930 0.676530
Si Si6 0.319052 0.707324 0.177002
Si Si7 0.678355 0.923117 0.676928
Si Si8 0.261246 0.421084 0.321776
O O1 0.137592 0.170037 0.227059
O O2 0.100120 0.294351 0.232432
O O3 0.000000 0.201575 0.245862
O O4 0.068610 0.220127 0.000000
O O5 0.745924 0.755453 0.221617
O O6 0.747531 0.892176 0.256432
O O7 0.775336 0.837927 0.000000
O O8 0.189374 0.604533 0.263282
O O9 0.063621 0.582812 0.228641
O O10 0.138088 0.627905 0.000000
O O11 0.000000 0.500000 0.601957
O O12 0.000000 0.618363 0.500000
O O13 0.586862 0.209001 0.500000
O O14 0.500000 0.189308 0.724600
O O15 0.611817 0.257446 0.766432
O O16 0.613886 0.123294 0.723748
O O17 0.315997 0.632120 0.253464
O O18 0.322440 0.696519 0.000000
O O19 0.687343 0.924776 0.500000
O O20 0.666840 0.000000 0.740645
O O21 0.263038 0.416186 0.500000
O O22 0.275962 0.500000 0.269979
#
# Coordination Sequence:
#
# PCOD8196018 Si02
#       8
#     8   8   8   4   8   8   8   8
#     4   9  16  29  49  71  95 123 162 216 267 307
#     4   9  17  31  51  74  99 130 170 214 260 306
#     4  11  20  33  51  69  91 125 169 215 265 320
#     4  11  23  35  43  59  93 131 166 207 262 325
#     4   9  18  33  54  81 112 144 173 202 245 300
#     4  10  19  33  54  77 102 134 175 218 257 304
#     4   9  18  32  51  78 110 142 174 206 242 290
#     4  11  23  36  50  71 101 134 169 216 270 317
#
# _framework density 17.660088999999999
#
# number of rings (size 3 to 8) (size 9 to 14) (size 15 to 20)
#    0.000    2.200    2.000    1.800    0.000    4.533 
#    0.000    1.333    0.000    0.800    0.000    9.333 
#    0.000    0.000    0.000    0.000    0.000    0.000 
#
# Total GULP energy -743520.384693 kJ/mol
# GULP energy per Si atom -12392.006412 kJ/mol
# Density = 1.761989 g / cm^3
# Si number density = 17.660089 Si / 1000 Ang^3
#
#
#
# Elastic Constant Matrix: (Units=GPa)
#
#
# Indices 1 2 3 4 5 6 
#
# 1 135.4086 75.1458 33.1999 0.0000 0.0000 0.0000
# 2 75.1458 111.1038 37.8402 0.0000 0.0000 0.0000
# 3 33.1999 37.8402 37.0246 0.0000 0.0000 0.0000
# 4 0.0000 0.0000 0.0000 22.7102 0.0000 0.0000
# 5 0.0000 0.0000 0.0000 0.0000 28.6910 0.0000
# 6 0.0000 0.0000 0.0000 0.0000 0.0000 16.6282
#
#
#
# Elastic Compliance Matrix: (Units=1/GPa)
#
#
# Indices 1 2 3 4 5 6 
#
# 1 0.012168 -0.006924 -0.003834 0.000000 0.000000 0.000000
# 2 -0.006924 0.017746 -0.011929 0.000000 0.000000 0.000000
# 3 -0.003834 -0.011929 0.042639 0.000000 0.000000 0.000000
# 4 0.000000 0.000000 0.000000 0.044033 0.000000 0.000000
# 5 0.000000 0.000000 0.000000 0.000000 0.034854 0.000000
# 6 0.000000 0.000000 0.000000 0.000000 0.000000 0.060139
#
#
# Mechanical properties :
#
#
# Convention : Reuss Voigt Hill
#
# Bulk Modulus (GPa) = 36.79308 63.98986 50.39147
# Shear Modulus (GPa) = 18.79619 22.76263 20.77941
#
# Velocity S-wave (km/s) = 3.26595 3.59406 3.43393
# Velocity P-wave (km/s) = 5.92462 7.31682 6.65722
#
# Compressibility (1/GPa) = 0.02717902
#
# Stress axis : x y z
#
# Youngs Moduli (GPa) = 82.18609 56.35030 23.45282
#
# Poissons Ratio (x) = 0.39015 0.08993
# Poissons Ratio (y) = 0.56903 0.27976
# Poissons Ratio (z) = 0.31514 0.67218
#
# Static dielectric constant tensor:
#      x y z
#    x 3.407010 0.000000 0.000000 
#    y 0.000000 3.380660 0.000000 
#    z 0.000000 0.000000 3.172010 
# 
# 
# High freq. dielectric constant tensor:
#      x y z
#    x 1.676720 0.000000 0.000000 
#    y 0.000000 1.666040 0.000000 
#    z 0.000000 0.000000 1.676800 
# 
# From -- ./inp_files/11583.got.cif
#   From: 2010.03.12/outbox.cif.g09.slc.cpg/sg47_6_cif.got.tgz:11583.got - 2010.04.14 03:12:58.
