data_PCOD8196154
_publ_section_title
;
Structure prediction by ZEFSAII (Michael W. Deem and Ramdas Pophale) SiO2 
 PCOD8196154
Probable space group: P M M M
;
_chemical_formula_sum "Si O2"
_cell_formula_units_Z 52
_cell_length_a 8.119473
_cell_length_b 18.437544
_cell_length_c 19.643795
_cell_angle_alpha 90.000000
_cell_angle_beta 90.000000
_cell_angle_gamma 90.000000
_cell_volume 2940.737807
_symmetry_space_group_name_H-M "P M M M"
_symmetry_group_IT_number 47
_symmetry_cell_setting 'orthorhombic'
loop_
_space_group_symop_operation_xyz
x,y,z
-x,-y,z
x,-y,-z
-x,y,-z
-x,-y,-z
x,y,-z
-x,y,z
x,-y,z
loop_
_atom_site_type_symbol
_atom_site_label
_atom_site_fract_x
_atom_site_fract_y
_atom_site_fract_z
Si Si1 0.307402 0.080064 0.801503
Si Si2 0.689255 0.649444 0.926306
Si Si3 0.814639 0.284735 0.718530
Si Si4 0.183457 0.215126 0.865842
Si Si5 0.690550 0.851374 0.656692
Si Si6 0.000000 0.083455 0.580338
Si Si7 0.305117 0.418811 0.210727
O O1 0.500000 0.077230 0.810931
O O2 0.237893 0.131422 0.861322
O O3 0.263112 0.108664 0.726663
O O4 0.229771 0.000000 0.810285
O O5 0.500000 0.628086 0.929433
O O6 0.704536 0.736382 0.915469
O O7 0.771832 0.606710 0.862514
O O8 0.769404 0.628579 0.000000
O O9 0.801468 0.247518 0.791088
O O10 0.706667 0.236116 0.666485
O O11 0.750479 0.367229 0.726954
O O12 0.000000 0.286513 0.690604
O O13 0.000000 0.219315 0.894788
O O14 0.500000 0.868333 0.633790
O O15 0.829414 0.878520 0.604202
O O16 0.000000 0.089284 0.500000
O O17 0.000000 0.000000 0.604802
O O18 0.500000 0.415271 0.205515
O O19 0.242272 0.500000 0.226287
#
# Coordination Sequence:
#
# PCOD8196154 Si02
#       7
#     8   8   8   8   8   4   8
#     4   9  17  28  45  69  92 115 147 193 248 299
#     4   9  17  29  44  59  80 119 165 201 236 288
#     4   9  16  29  48  70  95 126 165 207 253 301
#     4   9  17  27  41  62  85 111 146 194 247 294
#     4  10  19  34  54  75 101 137 178 214 249 293
#     4  11  24  38  52  76 111 147 180 213 247 285
#     4   9  17  28  43  68 101 130 158 201 255 306
#
# _framework density 17.682638000000001
#
# number of rings (size 3 to 8) (size 9 to 14) (size 15 to 20)
#    0.000    2.692    0.769    1.385    1.077    6.154 
#    0.000    2.308    0.000    0.462    0.000    7.538 
#    0.000    1.231    0.000    3.231    0.000    0.000 
#
# Total GULP energy -644255.006523 kJ/mol
# GULP energy per Si atom -12389.519356 kJ/mol
# Density = 1.764239 g / cm^3
# Si number density = 17.682638 Si / 1000 Ang^3
#
#
#
# Elastic Constant Matrix: (Units=GPa)
#
#
# Indices 1 2 3 4 5 6 
#
# 1 59.8670 21.7246 22.7580 0.0000 0.0000 0.0000
# 2 21.7246 134.7560 28.8135 0.0000 0.0000 0.0000
# 3 22.7580 28.8135 35.4525 0.0000 0.0000 0.0000
# 4 0.0000 0.0000 0.0000 14.2570 0.0000 0.0000
# 5 0.0000 0.0000 0.0000 0.0000 16.8950 0.0000
# 6 0.0000 0.0000 0.0000 0.0000 0.0000 20.3751
#
#
#
# Elastic Compliance Matrix: (Units=1/GPa)
#
#
# Indices 1 2 3 4 5 6 
#
# 1 0.022141 -0.000642 -0.013691 0.000000 0.000000 0.000000
# 2 -0.000642 0.009000 -0.006903 0.000000 0.000000 0.000000
# 3 -0.013691 -0.006903 0.042606 0.000000 0.000000 0.000000
# 4 0.000000 0.000000 0.000000 0.070141 0.000000 0.000000
# 5 0.000000 0.000000 0.000000 0.000000 0.059189 0.000000
# 6 0.000000 0.000000 0.000000 0.000000 0.000000 0.049080
#
#
# Mechanical properties :
#
#
# Convention : Reuss Voigt Hill
#
# Bulk Modulus (GPa) = 31.97433 41.85198 36.91316
# Shear Modulus (GPa) = 16.39051 20.75736 18.57394
#
# Velocity S-wave (km/s) = 3.04785 3.42992 3.24451
# Velocity P-wave (km/s) = 5.52335 6.27738 5.91240
#
# Compressibility (1/GPa) = 0.03127509
#
# Stress axis : x y z
#
# Youngs Moduli (GPa) = 45.16432 111.10799 23.47104
#
# Poissons Ratio (x) = 0.07133 0.32135
# Poissons Ratio (y) = 0.02900 0.16201
# Poissons Ratio (z) = 0.61836 0.76694
#
# Static dielectric constant tensor:
#      x y z
#    x 3.241370 0.000000 0.000000 
#    y 0.000000 3.650700 0.000000 
#    z 0.000000 0.000000 2.949020 
# 
# 
# High freq. dielectric constant tensor:
#      x y z
#    x 1.682380 0.000000 0.000000 
#    y 0.000000 1.686350 0.000000 
#    z 0.000000 0.000000 1.625010 
# 
# From -- ./inp_files/9560.got.cif
#   From: 2010.03.12/outbox.cif.g09.slc.cpg/sg47_5_cif.got.tgz:9560.got - 2010.04.14 03:12:58.
