data_PCOD8196766
_publ_section_title
;
Structure prediction by ZEFSAII (Michael W. Deem and Ramdas Pophale) SiO2 
 PCOD8196766
Probable space group: P M M M
;
_chemical_formula_sum "Si O2"
_cell_formula_units_Z 52
_cell_length_a 18.671282
_cell_length_b 18.475477
_cell_length_c 9.312334
_cell_angle_alpha 90.000000
_cell_angle_beta 90.000000
_cell_angle_gamma 90.000000
_cell_volume 3212.390570
_symmetry_space_group_name_H-M "P M M M"
_symmetry_group_IT_number 47
_symmetry_cell_setting 'orthorhombic'
loop_
_space_group_symop_operation_xyz
x,y,z
-x,-y,z
x,-y,-z
-x,y,-z
-x,-y,-z
x,y,-z
-x,y,z
x,-y,z
loop_
_atom_site_type_symbol
_atom_site_label
_atom_site_fract_x
_atom_site_fract_y
_atom_site_fract_z
Si Si1 0.655609 0.794564 0.331806
Si Si2 0.922347 0.500000 0.831289
Si Si3 0.419767 0.328966 0.162246
Si Si4 0.285513 0.417335 0.163970
Si Si5 0.208646 0.705675 0.667438
Si Si6 0.418249 0.083548 0.833336
Si Si7 0.083316 0.658200 0.832505
O O1 0.641163 0.800124 0.500000
O O2 0.602872 0.734446 0.269013
O O3 0.738587 0.773209 0.300112
O O4 0.638357 0.871231 0.259663
O O5 0.885401 0.423066 0.791857
O O6 0.000000 0.500000 0.756111
O O7 0.934433 0.500000 0.000000
O O8 0.500000 0.353810 0.199916
O O9 0.369804 0.399353 0.178702
O O10 0.414663 0.297932 0.000000
O O11 0.272285 0.500000 0.208073
O O12 0.242979 0.367327 0.272584
O O13 0.259433 0.403502 0.000000
O O14 0.195109 0.696407 0.500000
O O15 0.131510 0.716063 0.745214
O O16 0.500000 0.105582 0.795373
O O17 0.405472 0.000000 0.795575
O O18 0.403341 0.098330 0.000000
O O19 0.000000 0.665454 0.788028
O O20 0.092327 0.674319 0.000000
#
# Coordination Sequence:
#
# PCOD8196766 Si02
#       7
#     8   4   8   8   8   8   8
#     4  10  20  32  45  64  92 124 155 183 214 260
#     4   7  12  24  41  61  83 105 132 173 224 271
#     4   9  17  29  45  63  82 108 145 189 234 273
#     4   9  18  31  45  60  79 108 147 189 233 277
#     4  10  21  33  44  62  90 121 150 184 225 267
#     4   9  18  32  50  73  99 124 150 184 226 266
#     4   9  17  30  48  68  88 112 146 187 230 277
#
# _framework density 16.187322000000002
#
# number of rings (size 3 to 8) (size 9 to 14) (size 15 to 20)
#    0.000    2.846    0.000    2.769    1.077    5.538 
#    0.000    2.308    0.000    1.385    0.000    4.308 
#    0.000    0.615    0.000    6.769    0.000    4.923 
#
# Total GULP energy -644424.861019 kJ/mol
# GULP energy per Si atom -12392.785789 kJ/mol
# Density = 1.615048 g / cm^3
# Si number density = 16.187322 Si / 1000 Ang^3
#
#
#
# Elastic Constant Matrix: (Units=GPa)
#
#
# Indices 1 2 3 4 5 6 
#
# 1 95.4334 34.6489 53.2258 0.0000 0.0000 0.0000
# 2 34.6489 67.5450 42.8109 0.0000 0.0000 0.0000
# 3 53.2258 42.8109 78.8396 0.0000 0.0000 0.0000
# 4 0.0000 0.0000 0.0000 16.8986 0.0000 0.0000
# 5 0.0000 0.0000 0.0000 0.0000 23.6074 0.0000
# 6 0.0000 0.0000 0.0000 0.0000 0.0000 20.9175
#
#
#
# Elastic Compliance Matrix: (Units=1/GPa)
#
#
# Indices 1 2 3 4 5 6 
#
# 1 0.017020 -0.002208 -0.010292 0.000000 0.000000 0.000000
# 2 -0.002208 0.022861 -0.010923 0.000000 0.000000 0.000000
# 3 -0.010292 -0.010923 0.025563 0.000000 0.000000 0.000000
# 4 0.000000 0.000000 0.000000 0.059176 0.000000 0.000000
# 5 0.000000 0.000000 0.000000 0.000000 0.042360 0.000000
# 6 0.000000 0.000000 0.000000 0.000000 0.000000 0.047807
#
#
# Mechanical properties :
#
#
# Convention : Reuss Voigt Hill
#
# Bulk Modulus (GPa) = 53.76630 55.90991 54.83810
# Shear Modulus (GPa) = 18.66844 19.69353 19.18098
#
# Velocity S-wave (km/s) = 3.39968 3.49177 3.44603
# Velocity P-wave (km/s) = 6.97836 7.13238 7.05579
#
# Compressibility (1/GPa) = 0.01859901
#
# Stress axis : x y z
#
# Youngs Moduli (GPa) = 58.75427 43.74312 39.11853
#
# Poissons Ratio (x) = 0.09658 0.40259
# Poissons Ratio (y) = 0.12973 0.42729
# Poissons Ratio (z) = 0.60467 0.47781
#
# Static dielectric constant tensor:
#      x y z
#    x 3.212440 0.000000 0.000000 
#    y 0.000000 2.867010 0.000000 
#    z 0.000000 0.000000 2.987110 
# 
# 
# High freq. dielectric constant tensor:
#      x y z
#    x 1.624330 0.000000 0.000000 
#    y 0.000000 1.587230 0.000000 
#    z 0.000000 0.000000 1.614810 
# 
# From -- ./inp_files/9584.got.cif
#   From: 2010.03.12/outbox.cif.g09.slc.cpg/sg47_5_cif.got.tgz:9584.got - 2010.04.14 03:12:58.
