data_PCOD8196677
_publ_section_title
;
Structure prediction by ZEFSAII (Michael W. Deem and Ramdas Pophale) SiO2 
 PCOD8196677
Probable space group: P M M M
;
_chemical_formula_sum "Si O2"
_cell_formula_units_Z 36
_cell_length_a 9.272347
_cell_length_b 7.761985
_cell_length_c 25.029643
_cell_angle_alpha 90.000000
_cell_angle_beta 90.000000
_cell_angle_gamma 90.000000
_cell_volume 1801.428919
_symmetry_space_group_name_H-M "P M M M"
_symmetry_group_IT_number 47
_symmetry_cell_setting 'orthorhombic'
loop_
_space_group_symop_operation_xyz
x,y,z
-x,-y,z
x,-y,-z
-x,y,-z
-x,-y,-z
x,y,-z
-x,y,z
x,-y,z
loop_
_atom_site_type_symbol
_atom_site_label
_atom_site_fract_x
_atom_site_fract_y
_atom_site_fract_z
Si Si1 0.161512 0.704954 0.058981
Si Si2 0.163725 0.797835 0.257241
Si Si3 0.670557 0.500000 0.559337
Si Si4 0.658237 0.301641 0.156006
Si Si5 0.331266 0.197611 0.636306
O O1 0.158602 0.500000 0.063195
O O2 0.263488 0.786149 0.104900
O O3 0.000000 0.776271 0.068122
O O4 0.217199 0.761029 0.000000
O O5 0.245507 0.711696 0.208456
O O6 0.243751 0.746006 0.311544
O O7 0.000000 0.728554 0.259574
O O8 0.167691 0.000000 0.248593
O O9 0.500000 0.500000 0.554904
O O10 0.739527 0.500000 0.500000
O O11 0.720400 0.674320 0.589393
O O12 0.500000 0.215585 0.164519
O O13 0.636664 0.500000 0.142621
O O14 0.500000 0.220952 0.649033
O O15 0.297213 0.000000 0.619434
#
# Coordination Sequence:
#
# PCOD8196677 Si02
#       5
#     8   8   4   8   8
#     4   8  14  26  44  66  95 131 169 209 254 306
#     4  10  21  36  53  73  99 133 172 214 262 314
#     4   9  18  32  53  83 113 141 178 221 262 311
#     4  10  20  31  47  74 103 131 166 210 260 313
#     4   9  18  33  53  77 107 142 178 220 268 315
#
# _framework density 19.984137
#
# number of rings (size 3 to 8) (size 9 to 14) (size 15 to 20)
#    0.000    2.778    0.000    2.000    1.556    3.556 
#    0.000    4.444    0.000    2.000    0.000    7.778 
#    0.000    0.000    0.000    0.000    0.000    0.000 
#
# Total GULP energy -446246.121453 kJ/mol
# GULP energy per Si atom -12395.725596 kJ/mol
# Density = 1.993865 g / cm^3
# Si number density = 19.984137 Si / 1000 Ang^3
#
#
#
# Elastic Constant Matrix: (Units=GPa)
#
#
# Indices 1 2 3 4 5 6 
#
# 1 119.8674 25.9672 83.1038 0.0000 0.0000 0.0000
# 2 25.9672 53.5123 50.0391 0.0000 0.0000 0.0000
# 3 83.1038 50.0391 185.5834 0.0000 0.0000 0.0000
# 4 0.0000 0.0000 0.0000 -32.3840 0.0000 0.0000
# 5 0.0000 0.0000 0.0000 0.0000 16.9364 0.0000
# 6 0.0000 0.0000 0.0000 0.0000 0.0000 13.5721
#
#
#
# Elastic Compliance Matrix: (Units=1/GPa)
#
#
# Indices 1 2 3 4 5 6 
#
# 1 0.012145 -0.001080 -0.005147 0.000000 0.000000 0.000000
# 2 -0.001080 0.025084 -0.006280 0.000000 0.000000 0.000000
# 3 -0.005147 -0.006280 0.009387 0.000000 0.000000 0.000000
# 4 0.000000 0.000000 0.000000 -0.030879 0.000000 0.000000
# 5 0.000000 0.000000 0.000000 0.000000 0.059044 0.000000
# 6 0.000000 0.000000 0.000000 0.000000 0.000000 0.073681
#
#
# Mechanical properties :
#
#
# Convention : Reuss Voigt Hill
#
# Bulk Modulus (GPa) = 46.29435 75.24259 60.76847
# Shear Modulus (GPa) = 27.67396 12.94843 20.31119
#
# Velocity S-wave (km/s) = 3.72532 2.54822 3.19151
# Velocity P-wave (km/s) = 6.45909 6.81108 6.63742
#
# Compressibility (1/GPa) = 0.02160091
#
# Stress axis : x y z
#
# Youngs Moduli (GPa) = 82.33705 39.86681 106.53574
#
# Poissons Ratio (x) = 0.04307 0.54837
# Poissons Ratio (y) = 0.08895 0.66900
# Poissons Ratio (z) = 0.42381 0.25035
#
# Static dielectric constant tensor:
#      x y z
#    x 3.844570 0.000000 0.000000 
#    y 0.000000 3.389100 0.000000 
#    z 0.000000 0.000000 3.797970 
# 
# 
# High freq. dielectric constant tensor:
#      x y z
#    x 1.768380 0.000000 0.000000 
#    y 0.000000 1.759010 0.000000 
#    z 0.000000 0.000000 1.781610 
# 
# From -- ./inp_files/31659.got.cif
#   From: 2010.03.12/outbox.cif.g09.slc.cpg/sg47_16_cif.got.tgz:31659.got - 2010.04.14 03:12:58.
