data_PCOD8196117
_publ_section_title
;
Structure prediction by ZEFSAII (Michael W. Deem and Ramdas Pophale) SiO2 
 PCOD8196117
Probable space group: P M M M
;
_chemical_formula_sum "Si O2"
_cell_formula_units_Z 44
_cell_length_a 12.521992
_cell_length_b 21.013522
_cell_length_c 9.110816
_cell_angle_alpha 90.000000
_cell_angle_beta 90.000000
_cell_angle_gamma 90.000000
_cell_volume 2397.339531
_symmetry_space_group_name_H-M "P M M M"
_symmetry_group_IT_number 47
_symmetry_cell_setting 'orthorhombic'
loop_
_space_group_symop_operation_xyz
x,y,z
-x,-y,z
x,-y,-z
-x,y,-z
-x,-y,-z
x,y,-z
-x,y,z
x,-y,z
loop_
_atom_site_type_symbol
_atom_site_label
_atom_site_fract_x
_atom_site_fract_y
_atom_site_fract_z
Si Si1 0.379541 0.159743 0.668590
Si Si2 0.119199 0.500000 0.325661
Si Si3 0.204571 0.634087 0.671865
Si Si4 0.814488 0.073314 0.669914
Si Si5 0.000000 0.281050 0.670350
Si Si6 0.623411 0.286881 0.171468
Si Si7 0.000000 0.147350 0.174079
O O1 0.372366 0.181479 0.500000
O O2 0.500000 0.139465 0.711159
O O3 0.304315 0.099549 0.699438
O O4 0.339601 0.219197 0.763940
O O5 0.109390 0.500000 0.500000
O O6 0.181470 0.437343 0.272312
O O7 0.000000 0.500000 0.258332
O O8 0.229412 0.635591 0.500000
O O9 0.308756 0.656921 0.757379
O O10 0.103674 0.677958 0.709767
O O11 0.847285 0.081838 0.500000
O O12 0.895750 0.111401 0.770020
O O13 0.816051 0.000000 0.716668
O O14 0.000000 0.260903 0.500000
O O15 0.000000 0.219023 0.769502
O O16 0.500000 0.299784 0.209301
O O17 0.645420 0.285301 0.000000
O O18 0.000000 0.147629 0.000000
#
# Coordination Sequence:
#
# PCOD8196117 Si02
#       7
#     8   4   8   8   4   8   4
#     4   9  18  34  57  83 107 132 169 218 267 315
#     4   9  16  32  56  83 112 138 169 212 263 314
#     4  10  19  33  57  84 108 137 173 214 261 314
#     4  10  21  37  56  77 104 138 173 212 263 321
#     4  10  20  34  55  82 108 134 168 213 266 319
#     4  10  21  36  53  75 107 145 181 218 260 304
#     4  12  25  37  51  74 105 141 180 221 260 302
#
# _framework density 18.353679
#
# number of rings (size 3 to 8) (size 9 to 14) (size 15 to 20)
#    0.000    2.091    0.909    2.727    0.000    8.727 
#    0.000    2.727    0.000    3.273    0.000    3.818 
#    0.000    0.000    0.000    0.000    0.000    0.000 
#
# Total GULP energy -545740.944158 kJ/mol
# GULP energy per Si atom -12403.203276 kJ/mol
# Density = 1.831191 g / cm^3
# Si number density = 18.353679 Si / 1000 Ang^3
#
#
#
# Elastic Constant Matrix: (Units=GPa)
#
#
# Indices 1 2 3 4 5 6 
#
# 1 96.1174 69.0725 50.3214 0.0000 0.0000 0.0000
# 2 69.0725 159.8071 65.8384 0.0000 0.0000 0.0000
# 3 50.3214 65.8384 77.3545 0.0000 0.0000 0.0000
# 4 0.0000 0.0000 0.0000 -0.7089 0.0000 0.0000
# 5 0.0000 0.0000 0.0000 0.0000 18.7610 0.0000
# 6 0.0000 0.0000 0.0000 0.0000 0.0000 31.0954
#
#
#
# Elastic Compliance Matrix: (Units=1/GPa)
#
#
# Indices 1 2 3 4 5 6 
#
# 1 0.017623 -0.004457 -0.007671 0.000000 0.000000 0.000000
# 2 -0.004457 0.010764 -0.006262 0.000000 0.000000 0.000000
# 3 -0.007671 -0.006262 0.023247 0.000000 0.000000 0.000000
# 4 0.000000 0.000000 0.000000 -1.410643 0.000000 0.000000
# 5 0.000000 0.000000 0.000000 0.000000 0.053302 0.000000
# 6 0.000000 0.000000 0.000000 0.000000 0.000000 0.032159
#
#
# Mechanical properties :
#
#
# Convention : Reuss Voigt Hill
#
# Bulk Modulus (GPa) = 67.31936 78.19373 72.75655
# Shear Modulus (GPa) = -4.05904 19.69929 7.82012
#
# Velocity S-wave (km/s) = -1.48875 3.27970 2.06641
# Velocity P-wave (km/s) = 5.81407 7.55237 6.73950
#
# Compressibility (1/GPa) = 0.01485457
#
# Stress axis : x y z
#
# Youngs Moduli (GPa) = 56.74534 92.90481 43.01545
#
# Poissons Ratio (x) = 0.41404 0.32997
# Poissons Ratio (y) = 0.25289 0.26937
# Poissons Ratio (z) = 0.43529 0.58178
#
# Static dielectric constant tensor:
#      x y z
#    x 3.486450 0.000000 0.000000 
#    y 0.000000 3.464030 0.000000 
#    z 0.000000 0.000000 3.233520 
# 
# 
# High freq. dielectric constant tensor:
#      x y z
#    x 1.720100 0.000000 0.000000 
#    y 0.000000 1.714450 0.000000 
#    z 0.000000 0.000000 1.694150 
# 
# From -- ./inp_files/6299.got.cif
#   From: 2010.03.12/outbox.cif.g09.slc.cpg/sg47_4_cif.got.tgz:6299.got - 2010.04.14 03:12:58.
