data_PCOD8196016
_publ_section_title
;
Structure prediction by ZEFSAII (Michael W. Deem and Ramdas Pophale) SiO2 
 PCOD8196016
Probable space group: P M M M
;
_chemical_formula_sum "Si O2"
_cell_formula_units_Z 40
_cell_length_a 8.042293
_cell_length_b 27.300611
_cell_length_c 9.082225
_cell_angle_alpha 90.000000
_cell_angle_beta 90.000000
_cell_angle_gamma 90.000000
_cell_volume 1994.088896
_symmetry_space_group_name_H-M "P M M M"
_symmetry_group_IT_number 47
_symmetry_cell_setting 'orthorhombic'
loop_
_space_group_symop_operation_xyz
x,y,z
-x,-y,z
x,-y,-z
-x,y,-z
-x,-y,-z
x,y,-z
-x,y,z
x,-y,z
loop_
_atom_site_type_symbol
_atom_site_label
_atom_site_fract_x
_atom_site_fract_y
_atom_site_fract_z
Si Si1 0.316074 0.384806 0.324933
Si Si2 0.690583 0.808775 0.166202
Si Si3 0.189749 0.717501 0.335124
Si Si4 0.000000 0.444458 0.675739
Si Si5 0.195513 0.903404 0.670523
Si Si6 0.197772 0.000000 0.166161
O O1 0.304829 0.386085 0.500000
O O2 0.500000 0.402899 0.272330
O O3 0.293284 0.328571 0.272479
O O4 0.168025 0.418820 0.260974
O O5 0.500000 0.792743 0.170193
O O6 0.795680 0.764234 0.230943
O O7 0.712840 0.857079 0.262149
O O8 0.751473 0.819262 0.000000
O O9 0.249971 0.731908 0.500000
O O10 0.000000 0.700073 0.339528
O O11 0.000000 0.500000 0.733111
O O12 0.000000 0.442324 0.500000
O O13 0.241352 0.907825 0.500000
O O14 0.264140 0.951913 0.750743
O O15 0.000000 0.896875 0.695053
O O16 0.000000 0.000000 0.168397
O O17 0.267038 0.000000 0.000000
#
# Coordination Sequence:
#
# PCOD8196016 Si02
#       6
#     8   8   8   4   8   4
#     4   9  16  27  44  67  98 137 179 224 274 326
#     4  11  24  38  51  73 106 139 173 217 268 323
#     4  10  19  33  54  77 101 133 176 222 268 326
#     4   9  16  26  40  64 101 141 183 228 271 324
#     4  10  20  35  56  81 106 135 175 220 265 319
#     4   9  17  31  54  81 108 139 174 216 268 321
#
# _framework density 20.059286
#
# number of rings (size 3 to 8) (size 9 to 14) (size 15 to 20)
#    0.000    2.200    1.000    2.700    0.000    8.000 
#    0.000    2.500    0.000    3.000    0.000    0.000 
#    0.000    1.600    0.000    4.200    0.000    4.000 
#
# Total GULP energy -495986.989900 kJ/mol
# GULP energy per Si atom -12399.674747 kJ/mol
# Density = 2.001363 g / cm^3
# Si number density = 20.059286 Si / 1000 Ang^3
#
#
#
# Elastic Constant Matrix: (Units=GPa)
#
#
# Indices 1 2 3 4 5 6 
#
# 1 96.1146 52.4946 22.4268 0.0000 0.0000 0.0000
# 2 52.4946 142.9993 38.5963 0.0000 0.0000 0.0000
# 3 22.4268 38.5963 85.1948 0.0000 0.0000 0.0000
# 4 0.0000 0.0000 0.0000 -0.4618 0.0000 0.0000
# 5 0.0000 0.0000 0.0000 0.0000 16.5754 0.0000
# 6 0.0000 0.0000 0.0000 0.0000 0.0000 20.7513
#
#
#
# Elastic Compliance Matrix: (Units=1/GPa)
#
#
# Indices 1 2 3 4 5 6 
#
# 1 0.013170 -0.004442 -0.001454 0.000000 0.000000 0.000000
# 2 -0.004442 0.009465 -0.003119 0.000000 0.000000 0.000000
# 3 -0.001454 -0.003119 0.013534 0.000000 0.000000 0.000000
# 4 0.000000 0.000000 0.000000 -2.165559 0.000000 0.000000
# 5 0.000000 0.000000 0.000000 0.000000 0.060330 0.000000
# 6 0.000000 0.000000 0.000000 0.000000 0.000000 0.048190
#
#
# Mechanical properties :
#
#
# Convention : Reuss Voigt Hill
#
# Bulk Modulus (GPa) = 55.13225 61.26045 58.19635
# Shear Modulus (GPa) = -2.50401 21.42572 9.46085
#
# Velocity S-wave (km/s) = -1.11849 3.27176 2.17409
# Velocity P-wave (km/s) = 5.08687 6.69914 5.94789
#
# Compressibility (1/GPa) = 0.01813821
#
# Stress axis : x y z
#
# Youngs Moduli (GPa) = 75.93197 105.64693 73.88993
#
# Poissons Ratio (x) = 0.46928 0.10747
# Poissons Ratio (y) = 0.33729 0.23046
# Poissons Ratio (z) = 0.11044 0.32950
#
# Static dielectric constant tensor:
#      x y z
#    x 3.649230 0.000000 0.000000 
#    y 0.000000 3.640580 0.000000 
#    z 0.000000 0.000000 3.371240 
# 
# 
# High freq. dielectric constant tensor:
#      x y z
#    x 1.781420 0.000000 0.000000 
#    y 0.000000 1.786740 0.000000 
#    z 0.000000 0.000000 1.744900 
# 
# From -- ./inp_files/1865.got.cif
#   From: 2010.03.12/outbox.cif.g09.slc.cpg/sg47_1_cif.got.tgz:1865.got - 2010.04.14 03:12:58.
