data_PCOD8196532
_publ_section_title
;
Structure prediction by ZEFSAII (Michael W. Deem and Ramdas Pophale) SiO2 
 PCOD8196532
Probable space group: P M M M
;
_chemical_formula_sum "Si O2"
_cell_formula_units_Z 64
_cell_length_a 9.178479
_cell_length_b 29.100418
_cell_length_c 13.851146
_cell_angle_alpha 90.000000
_cell_angle_beta 90.000000
_cell_angle_gamma 90.000000
_cell_volume 3699.607515
_symmetry_space_group_name_H-M "P M M M"
_symmetry_group_IT_number 47
_symmetry_cell_setting 'orthorhombic'
loop_
_space_group_symop_operation_xyz
x,y,z
-x,-y,z
x,-y,-z
-x,y,-z
-x,-y,-z
x,y,-z
-x,y,z
x,-y,z
loop_
_atom_site_type_symbol
_atom_site_label
_atom_site_fract_x
_atom_site_fract_y
_atom_site_fract_z
Si Si1 0.169861 0.722393 0.207931
Si Si2 0.663467 0.195507 0.114322
Si Si3 0.833857 0.892649 0.108698
Si Si4 0.168014 0.222227 0.390827
Si Si5 0.162868 0.449523 0.114359
Si Si6 0.328857 0.639405 0.887513
Si Si7 0.336494 0.132812 0.614226
Si Si8 0.167979 0.948391 0.289895
O O1 0.235028 0.762727 0.143807
O O2 0.195476 0.734065 0.321318
O O3 0.250427 0.675589 0.181465
O O4 0.000000 0.717181 0.183665
O O5 0.500000 0.201192 0.156263
O O6 0.732045 0.147679 0.151416
O O7 0.659799 0.194402 0.000000
O O8 0.812695 0.936786 0.176536
O O9 0.000000 0.874708 0.111714
O O10 0.789336 0.906851 0.000000
O O11 0.216371 0.235495 0.500000
O O12 0.256779 0.178882 0.347945
O O13 0.000000 0.207313 0.388690
O O14 0.210997 0.500000 0.153780
O O15 0.275968 0.410697 0.148514
O O16 0.000000 0.437661 0.151974
O O17 0.161330 0.451241 0.000000
O O18 0.500000 0.643169 0.871530
O O19 0.288185 0.648178 0.000000
O O20 0.334435 0.134167 0.500000
O O21 0.500000 0.132941 0.655436
O O22 0.258033 0.086324 0.645091
O O23 0.000000 0.944441 0.320775
O O24 0.226236 0.000000 0.306770
#
# Coordination Sequence:
#
# PCOD8196532 Si02
#       8
#     8   8   8   8   8   8   8   8
#     4  11  21  31  47  69  93 123 156 191 232 276
#     4  10  20  32  46  66  93 123 153 185 222 266
#     4   9  18  33  51  69  90 117 150 186 221 260
#     4   9  19  36  55  73  93 118 150 188 230 277
#     4   8  14  26  44  64  88 123 167 210 246 278
#     4  10  20  31  43  64  97 134 168 201 237 276
#     4  10  21  36  54  75  96 118 145 179 222 272
#     4  10  21  35  51  72  95 119 148 181 220 266
#
# _framework density 17.299133999999999
#
# number of rings (size 3 to 8) (size 9 to 14) (size 15 to 20)
#    0.000    2.375    0.000    3.000    0.000    9.250 
#    0.000    3.750    0.000    0.000    0.000    2.625 
#    0.000    0.500    0.000    5.750    0.000    1.875 
#
# Total GULP energy -793511.110922 kJ/mol
# GULP energy per Si atom -12398.611108 kJ/mol
# Density = 1.725976 g / cm^3
# Si number density = 17.299134 Si / 1000 Ang^3
#
#
#
# Elastic Constant Matrix: (Units=GPa)
#
#
# Indices 1 2 3 4 5 6 
#
# 1 100.6302 65.5989 32.3175 0.0000 0.0000 0.0000
# 2 65.5989 130.7832 37.9630 0.0000 0.0000 0.0000
# 3 32.3175 37.9630 34.0382 0.0000 0.0000 0.0000
# 4 0.0000 0.0000 0.0000 19.5732 0.0000 0.0000
# 5 0.0000 0.0000 0.0000 0.0000 18.7774 0.0000
# 6 0.0000 0.0000 0.0000 0.0000 0.0000 8.2569
#
#
#
# Elastic Compliance Matrix: (Units=1/GPa)
#
#
# Indices 1 2 3 4 5 6 
#
# 1 0.016647 -0.005563 -0.009601 0.000000 0.000000 0.000000
# 2 -0.005563 0.013166 -0.009402 0.000000 0.000000 0.000000
# 3 -0.009601 -0.009402 0.048981 0.000000 0.000000 0.000000
# 4 0.000000 0.000000 0.000000 0.051090 0.000000 0.000000
# 5 0.000000 0.000000 0.000000 0.000000 0.053255 0.000000
# 6 0.000000 0.000000 0.000000 0.000000 0.000000 0.121110
#
#
# Mechanical properties :
#
#
# Convention : Reuss Voigt Hill
#
# Bulk Modulus (GPa) = 33.71404 59.69004 46.70204
# Shear Modulus (GPa) = 13.76389 17.95966 15.86178
#
# Velocity S-wave (km/s) = 2.82377 3.22558 3.03134
# Velocity P-wave (km/s) = 5.49206 6.96075 6.26956
#
# Compressibility (1/GPa) = 0.02966124
#
# Stress axis : x y z
#
# Youngs Moduli (GPa) = 60.07002 75.95464 20.41614
#
# Poissons Ratio (x) = 0.42254 0.19602
# Poissons Ratio (y) = 0.33417 0.19195
# Poissons Ratio (z) = 0.57675 0.71413
#
# Static dielectric constant tensor:
#      x y z
#    x 3.439230 0.000000 0.000000 
#    y 0.000000 3.320170 0.000000 
#    z 0.000000 0.000000 3.134990 
# 
# 
# High freq. dielectric constant tensor:
#      x y z
#    x 1.675470 0.000000 0.000000 
#    y 0.000000 1.656380 0.000000 
#    z 0.000000 0.000000 1.647140 
# 
# From -- ./inp_files/22139.got.cif
#   From: 2010.03.12/outbox.cif.g09.slc.cpg/sg47_12_cif.got.tgz:22139.got - 2010.04.14 03:12:58.
