data_PCOD8196048
_publ_section_title
;
Structure prediction by ZEFSAII (Michael W. Deem and Ramdas Pophale) SiO2 
 PCOD8196048
Probable space group: P M M M
;
_chemical_formula_sum "Si O2"
_cell_formula_units_Z 48
_cell_length_a 8.613925
_cell_length_b 18.139750
_cell_length_c 15.619242
_cell_angle_alpha 90.000000
_cell_angle_beta 90.000000
_cell_angle_gamma 90.000000
_cell_volume 2440.576006
_symmetry_space_group_name_H-M "P M M M"
_symmetry_group_IT_number 47
_symmetry_cell_setting 'orthorhombic'
loop_
_space_group_symop_operation_xyz
x,y,z
-x,-y,z
x,-y,-z
-x,y,-z
-x,-y,-z
x,y,-z
-x,y,z
x,-y,z
loop_
_atom_site_type_symbol
_atom_site_label
_atom_site_fract_x
_atom_site_fract_y
_atom_site_fract_z
Si Si1 0.320947 0.584841 0.839388
Si Si2 0.316339 0.170910 0.000000
Si Si3 0.669873 0.177253 0.500000
Si Si4 0.817421 0.668661 0.000000
Si Si5 0.817559 0.655356 0.677520
Si Si6 0.313731 0.815329 0.317739
Si Si7 0.684162 0.917600 0.166682
Si Si8 0.671507 0.648006 0.500000
O O1 0.500000 0.606073 0.825592
O O2 0.300850 0.500000 0.865558
O O3 0.254024 0.633685 0.915341
O O4 0.229719 0.598506 0.751355
O O5 0.220093 0.245373 0.000000
O O6 0.263486 0.123428 0.081215
O O7 0.500000 0.187953 0.000000
O O8 0.500000 0.140300 0.500000
O O9 0.753194 0.155785 0.410380
O O10 0.655990 0.264850 0.500000
O O11 0.000000 0.655452 0.000000
O O12 0.745386 0.733960 0.703026
O O13 0.759961 0.623304 0.586270
O O14 0.000000 0.664195 0.672847
O O15 0.500000 0.811929 0.320733
O O16 0.250451 0.871868 0.247221
O O17 0.500000 0.921706 0.171219
O O18 0.754718 0.000000 0.168286
O O19 0.500000 0.611933 0.500000
#
# Coordination Sequence:
#
# PCOD8196048 Si02
#       8
#     8   4   4   4   8   8   8   4
#     4  11  24  42  62  83 111 149 188 223 269 334
#     4  10  19  33  55  78 103 137 177 220 268 326
#     4   7  12  23  42  68  94 128 173 218 262 307
#     4  12  25  40  61  88 115 140 177 232 284 330
#     4  11  21  34  56  86 117 147 186 235 282 327
#     4   9  16  29  49  71 101 141 183 225 270 324
#     4   9  17  29  48  75 103 134 178 229 272 313
#     4   9  17  33  56  81 112 149 191 234 278 329
#
# _framework density 19.667487999999999
#
# number of rings (size 3 to 8) (size 9 to 14) (size 15 to 20)
#    0.000    2.167    0.000    5.500    0.000    4.667 
#    0.000    0.833    0.000    7.500    0.000    0.000 
#    0.000    4.000    0.000    0.000    0.000    0.000 
#
# Total GULP energy -595058.674329 kJ/mol
# GULP energy per Si atom -12397.055715 kJ/mol
# Density = 1.962272 g / cm^3
# Si number density = 19.667488 Si / 1000 Ang^3
#
#
#
# Elastic Constant Matrix: (Units=GPa)
#
#
# Indices 1 2 3 4 5 6 
#
# 1 60.9136 18.4715 26.8539 0.0000 0.0000 0.0000
# 2 18.4715 76.4254 38.0647 0.0000 0.0000 0.0000
# 3 26.8539 38.0647 155.9987 0.0000 0.0000 0.0000
# 4 0.0000 0.0000 0.0000 9.5150 0.0000 0.0000
# 5 0.0000 0.0000 0.0000 0.0000 21.1461 0.0000
# 6 0.0000 0.0000 0.0000 0.0000 0.0000 5.2942
#
#
#
# Elastic Compliance Matrix: (Units=1/GPa)
#
#
# Indices 1 2 3 4 5 6 
#
# 1 0.018459 -0.003277 -0.002378 0.000000 0.000000 0.000000
# 2 -0.003277 0.015477 -0.003212 0.000000 0.000000 0.000000
# 3 -0.002378 -0.003212 0.007603 0.000000 0.000000 0.000000
# 4 0.000000 0.000000 0.000000 0.105097 0.000000 0.000000
# 5 0.000000 0.000000 0.000000 0.000000 0.047290 0.000000
# 6 0.000000 0.000000 0.000000 0.000000 0.000000 0.188886
#
#
# Mechanical properties :
#
#
# Convention : Reuss Voigt Hill
#
# Bulk Modulus (GPa) = 42.00902 51.12421 46.56661
# Shear Modulus (GPa) = 12.24047 21.18756 16.71402
#
# Velocity S-wave (km/s) = 2.49744 3.28577 2.91835
# Velocity P-wave (km/s) = 5.45182 6.35970 5.92318
#
# Compressibility (1/GPa) = 0.02380441
#
# Stress axis : x y z
#
# Youngs Moduli (GPa) = 54.17487 64.61361 131.51898
#
# Poissons Ratio (x) = 0.21174 0.31274
# Poissons Ratio (y) = 0.17753 0.42248
# Poissons Ratio (z) = 0.12882 0.20756
#
# Static dielectric constant tensor:
#      x y z
#    x 3.339990 0.000000 0.000000 
#    y 0.000000 3.449410 0.000000 
#    z 0.000000 0.000000 4.070030 
# 
# 
# High freq. dielectric constant tensor:
#      x y z
#    x 1.737770 0.000000 0.000000 
#    y 0.000000 1.746570 0.000000 
#    z 0.000000 0.000000 1.792550 
# 
# From -- ./inp_files/21198.got.cif
#   From: 2010.03.12/outbox.cif.g09.slc.cpg/sg47_11_cif.got.tgz:21198.got - 2010.04.14 03:12:58.
