data_PCOD8197831
_publ_section_title
;
Structure prediction by ZEFSAII (Michael W. Deem and Ramdas Pophale) SiO2 
 PCOD8197831
Probable space group: P M M M
;
_chemical_formula_sum "Si O2"
_cell_formula_units_Z 56
_cell_length_a 21.755790
_cell_length_b 9.147571
_cell_length_c 14.891057
_cell_angle_alpha 90.000000
_cell_angle_beta 90.000000
_cell_angle_gamma 90.000000
_cell_volume 2963.508472
_symmetry_space_group_name_H-M "P M M M"
_symmetry_group_IT_number 47
_symmetry_cell_setting 'orthorhombic'
loop_
_space_group_symop_operation_xyz
x,y,z
-x,-y,z
x,-y,-z
-x,y,-z
-x,-y,-z
x,y,-z
-x,y,z
x,-y,z
loop_
_atom_site_type_symbol
_atom_site_label
_atom_site_fract_x
_atom_site_fract_y
_atom_site_fract_z
Si Si1 0.569149 0.167914 0.604884
Si Si2 0.000000 0.163839 0.606767
Si Si3 0.208615 0.329158 0.239775
Si Si4 0.118918 0.669070 0.601909
Si Si5 0.568588 0.326179 0.099110
Si Si6 0.000000 0.334768 0.893470
Si Si7 0.122137 0.171291 0.105152
Si Si8 0.348339 0.326841 0.258184
O O1 0.579871 0.189792 0.500000
O O2 0.500000 0.219021 0.630915
O O3 0.620138 0.264526 0.653270
O O4 0.578149 0.000000 0.632402
O O5 0.060874 0.243987 0.642082
O O6 0.000000 0.168857 0.500000
O O7 0.000000 0.000000 0.644540
O O8 0.204429 0.500000 0.214499
O O9 0.176504 0.295998 0.334919
O O10 0.179355 0.237111 0.159053
O O11 0.278218 0.275199 0.251365
O O12 0.135468 0.718003 0.500000
O O13 0.100834 0.500000 0.603953
O O14 0.500000 0.270707 0.123039
O O15 0.569756 0.500000 0.100353
O O16 0.616271 0.262968 0.171258
O O17 0.587625 0.269748 0.000000
O O18 0.060367 0.250208 0.859294
O O19 0.000000 0.500000 0.854814
O O20 0.000000 0.336795 0.000000
O O21 0.115615 0.000000 0.124511
O O22 0.133192 0.202131 0.000000
O O23 0.352639 0.500000 0.263658
#
# Coordination Sequence:
#
# PCOD8197831 Si02
#       8
#     8   4   8   8   8   4   8   8
#     4   9  19  36  56  78 106 141 178 215 262 320
#     4   9  17  30  51  78 100 120 158 212 261 301
#     4  10  22  36  51  76 107 141 179 215 258 314
#     4   9  18  34  53  71  97 133 168 204 252 310
#     4   8  14  26  46  73 103 132 163 204 256 308
#     4   9  17  32  57  84 106 132 170 220 277 327
#     4  10  21  37  56  78 106 140 179 223 267 314
#     4  10  20  33  52  79 107 136 175 221 263 305
#
# _framework density 18.896519999999999
#
# number of rings (size 3 to 8) (size 9 to 14) (size 15 to 20)
#    0.000    2.714    0.000    2.143    0.000    6.571 
#    0.000    4.286    0.000    2.143    0.000    2.000 
#    0.000    0.000    0.000    0.000    0.000    0.000 
#
# Total GULP energy -694402.998973 kJ/mol
# GULP energy per Si atom -12400.053553 kJ/mol
# Density = 1.885351 g / cm^3
# Si number density = 18.896520 Si / 1000 Ang^3
#
#
#
# Elastic Constant Matrix: (Units=GPa)
#
#
# Indices 1 2 3 4 5 6 
#
# 1 172.5726 59.3266 72.4109 0.0000 0.0000 0.0000
# 2 59.3266 68.8075 40.9768 0.0000 0.0000 0.0000
# 3 72.4109 40.9768 85.3990 0.0000 0.0000 0.0000
# 4 0.0000 0.0000 0.0000 24.5313 0.0000 0.0000
# 5 0.0000 0.0000 0.0000 0.0000 25.0085 0.0000
# 6 0.0000 0.0000 0.0000 0.0000 0.0000 19.8993
#
#
#
# Elastic Compliance Matrix: (Units=1/GPa)
#
#
# Indices 1 2 3 4 5 6 
#
# 1 0.010113 -0.005059 -0.006148 0.000000 0.000000 0.000000
# 2 -0.005059 0.022878 -0.006688 0.000000 0.000000 0.000000
# 3 -0.006148 -0.006688 0.020132 0.000000 0.000000 0.000000
# 4 0.000000 0.000000 0.000000 0.040764 0.000000 0.000000
# 5 0.000000 0.000000 0.000000 0.000000 0.039986 0.000000
# 6 0.000000 0.000000 0.000000 0.000000 0.000000 0.050253
#
#
# Mechanical properties :
#
#
# Convention : Reuss Voigt Hill
#
# Bulk Modulus (GPa) = 57.69151 74.68972 66.19062
# Shear Modulus (GPa) = 22.15389 24.15883 23.15636
#
# Velocity S-wave (km/s) = 3.42772 3.57946 3.50441
# Velocity P-wave (km/s) = 6.80163 7.52960 7.17485
#
# Compressibility (1/GPa) = 0.01733357
#
# Stress axis : x y z
#
# Youngs Moduli (GPa) = 98.87901 43.71038 49.67241
#
# Poissons Ratio (x) = 0.22111 0.30539
# Poissons Ratio (y) = 0.50018 0.33222
# Poissons Ratio (z) = 0.60791 0.29234
#
# Static dielectric constant tensor:
#      x y z
#    x 3.552050 0.000000 0.000000 
#    y 0.000000 3.282340 0.000000 
#    z 0.000000 0.000000 3.486510 
# 
# 
# High freq. dielectric constant tensor:
#      x y z
#    x 1.733200 0.000000 0.000000 
#    y 0.000000 1.713920 0.000000 
#    z 0.000000 0.000000 1.736620 
# 
# From -- ./inp_files/25224.got.cif
#   From: 2010.03.12/outbox.cif.g09.slc.cpg/sg47_13_cif.got.tgz:25224.got - 2010.04.14 03:12:58.
