data_PCOD8197596
_publ_section_title
;
Structure prediction by ZEFSAII (Michael W. Deem and Ramdas Pophale) SiO2 
 PCOD8197596
Probable space group: P M M M
;
_chemical_formula_sum "Si O2"
_cell_formula_units_Z 48
_cell_length_a 9.044650
_cell_length_b 9.332402
_cell_length_c 30.917221
_cell_angle_alpha 90.000000
_cell_angle_beta 90.000000
_cell_angle_gamma 90.000000
_cell_volume 2609.670367
_symmetry_space_group_name_H-M "P M M M"
_symmetry_group_IT_number 47
_symmetry_cell_setting 'orthorhombic'
loop_
_space_group_symop_operation_xyz
x,y,z
-x,-y,z
x,-y,-z
-x,y,-z
-x,-y,-z
x,y,-z
-x,y,z
x,-y,z
loop_
_atom_site_type_symbol
_atom_site_label
_atom_site_fract_x
_atom_site_fract_y
_atom_site_fract_z
Si Si1 0.333067 0.170416 0.500000
Si Si2 0.173694 0.666107 0.913892
Si Si3 0.172607 0.834389 0.585323
Si Si4 0.675186 0.658206 0.244335
Si Si5 0.673047 0.167122 0.837502
Si Si6 0.333391 0.670146 0.000000
Si Si7 0.668548 0.331117 0.659509
O O1 0.500000 0.228112 0.500000
O O2 0.252770 0.229010 0.457138
O O3 0.325551 0.000000 0.500000
O O4 0.213820 0.500000 0.905990
O O5 0.234327 0.757709 0.874583
O O6 0.249244 0.725748 0.957491
O O7 0.000000 0.688883 0.918563
O O8 0.223857 0.748575 0.627040
O O9 0.000000 0.812300 0.578355
O O10 0.213852 0.000000 0.592354
O O11 0.500000 0.647785 0.244752
O O12 0.740163 0.500000 0.233597
O O13 0.729345 0.770491 0.208356
O O14 0.725194 0.708342 0.292119
O O15 0.500000 0.198863 0.844797
O O16 0.708131 0.000000 0.837813
O O17 0.333141 0.500000 0.000000
O O18 0.500000 0.731331 0.000000
O O19 0.500000 0.278950 0.652308
O O20 0.679770 0.500000 0.652023
#
# Coordination Sequence:
#
# PCOD8197596 Si02
#       7
#     4   8   8   8   8   4   8
#     4   9  17  31  52  75  98 129 170 212 252 295
#     4  10  20  34  53  77 105 137 172 209 251 301
#     4  10  20  33  50  74 104 136 169 206 250 301
#     4   8  15  30  52  75  99 130 169 212 255 298
#     4  10  20  33  51  77 106 135 170 212 256 302
#     4   9  17  31  54  81 104 129 166 212 256 297
#     4   9  18  33  53  77 103 131 167 211 256 302
#
# _framework density 18.393128999999998
#
# number of rings (size 3 to 8) (size 9 to 14) (size 15 to 20)
#    0.000    2.667    0.000    3.000    0.000    6.000 
#    0.000    3.333    0.000    6.000    0.000    0.000 
#    0.000    0.000    0.000    0.000    0.000    0.000 
#
# Total GULP energy -595181.281437 kJ/mol
# GULP energy per Si atom -12399.610030 kJ/mol
# Density = 1.835127 g / cm^3
# Si number density = 18.393129 Si / 1000 Ang^3
#
#
#
# Elastic Constant Matrix: (Units=GPa)
#
#
# Indices 1 2 3 4 5 6 
#
# 1 80.4819 39.1170 63.7792 0.0000 0.0000 0.0000
# 2 39.1170 62.8379 63.3696 0.0000 0.0000 0.0000
# 3 63.7792 63.3696 174.3539 0.0000 0.0000 0.0000
# 4 0.0000 0.0000 0.0000 51.8590 0.0000 0.0000
# 5 0.0000 0.0000 0.0000 0.0000 8.0971 0.0000
# 6 0.0000 0.0000 0.0000 0.0000 0.0000 23.4214
#
#
#
# Elastic Compliance Matrix: (Units=1/GPa)
#
#
# Indices 1 2 3 4 5 6 
#
# 1 0.019696 -0.007885 -0.004339 0.000000 0.000000 0.000000
# 2 -0.007885 0.028279 -0.007394 0.000000 0.000000 0.000000
# 3 -0.004339 -0.007394 0.010010 0.000000 0.000000 0.000000
# 4 0.000000 0.000000 0.000000 0.019283 0.000000 0.000000
# 5 0.000000 0.000000 0.000000 0.000000 0.123502 0.000000
# 6 0.000000 0.000000 0.000000 0.000000 0.000000 0.042696
#
#
# Mechanical properties :
#
#
# Convention : Reuss Voigt Hill
#
# Bulk Modulus (GPa) = 53.33579 72.24502 62.79041
# Shear Modulus (GPa) = 17.30398 26.76934 22.03666
#
# Velocity S-wave (km/s) = 3.07055 3.81911 3.46510
# Velocity P-wave (km/s) = 6.45226 7.66883 7.08670
#
# Compressibility (1/GPa) = 0.01874913
#
# Stress axis : x y z
#
# Youngs Moduli (GPa) = 50.77121 35.36225 99.90124
#
# Poissons Ratio (x) = 0.27884 0.43347
# Poissons Ratio (y) = 0.40035 0.73862
# Poissons Ratio (z) = 0.22030 0.26145
#
# Static dielectric constant tensor:
#      x y z
#    x 3.242930 0.000000 0.000000 
#    y 0.000000 3.198390 0.000000 
#    z 0.000000 0.000000 3.666190 
# 
# 
# High freq. dielectric constant tensor:
#      x y z
#    x 1.699370 0.000000 0.000000 
#    y 0.000000 1.687880 0.000000 
#    z 0.000000 0.000000 1.730680 
# 
# From -- ./inp_files/34176.got.cif
#   From: 2010.03.12/outbox.cif.g09.slc.cpg/sg47_18_cif.got.tgz:34176.got - 2010.04.14 03:12:58.
