data_PCOD8197895
_publ_section_title
;
Structure prediction by ZEFSAII (Michael W. Deem and Ramdas Pophale) SiO2 
 PCOD8197895
Probable space group: P M M M
;
_chemical_formula_sum "Si O2"
_cell_formula_units_Z 64
_cell_length_a 14.644752
_cell_length_b 9.715421
_cell_length_c 23.185459
_cell_angle_alpha 90.000000
_cell_angle_beta 90.000000
_cell_angle_gamma 90.000000
_cell_volume 3298.825510
_symmetry_space_group_name_H-M "P M M M"
_symmetry_group_IT_number 47
_symmetry_cell_setting 'orthorhombic'
loop_
_space_group_symop_operation_xyz
x,y,z
-x,-y,z
x,-y,-z
-x,y,-z
-x,-y,-z
x,y,-z
-x,y,z
x,-y,z
loop_
_atom_site_type_symbol
_atom_site_label
_atom_site_fract_x
_atom_site_fract_y
_atom_site_fract_z
Si Si1 0.600803 0.837630 0.843331
Si Si2 0.397109 0.270904 0.717467
Si Si3 0.251474 0.158632 0.064836
Si Si4 0.105923 0.158283 0.772085
Si Si5 0.601830 0.149611 0.597708
Si Si6 0.753674 0.343162 0.437912
Si Si7 0.894245 0.660881 0.116006
Si Si8 0.204984 0.649917 0.686370
O O1 0.500000 0.779614 0.858827
O O2 0.629095 0.792394 0.779369
O O3 0.672658 0.783430 0.890724
O O4 0.599293 0.000000 0.845611
O O5 0.500000 0.339681 0.719794
O O6 0.396571 0.156749 0.667560
O O7 0.313180 0.370946 0.700587
O O8 0.164549 0.261087 0.067494
O O9 0.223363 0.000000 0.079072
O O10 0.290990 0.166957 0.000000
O O11 0.127459 0.255018 0.826101
O O12 0.161108 0.222798 0.719442
O O13 0.000000 0.161782 0.756184
O O14 0.137595 0.000000 0.783530
O O15 0.500000 0.170576 0.574771
O O16 0.660825 0.259192 0.563989
O O17 0.639812 0.000000 0.581137
O O18 0.803612 0.312709 0.500000
O O19 0.722796 0.500000 0.434873
O O20 0.813892 0.311275 0.381052
O O21 0.866308 0.500000 0.122876
O O22 0.000000 0.672569 0.098531
O O23 0.159853 0.500000 0.700384
#
# Coordination Sequence:
#
# PCOD8197895 Si02
#       8
#     8   8   8   8   8   8   8   8
#     4   9  17  30  49  72  99 134 176 219 261 306
#     4   9  17  29  47  73 105 138 172 213 264 318
#     4  10  21  35  52  77 108 142 180 221 264 309
#     4  10  21  37  58  84 112 138 164 202 258 320
#     4   9  17  28  43  66  95 126 166 219 272 318
#     4   9  19  34  48  65  94 133 176 218 259 305
#     4  10  21  37  58  83 109 137 170 210 257 310
#     4  10  20  33  53  79 105 138 177 217 260 305
#
# _framework density 19.400845
#
# number of rings (size 3 to 8) (size 9 to 14) (size 15 to 20)
#    0.000    2.500    0.000    1.875    0.000    8.250 
#    0.000    6.250    0.000    1.500    0.000    3.500 
#    0.000    0.000    0.000    0.000    0.000    0.000 
#
# Total GULP energy -792857.791602 kJ/mol
# GULP energy per Si atom -12388.402994 kJ/mol
# Density = 1.935669 g / cm^3
# Si number density = 19.400845 Si / 1000 Ang^3
#
#
#
# Elastic Constant Matrix: (Units=GPa)
#
#
# Indices 1 2 3 4 5 6 
#
# 1 47.6502 26.2001 34.0825 0.0000 0.0000 0.0000
# 2 26.2001 79.3008 15.2260 0.0000 0.0000 0.0000
# 3 34.0825 15.2260 96.5374 0.0000 0.0000 0.0000
# 4 0.0000 0.0000 0.0000 23.1672 0.0000 0.0000
# 5 0.0000 0.0000 0.0000 0.0000 18.2275 0.0000
# 6 0.0000 0.0000 0.0000 0.0000 0.0000 19.0687
#
#
#
# Elastic Compliance Matrix: (Units=1/GPa)
#
#
# Indices 1 2 3 4 5 6 
#
# 1 0.033358 -0.009033 -0.010352 0.000000 0.000000 0.000000
# 2 -0.009033 0.015450 0.000752 0.000000 0.000000 0.000000
# 3 -0.010352 0.000752 0.013895 0.000000 0.000000 0.000000
# 4 0.000000 0.000000 0.000000 0.043165 0.000000 0.000000
# 5 0.000000 0.000000 0.000000 0.000000 0.054862 0.000000
# 6 0.000000 0.000000 0.000000 0.000000 0.000000 0.052442
#
#
# Mechanical properties :
#
#
# Convention : Reuss Voigt Hill
#
# Bulk Modulus (GPa) = 39.31354 41.61175 40.46264
# Shear Modulus (GPa) = 19.31122 21.95798 20.63460
#
# Velocity S-wave (km/s) = 3.15839 3.36788 3.26482
# Velocity P-wave (km/s) = 5.79727 6.05132 5.92566
#
# Compressibility (1/GPa) = 0.02543653
#
# Stress axis : x y z
#
# Youngs Moduli (GPa) = 29.97800 64.72379 71.96901
#
# Poissons Ratio (x) = 0.58467 0.74504
# Poissons Ratio (y) = 0.27080 -0.05415
# Poissons Ratio (z) = 0.31034 -0.04870
#
# Static dielectric constant tensor:
#      x y z
#    x 3.535290 0.000000 0.000000 
#    y 0.000000 3.456890 0.000000 
#    z 0.000000 0.000000 3.802750 
# 
# 
# High freq. dielectric constant tensor:
#      x y z
#    x 1.731220 0.000000 0.000000 
#    y 0.000000 1.746410 0.000000 
#    z 0.000000 0.000000 1.760200 
# 
# From -- ./inp_files/32761.got.cif
#   From: 2010.03.12/outbox.cif.g09.slc.cpg/sg47_17_cif.got.tgz:32761.got - 2010.04.14 03:12:58.
