data_PCOD8197493
_publ_section_title
;
Structure prediction by ZEFSAII (Michael W. Deem and Ramdas Pophale) SiO2 
 PCOD8197493
Probable space group: P M M M
;
_chemical_formula_sum "Si O2"
_cell_formula_units_Z 44
_cell_length_a 9.733037
_cell_length_b 28.496440
_cell_length_c 8.979001
_cell_angle_alpha 90.000000
_cell_angle_beta 90.000000
_cell_angle_gamma 90.000000
_cell_volume 2490.387926
_symmetry_space_group_name_H-M "P M M M"
_symmetry_group_IT_number 47
_symmetry_cell_setting 'orthorhombic'
loop_
_space_group_symop_operation_xyz
x,y,z
-x,-y,z
x,-y,-z
-x,y,-z
-x,-y,-z
x,y,-z
-x,y,z
x,-y,z
loop_
_atom_site_type_symbol
_atom_site_label
_atom_site_fract_x
_atom_site_fract_y
_atom_site_fract_z
Si Si1 0.153042 0.367202 0.822425
Si Si2 0.341431 0.905999 0.175284
Si Si3 0.837134 0.264704 0.834855
Si Si4 0.336980 0.000000 0.332642
Si Si5 0.161006 0.172192 0.327344
Si Si6 0.653830 0.551955 0.822867
O O1 0.213823 0.315856 0.777240
O O2 0.247966 0.408149 0.753566
O O3 0.000000 0.374425 0.757382
O O4 0.148676 0.370049 0.000000
O O5 0.500000 0.896668 0.220071
O O6 0.284149 0.953719 0.248621
O O7 0.248191 0.863961 0.231966
O O8 0.325254 0.911133 0.000000
O O9 0.791120 0.224286 0.720802
O O10 0.000000 0.267597 0.845836
O O11 0.777427 0.253500 0.000000
O O12 0.500000 0.000000 0.332766
O O13 0.277534 0.000000 0.500000
O O14 0.194862 0.165326 0.500000
O O15 0.000000 0.164498 0.293615
O O16 0.500000 0.560703 0.763145
O O17 0.704660 0.500000 0.773532
O O18 0.654920 0.555256 0.000000
#
# Coordination Sequence:
#
# PCOD8197493 Si02
#       6
#     8   8   8   4   8   8
#     4   8  13  21  34  51  70  98 138 177 211 253
#     4  10  20  34  53  76 100 127 161 198 235 278
#     4   8  14  26  43  61  84 115 148 183 225 272
#     4   9  17  31  52  75 100 131 162 194 236 281
#     4  10  20  33  50  72  97 126 159 194 236 285
#     4   8  13  20  29  44  71 105 134 163 208 263
#
# _framework density 17.667930999999999
#
# number of rings (size 3 to 8) (size 9 to 14) (size 15 to 20)
#    0.000    3.182    0.000    3.000    0.000    3.636 
#    0.000    3.182    0.000    6.000    0.000    0.000 
#    0.000    0.727    0.000    9.091    0.000   10.545 
#
# Total GULP energy -545332.687729 kJ/mol
# GULP energy per Si atom -12393.924721 kJ/mol
# Density = 1.762772 g / cm^3
# Si number density = 17.667931 Si / 1000 Ang^3
#
#
#
# Elastic Constant Matrix: (Units=GPa)
#
#
# Indices 1 2 3 4 5 6 
#
# 1 54.3932 59.1297 23.6297 0.0000 0.0000 0.0000
# 2 59.1297 164.5704 39.8245 0.0000 0.0000 0.0000
# 3 23.6297 39.8245 55.7954 0.0000 0.0000 0.0000
# 4 0.0000 0.0000 0.0000 4.2976 0.0000 0.0000
# 5 0.0000 0.0000 0.0000 0.0000 14.5875 0.0000
# 6 0.0000 0.0000 0.0000 0.0000 0.0000 19.9497
#
#
#
# Elastic Compliance Matrix: (Units=1/GPa)
#
#
# Indices 1 2 3 4 5 6 
#
# 1 0.031984 -0.009929 -0.006459 0.000000 0.000000 0.000000
# 2 -0.009929 0.010427 -0.003238 0.000000 0.000000 0.000000
# 3 -0.006459 -0.003238 0.022969 0.000000 0.000000 0.000000
# 4 0.000000 0.000000 0.000000 0.232686 0.000000 0.000000
# 5 0.000000 0.000000 0.000000 0.000000 0.068552 0.000000
# 6 0.000000 0.000000 0.000000 0.000000 0.000000 0.050126
#
#
# Mechanical properties :
#
#
# Convention : Reuss Voigt Hill
#
# Bulk Modulus (GPa) = 38.27046 57.76965 48.02005
# Shear Modulus (GPa) = 10.75955 17.91198 14.33577
#
# Velocity S-wave (km/s) = 2.47045 3.18750 2.85160
# Velocity P-wave (km/s) = 5.46310 6.80553 6.17093
#
# Compressibility (1/GPa) = 0.02612982
#
# Stress axis : x y z
#
# Youngs Moduli (GPa) = 31.26588 95.90215 43.53731
#
# Poissons Ratio (x) = 0.95219 0.28119
# Poissons Ratio (y) = 0.31043 0.14096
# Poissons Ratio (z) = 0.20193 0.31050
#
# Static dielectric constant tensor:
#      x y z
#    x 3.136740 0.000000 0.000000 
#    y 0.000000 3.718390 0.000000 
#    z 0.000000 0.000000 2.979940 
# 
# 
# High freq. dielectric constant tensor:
#      x y z
#    x 1.649250 0.000000 0.000000 
#    y 0.000000 1.702020 0.000000 
#    z 0.000000 0.000000 1.647400 
# 
# From -- ./inp_files/2082.got.cif
#   From: 2010.03.12/outbox.cif.g09.slc.cpg/sg47_2_cif.got.tgz:2082.got - 2010.04.14 03:12:58.
