data_PCOD8197492
_publ_section_title
;
Structure prediction by ZEFSAII (Michael W. Deem and Ramdas Pophale) SiO2 
 PCOD8197492
Probable space group: P M M M
;
_chemical_formula_sum "Si O2"
_cell_formula_units_Z 52
_cell_length_a 14.366170
_cell_length_b 23.451655
_cell_length_c 8.892102
_cell_angle_alpha 90.000000
_cell_angle_beta 90.000000
_cell_angle_gamma 90.000000
_cell_volume 2995.842198
_symmetry_space_group_name_H-M "P M M M"
_symmetry_group_IT_number 47
_symmetry_cell_setting 'orthorhombic'
loop_
_space_group_symop_operation_xyz
x,y,z
-x,-y,z
x,-y,-z
-x,y,-z
-x,-y,-z
x,y,-z
-x,y,z
x,-y,z
loop_
_atom_site_type_symbol
_atom_site_label
_atom_site_fract_x
_atom_site_fract_y
_atom_site_fract_z
Si Si1 0.895334 0.670465 0.179161
Si Si2 0.890635 0.885082 0.674754
Si Si3 0.110578 0.000000 0.169546
Si Si4 0.603657 0.625025 0.171983
Si Si5 0.604988 0.743948 0.324423
Si Si6 0.215085 0.562440 0.822667
Si Si7 0.784269 0.781379 0.822045
O O1 0.852113 0.611522 0.243986
O O2 0.833859 0.723502 0.236247
O O3 0.000000 0.676820 0.241812
O O4 0.895058 0.669307 0.000000
O O5 0.865812 0.884524 0.500000
O O6 0.839394 0.834237 0.756986
O O7 0.000000 0.877785 0.703364
O O8 0.853080 0.944199 0.743872
O O9 0.000000 0.000000 0.168930
O O10 0.150090 0.000000 0.000000
O O11 0.500000 0.599427 0.191890
O O12 0.619344 0.678576 0.278845
O O13 0.677523 0.576596 0.216316
O O14 0.620439 0.645620 0.000000
O O15 0.624452 0.750061 0.500000
O O16 0.500000 0.763849 0.283465
O O17 0.678043 0.783283 0.235631
O O18 0.191387 0.500000 0.753185
O O19 0.200721 0.559822 0.000000
O O20 0.785657 0.785454 0.000000
#
# Coordination Sequence:
#
# PCOD8197492 Si02
#       7
#     8   8   4   8   8   8   8
#     4   9  17  28  42  64  94 125 158 202 252 295
#     4  10  20  33  50  76 111 147 180 214 254 298
#     4   9  17  31  51  75 106 145 186 221 253 291
#     4   9  16  28  46  67  91 118 151 195 250 309
#     4  10  20  33  50  72  97 125 158 200 254 313
#     4   9  16  26  41  64  92 121 157 200 249 305
#     4  11  20  32  51  74 101 132 169 212 255 303
#
# _framework density 17.357389000000001
#
# number of rings (size 3 to 8) (size 9 to 14) (size 15 to 20)
#    0.000    2.385    1.538    2.077    0.000    4.000 
#    0.000    3.077    0.000    0.462    0.000    2.692 
#    0.000    5.538    0.000    0.000    0.000    0.000 
#
# Total GULP energy -644691.664580 kJ/mol
# GULP energy per Si atom -12397.916627 kJ/mol
# Density = 1.731788 g / cm^3
# Si number density = 17.357389 Si / 1000 Ang^3
#
#
#
# Elastic Constant Matrix: (Units=GPa)
#
#
# Indices 1 2 3 4 5 6 
#
# 1 99.2241 51.6564 41.6033 0.0000 0.0000 0.0000
# 2 51.6564 123.9284 48.9429 0.0000 0.0000 0.0000
# 3 41.6033 48.9429 67.2661 0.0000 0.0000 0.0000
# 4 0.0000 0.0000 0.0000 12.2476 0.0000 0.0000
# 5 0.0000 0.0000 0.0000 0.0000 20.4274 0.0000
# 6 0.0000 0.0000 0.0000 0.0000 0.0000 17.5382
#
#
#
# Elastic Compliance Matrix: (Units=1/GPa)
#
#
# Indices 1 2 3 4 5 6 
#
# 1 0.014638 -0.003545 -0.006475 0.000000 0.000000 0.000000
# 2 -0.003545 0.012181 -0.006671 0.000000 0.000000 0.000000
# 3 -0.006475 -0.006671 0.023724 0.000000 0.000000 0.000000
# 4 0.000000 0.000000 0.000000 0.081648 0.000000 0.000000
# 5 0.000000 0.000000 0.000000 0.000000 0.048954 0.000000
# 6 0.000000 0.000000 0.000000 0.000000 0.000000 0.057018
#
#
# Mechanical properties :
#
#
# Convention : Reuss Voigt Hill
#
# Bulk Modulus (GPa) = 58.26132 63.86934 61.06533
# Shear Modulus (GPa) = 18.03327 19.92370 18.97848
#
# Velocity S-wave (km/s) = 3.22675 3.39167 3.31024
# Velocity P-wave (km/s) = 6.89356 7.22595 7.06171
#
# Compressibility (1/GPa) = 0.01716405
#
# Stress axis : x y z
#
# Youngs Moduli (GPa) = 68.31441 82.09438 42.15078
#
# Poissons Ratio (x) = 0.29099 0.27291
# Poissons Ratio (y) = 0.24215 0.28118
# Poissons Ratio (z) = 0.44230 0.54763
#
# Static dielectric constant tensor:
#      x y z
#    x 3.386370 0.000000 0.000000 
#    y 0.000000 3.268700 0.000000 
#    z 0.000000 0.000000 3.049280 
# 
# 
# High freq. dielectric constant tensor:
#      x y z
#    x 1.665510 0.000000 0.000000 
#    y 0.000000 1.658360 0.000000 
#    z 0.000000 0.000000 1.647720 
# 
# From -- ./inp_files/6931.got.cif
#   From: 2010.03.12/outbox.cif.g09.slc.cpg/sg47_4_cif.got.tgz:6931.got - 2010.04.14 03:12:58.
