data_PCOD8197470
_publ_section_title
;
Structure prediction by ZEFSAII (Michael W. Deem and Ramdas Pophale) SiO2 
 PCOD8197470
Probable space group: P M M M
;
_chemical_formula_sum "Si O2"
_cell_formula_units_Z 44
_cell_length_a 9.157207
_cell_length_b 9.274431
_cell_length_c 28.463207
_cell_angle_alpha 90.000000
_cell_angle_beta 90.000000
_cell_angle_gamma 90.000000
_cell_volume 2417.319956
_symmetry_space_group_name_H-M "P M M M"
_symmetry_group_IT_number 47
_symmetry_cell_setting 'orthorhombic'
loop_
_space_group_symop_operation_xyz
x,y,z
-x,-y,z
x,-y,-z
-x,y,-z
-x,-y,-z
x,y,-z
-x,y,z
x,-y,z
loop_
_atom_site_type_symbol
_atom_site_label
_atom_site_fract_x
_atom_site_fract_y
_atom_site_fract_z
Si Si1 0.336232 0.828258 0.359465
Si Si2 0.832104 0.170570 0.267550
Si Si3 0.835908 0.171491 0.551791
Si Si4 0.831158 0.667336 0.909516
Si Si5 0.826358 0.162659 0.000000
Si Si6 0.669969 0.667943 0.185028
O O1 0.500000 0.767715 0.354012
O O2 0.240103 0.773799 0.315814
O O3 0.268733 0.764950 0.407782
O O4 0.336817 0.000000 0.361105
O O5 0.749117 0.241737 0.224685
O O6 0.000000 0.219480 0.267452
O O7 0.816661 0.000000 0.262600
O O8 0.780825 0.221230 0.500000
O O9 0.000000 0.228531 0.560499
O O10 0.836110 0.000000 0.554368
O O11 0.810855 0.500000 0.921672
O O12 0.737029 0.714050 0.864754
O O13 0.000000 0.703737 0.898961
O O14 0.769005 0.756798 0.953566
O O15 0.000000 0.167129 0.000000
O O16 0.766166 0.000000 0.000000
O O17 0.500000 0.706773 0.184972
O O18 0.697847 0.500000 0.194719
#
# Coordination Sequence:
#
# PCOD8197470 Si02
#       6
#     8   8   8   8   4   8
#     4   9  16  25  38  58  86 119 154 194 241 292
#     4  10  20  33  50  71  95 126 163 201 243 293
#     4   8  13  21  33  50  76 113 155 196 237 283
#     4   9  17  31  51  72  95 126 162 197 236 283
#     4   9  17  29  48  75 102 126 158 201 240 275
#     4  10  21  36  53  74 100 129 162 202 247 292
#
# _framework density 18.201976999999999
#
# number of rings (size 3 to 8) (size 9 to 14) (size 15 to 20)
#    0.000    2.818    0.000    2.455    0.000    6.545 
#    0.000    4.091    0.000    2.727    0.000    0.000 
#    0.000    0.727    0.000    7.636    0.000   10.545 
#
# Total GULP energy -545541.868014 kJ/mol
# GULP energy per Si atom -12398.678818 kJ/mol
# Density = 1.816055 g / cm^3
# Si number density = 18.201977 Si / 1000 Ang^3
#
#
#
# Elastic Constant Matrix: (Units=GPa)
#
#
# Indices 1 2 3 4 5 6 
#
# 1 124.7001 29.8292 90.9639 0.0000 0.0000 0.0000
# 2 29.8292 33.2623 46.3117 0.0000 0.0000 0.0000
# 3 90.9639 46.3117 184.3907 0.0000 0.0000 0.0000
# 4 0.0000 0.0000 0.0000 -4.8338 0.0000 0.0000
# 5 0.0000 0.0000 0.0000 0.0000 7.6526 0.0000
# 6 0.0000 0.0000 0.0000 0.0000 0.0000 16.5076
#
#
#
# Elastic Compliance Matrix: (Units=1/GPa)
#
#
# Indices 1 2 3 4 5 6 
#
# 1 0.012891 -0.004161 -0.005314 0.000000 0.000000 0.000000
# 2 -0.004161 0.047574 -0.009896 0.000000 0.000000 0.000000
# 3 -0.005314 -0.009896 0.010530 0.000000 0.000000 0.000000
# 4 0.000000 0.000000 0.000000 -0.206876 0.000000 0.000000
# 5 0.000000 0.000000 0.000000 0.000000 0.130674 0.000000
# 6 0.000000 0.000000 0.000000 0.000000 0.000000 0.060578
#
#
# Mechanical properties :
#
#
# Convention : Reuss Voigt Hill
#
# Bulk Modulus (GPa) = 31.00530 75.17363 53.08946
# Shear Modulus (GPa) = 47.67972 15.54851 31.61411
#
# Velocity S-wave (km/s) = 5.12364 2.92588 4.17207
# Velocity P-wave (km/s) = 7.21618 7.26662 7.24144
#
# Compressibility (1/GPa) = 0.03225255
#
# Stress axis : x y z
#
# Youngs Moduli (GPa) = 77.57160 21.01982 94.96333
#
# Poissons Ratio (x) = 0.08747 0.50467
# Poissons Ratio (y) = 0.32281 0.93974
# Poissons Ratio (z) = 0.41224 0.20801
#
# Static dielectric constant tensor:
#      x y z
#    x 3.433870 0.000000 0.000000 
#    y 0.000000 2.951710 0.000000 
#    z 0.000000 0.000000 3.635170 
# 
# 
# High freq. dielectric constant tensor:
#      x y z
#    x 1.702110 0.000000 0.000000 
#    y 0.000000 1.654650 0.000000 
#    z 0.000000 0.000000 1.724080 
# 
# From -- ./inp_files/2194.got.cif
#   From: 2010.03.12/outbox.cif.g09.slc.cpg/sg47_2_cif.got.tgz:2194.got - 2010.04.14 03:12:58.
