data_PCOD8197051
_publ_section_title
;
Structure prediction by ZEFSAII (Michael W. Deem and Ramdas Pophale) SiO2 
 PCOD8197051
Probable space group: P M M M
;
_chemical_formula_sum "Si O2"
_cell_formula_units_Z 48
_cell_length_a 9.697544
_cell_length_b 9.191475
_cell_length_c 31.137038
_cell_angle_alpha 90.000000
_cell_angle_beta 90.000000
_cell_angle_gamma 90.000000
_cell_volume 2775.391576
_symmetry_space_group_name_H-M "P M M M"
_symmetry_group_IT_number 47
_symmetry_cell_setting 'orthorhombic'
loop_
_space_group_symop_operation_xyz
x,y,z
-x,-y,z
x,-y,-z
-x,y,-z
-x,-y,-z
x,y,-z
-x,y,z
x,-y,z
loop_
_atom_site_type_symbol
_atom_site_label
_atom_site_fract_x
_atom_site_fract_y
_atom_site_fract_z
Si Si1 0.838351 0.169741 0.870035
Si Si2 0.845611 0.173017 0.547503
Si Si3 0.836486 0.662857 0.047215
Si Si4 0.346531 0.173391 0.378134
Si Si5 0.661020 0.329898 0.798929
Si Si6 0.336403 0.838565 0.715744
O O1 0.784949 0.226265 0.916355
O O2 0.751317 0.250823 0.834291
O O3 0.000000 0.203887 0.863295
O O4 0.807102 0.000000 0.867343
O O5 0.793526 0.220666 0.500000
O O6 0.748093 0.240855 0.584262
O O7 0.000000 0.231750 0.555127
O O8 0.844873 0.000000 0.550669
O O9 0.782875 0.500000 0.057916
O O10 0.000000 0.662469 0.046096
O O11 0.781102 0.711439 0.000000
O O12 0.500000 0.237446 0.384479
O O13 0.285077 0.216725 0.331159
O O14 0.351403 0.000000 0.380958
O O15 0.500000 0.294153 0.806568
O O16 0.690652 0.500000 0.801128
O O17 0.711345 0.272684 0.752500
O O18 0.500000 0.847959 0.713280
O O19 0.277135 0.000000 0.726162
#
# Coordination Sequence:
#
# PCOD8197051 Si02
#       6
#     8   8   8   8   8   8
#     4  10  20  32  48  72  99 125 154 190 232 274
#     4   8  13  20  29  44  71 105 134 161 200 250
#     4   8  14  26  45  68  94 125 158 190 227 271
#     4   8  13  21  34  51  70  97 134 171 207 249
#     4  10  20  33  50  70  91 120 157 191 228 278
#     4   8  14  26  43  61  83 111 142 179 222 265
#
# _framework density 17.294857
#
# number of rings (size 3 to 8) (size 9 to 14) (size 15 to 20)
#    0.000    3.333    0.000    3.000    0.000    2.667 
#    0.000    4.167    0.000    3.500    0.000    3.500 
#    0.000    0.667    0.000    8.333    0.000    9.667 
#
# Total GULP energy -594805.721288 kJ/mol
# GULP energy per Si atom -12391.785860 kJ/mol
# Density = 1.725549 g / cm^3
# Si number density = 17.294857 Si / 1000 Ang^3
#
#
#
# Elastic Constant Matrix: (Units=GPa)
#
#
# Indices 1 2 3 4 5 6 
#
# 1 50.9963 34.3836 64.8169 0.0000 0.0000 0.0000
# 2 34.3836 73.0613 68.0306 0.0000 0.0000 0.0000
# 3 64.8169 68.0306 187.5723 0.0000 0.0000 0.0000
# 4 0.0000 0.0000 0.0000 1.2736 0.0000 0.0000
# 5 0.0000 0.0000 0.0000 0.0000 27.0029 0.0000
# 6 0.0000 0.0000 0.0000 0.0000 0.0000 14.3351
#
#
#
# Elastic Compliance Matrix: (Units=1/GPa)
#
#
# Indices 1 2 3 4 5 6 
#
# 1 0.038235 -0.008593 -0.010096 0.000000 0.000000 0.000000
# 2 -0.008593 0.022598 -0.005227 0.000000 0.000000 0.000000
# 3 -0.010096 -0.005227 0.010715 0.000000 0.000000 0.000000
# 4 0.000000 0.000000 0.000000 0.785189 0.000000 0.000000
# 5 0.000000 0.000000 0.000000 0.000000 0.037033 0.000000
# 6 0.000000 0.000000 0.000000 0.000000 0.000000 0.069759
#
#
# Mechanical properties :
#
#
# Convention : Reuss Voigt Hill
#
# Bulk Modulus (GPa) = 42.16334 71.78800 56.97567
# Shear Modulus (GPa) = 4.90549 18.14890 11.52720
#
# Velocity S-wave (km/s) = 1.68598 3.24293 2.58449
# Velocity P-wave (km/s) = 5.31245 7.45792 6.47467
#
# Compressibility (1/GPa) = 0.02371728
#
# Stress axis : x y z
#
# Youngs Moduli (GPa) = 26.15410 44.25174 93.32277
#
# Poissons Ratio (x) = 0.38027 0.94215
# Poissons Ratio (y) = 0.22475 0.48776
# Poissons Ratio (z) = 0.26404 0.23128
#
# Static dielectric constant tensor:
#      x y z
#    x 3.017420 0.000000 0.000000 
#    y 0.000000 2.974760 0.000000 
#    z 0.000000 0.000000 3.792570 
# 
# 
# High freq. dielectric constant tensor:
#      x y z
#    x 1.627520 0.000000 0.000000 
#    y 0.000000 1.631290 0.000000 
#    z 0.000000 0.000000 1.688370 
# 
# From -- ./inp_files/4312.got.cif
#   From: 2010.03.12/outbox.cif.g09.slc.cpg/sg47_3_cif.got.tgz:4312.got - 2010.04.14 03:12:58.
