data_PCOD8197351
_publ_section_title
;
Structure prediction by ZEFSAII (Michael W. Deem and Ramdas Pophale) SiO2 
 PCOD8197351
Probable space group: P M M M
;
_chemical_formula_sum "Si O2"
_cell_formula_units_Z 64
_cell_length_a 14.321578
_cell_length_b 29.183569
_cell_length_c 9.042183
_cell_angle_alpha 90.000000
_cell_angle_beta 90.000000
_cell_angle_gamma 90.000000
_cell_volume 3779.223423
_symmetry_space_group_name_H-M "P M M M"
_symmetry_group_IT_number 47
_symmetry_cell_setting 'orthorhombic'
loop_
_space_group_symop_operation_xyz
x,y,z
-x,-y,z
x,-y,-z
-x,y,-z
-x,-y,-z
x,y,-z
-x,y,z
x,-y,z
loop_
_atom_site_type_symbol
_atom_site_label
_atom_site_fract_x
_atom_site_fract_y
_atom_site_fract_z
Si Si1 0.216392 0.050213 0.671666
Si Si2 0.395378 0.102580 0.331064
Si Si3 0.395519 0.548364 0.824757
Si Si4 0.893323 0.767707 0.174900
Si Si5 0.110021 0.870919 0.835049
Si Si6 0.609074 0.194574 0.168678
Si Si7 0.389501 0.352002 0.826661
Si Si8 0.278093 0.272147 0.324871
O O1 0.193996 0.048267 0.500000
O O2 0.325418 0.060908 0.700473
O O3 0.152518 0.090069 0.734032
O O4 0.195089 0.000000 0.742128
O O5 0.386437 0.120185 0.500000
O O6 0.500000 0.084938 0.298501
O O7 0.367801 0.143545 0.221684
O O8 0.500000 0.546760 0.761156
O O9 0.344814 0.500000 0.773656
O O10 0.351888 0.597187 0.776013
O O11 0.399908 0.549502 0.000000
O O12 0.864191 0.819708 0.220686
O O13 0.826379 0.732057 0.258918
O O14 0.000000 0.757678 0.222652
O O15 0.882281 0.761533 0.000000
O O16 0.000000 0.876715 0.833063
O O17 0.149111 0.877769 0.000000
O O18 0.500000 0.205283 0.181937
O O19 0.661909 0.229049 0.274433
O O20 0.643784 0.200379 0.000000
O O21 0.500000 0.346398 0.792487
O O22 0.327904 0.317724 0.731923
O O23 0.371751 0.342872 0.000000
O O24 0.271889 0.273732 0.500000
#
# Coordination Sequence:
#
# PCOD8197351 Si02
#       8
#     8   8   8   8   8   8   8   8
#     4  10  21  34  48  70  97 122 148 177 213 260
#     4   9  18  33  51  69  90 117 150 187 225 265
#     4   7  10  19  38  63  88 117 159 209 250 277
#     4   9  19  37  58  75  91 115 150 191 233 279
#     4   9  19  36  56  75  92 112 141 178 222 271
#     4  10  20  33  49  68  91 121 157 194 230 271
#     4   9  17  29  45  66  95 132 171 206 239 277
#     4  12  23  31  44  68  99 130 157 190 232 278
#
# _framework density 16.934695999999999
#
# number of rings (size 3 to 8) (size 9 to 14) (size 15 to 20)
#    0.000    2.625    0.000    4.500    0.000    6.750 
#    0.000    3.750    0.000    0.375    0.000    4.375 
#    0.000    0.500    0.000    5.750    0.000    1.875 
#
# Total GULP energy -793055.237301 kJ/mol
# GULP energy per Si atom -12391.488083 kJ/mol
# Density = 1.689615 g / cm^3
# Si number density = 16.934696 Si / 1000 Ang^3
#
#
#
# Elastic Constant Matrix: (Units=GPa)
#
#
# Indices 1 2 3 4 5 6 
#
# 1 49.8622 57.4079 35.1400 0.0000 0.0000 0.0000
# 2 57.4079 107.6939 46.6663 0.0000 0.0000 0.0000
# 3 35.1400 46.6663 66.3936 0.0000 0.0000 0.0000
# 4 0.0000 0.0000 0.0000 9.5428 0.0000 0.0000
# 5 0.0000 0.0000 0.0000 0.0000 21.2362 0.0000
# 6 0.0000 0.0000 0.0000 0.0000 0.0000 13.4810
#
#
#
# Elastic Compliance Matrix: (Units=1/GPa)
#
#
# Indices 1 2 3 4 5 6 
#
# 1 0.058898 -0.025723 -0.013093 0.000000 0.000000 0.000000
# 2 -0.025723 0.024587 -0.003667 0.000000 0.000000 0.000000
# 3 -0.013093 -0.003667 0.024569 0.000000 0.000000 0.000000
# 4 0.000000 0.000000 0.000000 0.104791 0.000000 0.000000
# 5 0.000000 0.000000 0.000000 0.000000 0.047089 0.000000
# 6 0.000000 0.000000 0.000000 0.000000 0.000000 0.074178
#
#
# Mechanical properties :
#
#
# Convention : Reuss Voigt Hill
#
# Bulk Modulus (GPa) = 43.31282 55.81979 49.56631
# Shear Modulus (GPa) = 11.71580 14.50104 13.10842
#
# Velocity S-wave (km/s) = 2.63311 2.92942 2.78521
# Velocity P-wave (km/s) = 5.90561 6.66898 6.29887
#
# Compressibility (1/GPa) = 0.02308785
#
# Stress axis : x y z
#
# Youngs Moduli (GPa) = 16.97846 40.67248 40.70233
#
# Poissons Ratio (x) = 1.04623 0.53290
# Poissons Ratio (y) = 0.43674 0.14925
# Poissons Ratio (z) = 0.22229 0.14914
#
# Static dielectric constant tensor:
#      x y z
#    x 3.112950 0.000000 0.000000 
#    y 0.000000 3.475320 0.000000 
#    z 0.000000 0.000000 3.093240 
# 
# 
# High freq. dielectric constant tensor:
#      x y z
#    x 1.634940 0.000000 0.000000 
#    y 0.000000 1.649950 0.000000 
#    z 0.000000 0.000000 1.637100 
# 
# From -- ./inp_files/8347.got.cif
#   From: 2010.03.12/outbox.cif.g09.slc.cpg/sg47_5_cif.got.tgz:8347.got - 2010.04.14 03:12:58.
