data_PCOD8197716
_publ_section_title
;
Structure prediction by ZEFSAII (Michael W. Deem and Ramdas Pophale) SiO2 
 PCOD8197716
Probable space group: P M M M
;
_chemical_formula_sum "Si O2"
_cell_formula_units_Z 40
_cell_length_a 9.268195
_cell_length_b 25.607769
_cell_length_c 9.530721
_cell_angle_alpha 90.000000
_cell_angle_beta 90.000000
_cell_angle_gamma 90.000000
_cell_volume 2262.000322
_symmetry_space_group_name_H-M "P M M M"
_symmetry_group_IT_number 47
_symmetry_cell_setting 'orthorhombic'
loop_
_space_group_symop_operation_xyz
x,y,z
-x,-y,z
x,-y,-z
-x,y,-z
-x,-y,-z
x,y,-z
-x,y,z
x,-y,z
loop_
_atom_site_type_symbol
_atom_site_label
_atom_site_fract_x
_atom_site_fract_y
_atom_site_fract_z
Si Si1 0.168879 0.804997 0.843729
Si Si2 0.836790 0.500000 0.333325
Si Si3 0.668018 0.398393 0.664359
Si Si4 0.671128 0.000000 0.346189
Si Si5 0.165250 0.685535 0.163462
Si Si6 0.664480 0.887575 0.666901
O O1 0.203349 0.745448 0.803000
O O2 0.239972 0.842553 0.731566
O O3 0.000000 0.814879 0.840099
O O4 0.228338 0.816881 0.000000
O O5 0.837284 0.500000 0.500000
O O6 0.753293 0.551047 0.278574
O O7 0.000000 0.500000 0.273756
O O8 0.695500 0.389756 0.500000
O O9 0.500000 0.406503 0.697002
O O10 0.725758 0.348202 0.745159
O O11 0.715077 0.944958 0.272344
O O12 0.500000 0.000000 0.363646
O O13 0.742643 0.000000 0.500000
O O14 0.000000 0.673213 0.205952
O O15 0.188837 0.673369 0.000000
O O16 0.682735 0.886994 0.500000
O O17 0.500000 0.876680 0.709897
#
# Coordination Sequence:
#
# PCOD8197716 Si02
#       6
#     8   4   8   4   8   8
#     4   9  19  35  51  68  95 130 164 199 242 290
#     4   9  17  31  52  75 100 133 168 198 234 283
#     4  10  20  33  51  77 106 131 158 198 245 289
#     4   7  12  26  46  67  94 126 156 191 238 287
#     4   9  19  36  54  70  93 129 169 204 240 286
#     4   9  17  30  50  74  97 123 159 201 242 287
#
# _framework density 17.683463
#
# number of rings (size 3 to 8) (size 9 to 14) (size 15 to 20)
#    0.000    3.000    0.000    3.300    0.000    5.200 
#    0.000    7.500    0.000    7.800    0.000    0.000 
#    0.000    0.000    0.000    0.000    0.000    0.000 
#
# Total GULP energy -495759.297287 kJ/mol
# GULP energy per Si atom -12393.982432 kJ/mol
# Density = 1.764322 g / cm^3
# Si number density = 17.683463 Si / 1000 Ang^3
#
#
#
# Elastic Constant Matrix: (Units=GPa)
#
#
# Indices 1 2 3 4 5 6 
#
# 1 83.6018 70.8477 34.6246 0.0000 0.0000 0.0000
# 2 70.8477 139.6088 49.7894 0.0000 0.0000 0.0000
# 3 34.6246 49.7894 39.8057 0.0000 0.0000 0.0000
# 4 0.0000 0.0000 0.0000 -9.2352 0.0000 0.0000
# 5 0.0000 0.0000 0.0000 0.0000 25.0032 0.0000
# 6 0.0000 0.0000 0.0000 0.0000 0.0000 22.7898
#
#
#
# Elastic Compliance Matrix: (Units=1/GPa)
#
#
# Indices 1 2 3 4 5 6 
#
# 1 0.022895 -0.008153 -0.009717 0.000000 0.000000 0.000000
# 2 -0.008153 0.015835 -0.012714 0.000000 0.000000 0.000000
# 3 -0.009717 -0.012714 0.049477 0.000000 0.000000 0.000000
# 4 0.000000 0.000000 0.000000 -0.108281 0.000000 0.000000
# 5 0.000000 0.000000 0.000000 0.000000 0.039995 0.000000
# 6 0.000000 0.000000 0.000000 0.000000 0.000000 0.043879
#
#
# Mechanical properties :
#
#
# Convention : Reuss Voigt Hill
#
# Bulk Modulus (GPa) = 36.98453 63.72666 50.35559
# Shear Modulus (GPa) = 37.31839 14.89521 26.10680
#
# Velocity S-wave (km/s) = 4.59884 2.90543 3.84648
# Velocity P-wave (km/s) = 7.01137 6.88266 6.94731
#
# Compressibility (1/GPa) = 0.02703833
#
# Stress axis : x y z
#
# Youngs Moduli (GPa) = 43.67695 63.15196 20.21127
#
# Poissons Ratio (x) = 0.51490 0.19639
# Poissons Ratio (y) = 0.35611 0.25697
# Poissons Ratio (z) = 0.42441 0.80293
#
# Static dielectric constant tensor:
#      x y z
#    x 3.162080 0.000000 0.000000 
#    y 0.000000 3.493230 0.000000 
#    z 0.000000 0.000000 2.997500 
# 
# 
# High freq. dielectric constant tensor:
#      x y z
#    x 1.674360 0.000000 0.000000 
#    y 0.000000 1.700700 0.000000 
#    z 0.000000 0.000000 1.654640 
# 
# From -- ./inp_files/1758.got.cif
#   From: 2010.03.12/outbox.cif.g09.slc.cpg/sg47_1_cif.got.tgz:1758.got - 2010.04.14 03:12:58.
