data_PCOD8197389
_publ_section_title
;
Structure prediction by ZEFSAII (Michael W. Deem and Ramdas Pophale) SiO2 
 PCOD8197389
Probable space group: P M M M
;
_chemical_formula_sum "Si O2"
_cell_formula_units_Z 48
_cell_length_a 20.884220
_cell_length_b 9.230654
_cell_length_c 14.048331
_cell_angle_alpha 90.000000
_cell_angle_beta 90.000000
_cell_angle_gamma 90.000000
_cell_volume 2708.167133
_symmetry_space_group_name_H-M "P M M M"
_symmetry_group_IT_number 47
_symmetry_cell_setting 'orthorhombic'
loop_
_space_group_symop_operation_xyz
x,y,z
-x,-y,z
x,-y,-z
-x,y,-z
-x,-y,-z
x,y,-z
-x,y,z
x,-y,z
loop_
_atom_site_type_symbol
_atom_site_label
_atom_site_fract_x
_atom_site_fract_y
_atom_site_fract_z
Si Si1 0.930761 0.662569 0.386881
Si Si2 0.623518 0.832062 0.889209
Si Si3 0.189660 0.833992 0.394659
Si Si4 0.000000 0.166629 0.113600
Si Si5 0.755194 0.168016 0.797972
Si Si6 0.500000 0.663664 0.886712
Si Si7 0.873776 0.667562 0.887440
O O1 0.929521 0.665729 0.500000
O O2 0.920566 0.500000 0.349309
O O3 0.872808 0.758740 0.348461
O O4 0.000000 0.721995 0.351167
O O5 0.686476 0.778197 0.834223
O O6 0.563349 0.743283 0.848054
O O7 0.609336 0.000000 0.870394
O O8 0.634697 0.800336 0.000000
O O9 0.209179 0.772501 0.500000
O O10 0.245626 0.811415 0.317203
O O11 0.171107 0.000000 0.405535
O O12 0.063382 0.249073 0.152559
O O13 0.000000 0.000000 0.149124
O O14 0.000000 0.173024 0.000000
O O15 0.809737 0.263438 0.845552
O O16 0.766654 0.000000 0.825886
O O17 0.500000 0.500000 0.848698
O O18 0.500000 0.671020 0.000000
O O19 0.878559 0.500000 0.856731
O O20 0.870043 0.683816 0.000000
#
# Coordination Sequence:
#
# PCOD8197389 Si02
#       7
#     8   8   8   4   8   4   8
#     4   8  14  26  44  63  82 108 145 190 242 297
#     4   9  17  30  49  72  99 130 162 193 225 271
#     4   9  18  32  48  67  92 121 156 201 248 290
#     4   9  17  31  51  69  88 121 162 201 241 288
#     4  10  20  33  49  71  97 129 166 200 238 288
#     4   9  17  29  47  73 104 133 156 182 225 279
#     4  10  20  33  49  70  96 124 157 200 246 289
#
# _framework density 17.724164999999999
#
# number of rings (size 3 to 8) (size 9 to 14) (size 15 to 20)
#    0.000    2.833    0.000    2.000    0.000    5.333 
#    1.500    3.333    0.000    0.000    0.000    0.583 
#    0.000    4.667    0.000    0.000    0.000    0.000 
#
# Total GULP energy -595001.818734 kJ/mol
# GULP energy per Si atom -12395.871224 kJ/mol
# Density = 1.768382 g / cm^3
# Si number density = 17.724165 Si / 1000 Ang^3
#
#
#
# Elastic Constant Matrix: (Units=GPa)
#
#
# Indices 1 2 3 4 5 6 
#
# 1 163.4456 74.2562 54.1911 0.0000 0.0000 0.0000
# 2 74.2562 93.3487 28.3248 0.0000 0.0000 0.0000
# 3 54.1911 28.3248 42.3261 0.0000 0.0000 0.0000
# 4 0.0000 0.0000 0.0000 9.9947 0.0000 0.0000
# 5 0.0000 0.0000 0.0000 0.0000 17.0967 0.0000
# 6 0.0000 0.0000 0.0000 0.0000 0.0000 4.9602
#
#
#
# Elastic Compliance Matrix: (Units=1/GPa)
#
#
# Indices 1 2 3 4 5 6 
#
# 1 0.013394 -0.006840 -0.012571 0.000000 0.000000 0.000000
# 2 -0.006840 0.016935 -0.002576 0.000000 0.000000 0.000000
# 3 -0.012571 -0.002576 0.041445 0.000000 0.000000 0.000000
# 4 0.000000 0.000000 0.000000 0.100053 0.000000 0.000000
# 5 0.000000 0.000000 0.000000 0.000000 0.058491 0.000000
# 6 0.000000 0.000000 0.000000 0.000000 0.000000 0.201605
#
#
# Mechanical properties :
#
#
# Convention : Reuss Voigt Hill
#
# Bulk Modulus (GPa) = 35.97090 68.07384 52.02237
# Shear Modulus (GPa) = 10.30583 15.90021 13.10302
#
# Velocity S-wave (km/s) = 2.41396 2.99840 2.72191
# Velocity P-wave (km/s) = 5.30174 7.10478 6.26843
#
# Compressibility (1/GPa) = 0.02780025
#
# Stress axis : x y z
#
# Youngs Moduli (GPa) = 74.66197 59.04937 24.12854
#
# Poissons Ratio (x) = 0.40389 0.30332
# Poissons Ratio (y) = 0.51068 0.06215
# Poissons Ratio (z) = 0.93858 0.15209
#
# Static dielectric constant tensor:
#      x y z
#    x 3.399730 0.000000 0.000000 
#    y 0.000000 3.367380 0.000000 
#    z 0.000000 0.000000 3.220050 
# 
# 
# High freq. dielectric constant tensor:
#      x y z
#    x 1.669370 0.000000 0.000000 
#    y 0.000000 1.685140 0.000000 
#    z 0.000000 0.000000 1.669550 
# 
# From -- ./inp_files/24477.got.cif
#   From: 2010.03.12/outbox.cif.g09.slc.cpg/sg47_13_cif.got.tgz:24477.got - 2010.04.14 03:12:58.
