data_PCOD8197268
_publ_section_title
;
Structure prediction by ZEFSAII (Michael W. Deem and Ramdas Pophale) SiO2 
 PCOD8197268
Probable space group: P M M M
;
_chemical_formula_sum "Si O2"
_cell_formula_units_Z 48
_cell_length_a 15.096581
_cell_length_b 9.255786
_cell_length_c 19.288901
_cell_angle_alpha 90.000000
_cell_angle_beta 90.000000
_cell_angle_gamma 90.000000
_cell_volume 2695.252084
_symmetry_space_group_name_H-M "P M M M"
_symmetry_group_IT_number 47
_symmetry_cell_setting 'orthorhombic'
loop_
_space_group_symop_operation_xyz
x,y,z
-x,-y,z
x,-y,-z
-x,y,-z
-x,-y,-z
x,y,-z
-x,y,z
x,-y,z
loop_
_atom_site_type_symbol
_atom_site_label
_atom_site_fract_x
_atom_site_fract_y
_atom_site_fract_z
Si Si1 0.400159 0.668276 0.500000
Si Si2 0.100212 0.834278 0.081119
Si Si3 0.599740 0.833518 0.222625
Si Si4 0.334462 0.836126 0.628742
Si Si5 0.169374 0.665337 0.332588
Si Si6 0.000000 0.330980 0.578688
Si Si7 0.225934 0.334846 0.818873
O O1 0.384007 0.500000 0.500000
O O2 0.500000 0.716891 0.500000
O O3 0.358877 0.729038 0.568649
O O4 0.172174 0.737991 0.119570
O O5 0.000000 0.784515 0.099404
O O6 0.113320 0.000000 0.103665
O O7 0.117497 0.815777 0.000000
O O8 0.500000 0.787235 0.198306
O O9 0.601148 0.815618 0.305815
O O10 0.676764 0.737376 0.188602
O O11 0.618018 0.000000 0.202462
O O12 0.236615 0.790259 0.648310
O O13 0.335648 0.000000 0.601786
O O14 0.196675 0.500000 0.353169
O O15 0.163069 0.674589 0.249141
O O16 0.082788 0.715078 0.374229
O O17 0.000000 0.500000 0.568116
O O18 0.000000 0.261728 0.500000
O O19 0.244691 0.500000 0.838587
#
# Coordination Sequence:
#
# PCOD8197268 Si02
#       7
#     4   8   8   8   8   4   8
#     4  11  23  35  49  70  95 126 163 205 260 325
#     4   9  19  36  57  81 110 145 183 220 260 312
#     4   9  18  34  55  76 102 139 180 219 261 314
#     4  10  20  34  52  73  99 128 165 215 267 314
#     4   9  19  34  51  74 102 136 177 216 259 311
#     4   9  18  32  51  71  94 135 183 221 258 304
#     4  10  20  32  52  82 114 143 173 219 269 318
#
# _framework density 17.809096
#
# number of rings (size 3 to 8) (size 9 to 14) (size 15 to 20)
#    0.000    2.500    0.000    2.250    2.333    3.667 
#    0.000    1.250    0.000    1.000    0.000    3.500 
#    0.000    0.000    0.000    0.000    0.000    0.000 
#
# Total GULP energy -594856.484847 kJ/mol
# GULP energy per Si atom -12392.843434 kJ/mol
# Density = 1.776856 g / cm^3
# Si number density = 17.809096 Si / 1000 Ang^3
#
#
#
# Elastic Constant Matrix: (Units=GPa)
#
#
# Indices 1 2 3 4 5 6 
#
# 1 114.0308 62.9123 54.4316 0.0000 0.0000 0.0000
# 2 62.9123 144.4554 57.6061 0.0000 0.0000 0.0000
# 3 54.4316 57.6061 72.0899 0.0000 0.0000 0.0000
# 4 0.0000 0.0000 0.0000 29.5553 0.0000 0.0000
# 5 0.0000 0.0000 0.0000 0.0000 -108.5420 0.0000
# 6 0.0000 0.0000 0.0000 0.0000 0.0000 22.3264
#
#
#
# Elastic Compliance Matrix: (Units=1/GPa)
#
#
# Indices 1 2 3 4 5 6 
#
# 1 0.014471 -0.002855 -0.008645 0.000000 0.000000 0.000000
# 2 -0.002855 0.010723 -0.006413 0.000000 0.000000 0.000000
# 3 -0.008645 -0.006413 0.025524 0.000000 0.000000 0.000000
# 4 0.000000 0.000000 0.000000 0.033835 0.000000 0.000000
# 5 0.000000 0.000000 0.000000 0.000000 -0.009213 0.000000
# 6 0.000000 0.000000 0.000000 0.000000 0.000000 0.044790
#
#
# Mechanical properties :
#
#
# Convention : Reuss Voigt Hill
#
# Bulk Modulus (GPa) = 67.15146 75.60846 71.37996
# Shear Modulus (GPa) = 31.07096 -0.95699 15.05699
#
# Velocity S-wave (km/s) = 4.18145 -0.73384 2.91084
# Velocity P-wave (km/s) = 7.81670 6.46754 7.17391
#
# Compressibility (1/GPa) = 0.01489171
#
# Stress axis : x y z
#
# Youngs Moduli (GPa) = 69.10162 93.25388 39.17870
#
# Poissons Ratio (x) = 0.26623 0.33871
# Poissons Ratio (y) = 0.19728 0.25127
# Poissons Ratio (z) = 0.59741 0.59807
#
# Static dielectric constant tensor:
#      x y z
#    x 3.435680 0.000000 0.000000 
#    y 0.000000 3.279360 0.000000 
#    z 0.000000 0.000000 3.184180 
# 
# 
# High freq. dielectric constant tensor:
#      x y z
#    x 1.690810 0.000000 0.000000 
#    y 0.000000 1.687410 0.000000 
#    z 0.000000 0.000000 1.675320 
# 
# From -- ./inp_files/9172.got.cif
#   From: 2010.03.12/outbox.cif.g09.slc.cpg/sg47_5_cif.got.tgz:9172.got - 2010.04.14 03:12:58.
