data_PCOD8197977
_publ_section_title
;
Structure prediction by ZEFSAII (Michael W. Deem and Ramdas Pophale) SiO2 
 PCOD8197977
Probable space group: P M M M
;
_chemical_formula_sum "Si O2"
_cell_formula_units_Z 52
_cell_length_a 9.259674
_cell_length_b 20.684501
_cell_length_c 15.170479
_cell_angle_alpha 90.000000
_cell_angle_beta 90.000000
_cell_angle_gamma 90.000000
_cell_volume 2905.628181
_symmetry_space_group_name_H-M "P M M M"
_symmetry_group_IT_number 47
_symmetry_cell_setting 'orthorhombic'
loop_
_space_group_symop_operation_xyz
x,y,z
-x,-y,z
x,-y,-z
-x,y,-z
-x,-y,-z
x,y,-z
-x,y,z
x,-y,z
loop_
_atom_site_type_symbol
_atom_site_label
_atom_site_fract_x
_atom_site_fract_y
_atom_site_fract_z
Si Si1 0.666838 0.866001 0.841343
Si Si2 0.330180 0.409391 0.763033
Si Si3 0.664573 0.262242 0.746031
Si Si4 0.164878 0.800882 0.405133
Si Si5 0.170912 0.925978 0.000000
Si Si6 0.330926 0.500000 0.603190
Si Si7 0.162861 0.927549 0.310129
Si Si8 0.827607 0.500000 0.104800
O O1 0.500000 0.880205 0.863613
O O2 0.692778 0.789489 0.824060
O O3 0.714198 0.909719 0.759539
O O4 0.770566 0.886668 0.918410
O O5 0.500000 0.423195 0.778027
O O6 0.291860 0.334194 0.772987
O O7 0.286106 0.438014 0.665375
O O8 0.240267 0.438828 0.844265
O O9 0.500000 0.259144 0.715865
O O10 0.756044 0.244284 0.662319
O O11 0.233209 0.786527 0.500000
O O12 0.180274 0.877715 0.389855
O O13 0.000000 0.779713 0.401399
O O14 0.000000 0.924330 0.000000
O O15 0.226924 0.000000 0.000000
O O16 0.500000 0.500000 0.588650
O O17 0.265218 0.500000 0.500000
O O18 0.000000 0.921891 0.269266
O O19 0.190399 0.000000 0.345033
O O20 0.000000 0.500000 0.115991
O O21 0.786818 0.500000 0.000000
#
# Coordination Sequence:
#
# PCOD8197977 Si02
#       8
#     8   8   8   8   4   4   8   4
#     4  10  20  34  51  72  99 127 162 209 259 308
#     4   9  18  34  56  79 105 141 180 213 253 302
#     4   9  19  35  53  74 101 135 173 211 252 302
#     4   9  18  31  47  70 100 134 172 212 255 304
#     4  11  23  37  53  73  97 126 163 206 255 317
#     4   8  14  26  48  79 108 131 165 212 250 286
#     4   9  17  30  48  68  93 128 169 212 257 305
#     4  10  21  37  56  81 112 139 169 210 256 304
#
# _framework density 17.896303
#
# number of rings (size 3 to 8) (size 9 to 14) (size 15 to 20)
#    0.000    2.692    0.000    1.846    0.000    5.846 
#    1.385    3.077    0.000    3.692    0.000    4.308 
#    0.000    0.000    0.000    0.000    0.000    0.000 
#
# Total GULP energy -644254.139230 kJ/mol
# GULP energy per Si atom -12389.502677 kJ/mol
# Density = 1.785557 g / cm^3
# Si number density = 17.896303 Si / 1000 Ang^3
#
#
#
# Elastic Constant Matrix: (Units=GPa)
#
#
# Indices 1 2 3 4 5 6 
#
# 1 63.4560 51.9742 51.0874 0.0000 0.0000 0.0000
# 2 51.9742 132.0757 53.6083 0.0000 0.0000 0.0000
# 3 51.0874 53.6083 122.6280 0.0000 0.0000 0.0000
# 4 0.0000 0.0000 0.0000 13.3341 0.0000 0.0000
# 5 0.0000 0.0000 0.0000 0.0000 7.0099 0.0000
# 6 0.0000 0.0000 0.0000 0.0000 0.0000 22.1439
#
#
#
# Elastic Compliance Matrix: (Units=1/GPa)
#
#
# Indices 1 2 3 4 5 6 
#
# 1 0.029338 -0.008004 -0.008723 0.000000 0.000000 0.000000
# 2 -0.008004 0.011389 -0.001644 0.000000 0.000000 0.000000
# 3 -0.008723 -0.001644 0.012508 0.000000 0.000000 0.000000
# 4 0.000000 0.000000 0.000000 0.074995 0.000000 0.000000
# 5 0.000000 0.000000 0.000000 0.000000 0.142655 0.000000
# 6 0.000000 0.000000 0.000000 0.000000 0.000000 0.045159
#
#
# Mechanical properties :
#
#
# Convention : Reuss Voigt Hill
#
# Bulk Modulus (GPa) = 60.63898 70.16660 65.40279
# Shear Modulus (GPa) = 13.95542 19.26357 16.60950
#
# Velocity S-wave (km/s) = 2.79551 3.28441 3.04977
# Velocity P-wave (km/s) = 6.66160 7.32636 7.00187
#
# Compressibility (1/GPa) = 0.01649104
#
# Stress axis : x y z
#
# Youngs Moduli (GPa) = 34.08569 87.80752 79.95192
#
# Poissons Ratio (x) = 0.70284 0.69743
# Poissons Ratio (y) = 0.27283 0.13144
# Poissons Ratio (z) = 0.29733 0.14435
#
# Static dielectric constant tensor:
#      x y z
#    x 3.275030 0.000000 0.000000 
#    y 0.000000 3.486250 0.000000 
#    z 0.000000 0.000000 3.082620 
# 
# 
# High freq. dielectric constant tensor:
#      x y z
#    x 1.685800 0.000000 0.000000 
#    y 0.000000 1.697250 0.000000 
#    z 0.000000 0.000000 1.683860 
# 
# From -- ./inp_files/7173.got.cif
#   From: 2010.03.12/outbox.cif.g09.slc.cpg/sg47_4_cif.got.tgz:7173.got - 2010.04.14 03:12:58.
