data_PCOD8197524
_publ_section_title
;
Structure prediction by ZEFSAII (Michael W. Deem and Ramdas Pophale) SiO2 
 PCOD8197524
Probable space group: P M M M
;
_chemical_formula_sum "Si O2"
_cell_formula_units_Z 52
_cell_length_a 9.740930
_cell_length_b 33.739923
_cell_length_c 9.009280
_cell_angle_alpha 90.000000
_cell_angle_beta 90.000000
_cell_angle_gamma 90.000000
_cell_volume 2960.974002
_symmetry_space_group_name_H-M "P M M M"
_symmetry_group_IT_number 47
_symmetry_cell_setting 'orthorhombic'
loop_
_space_group_symop_operation_xyz
x,y,z
-x,-y,z
x,-y,-z
-x,y,-z
-x,-y,-z
x,y,-z
-x,y,z
x,-y,z
loop_
_atom_site_type_symbol
_atom_site_label
_atom_site_fract_x
_atom_site_fract_y
_atom_site_fract_z
Si Si1 0.660399 0.145921 0.173441
Si Si2 0.162769 0.000000 0.833117
Si Si3 0.846236 0.543849 0.823454
Si Si4 0.347005 0.387874 0.177299
Si Si5 0.662776 0.225264 0.665331
Si Si6 0.840580 0.079428 0.674684
Si Si7 0.336288 0.301002 0.834581
O O1 0.500000 0.138388 0.206855
O O2 0.707193 0.189096 0.229684
O O3 0.749680 0.114518 0.261833
O O4 0.692768 0.142783 0.000000
O O5 0.214710 0.961111 0.747555
O O6 0.000000 0.000000 0.836070
O O7 0.223092 0.000000 0.000000
O O8 0.795350 0.500000 0.773853
O O9 0.748829 0.577715 0.754628
O O10 0.000000 0.551192 0.764338
O O11 0.844427 0.546501 0.000000
O O12 0.500000 0.395235 0.239226
O O13 0.291818 0.344387 0.227064
O O14 0.348962 0.389095 0.000000
O O15 0.722406 0.218718 0.500000
O O16 0.500000 0.228272 0.659911
O O17 0.723658 0.266312 0.730263
O O18 0.818607 0.076176 0.500000
O O19 0.000000 0.087069 0.714397
O O20 0.500000 0.299488 0.840429
O O21 0.277450 0.294191 0.000000
#
# Coordination Sequence:
#
# PCOD8197524 Si02
#       7
#     8   4   8   8   8   8   8
#     4  10  20  33  50  73 100 129 161 197 236 278
#     4   9  17  31  52  75  98 127 164 202 238 281
#     4   8  13  20  29  43  67  99 130 159 196 244
#     4   8  13  20  31  48  69  95 128 164 201 243
#     4   9  16  26  42  64  89 117 149 184 222 267
#     4  10  20  34  53  76 101 129 161 198 240 284
#     4   8  13  22  36  54  77 105 138 175 213 254
#
# _framework density 17.561789999999998
#
# number of rings (size 3 to 8) (size 9 to 14) (size 15 to 20)
#    0.000    3.154    0.000    3.000    0.000    4.923 
#    0.000    1.923    0.000    3.231    0.000    2.154 
#    0.000    0.615    0.000    7.692    0.000    8.923 
#
# Total GULP energy -644501.246951 kJ/mol
# GULP energy per Si atom -12394.254749 kJ/mol
# Density = 1.752182 g / cm^3
# Si number density = 17.561790 Si / 1000 Ang^3
#
#
#
# Elastic Constant Matrix: (Units=GPa)
#
#
# Indices 1 2 3 4 5 6 
#
# 1 44.2593 54.8244 24.5802 0.0000 0.0000 0.0000
# 2 54.8244 170.3956 48.7004 0.0000 0.0000 0.0000
# 3 24.5802 48.7004 73.3095 0.0000 0.0000 0.0000
# 4 0.0000 0.0000 0.0000 6.4183 0.0000 0.0000
# 5 0.0000 0.0000 0.0000 0.0000 13.9015 0.0000
# 6 0.0000 0.0000 0.0000 0.0000 0.0000 2.5034
#
#
#
# Elastic Compliance Matrix: (Units=1/GPa)
#
#
# Indices 1 2 3 4 5 6 
#
# 1 0.039553 -0.011030 -0.005934 0.000000 0.000000 0.000000
# 2 -0.011030 0.010320 -0.003157 0.000000 0.000000 0.000000
# 3 -0.005934 -0.003157 0.017728 0.000000 0.000000 0.000000
# 4 0.000000 0.000000 0.000000 0.155804 0.000000 0.000000
# 5 0.000000 0.000000 0.000000 0.000000 0.071935 0.000000
# 6 0.000000 0.000000 0.000000 0.000000 0.000000 0.399450
#
#
# Mechanical properties :
#
#
# Convention : Reuss Voigt Hill
#
# Bulk Modulus (GPa) = 36.55344 60.46383 48.50864
# Shear Modulus (GPa) = 6.71905 15.22195 10.97050
#
# Velocity S-wave (km/s) = 1.95813 2.94728 2.50207
# Velocity P-wave (km/s) = 5.09625 6.78866 6.00240
#
# Compressibility (1/GPa) = 0.02735720
#
# Stress axis : x y z
#
# Youngs Moduli (GPa) = 25.28271 96.89975 56.40763
#
# Poissons Ratio (x) = 1.06879 0.33475
# Poissons Ratio (y) = 0.27886 0.17810
# Poissons Ratio (z) = 0.15004 0.30595
#
# Static dielectric constant tensor:
#      x y z
#    x 2.975840 0.000000 0.000000 
#    y 0.000000 3.656220 0.000000 
#    z 0.000000 0.000000 3.129870 
# 
# 
# High freq. dielectric constant tensor:
#      x y z
#    x 1.629230 0.000000 0.000000 
#    y 0.000000 1.698690 0.000000 
#    z 0.000000 0.000000 1.653530 
# 
# From -- ./inp_files/4558.got.cif
#   From: 2010.03.12/outbox.cif.g09.slc.cpg/sg47_3_cif.got.tgz:4558.got - 2010.04.14 03:12:58.
