data_PCOD8197994
_publ_section_title
;
Structure prediction by ZEFSAII (Michael W. Deem and Ramdas Pophale) SiO2 
 PCOD8197994
Probable space group: P M M M
;
_chemical_formula_sum "Si O2"
_cell_formula_units_Z 48
_cell_length_a 7.868538
_cell_length_b 9.239614
_cell_length_c 34.773265
_cell_angle_alpha 90.000000
_cell_angle_beta 90.000000
_cell_angle_gamma 90.000000
_cell_volume 2528.094740
_symmetry_space_group_name_H-M "P M M M"
_symmetry_group_IT_number 47
_symmetry_cell_setting 'orthorhombic'
loop_
_space_group_symop_operation_xyz
x,y,z
-x,-y,z
x,-y,-z
-x,y,-z
-x,-y,-z
x,y,-z
-x,y,z
x,-y,z
loop_
_atom_site_type_symbol
_atom_site_label
_atom_site_fract_x
_atom_site_fract_y
_atom_site_fract_z
Si Si1 0.196159 0.160962 0.621743
Si Si2 0.201106 0.666757 0.694427
Si Si3 0.000000 0.828527 0.179497
Si Si4 0.000000 0.173211 0.093256
Si Si5 0.688659 0.827969 0.956780
Si Si6 0.699366 0.832948 0.458891
Si Si7 0.308799 0.167226 0.768260
O O1 0.272852 0.261882 0.655100
O O2 0.221900 0.236967 0.579770
O O3 0.000000 0.144422 0.630309
O O4 0.281495 0.000000 0.622847
O O5 0.253404 0.500000 0.693633
O O6 0.295522 0.742577 0.729444
O O7 0.000000 0.687163 0.699166
O O8 0.000000 0.764075 0.136497
O O9 0.829398 0.774212 0.201079
O O10 0.000000 0.000000 0.177034
O O11 0.168166 0.234070 0.071893
O O12 0.000000 0.000000 0.093090
O O13 0.500000 0.776174 0.943605
O O14 0.695387 0.000000 0.956502
O O15 0.726408 0.772182 0.000000
O O16 0.763800 0.764777 0.500000
O O17 0.500000 0.813329 0.456417
O O18 0.753129 0.000000 0.459135
O O19 0.500000 0.185706 0.785122
O O20 0.270609 0.000000 0.758478
#
# Coordination Sequence:
#
# PCOD8197994 Si02
#       7
#     8   8   4   4   8   8   8
#     4   9  17  28  45  70  96 121 150 189 235 281
#     4  10  20  34  52  72  96 125 156 196 245 293
#     4   9  18  31  45  64  91 119 155 207 252 292
#     4   9  15  22  35  53  75 109 150 195 245 286
#     4   8  13  20  30  47  74 109 150 195 238 281
#     4   8  14  25  41  62  89 119 150 185 224 269
#     4  10  20  34  53  73  94 125 161 198 247 302
#
# _framework density 18.986629000000001
#
# number of rings (size 3 to 8) (size 9 to 14) (size 15 to 20)
#    0.000    3.000    0.833    1.750    0.000    3.667 
#    0.000    6.667    0.000    0.500    0.000    3.500 
#    0.000    0.000    0.000    0.000    0.000    6.667 
#
# Total GULP energy -594753.668590 kJ/mol
# GULP energy per Si atom -12390.701429 kJ/mol
# Density = 1.894342 g / cm^3
# Si number density = 18.986629 Si / 1000 Ang^3
#
#
#
# Elastic Constant Matrix: (Units=GPa)
#
#
# Indices 1 2 3 4 5 6 
#
# 1 103.1816 22.9959 76.5253 0.0000 0.0000 0.0000
# 2 22.9959 39.9813 34.3726 0.0000 0.0000 0.0000
# 3 76.5253 34.3726 177.4206 0.0000 0.0000 0.0000
# 4 0.0000 0.0000 0.0000 0.3602 0.0000 0.0000
# 5 0.0000 0.0000 0.0000 0.0000 18.6582 0.0000
# 6 0.0000 0.0000 0.0000 0.0000 0.0000 9.3329
#
#
#
# Elastic Compliance Matrix: (Units=1/GPa)
#
#
# Indices 1 2 3 4 5 6 
#
# 1 0.014669 -0.003597 -0.005630 0.000000 0.000000 0.000000
# 2 -0.003597 0.030892 -0.004434 0.000000 0.000000 0.000000
# 3 -0.005630 -0.004434 0.008924 0.000000 0.000000 0.000000
# 4 0.000000 0.000000 0.000000 2.776511 0.000000 0.000000
# 5 0.000000 0.000000 0.000000 0.000000 0.053596 0.000000
# 6 0.000000 0.000000 0.000000 0.000000 0.000000 0.107148
#
#
# Mechanical properties :
#
#
# Convention : Reuss Voigt Hill
#
# Bulk Modulus (GPa) = 36.81378 65.37454 51.09416
# Shear Modulus (GPa) = 1.65119 18.11623 9.88371
#
# Velocity S-wave (km/s) = 0.93357 3.09230 2.28406
# Velocity P-wave (km/s) = 4.53800 6.87433 5.82451
#
# Compressibility (1/GPa) = 0.02716374
#
# Stress axis : x y z
#
# Youngs Moduli (GPa) = 68.17139 32.37085 112.06130
#
# Poissons Ratio (x) = 0.11643 0.63093
# Poissons Ratio (y) = 0.24519 0.49683
# Poissons Ratio (z) = 0.38382 0.14352
#
# Static dielectric constant tensor:
#      x y z
#    x 3.534450 0.000000 0.000000 
#    y 0.000000 2.924290 0.000000 
#    z 0.000000 0.000000 3.782810 
# 
# 
# High freq. dielectric constant tensor:
#      x y z
#    x 1.738460 0.000000 0.000000 
#    y 0.000000 1.661840 0.000000 
#    z 0.000000 0.000000 1.746780 
# 
# From -- ./inp_files/34196.got.cif
#   From: 2010.03.12/outbox.cif.g09.slc.cpg/sg47_18_cif.got.tgz:34196.got - 2010.04.14 03:12:58.
