data_PCOD8197869
_publ_section_title
;
Structure prediction by ZEFSAII (Michael W. Deem and Ramdas Pophale) SiO2 
 PCOD8197869
Probable space group: P M M M
;
_chemical_formula_sum "Si O2"
_cell_formula_units_Z 48
_cell_length_a 9.115484
_cell_length_b 8.643773
_cell_length_c 30.576966
_cell_angle_alpha 90.000000
_cell_angle_beta 90.000000
_cell_angle_gamma 90.000000
_cell_volume 2409.225640
_symmetry_space_group_name_H-M "P M M M"
_symmetry_group_IT_number 47
_symmetry_cell_setting 'orthorhombic'
loop_
_space_group_symop_operation_xyz
x,y,z
-x,-y,z
x,-y,-z
-x,y,-z
-x,-y,-z
x,y,-z
-x,y,z
x,-y,z
loop_
_atom_site_type_symbol
_atom_site_label
_atom_site_fract_x
_atom_site_fract_y
_atom_site_fract_z
Si Si1 0.168614 0.679801 0.211209
Si Si2 0.329554 0.179355 0.292001
Si Si3 0.164736 0.815987 0.048174
Si Si4 0.663388 0.183117 0.869174
Si Si5 0.170068 0.679153 0.627883
Si Si6 0.331185 0.820985 0.550221
O O1 0.184910 0.500000 0.200855
O O2 0.251215 0.717244 0.255835
O O3 0.236858 0.773942 0.171535
O O4 0.000000 0.729300 0.216542
O O5 0.500000 0.223053 0.293007
O O6 0.260908 0.215347 0.338912
O O7 0.306267 0.000000 0.280606
O O8 0.269129 0.747251 0.085946
O O9 0.000000 0.754067 0.056214
O O10 0.164327 0.000000 0.050354
O O11 0.220222 0.762232 0.000000
O O12 0.500000 0.251803 0.863088
O O13 0.656669 0.000000 0.872309
O O14 0.195535 0.500000 0.639084
O O15 0.226457 0.714133 0.579211
O O16 0.000000 0.723419 0.631344
O O17 0.297708 0.780628 0.500000
O O18 0.500000 0.784404 0.561438
O O19 0.296943 0.000000 0.559737
#
# Coordination Sequence:
#
# PCOD8197869 Si02
#       6
#     8   8   8   8   8   8
#     4  11  24  40  58  81 109 142 181 223 269 323
#     4  11  24  41  62  87 112 140 179 225 272 325
#     4   8  14  26  46  73 105 141 180 222 269 319
#     4  10  20  33  52  80 111 143 181 223 269 323
#     4  11  24  39  56  83 118 152 187 227 272 325
#     4   9  19  37  60  85 113 147 190 237 281 327
#
# _framework density 19.923416
#
# number of rings (size 3 to 8) (size 9 to 14) (size 15 to 20)
#    0.000    2.000    0.000    4.500    0.000   12.333 
#    0.000    4.167    0.000    0.500    0.000    3.500 
#    0.000    0.000    0.000    0.000    0.000    0.000 
#
# Total GULP energy -595323.906090 kJ/mol
# GULP energy per Si atom -12402.581377 kJ/mol
# Density = 1.987807 g / cm^3
# Si number density = 19.923416 Si / 1000 Ang^3
#
#
#
# Elastic Constant Matrix: (Units=GPa)
#
#
# Indices 1 2 3 4 5 6 
#
# 1 137.2567 32.0479 60.9518 0.0000 0.0000 0.0000
# 2 32.0479 25.6051 13.6406 0.0000 0.0000 0.0000
# 3 60.9518 13.6406 121.4070 0.0000 0.0000 0.0000
# 4 0.0000 0.0000 0.0000 -0.9353 0.0000 0.0000
# 5 0.0000 0.0000 0.0000 0.0000 42.8223 0.0000
# 6 0.0000 0.0000 0.0000 0.0000 0.0000 25.3596
#
#
#
# Elastic Compliance Matrix: (Units=1/GPa)
#
#
# Indices 1 2 3 4 5 6 
#
# 1 0.012457 -0.013040 -0.004789 0.000000 0.000000 0.000000
# 2 -0.013040 0.055192 0.000346 0.000000 0.000000 0.000000
# 3 -0.004789 0.000346 0.010602 0.000000 0.000000 0.000000
# 4 0.000000 0.000000 0.000000 -1.069189 0.000000 0.000000
# 5 0.000000 0.000000 0.000000 0.000000 0.023352 0.000000
# 6 0.000000 0.000000 0.000000 0.000000 0.000000 0.039433
#
#
# Mechanical properties :
#
#
# Convention : Reuss Voigt Hill
#
# Bulk Modulus (GPa) = 23.10306 55.28327 39.19317
# Shear Modulus (GPa) = -5.68985 25.29122 9.80068
#
# Velocity S-wave (km/s) = -1.69176 3.56676 2.22033
# Velocity P-wave (km/s) = 2.79375 6.69108 5.12716
#
# Compressibility (1/GPa) = 0.04328431
#
# Stress axis : x y z
#
# Youngs Moduli (GPa) = 80.27655 18.11861 94.32084
#
# Poissons Ratio (x) = 0.23627 0.45169
# Poissons Ratio (y) = 1.04682 -0.03261
# Poissons Ratio (z) = 0.38443 -0.00626
#
# Static dielectric constant tensor:
#      x y z
#    x 3.823640 0.000000 0.000000 
#    y 0.000000 3.329560 0.000000 
#    z 0.000000 0.000000 3.783000 
# 
# 
# High freq. dielectric constant tensor:
#      x y z
#    x 1.785020 0.000000 0.000000 
#    y 0.000000 1.752640 0.000000 
#    z 0.000000 0.000000 1.793060 
# 
# From -- ./inp_files/2436.got.cif
#   From: 2010.03.12/outbox.cif.g09.slc.cpg/sg47_2_cif.got.tgz:2436.got - 2010.04.14 03:12:58.
