data_PCOD8197830
_publ_section_title
;
Structure prediction by ZEFSAII (Michael W. Deem and Ramdas Pophale) SiO2 
 PCOD8197830
Probable space group: P M M M
;
_chemical_formula_sum "Si O2"
_cell_formula_units_Z 56
_cell_length_a 14.194130
_cell_length_b 20.805284
_cell_length_c 9.866523
_cell_angle_alpha 90.000000
_cell_angle_beta 90.000000
_cell_angle_gamma 90.000000
_cell_volume 2913.711577
_symmetry_space_group_name_H-M "P M M M"
_symmetry_group_IT_number 47
_symmetry_cell_setting 'orthorhombic'
loop_
_space_group_symop_operation_xyz
x,y,z
-x,-y,z
x,-y,-z
-x,y,-z
-x,-y,-z
x,y,-z
-x,y,z
x,-y,z
loop_
_atom_site_type_symbol
_atom_site_label
_atom_site_fract_x
_atom_site_fract_y
_atom_site_fract_z
Si Si1 0.804209 0.676030 0.346986
Si Si2 0.391339 0.173496 0.851322
Si Si3 0.111907 0.071887 0.846706
Si Si4 0.396802 0.288599 0.650678
Si Si5 0.890018 0.187632 0.343028
Si Si6 0.888717 0.428441 0.848552
Si Si7 0.612050 0.071800 0.649299
O O1 0.840884 0.665434 0.500000
O O2 0.691273 0.663238 0.338119
O O3 0.831731 0.748411 0.300876
O O4 0.850696 0.623692 0.253549
O O5 0.500000 0.155967 0.871078
O O6 0.380747 0.238350 0.768903
O O7 0.341813 0.117141 0.763892
O O8 0.343420 0.179537 0.000000
O O9 0.149240 0.127550 0.745178
O O10 0.000000 0.072237 0.841246
O O11 0.147163 0.000000 0.802863
O O12 0.146104 0.087093 0.000000
O O13 0.393969 0.255963 0.500000
O O14 0.500000 0.322390 0.669807
O O15 0.873371 0.170385 0.500000
O O16 0.000000 0.201233 0.313634
O O17 0.855135 0.500000 0.805321
O O18 0.000000 0.425253 0.846373
O O19 0.851774 0.413038 0.000000
O O20 0.651321 0.089924 0.500000
O O21 0.500000 0.079802 0.646287
O O22 0.641345 0.000000 0.688277
#
# Coordination Sequence:
#
# PCOD8197830 Si02
#       7
#     8   8   8   8   8   8   8
#     4  10  20  33  52  79 107 136 175 220 261 302
#     4   9  16  25  39  60  84 110 145 194 251 306
#     4   8  14  25  41  62  90 126 167 205 241 292
#     4   9  18  33  51  69  93 128 169 213 259 305
#     4   9  17  28  43  68 102 132 158 197 251 307
#     4   9  19  36  57  83 116 150 178 202 236 292
#     4   8  13  21  34  53  77 106 141 183 238 307
#
# _framework density 19.219472
#
# number of rings (size 3 to 8) (size 9 to 14) (size 15 to 20)
#    0.000    3.143    0.000    2.143    0.000    4.571 
#    0.000    5.000    0.000    1.286    0.000    5.000 
#    0.000    0.000    0.000    0.000    0.000    0.000 
#
# Total GULP energy -693843.887294 kJ/mol
# GULP energy per Si atom -12390.069416 kJ/mol
# Density = 1.917573 g / cm^3
# Si number density = 19.219472 Si / 1000 Ang^3
#
#
#
# Elastic Constant Matrix: (Units=GPa)
#
#
# Indices 1 2 3 4 5 6 
#
# 1 44.2158 23.4918 18.7641 0.0000 0.0000 0.0000
# 2 23.4918 115.7715 71.5578 0.0000 0.0000 0.0000
# 3 18.7641 71.5578 126.4448 0.0000 0.0000 0.0000
# 4 0.0000 0.0000 0.0000 32.4740 0.0000 0.0000
# 5 0.0000 0.0000 0.0000 0.0000 12.5166 0.0000
# 6 0.0000 0.0000 0.0000 0.0000 0.0000 3.7039
#
#
#
# Elastic Compliance Matrix: (Units=1/GPa)
#
#
# Indices 1 2 3 4 5 6 
#
# 1 0.025491 -0.004359 -0.001316 0.000000 0.000000 0.000000
# 2 -0.004359 0.014030 -0.007293 0.000000 0.000000 0.000000
# 3 -0.001316 -0.007293 0.012231 0.000000 0.000000 0.000000
# 4 0.000000 0.000000 0.000000 0.030794 0.000000 0.000000
# 5 0.000000 0.000000 0.000000 0.000000 0.079894 0.000000
# 6 0.000000 0.000000 0.000000 0.000000 0.000000 0.269983
#
#
# Mechanical properties :
#
#
# Convention : Reuss Voigt Hill
#
# Bulk Modulus (GPa) = 38.73577 57.11773 47.92675
# Shear Modulus (GPa) = 10.70747 21.24680 15.97714
#
# Velocity S-wave (km/s) = 2.36289 3.32849 2.88635
# Velocity P-wave (km/s) = 5.25762 6.67495 6.00822
#
# Compressibility (1/GPa) = 0.02581593
#
# Stress axis : x y z
#
# Youngs Moduli (GPa) = 39.22992 71.27580 81.75866
#
# Poissons Ratio (x) = 0.31070 0.10758
# Poissons Ratio (y) = 0.17101 0.59627
# Poissons Ratio (z) = 0.05162 0.51981
#
# Static dielectric constant tensor:
#      x y z
#    x 3.380550 0.000000 0.000000 
#    y 0.000000 3.404200 0.000000 
#    z 0.000000 0.000000 3.901480 
# 
# 
# High freq. dielectric constant tensor:
#      x y z
#    x 1.733450 0.000000 0.000000 
#    y 0.000000 1.712480 0.000000 
#    z 0.000000 0.000000 1.754940 
# 
# From -- ./inp_files/7370.got.cif
#   From: 2010.03.12/outbox.cif.g09.slc.cpg/sg47_4_cif.got.tgz:7370.got - 2010.04.14 03:12:58.
