data_PCOD8197554
_publ_section_title
;
Structure prediction by ZEFSAII (Michael W. Deem and Ramdas Pophale) SiO2 
 PCOD8197554
Probable space group: P M M M
;
_chemical_formula_sum "Si O2"
_cell_formula_units_Z 40
_cell_length_a 26.151394
_cell_length_b 8.986553
_cell_length_c 9.445023
_cell_angle_alpha 90.000000
_cell_angle_beta 90.000000
_cell_angle_gamma 90.000000
_cell_volume 2219.683244
_symmetry_space_group_name_H-M "P M M M"
_symmetry_group_IT_number 47
_symmetry_cell_setting 'orthorhombic'
loop_
_space_group_symop_operation_xyz
x,y,z
-x,-y,z
x,-y,-z
-x,y,-z
-x,-y,-z
x,y,-z
-x,y,z
x,-y,z
loop_
_atom_site_type_symbol
_atom_site_label
_atom_site_fract_x
_atom_site_fract_y
_atom_site_fract_z
Si Si1 0.500000 0.336084 0.331115
Si Si2 0.184459 0.674240 0.164054
Si Si3 0.000000 0.822852 0.838666
Si Si4 0.609431 0.321426 0.658633
Si Si5 0.096910 0.823410 0.661861
Si Si6 0.701146 0.676548 0.843783
O O1 0.500000 0.500000 0.263182
O O2 0.500000 0.349225 0.500000
O O3 0.446075 0.258535 0.285186
O O4 0.174717 0.500000 0.185479
O O5 0.148454 0.764718 0.268271
O O6 0.242149 0.718632 0.210110
O O7 0.174690 0.717878 0.000000
O O8 0.049428 0.762725 0.754476
O O9 0.000000 0.000000 0.841371
O O10 0.000000 0.760630 0.000000
O O11 0.618989 0.265883 0.500000
O O12 0.608081 0.500000 0.664709
O O13 0.656354 0.253934 0.747862
O O14 0.092005 0.765948 0.500000
O O15 0.097968 0.000000 0.664390
O O16 0.696434 0.500000 0.846959
O O17 0.693088 0.742160 0.000000
#
# Coordination Sequence:
#
# PCOD8197554 Si02
#       6
#     4   8   4   8   8   8
#     4   7  10  16  25  39  61  89 124 167 208 245
#     4   9  18  32  48  66  90 121 155 188 222 263
#     4   9  17  31  52  73  92 119 152 180 212 261
#     4   8  12  18  29  44  63  92 131 170 207 250
#     4  10  20  33  50  73  98 120 145 182 224 262
#     4   8  14  24  36  51  74 103 135 173 214 253
#
# _framework density 18.020589999999999
#
# number of rings (size 3 to 8) (size 9 to 14) (size 15 to 20)
#    0.000    3.400    0.000    3.300    0.000    3.600 
#    0.000    3.000    0.000    6.000    0.000    0.000 
#    0.000    0.000    0.000    0.900    0.000   18.600 
#
# Total GULP energy -495536.699107 kJ/mol
# GULP energy per Si atom -12388.417478 kJ/mol
# Density = 1.797957 g / cm^3
# Si number density = 18.020590 Si / 1000 Ang^3
#
#
#
# Elastic Constant Matrix: (Units=GPa)
#
#
# Indices 1 2 3 4 5 6 
#
# 1 187.0377 12.6057 93.7319 0.0000 0.0000 0.0000
# 2 12.6057 5.0726 12.1270 0.0000 0.0000 0.0000
# 3 93.7319 12.1270 116.3253 0.0000 0.0000 0.0000
# 4 0.0000 0.0000 0.0000 15.3581 0.0000 0.0000
# 5 0.0000 0.0000 0.0000 0.0000 37.9060 0.0000
# 6 0.0000 0.0000 0.0000 0.0000 0.0000 -7.2010
#
#
#
# Elastic Compliance Matrix: (Units=1/GPa)
#
#
# Indices 1 2 3 4 5 6 
#
# 1 0.009141 -0.006802 -0.006656 0.000000 0.000000 0.000000
# 2 -0.006802 0.267643 -0.022421 0.000000 0.000000 0.000000
# 3 -0.006656 -0.022421 0.016297 0.000000 0.000000 0.000000
# 4 0.000000 0.000000 0.000000 0.065112 0.000000 0.000000
# 5 0.000000 0.000000 0.000000 0.000000 0.026381 0.000000
# 6 0.000000 0.000000 0.000000 0.000000 0.000000 -0.138870
#
#
# Mechanical properties :
#
#
# Convention : Reuss Voigt Hill
#
# Bulk Modulus (GPa) = 4.51830 60.59611 32.55721
# Shear Modulus (GPa) = 12.78000 21.87736 17.32868
#
# Velocity S-wave (km/s) = 2.66595 3.48806 3.10434
# Velocity P-wave (km/s) = 3.46253 7.06549 5.56373
#
# Compressibility (1/GPa) = 0.22132195
#
# Stress axis : x y z
#
# Youngs Moduli (GPa) = 109.40196 3.73632 61.35964
#
# Poissons Ratio (x) = 0.02541 0.40842
# Poissons Ratio (y) = 0.74416 1.37575
# Poissons Ratio (z) = 0.72819 0.08377
#
# Static dielectric constant tensor:
#      x y z
#    x 3.792950 0.000000 0.000000 
#    y 0.000000 2.610210 0.000000 
#    z 0.000000 0.000000 3.455970 
# 
# 
# High freq. dielectric constant tensor:
#      x y z
#    x 1.723240 0.000000 0.000000 
#    y 0.000000 1.620110 0.000000 
#    z 0.000000 0.000000 1.688420 
# 
# From -- ./inp_files/13149.got.cif
#   From: 2010.03.12/outbox.cif.g09.slc.cpg/sg47_7_cif.got.tgz:13149.got - 2010.04.14 03:12:58.
