data_PCOD8197326
_publ_section_title
;
Structure prediction by ZEFSAII (Michael W. Deem and Ramdas Pophale) SiO2 
 PCOD8197326
Probable space group: P M M M
;
_chemical_formula_sum "Si O2"
_cell_formula_units_Z 52
_cell_length_a 14.061700
_cell_length_b 25.618119
_cell_length_c 8.214075
_cell_angle_alpha 90.000000
_cell_angle_beta 90.000000
_cell_angle_gamma 90.000000
_cell_volume 2958.991590
_symmetry_space_group_name_H-M "P M M M"
_symmetry_group_IT_number 47
_symmetry_cell_setting 'orthorhombic'
loop_
_space_group_symop_operation_xyz
x,y,z
-x,-y,z
x,-y,-z
-x,y,-z
-x,-y,-z
x,y,-z
-x,y,z
x,-y,z
loop_
_atom_site_type_symbol
_atom_site_label
_atom_site_fract_x
_atom_site_fract_y
_atom_site_fract_z
Si Si1 0.263868 0.694860 0.816871
Si Si2 0.386758 0.500000 0.183132
Si Si3 0.387923 0.107247 0.820159
Si Si4 0.613368 0.000000 0.316768
Si Si5 0.611127 0.608210 0.684811
Si Si6 0.607601 0.784076 0.313277
Si Si7 0.890230 0.627508 0.685865
Si Si8 0.887725 0.441055 0.000000
O O1 0.342640 0.649829 0.803706
O O2 0.313214 0.749323 0.773327
O O3 0.173181 0.680053 0.704195
O O4 0.226366 0.698447 0.000000
O O5 0.500000 0.500000 0.185420
O O6 0.348042 0.550896 0.275741
O O7 0.347286 0.500000 0.000000
O O8 0.500000 0.099585 0.817935
O O9 0.360106 0.155670 0.704844
O O10 0.342595 0.052316 0.763407
O O11 0.350288 0.120343 0.000000
O O12 0.500000 0.000000 0.302897
O O13 0.648271 0.000000 0.500000
O O14 0.637343 0.622550 0.500000
O O15 0.500000 0.610200 0.717069
O O16 0.605804 0.767929 0.500000
O O17 0.500000 0.776032 0.240564
O O18 0.875199 0.605107 0.500000
O O19 0.856182 0.587777 0.830566
O O20 0.000000 0.642653 0.711164
O O21 0.844779 0.500000 0.000000
O O22 0.000000 0.444618 0.000000
#
# Coordination Sequence:
#
# PCOD8197326 Si02
#       8
#     8   4   8   4   8   8   8   4
#     4  12  23  35  52  73  96 125 162 201 241 292
#     4   9  17  31  49  67  88 115 148 189 235 279
#     4   9  16  26  40  60  87 121 162 206 248 288
#     4   9  15  23  37  57  83 119 162 203 244 289
#     4  10  20  34  50  68  92 121 154 192 233 280
#     4  10  20  33  48  68  97 131 168 210 251 293
#     4  10  21  39  60  80 104 131 160 197 244 298
#     4   9  18  36  60  84 107 127 153 192 240 297
#
# _framework density 17.573554000000001
#
# number of rings (size 3 to 8) (size 9 to 14) (size 15 to 20)
#    0.000    2.077    0.769    3.692    0.000    7.692 
#    1.385    1.538    0.000    0.000    0.000    0.000 
#    0.000    0.000    0.000    0.692    0.000   12.846 
#
# Total GULP energy -644475.083003 kJ/mol
# GULP energy per Si atom -12393.751596 kJ/mol
# Density = 1.753356 g / cm^3
# Si number density = 17.573554 Si / 1000 Ang^3
#
#
#
# Elastic Constant Matrix: (Units=GPa)
#
#
# Indices 1 2 3 4 5 6 
#
# 1 50.9347 30.5402 22.1435 0.0000 0.0000 0.0000
# 2 30.5402 112.5972 31.4085 0.0000 0.0000 0.0000
# 3 22.1435 31.4085 99.9433 0.0000 0.0000 0.0000
# 4 0.0000 0.0000 0.0000 30.5242 0.0000 0.0000
# 5 0.0000 0.0000 0.0000 0.0000 17.4747 0.0000
# 6 0.0000 0.0000 0.0000 0.0000 0.0000 4.3070
#
#
#
# Elastic Compliance Matrix: (Units=1/GPa)
#
#
# Indices 1 2 3 4 5 6 
#
# 1 0.024621 -0.005652 -0.003679 0.000000 0.000000 0.000000
# 2 -0.005652 0.011032 -0.002215 0.000000 0.000000 0.000000
# 3 -0.003679 -0.002215 0.011517 0.000000 0.000000 0.000000
# 4 0.000000 0.000000 0.000000 0.032761 0.000000 0.000000
# 5 0.000000 0.000000 0.000000 0.000000 0.057226 0.000000
# 6 0.000000 0.000000 0.000000 0.000000 0.000000 0.232178
#
#
# Mechanical properties :
#
#
# Convention : Reuss Voigt Hill
#
# Bulk Modulus (GPa) = 41.53005 47.96216 44.74611
# Shear Modulus (GPa) = 12.48590 22.42006 17.45298
#
# Velocity S-wave (km/s) = 2.66840 3.57569 3.15483
# Velocity P-wave (km/s) = 5.75997 6.66325 6.22801
#
# Compressibility (1/GPa) = 0.02407895
#
# Stress axis : x y z
#
# Youngs Moduli (GPa) = 40.61544 90.64559 86.82989
#
# Poissons Ratio (x) = 0.51232 0.31944
# Poissons Ratio (y) = 0.22955 0.19230
# Poissons Ratio (z) = 0.14942 0.20075
#
# Static dielectric constant tensor:
#      x y z
#    x 2.933860 0.000000 0.000000 
#    y 0.000000 3.388930 0.000000 
#    z 0.000000 0.000000 3.470050 
# 
# 
# High freq. dielectric constant tensor:
#      x y z
#    x 1.628570 0.000000 0.000000 
#    y 0.000000 1.671290 0.000000 
#    z 0.000000 0.000000 1.696250 
# 
# From -- ./inp_files/7713.got.cif
#   From: 2010.03.12/outbox.cif.g09.slc.cpg/sg47_4_cif.got.tgz:7713.got - 2010.04.14 03:12:58.
