data_PCOD8197359
_publ_section_title
;
Structure prediction by ZEFSAII (Michael W. Deem and Ramdas Pophale) SiO2 
 PCOD8197359
Probable space group: P M M M
;
_chemical_formula_sum "Si O2"
_cell_formula_units_Z 60
_cell_length_a 23.213435
_cell_length_b 10.738470
_cell_length_c 13.740667
_cell_angle_alpha 90.000000
_cell_angle_beta 90.000000
_cell_angle_gamma 90.000000
_cell_volume 3425.229161
_symmetry_space_group_name_H-M "P M M M"
_symmetry_group_IT_number 47
_symmetry_cell_setting 'orthorhombic'
loop_
_space_group_symop_operation_xyz
x,y,z
-x,-y,z
x,-y,-z
-x,y,-z
-x,-y,-z
x,y,-z
-x,y,z
x,-y,z
loop_
_atom_site_type_symbol
_atom_site_label
_atom_site_fract_x
_atom_site_fract_y
_atom_site_fract_z
Si Si1 0.714753 0.266525 0.390383
Si Si2 0.564379 0.746727 0.205621
Si Si3 0.319321 0.635626 0.192247
Si Si4 0.177690 0.143629 0.701917
Si Si5 0.598091 0.140741 0.608146
Si Si6 0.937071 0.147800 0.610032
Si Si7 0.431808 0.000000 0.107276
Si Si8 0.245663 0.858085 0.110784
O O1 0.714927 0.325213 0.500000
O O2 0.698221 0.365445 0.306498
O O3 0.777330 0.211922 0.368004
O O4 0.667144 0.157411 0.383324
O O5 0.500000 0.709279 0.169291
O O6 0.611188 0.642196 0.178996
O O7 0.563267 0.766583 0.321844
O O8 0.588426 0.875540 0.160958
O O9 0.300343 0.500000 0.150164
O O10 0.292583 0.752260 0.134473
O O11 0.113773 0.198434 0.680512
O O12 0.191947 0.162765 0.816280
O O13 0.179803 0.000000 0.672208
O O14 0.576657 0.171979 0.500000
O O15 0.582828 0.000000 0.636679
O O16 0.924537 0.192743 0.500000
O O17 0.000000 0.199050 0.644236
O O18 0.938806 0.000000 0.613630
O O19 0.500000 0.000000 0.100928
O O20 0.403775 0.000000 0.000000
O O21 0.270572 0.000000 0.125395
O O22 0.224105 0.841032 0.000000
#
# Coordination Sequence:
#
# PCOD8197359 Si02
#       8
#     8   8   8   8   8   8   4   8
#     4   9  17  28  44  65  91 124 161 198 238 282
#     4  10  20  33  49  68  93 121 153 190 230 282
#     4  10  22  36  51  72  97 124 156 193 236 292
#     4   9  15  24  42  67  96 129 168 208 242 284
#     4   9  16  26  42  66  95 122 150 191 240 282
#     4   8  13  20  32  57  97 141 176 202 233 276
#     4   9  18  32  49  69  89 111 142 182 226 271
#     4   9  19  35  54  74  95 121 155 201 254 299
#
# _framework density 17.517075999999999
#
# number of rings (size 3 to 8) (size 9 to 14) (size 15 to 20)
#    0.000    2.867    0.667    1.200    0.933    4.533 
#    0.000    0.667    0.000    0.400    0.000    9.333 
#    0.000    8.533    0.000   34.133    0.000   14.133 
#
# Total GULP energy -743328.479640 kJ/mol
# GULP energy per Si atom -12388.807994 kJ/mol
# Density = 1.747721 g / cm^3
# Si number density = 17.517076 Si / 1000 Ang^3
#
#
#
# Elastic Constant Matrix: (Units=GPa)
#
#
# Indices 1 2 3 4 5 6 
#
# 1 113.8394 28.6478 31.5842 0.0000 0.0000 0.0000
# 2 28.6478 64.7990 23.4501 0.0000 0.0000 0.0000
# 3 31.5842 23.4501 87.4754 0.0000 0.0000 0.0000
# 4 0.0000 0.0000 0.0000 8.3404 0.0000 0.0000
# 5 0.0000 0.0000 0.0000 0.0000 17.0363 0.0000
# 6 0.0000 0.0000 0.0000 0.0000 0.0000 7.1454
#
#
#
# Elastic Compliance Matrix: (Units=1/GPa)
#
#
# Indices 1 2 3 4 5 6 
#
# 1 0.010474 -0.003612 -0.002813 0.000000 0.000000 0.000000
# 2 -0.003612 0.018336 -0.003611 0.000000 0.000000 0.000000
# 3 -0.002813 -0.003611 0.013416 0.000000 0.000000 0.000000
# 4 0.000000 0.000000 0.000000 0.119898 0.000000 0.000000
# 5 0.000000 0.000000 0.000000 0.000000 0.058698 0.000000
# 6 0.000000 0.000000 0.000000 0.000000 0.000000 0.139950
#
#
# Mechanical properties :
#
#
# Convention : Reuss Voigt Hill
#
# Bulk Modulus (GPa) = 45.14290 48.16424 46.65357
# Shear Modulus (GPa) = 12.87897 18.66653 15.77275
#
# Velocity S-wave (km/s) = 2.71444 3.26792 3.00396
# Velocity P-wave (km/s) = 5.97085 6.46486 6.22276
#
# Compressibility (1/GPa) = 0.02215188
#
# Stress axis : x y z
#
# Youngs Moduli (GPa) = 95.47512 54.53676 74.53976
#
# Poissons Ratio (x) = 0.19701 0.20971
# Poissons Ratio (y) = 0.34490 0.26918
# Poissons Ratio (z) = 0.26860 0.19694
#
# Static dielectric constant tensor:
#      x y z
#    x 3.320170 0.000000 0.000000 
#    y 0.000000 2.855340 0.000000 
#    z 0.000000 0.000000 3.399120 
# 
# 
# High freq. dielectric constant tensor:
#      x y z
#    x 1.660050 0.000000 0.000000 
#    y 0.000000 1.630980 0.000000 
#    z 0.000000 0.000000 1.677070 
# 
# From -- ./inp_files/25641.got.cif
#   From: 2010.03.12/outbox.cif.g09.slc.cpg/sg47_13_cif.got.tgz:25641.got - 2010.04.14 03:12:58.
