data_PCOD8197789
_publ_section_title
;
Structure prediction by ZEFSAII (Michael W. Deem and Ramdas Pophale) SiO2 
 PCOD8197789
Probable space group: P M M M
;
_chemical_formula_sum "Si O2"
_cell_formula_units_Z 52
_cell_length_a 9.558970
_cell_length_b 20.324131
_cell_length_c 14.484064
_cell_angle_alpha 90.000000
_cell_angle_beta 90.000000
_cell_angle_gamma 90.000000
_cell_volume 2813.931488
_symmetry_space_group_name_H-M "P M M M"
_symmetry_group_IT_number 47
_symmetry_cell_setting 'orthorhombic'
loop_
_space_group_symop_operation_xyz
x,y,z
-x,-y,z
x,-y,-z
-x,y,-z
-x,-y,-z
x,y,-z
-x,y,z
x,-y,z
loop_
_atom_site_type_symbol
_atom_site_label
_atom_site_fract_x
_atom_site_fract_y
_atom_site_fract_z
Si Si1 0.156255 0.578114 0.101343
Si Si2 0.336074 0.575002 0.729617
Si Si3 0.661868 0.182302 0.709521
Si Si4 0.660317 0.123236 0.895823
Si Si5 0.334096 0.309059 0.397082
Si Si6 0.160515 0.924803 0.393153
Si Si7 0.156459 0.000000 0.108837
O O1 0.158961 0.500000 0.099606
O O2 0.262847 0.603565 0.178621
O O3 0.000000 0.603027 0.125062
O O4 0.201629 0.604723 0.000000
O O5 0.500000 0.580238 0.748148
O O6 0.291438 0.500000 0.706688
O O7 0.287729 0.620658 0.644688
O O8 0.500000 0.174773 0.682521
O O9 0.680910 0.182093 0.821384
O O10 0.722920 0.250137 0.667640
O O11 0.741019 0.120742 0.667026
O O12 0.500000 0.098099 0.894407
O O13 0.759403 0.064540 0.860574
O O14 0.699609 0.147229 0.000000
O O15 0.270149 0.302555 0.500000
O O16 0.500000 0.305976 0.401665
O O17 0.200798 0.916490 0.500000
O O18 0.000000 0.904414 0.377104
O O19 0.184522 0.000000 0.361451
O O20 0.000000 0.000000 0.153227
O O21 0.143950 0.000000 0.000000
#
# Coordination Sequence:
#
# PCOD8197789 Si02
#       7
#     8   8   8   8   8   8   4
#     4   8  14  26  45  69  99 134 165 194 237 292
#     4   9  17  29  48  75 102 129 167 211 252 299
#     4  10  20  33  52  74  96 128 170 207 243 293
#     4   9  18  32  48  68  98 131 162 200 243 287
#     4   9  18  33  51  72 100 130 162 207 260 306
#     4   9  19  35  52  72 100 130 159 198 250 298
#     4   9  17  29  47  71  96 125 162 199 237 282
#
# _framework density 18.479482999999998
#
# number of rings (size 3 to 8) (size 9 to 14) (size 15 to 20)
#    0.000    3.000    0.000    1.615    1.077    3.385 
#    0.000    5.385    0.000    4.154    0.000    4.308 
#    0.000    0.000    0.000    0.000    0.000    0.000 
#
# Total GULP energy -644498.128035 kJ/mol
# GULP energy per Si atom -12394.194770 kJ/mol
# Density = 1.843742 g / cm^3
# Si number density = 18.479483 Si / 1000 Ang^3
#
#
#
# Elastic Constant Matrix: (Units=GPa)
#
#
# Indices 1 2 3 4 5 6 
#
# 1 50.2396 32.6145 40.3952 0.0000 0.0000 0.0000
# 2 32.6145 92.7735 73.7964 0.0000 0.0000 0.0000
# 3 40.3952 73.7964 135.5791 0.0000 0.0000 0.0000
# 4 0.0000 0.0000 0.0000 29.8092 0.0000 0.0000
# 5 0.0000 0.0000 0.0000 0.0000 20.0271 0.0000
# 6 0.0000 0.0000 0.0000 0.0000 0.0000 9.8765
#
#
#
# Elastic Compliance Matrix: (Units=1/GPa)
#
#
# Indices 1 2 3 4 5 6 
#
# 1 0.027734 -0.005603 -0.005214 0.000000 0.000000 0.000000
# 2 -0.005603 0.020141 -0.009294 0.000000 0.000000 0.000000
# 3 -0.005214 -0.009294 0.013988 0.000000 0.000000 0.000000
# 4 0.000000 0.000000 0.000000 0.033547 0.000000 0.000000
# 5 0.000000 0.000000 0.000000 0.000000 0.049932 0.000000
# 6 0.000000 0.000000 0.000000 0.000000 0.000000 0.101250
#
#
# Mechanical properties :
#
#
# Convention : Reuss Voigt Hill
#
# Bulk Modulus (GPa) = 46.20473 63.57828 54.89150
# Shear Modulus (GPa) = 17.00531 20.72830 18.86680
#
# Velocity S-wave (km/s) = 3.03681 3.35280 3.19871
# Velocity P-wave (km/s) = 6.11178 7.03334 6.58869
#
# Compressibility (1/GPa) = 0.02164281
#
# Stress axis : x y z
#
# Youngs Moduli (GPa) = 36.05719 49.64951 71.49123
#
# Poissons Ratio (x) = 0.27817 0.37273
# Poissons Ratio (y) = 0.20202 0.66442
# Poissons Ratio (z) = 0.18799 0.46143
#
# Static dielectric constant tensor:
#      x y z
#    x 3.324650 0.000000 0.000000 
#    y 0.000000 3.221610 0.000000 
#    z 0.000000 0.000000 3.736030 
# 
# 
# High freq. dielectric constant tensor:
#      x y z
#    x 1.695500 0.000000 0.000000 
#    y 0.000000 1.688660 0.000000 
#    z 0.000000 0.000000 1.728240 
# 
# From -- ./inp_files/21397.got.cif
#   From: 2010.03.12/outbox.cif.g09.slc.cpg/sg47_11_cif.got.tgz:21397.got - 2010.04.14 03:12:58.
