data_PCOD8197040
_publ_section_title
;
Structure prediction by ZEFSAII (Michael W. Deem and Ramdas Pophale) SiO2 
 PCOD8197040
Probable space group: P M M M
;
_chemical_formula_sum "Si O2"
_cell_formula_units_Z 32
_cell_length_a 22.173444
_cell_length_b 9.770173
_cell_length_c 8.231810
_cell_angle_alpha 90.000000
_cell_angle_beta 90.000000
_cell_angle_gamma 90.000000
_cell_volume 1783.326015
_symmetry_space_group_name_H-M "P M M M"
_symmetry_group_IT_number 47
_symmetry_cell_setting 'orthorhombic'
loop_
_space_group_symop_operation_xyz
x,y,z
-x,-y,z
x,-y,-z
-x,y,-z
-x,-y,-z
x,y,-z
-x,y,z
x,-y,z
loop_
_atom_site_type_symbol
_atom_site_label
_atom_site_fract_x
_atom_site_fract_y
_atom_site_fract_z
Si Si1 0.138106 0.837480 0.318720
Si Si2 0.931288 0.162971 0.000000
Si Si3 0.725039 0.153477 0.687688
Si Si4 0.623987 0.651273 0.187816
Si Si5 0.500000 0.656417 0.689086
O O1 0.117199 0.783944 0.500000
O O2 0.098888 0.779128 0.167162
O O3 0.206911 0.792867 0.286751
O O4 0.133633 0.000000 0.322437
O O5 0.000000 0.213206 0.000000
O O6 0.926280 0.000000 0.000000
O O7 0.707676 0.152802 0.500000
O O8 0.681080 0.254979 0.779023
O O9 0.718276 0.000000 0.759392
O O10 0.632151 0.500000 0.270488
O O11 0.562029 0.724760 0.247357
O O12 0.618218 0.629614 0.000000
O O13 0.500000 0.500000 0.750785
O O14 0.500000 0.671279 0.500000
#
# Coordination Sequence:
#
# PCOD8197040 Si02
#       5
#     8   4   8   8   4
#     4   8  15  27  41  60  89 122 156 195 236 280
#     4   9  16  24  38  62  89 122 161 192 228 281
#     4   9  18  32  49  69  93 125 163 197 235 284
#     4  10  20  32  48  72  98 122 153 195 240 286
#     4   9  17  31  50  67  88 123 158 190 236 287
#
# _framework density 17.943999000000002
#
# number of rings (size 3 to 8) (size 9 to 14) (size 15 to 20)
#    0.000    3.000    0.000    2.625    1.750    4.000 
#    0.000    3.125    0.000    3.750    0.000    0.000 
#    0.000    2.000    0.000    5.500    0.000    5.500 
#
# Total GULP energy -396483.241905 kJ/mol
# GULP energy per Si atom -12390.101310 kJ/mol
# Density = 1.790316 g / cm^3
# Si number density = 17.943999 Si / 1000 Ang^3
#
#
#
# Elastic Constant Matrix: (Units=GPa)
#
#
# Indices 1 2 3 4 5 6 
#
# 1 129.0847 28.2889 73.7754 0.0000 0.0000 0.0000
# 2 28.2889 30.5954 18.8577 0.0000 0.0000 0.0000
# 3 73.7754 18.8577 112.1448 0.0000 0.0000 0.0000
# 4 0.0000 0.0000 0.0000 15.3044 0.0000 0.0000
# 5 0.0000 0.0000 0.0000 0.0000 36.8920 0.0000
# 6 0.0000 0.0000 0.0000 0.0000 0.0000 -17.7793
#
#
#
# Elastic Compliance Matrix: (Units=1/GPa)
#
#
# Indices 1 2 3 4 5 6 
#
# 1 0.014015 -0.008117 -0.007855 0.000000 0.000000 0.000000
# 2 -0.008117 0.041165 -0.001582 0.000000 0.000000 0.000000
# 3 -0.007855 -0.001582 0.014351 0.000000 0.000000 0.000000
# 4 0.000000 0.000000 0.000000 0.065341 0.000000 0.000000
# 5 0.000000 0.000000 0.000000 0.000000 0.027106 0.000000
# 6 0.000000 0.000000 0.000000 0.000000 0.000000 -0.056245
#
#
# Mechanical properties :
#
#
# Convention : Reuss Voigt Hill
#
# Bulk Modulus (GPa) = 29.05112 57.07432 43.06272
# Shear Modulus (GPa) = 32.82681 16.94364 24.88522
#
# Velocity S-wave (km/s) = 4.28179 3.07620 3.72805
# Velocity P-wave (km/s) = 6.37731 6.67033 6.52546
#
# Compressibility (1/GPa) = 0.03442208
#
# Stress axis : x y z
#
# Youngs Moduli (GPa) = 71.35202 24.29250 69.68363
#
# Poissons Ratio (x) = 0.19718 0.54736
# Poissons Ratio (y) = 0.57916 0.11026
# Poissons Ratio (z) = 0.56047 0.03844
#
# Static dielectric constant tensor:
#      x y z
#    x 3.341210 0.000000 0.000000 
#    y 0.000000 2.856380 0.000000 
#    z 0.000000 0.000000 3.550470 
# 
# 
# High freq. dielectric constant tensor:
#      x y z
#    x 1.700320 0.000000 0.000000 
#    y 0.000000 1.623570 0.000000 
#    z 0.000000 0.000000 1.707910 
# 
# From -- ./inp_files/1283.got.cif
#   From: 2010.03.12/outbox.cif.g09.slc.cpg/sg47_1_cif.got.tgz:1283.got - 2010.04.14 03:12:58.
