data_PCOD8197416
_publ_section_title
;
Structure prediction by ZEFSAII (Michael W. Deem and Ramdas Pophale) SiO2 
 PCOD8197416
Probable space group: P M M M
;
_chemical_formula_sum "Si O2"
_cell_formula_units_Z 48
_cell_length_a 32.883984
_cell_length_b 9.331389
_cell_length_c 7.954343
_cell_angle_alpha 90.000000
_cell_angle_beta 90.000000
_cell_angle_gamma 90.000000
_cell_volume 2440.815974
_symmetry_space_group_name_H-M "P M M M"
_symmetry_group_IT_number 47
_symmetry_cell_setting 'orthorhombic'
loop_
_space_group_symop_operation_xyz
x,y,z
-x,-y,z
x,-y,-z
-x,y,-z
-x,-y,-z
x,y,-z
-x,y,z
x,-y,z
loop_
_atom_site_type_symbol
_atom_site_label
_atom_site_fract_x
_atom_site_fract_y
_atom_site_fract_z
Si Si1 0.924883 0.158353 0.193365
Si Si2 0.000000 0.338430 0.798909
Si Si3 0.399315 0.830826 0.807436
Si Si4 0.545530 0.829826 0.500000
Si Si5 0.852004 0.662190 0.691196
Si Si6 0.679211 0.659309 0.800496
Si Si7 0.233332 0.329972 0.186298
O O1 0.960265 0.256722 0.273715
O O2 0.881261 0.233794 0.206662
O O3 0.923964 0.000000 0.278789
O O4 0.935500 0.138368 0.000000
O O5 0.000000 0.500000 0.726906
O O6 0.000000 0.343387 0.000000
O O7 0.432834 0.777033 0.672663
O O8 0.356821 0.764214 0.745543
O O9 0.394294 0.000000 0.799884
O O10 0.410775 0.783303 0.000000
O O11 0.500000 0.766055 0.500000
O O12 0.544440 0.000000 0.500000
O O13 0.866073 0.666068 0.500000
O O14 0.855342 0.500000 0.763815
O O15 0.805433 0.718262 0.703800
O O16 0.670229 0.500000 0.728116
O O17 0.723089 0.720438 0.735089
O O18 0.682466 0.651295 0.000000
O O19 0.236121 0.500000 0.177498
O O20 0.226867 0.265643 0.000000
#
# Coordination Sequence:
#
# PCOD8197416 Si02
#       7
#     8   4   8   4   8   8   8
#     4  10  20  34  53  76 101 129 161 199 245 296
#     4   9  17  31  54  81 102 121 154 202 250 295
#     4   9  17  30  49  72  97 126 162 206 253 299
#     4   9  18  32  49  71  99 129 165 209 253 302
#     4  10  20  33  49  71 100 132 166 204 243 286
#     4   8  14  27  48  72  98 128 161 198 244 296
#     4   8  14  27  48  71  95 126 164 203 241 285
#
# _framework density 19.665552999999999
#
# number of rings (size 3 to 8) (size 9 to 14) (size 15 to 20)
#    0.000    3.000    0.000    2.250    0.000    3.333 
#    1.500    3.333    0.000    6.500    0.000    2.333 
#    0.000    0.000    0.000    0.000    0.000    0.000 
#
# Total GULP energy -594781.425379 kJ/mol
# GULP energy per Si atom -12391.279695 kJ/mol
# Density = 1.962079 g / cm^3
# Si number density = 19.665553 Si / 1000 Ang^3
#
#
#
# Elastic Constant Matrix: (Units=GPa)
#
#
# Indices 1 2 3 4 5 6 
#
# 1 181.6730 60.3517 37.3662 0.0000 0.0000 0.0000
# 2 60.3517 79.3775 20.2585 0.0000 0.0000 0.0000
# 3 37.3662 20.2585 52.0982 0.0000 0.0000 0.0000
# 4 0.0000 0.0000 0.0000 9.6770 0.0000 0.0000
# 5 0.0000 0.0000 0.0000 0.0000 4.1305 0.0000
# 6 0.0000 0.0000 0.0000 0.0000 0.0000 26.7472
#
#
#
# Elastic Compliance Matrix: (Units=1/GPa)
#
#
# Indices 1 2 3 4 5 6 
#
# 1 0.007968 -0.005106 -0.003729 0.000000 0.000000 0.000000
# 2 -0.005106 0.017258 -0.003049 0.000000 0.000000 0.000000
# 3 -0.003729 -0.003049 0.023055 0.000000 0.000000 0.000000
# 4 0.000000 0.000000 0.000000 0.103338 0.000000 0.000000
# 5 0.000000 0.000000 0.000000 0.000000 0.242100 0.000000
# 6 0.000000 0.000000 0.000000 0.000000 0.000000 0.037387
#
#
# Mechanical properties :
#
#
# Convention : Reuss Voigt Hill
#
# Bulk Modulus (GPa) = 40.79503 61.01128 50.90316
# Shear Modulus (GPa) = 10.79810 21.12244 15.96027
#
# Velocity S-wave (km/s) = 2.34580 3.28088 2.85192
# Velocity P-wave (km/s) = 5.30344 6.74122 6.06508
#
# Compressibility (1/GPa) = 0.02451279
#
# Stress axis : x y z
#
# Youngs Moduli (GPa) = 125.50750 57.94278 43.37527
#
# Poissons Ratio (x) = 0.29587 0.16175
# Poissons Ratio (y) = 0.64086 0.13224
# Poissons Ratio (z) = 0.46803 0.17665
#
# Static dielectric constant tensor:
#      x y z
#    x 3.914920 0.000000 0.000000 
#    y 0.000000 3.406680 0.000000 
#    z 0.000000 0.000000 3.340070 
# 
# 
# High freq. dielectric constant tensor:
#      x y z
#    x 1.776370 0.000000 0.000000 
#    y 0.000000 1.729920 0.000000 
#    z 0.000000 0.000000 1.740190 
# 
# From -- ./inp_files/13943.got.cif
#   From: 2010.03.12/outbox.cif.g09.slc.cpg/sg47_7_cif.got.tgz:13943.got - 2010.04.14 03:12:58.
