data_PCOD8197202
_publ_section_title
;
Structure prediction by ZEFSAII (Michael W. Deem and Ramdas Pophale) SiO2 
 PCOD8197202
Probable space group: P M M M
;
_chemical_formula_sum "Si O2"
_cell_formula_units_Z 52
_cell_length_a 14.399595
_cell_length_b 9.014709
_cell_length_c 22.712896
_cell_angle_alpha 90.000000
_cell_angle_beta 90.000000
_cell_angle_gamma 90.000000
_cell_volume 2948.319207
_symmetry_space_group_name_H-M "P M M M"
_symmetry_group_IT_number 47
_symmetry_cell_setting 'orthorhombic'
loop_
_space_group_symop_operation_xyz
x,y,z
-x,-y,z
x,-y,-z
-x,y,-z
-x,-y,-z
x,y,-z
-x,y,z
x,-y,z
loop_
_atom_site_type_symbol
_atom_site_label
_atom_site_fract_x
_atom_site_fract_y
_atom_site_fract_z
Si Si1 0.780769 0.828352 0.931281
Si Si2 0.895433 0.323918 0.500000
Si Si3 0.782012 0.676242 0.386937
Si Si4 0.601417 0.334234 0.930173
Si Si5 0.890750 0.333833 0.164517
Si Si6 0.107947 0.825653 0.717287
Si Si7 0.394550 0.827117 0.568063
O O1 0.678786 0.780780 0.907992
O O2 0.856652 0.735748 0.896370
O O3 0.794983 0.000000 0.918006
O O4 0.793294 0.791301 0.000000
O O5 0.899072 0.500000 0.500000
O O6 0.841291 0.266135 0.557313
O O7 0.000000 0.258305 0.500000
O O8 0.782290 0.500000 0.382128
O O9 0.828693 0.743633 0.329653
O O10 0.676143 0.732022 0.392523
O O11 0.500000 0.285962 0.905589
O O12 0.626010 0.500000 0.907825
O O13 0.597954 0.333503 0.000000
O O14 0.850768 0.500000 0.172476
O O15 0.859141 0.232890 0.219213
O O16 0.000000 0.338307 0.160239
O O17 0.000000 0.786523 0.705555
O O18 0.125750 0.000000 0.714268
O O19 0.381307 0.782967 0.500000
O O20 0.500000 0.790202 0.587853
O O21 0.373480 0.000000 0.577359
#
# Coordination Sequence:
#
# PCOD8197202 Si02
#       7
#     8   4   8   8   8   8   8
#     4  10  20  32  49  76 108 139 170 209 259 312
#     4   9  18  30  44  69 106 140 167 203 252 299
#     4  11  20  32  52  78 107 139 174 215 260 305
#     4   8  14  26  45  69  98 132 168 205 245 292
#     4  10  21  37  56  76  99 132 175 219 260 306
#     4  10  21  37  56  77 102 135 174 214 257 311
#     4   9  18  33  52  74 104 141 178 218 263 311
#
# _framework density 17.637167999999999
#
# number of rings (size 3 to 8) (size 9 to 14) (size 15 to 20)
#    0.000    2.385    0.769    3.231    0.000    4.308 
#    0.000    3.846    0.000    2.769    0.000    0.000 
#    0.000    0.000    0.000    0.000    0.000    0.000 
#
# Total GULP energy -644758.183010 kJ/mol
# GULP energy per Si atom -12399.195827 kJ/mol
# Density = 1.759702 g / cm^3
# Si number density = 17.637168 Si / 1000 Ang^3
#
#
#
# Elastic Constant Matrix: (Units=GPa)
#
#
# Indices 1 2 3 4 5 6 
#
# 1 82.0866 51.5508 52.2497 0.0000 0.0000 0.0000
# 2 51.5508 95.3524 47.9157 0.0000 0.0000 0.0000
# 3 52.2497 47.9157 80.3284 0.0000 0.0000 0.0000
# 4 0.0000 0.0000 0.0000 28.5500 0.0000 0.0000
# 5 0.0000 0.0000 0.0000 0.0000 13.9277 0.0000
# 6 0.0000 0.0000 0.0000 0.0000 0.0000 31.1132
#
#
#
# Elastic Compliance Matrix: (Units=1/GPa)
#
#
# Indices 1 2 3 4 5 6 
#
# 1 0.023879 -0.007290 -0.011184 0.000000 0.000000 0.000000
# 2 -0.007290 0.017202 -0.005519 0.000000 0.000000 0.000000
# 3 -0.011184 -0.005519 0.023016 0.000000 0.000000 0.000000
# 4 0.000000 0.000000 0.000000 0.035026 0.000000 0.000000
# 5 0.000000 0.000000 0.000000 0.000000 0.071799 0.000000
# 6 0.000000 0.000000 0.000000 0.000000 0.000000 0.032141
#
#
# Mechanical properties :
#
#
# Convention : Reuss Voigt Hill
#
# Bulk Modulus (GPa) = 62.06978 62.35554 62.21266
# Shear Modulus (GPa) = 19.49934 21.78827 20.64381
#
# Velocity S-wave (km/s) = 3.32864 3.51858 3.42493
# Velocity P-wave (km/s) = 7.07404 7.20684 7.14075
#
# Compressibility (1/GPa) = 0.01611090
#
# Stress axis : x y z
#
# Youngs Moduli (GPa) = 41.87791 58.13252 43.44878
#
# Poissons Ratio (x) = 0.42378 0.48592
# Poissons Ratio (y) = 0.30528 0.23981
# Poissons Ratio (z) = 0.46835 0.32085
#
# Static dielectric constant tensor:
#      x y z
#    x 3.435920 0.000000 0.000000 
#    y 0.000000 3.310540 0.000000 
#    z 0.000000 0.000000 3.093680 
# 
# 
# High freq. dielectric constant tensor:
#      x y z
#    x 1.684630 0.000000 0.000000 
#    y 0.000000 1.685090 0.000000 
#    z 0.000000 0.000000 1.655110 
# 
# From -- ./inp_files/30885.got.cif
#   From: 2010.03.12/outbox.cif.g09.slc.cpg/sg47_16_cif.got.tgz:30885.got - 2010.04.14 03:12:58.
