data_PCOD8197717
_publ_section_title
;
Structure prediction by ZEFSAII (Michael W. Deem and Ramdas Pophale) SiO2 
 PCOD8197717
Probable space group: P M M M
;
_chemical_formula_sum "Si O2"
_cell_formula_units_Z 40
_cell_length_a 19.414748
_cell_length_b 9.193136
_cell_length_c 12.712563
_cell_angle_alpha 90.000000
_cell_angle_beta 90.000000
_cell_angle_gamma 90.000000
_cell_volume 2268.968993
_symmetry_space_group_name_H-M "P M M M"
_symmetry_group_IT_number 47
_symmetry_cell_setting 'orthorhombic'
loop_
_space_group_symop_operation_xyz
x,y,z
-x,-y,z
x,-y,-z
-x,y,-z
-x,-y,-z
x,y,-z
-x,y,z
x,-y,z
loop_
_atom_site_type_symbol
_atom_site_label
_atom_site_fract_x
_atom_site_fract_y
_atom_site_fract_z
Si Si1 0.081412 0.158452 0.500000
Si Si2 0.822481 0.334017 0.878400
Si Si3 0.418084 0.664826 0.500000
Si Si4 0.664093 0.332674 0.878252
Si Si5 0.419160 0.168644 0.705845
Si Si6 0.077626 0.173501 0.274262
O O1 0.101105 0.237641 0.389628
O O2 0.000000 0.136988 0.500000
O O3 0.117160 0.000000 0.500000
O O4 0.840535 0.500000 0.850934
O O5 0.743401 0.301007 0.850842
O O6 0.870746 0.228753 0.813122
O O7 0.836667 0.302082 0.000000
O O8 0.389935 0.500000 0.500000
O O9 0.500000 0.668308 0.500000
O O10 0.390448 0.746530 0.396279
O O11 0.645803 0.500000 0.853352
O O12 0.617008 0.227556 0.809942
O O13 0.649320 0.298206 0.000000
O O14 0.500000 0.194569 0.719774
O O15 0.401480 0.000000 0.690776
O O16 0.000000 0.225422 0.246968
O O17 0.080324 0.000000 0.278301
#
# Coordination Sequence:
#
# PCOD8197717 Si02
#       6
#     4   8   4   8   8   8
#     4   7  12  26  46  67  94 125 153 187 234 281
#     4   9  19  35  51  68  95 130 164 200 244 289
#     4   9  17  31  52  75 100 133 169 201 238 287
#     4   9  19  36  54  70  93 130 173 209 243 293
#     4  10  20  33  51  77 106 131 159 201 251 299
#     4   9  17  30  50  74  97 124 161 201 240 289
#
# _framework density 17.629154
#
# number of rings (size 3 to 8) (size 9 to 14) (size 15 to 20)
#    0.000    3.000    0.000    3.300    0.000    5.200 
#    0.000    7.500    0.000    6.600    0.000    0.000 
#    0.000    0.000    0.000    0.000    0.000    0.000 
#
# Total GULP energy -495781.314652 kJ/mol
# GULP energy per Si atom -12394.532866 kJ/mol
# Density = 1.758903 g / cm^3
# Si number density = 17.629154 Si / 1000 Ang^3
#
#
#
# Elastic Constant Matrix: (Units=GPa)
#
#
# Indices 1 2 3 4 5 6 
#
# 1 55.8755 45.0372 54.8999 0.0000 0.0000 0.0000
# 2 45.0372 84.6467 61.6727 0.0000 0.0000 0.0000
# 3 54.8999 61.6727 114.4556 0.0000 0.0000 0.0000
# 4 0.0000 0.0000 0.0000 30.6283 0.0000 0.0000
# 5 0.0000 0.0000 0.0000 0.0000 -15.4411 0.0000
# 6 0.0000 0.0000 0.0000 0.0000 0.0000 29.6030
#
#
#
# Elastic Compliance Matrix: (Units=1/GPa)
#
#
# Indices 1 2 3 4 5 6 
#
# 1 0.040166 -0.012074 -0.012760 0.000000 0.000000 0.000000
# 2 -0.012074 0.023079 -0.006644 0.000000 0.000000 0.000000
# 3 -0.012760 -0.006644 0.018438 0.000000 0.000000 0.000000
# 4 0.000000 0.000000 0.000000 0.032650 0.000000 0.000000
# 5 0.000000 0.000000 0.000000 0.000000 -0.064762 0.000000
# 6 0.000000 0.000000 0.000000 0.000000 0.000000 0.033780
#
#
# Mechanical properties :
#
#
# Convention : Reuss Voigt Hill
#
# Bulk Modulus (GPa) = 53.40196 64.24415 58.82306
# Shear Modulus (GPa) = 32.77614 15.18258 23.97936
#
# Velocity S-wave (km/s) = 4.31652 2.93784 3.69210
# Velocity P-wave (km/s) = 7.42972 6.93029 7.18435
#
# Compressibility (1/GPa) = 0.01872590
#
# Stress axis : x y z
#
# Youngs Moduli (GPa) = 24.89639 43.32978 54.23607
#
# Poissons Ratio (x) = 0.52316 0.69208
# Poissons Ratio (y) = 0.30060 0.36036
# Poissons Ratio (z) = 0.31769 0.28790
#
# Static dielectric constant tensor:
#      x y z
#    x 3.003370 0.000000 0.000000 
#    y 0.000000 3.126790 0.000000 
#    z 0.000000 0.000000 3.498190 
# 
# 
# High freq. dielectric constant tensor:
#      x y z
#    x 1.656320 0.000000 0.000000 
#    y 0.000000 1.669820 0.000000 
#    z 0.000000 0.000000 1.696530 
# 
# From -- ./inp_files/4072.got.cif
#   From: 2010.03.12/outbox.cif.g09.slc.cpg/sg47_3_cif.got.tgz:4072.got - 2010.04.14 03:12:58.
