data_PCOD8197964
_publ_section_title
;
Structure prediction by ZEFSAII (Michael W. Deem and Ramdas Pophale) SiO2 
 PCOD8197964
Probable space group: P M M M
;
_chemical_formula_sum "Si O2"
_cell_formula_units_Z 52
_cell_length_a 27.987617
_cell_length_b 11.843696
_cell_length_c 9.271668
_cell_angle_alpha 90.000000
_cell_angle_beta 90.000000
_cell_angle_gamma 90.000000
_cell_volume 3073.343094
_symmetry_space_group_name_H-M "P M M M"
_symmetry_group_IT_number 47
_symmetry_cell_setting 'orthorhombic'
loop_
_space_group_symop_operation_xyz
x,y,z
-x,-y,z
x,-y,-z
-x,y,-z
-x,-y,-z
x,y,-z
-x,y,z
x,-y,z
loop_
_atom_site_type_symbol
_atom_site_label
_atom_site_fract_x
_atom_site_fract_y
_atom_site_fract_z
Si Si1 0.447843 0.365827 0.662822
Si Si2 0.781692 0.500000 0.661274
Si Si3 0.188958 0.867774 0.667519
Si Si4 0.642012 0.628484 0.166487
Si Si5 0.255944 0.286907 0.830268
Si Si6 0.106136 0.500000 0.658877
Si Si7 0.907003 0.744293 0.672552
Si Si8 0.000000 0.127012 0.328023
O O1 0.440825 0.323841 0.500000
O O2 0.500000 0.324074 0.720179
O O3 0.446444 0.500000 0.671190
O O4 0.404011 0.316932 0.755375
O O5 0.758405 0.500000 0.500000
O O6 0.767856 0.608978 0.750586
O O7 0.837644 0.500000 0.642783
O O8 0.198500 0.839001 0.500000
O O9 0.234223 0.826855 0.761727
O O10 0.141150 0.806206 0.725057
O O11 0.182040 0.000000 0.691624
O O12 0.653467 0.500000 0.219376
O O13 0.687212 0.708528 0.198210
O O14 0.629080 0.626083 0.000000
O O15 0.244726 0.293457 0.000000
O O16 0.082569 0.500000 0.500000
O O17 0.090119 0.383599 0.737336
O O18 0.906473 0.740747 0.500000
O O19 0.952852 0.811158 0.731761
O O20 0.000000 0.127330 0.500000
O O21 0.000000 0.000000 0.268123
#
# Coordination Sequence:
#
# PCOD8197964 Si02
#       8
#     8   4   8   8   8   4   8   4
#     4   8  14  24  37  56  84 118 157 197 232 271
#     4  11  19  31  50  71  96 127 162 196 240 294
#     4  10  20  34  51  70  94 126 164 203 242 290
#     4   9  17  28  40  59  89 122 156 193 234 281
#     4  11  21  33  48  70 100 128 161 204 245 288
#     4   9  16  26  43  66  92 119 151 192 239 288
#     4   9  16  27  43  66  94 123 156 197 244 294
#     4   9  16  25  39  61  92 128 160 196 248 295
#
# _framework density 16.919687
#
# number of rings (size 3 to 8) (size 9 to 14) (size 15 to 20)
#    0.000    2.538    2.308    1.615    0.000    4.000 
#    0.000    3.077    0.000    0.000    0.000    0.538 
#    0.000    3.692    0.000    6.769    0.000    5.231 
#
# Total GULP energy -644487.841709 kJ/mol
# GULP energy per Si atom -12393.996956 kJ/mol
# Density = 1.688118 g / cm^3
# Si number density = 16.919687 Si / 1000 Ang^3
#
#
#
# Elastic Constant Matrix: (Units=GPa)
#
#
# Indices 1 2 3 4 5 6 
#
# 1 136.5927 56.3920 46.2021 0.0000 0.0000 0.0000
# 2 56.3920 102.5847 31.3767 0.0000 0.0000 0.0000
# 3 46.2021 31.3767 52.7988 0.0000 0.0000 0.0000
# 4 0.0000 0.0000 0.0000 17.1614 0.0000 0.0000
# 5 0.0000 0.0000 0.0000 0.0000 6.5357 0.0000
# 6 0.0000 0.0000 0.0000 0.0000 0.0000 14.7471
#
#
#
# Elastic Compliance Matrix: (Units=1/GPa)
#
#
# Indices 1 2 3 4 5 6 
#
# 1 0.011602 -0.004000 -0.007776 0.000000 0.000000 0.000000
# 2 -0.004000 0.013292 -0.004399 0.000000 0.000000 0.000000
# 3 -0.007776 -0.004399 0.028359 0.000000 0.000000 0.000000
# 4 0.000000 0.000000 0.000000 0.058270 0.000000 0.000000
# 5 0.000000 0.000000 0.000000 0.000000 0.153005 0.000000
# 6 0.000000 0.000000 0.000000 0.000000 0.000000 0.067810
#
#
# Mechanical properties :
#
#
# Convention : Reuss Voigt Hill
#
# Bulk Modulus (GPa) = 47.83868 62.21309 55.02588
# Shear Modulus (GPa) = 13.45329 18.22255 15.83792
#
# Velocity S-wave (km/s) = 2.82286 3.28533 3.06284
# Velocity P-wave (km/s) = 6.24180 7.15826 6.71568
#
# Compressibility (1/GPa) = 0.02090359
#
# Stress axis : x y z
#
# Youngs Moduli (GPa) = 86.18839 75.23179 35.26258
#
# Poissons Ratio (x) = 0.30090 0.27420
# Poissons Ratio (y) = 0.34472 0.15513
# Poissons Ratio (z) = 0.67020 0.33096
#
# Static dielectric constant tensor:
#      x y z
#    x 3.438290 0.000000 0.000000 
#    y 0.000000 3.101250 0.000000 
#    z 0.000000 0.000000 2.955080 
# 
# 
# High freq. dielectric constant tensor:
#      x y z
#    x 1.659400 0.000000 0.000000 
#    y 0.000000 1.622880 0.000000 
#    z 0.000000 0.000000 1.619450 
# 
# From -- ./inp_files/13323.got.cif
#   From: 2010.03.12/outbox.cif.g09.slc.cpg/sg47_7_cif.got.tgz:13323.got - 2010.04.14 03:12:58.
