data_PCOD8197385
_publ_section_title
;
Structure prediction by ZEFSAII (Michael W. Deem and Ramdas Pophale) SiO2 
 PCOD8197385
Probable space group: P M M M
;
_chemical_formula_sum "Si O2"
_cell_formula_units_Z 52
_cell_length_a 15.147185
_cell_length_b 20.563930
_cell_length_c 8.995145
_cell_angle_alpha 90.000000
_cell_angle_beta 90.000000
_cell_angle_gamma 90.000000
_cell_volume 2801.858605
_symmetry_space_group_name_H-M "P M M M"
_symmetry_group_IT_number 47
_symmetry_cell_setting 'orthorhombic'
loop_
_space_group_symop_operation_xyz
x,y,z
-x,-y,z
x,-y,-z
-x,y,-z
-x,-y,-z
x,y,-z
-x,y,z
x,-y,z
loop_
_atom_site_type_symbol
_atom_site_label
_atom_site_fract_x
_atom_site_fract_y
_atom_site_fract_z
Si Si1 0.869911 0.000000 0.672411
Si Si2 0.793122 0.258473 0.171665
Si Si3 0.596590 0.232031 0.167596
Si Si4 0.598365 0.896786 0.663033
Si Si5 0.695180 0.000000 0.169264
Si Si6 0.101637 0.370727 0.674399
Si Si7 0.902321 0.866141 0.831179
Si Si8 0.104908 0.500000 0.832405
O O1 0.906932 0.067010 0.739587
O O2 0.893084 0.000000 0.500000
O O3 0.767617 0.000000 0.704123
O O4 0.687652 0.271613 0.193827
O O5 0.841987 0.309765 0.273771
O O6 0.827409 0.186040 0.221909
O O7 0.820213 0.268999 0.000000
O O8 0.500000 0.269266 0.185120
O O9 0.598775 0.177856 0.292913
O O10 0.600879 0.203179 0.000000
O O11 0.644439 0.905190 0.500000
O O12 0.500000 0.923581 0.648543
O O13 0.641532 0.934972 0.799177
O O14 0.729610 0.000000 0.000000
O O15 0.112014 0.379808 0.500000
O O16 0.140332 0.435601 0.750865
O O17 0.000000 0.359090 0.719813
O O18 0.000000 0.833654 0.818437
O O19 0.880414 0.886052 0.000000
O O20 0.000000 0.500000 0.826714
O O21 0.141152 0.500000 0.000000
#
# Coordination Sequence:
#
# PCOD8197385 Si02
#       8
#     4   8   8   8   4   8   8   4
#     4  12  25  38  53  71  93 125 168 217 268 320
#     4  10  20  34  54  79 105 137 178 220 261 308
#     4   9  18  33  52  74 101 134 172 212 254 304
#     4  10  20  33  49  70  95 120 151 199 258 315
#     4  12  23  34  49  67  89 119 157 199 248 311
#     4  10  20  33  51  79 115 149 179 215 259 306
#     4  10  21  37  55  74  99 133 174 219 265 317
#     4   9  17  31  53  79 110 149 186 215 247 298
#
# _framework density 18.55911
#
# number of rings (size 3 to 8) (size 9 to 14) (size 15 to 20)
#    0.000    1.923    0.000    4.385    0.000    8.000 
#    0.000    0.000    0.000    0.000    0.000    0.538 
#    0.000    4.308    0.000    0.000    0.000    0.000 
#
# Total GULP energy -644207.499889 kJ/mol
# GULP energy per Si atom -12388.605767 kJ/mol
# Density = 1.851687 g / cm^3
# Si number density = 18.559110 Si / 1000 Ang^3
#
#
#
# Elastic Constant Matrix: (Units=GPa)
#
#
# Indices 1 2 3 4 5 6 
#
# 1 102.5028 39.4621 35.1935 0.0000 0.0000 0.0000
# 2 39.4621 95.6154 45.2237 0.0000 0.0000 0.0000
# 3 35.1935 45.2237 91.5500 0.0000 0.0000 0.0000
# 4 0.0000 0.0000 0.0000 31.6387 0.0000 0.0000
# 5 0.0000 0.0000 0.0000 0.0000 21.1325 0.0000
# 6 0.0000 0.0000 0.0000 0.0000 0.0000 11.0202
#
#
#
# Elastic Compliance Matrix: (Units=1/GPa)
#
#
# Indices 1 2 3 4 5 6 
#
# 1 0.012147 -0.003660 -0.002862 0.000000 0.000000 0.000000
# 2 -0.003660 0.014750 -0.005879 0.000000 0.000000 0.000000
# 3 -0.002862 -0.005879 0.014927 0.000000 0.000000 0.000000
# 4 0.000000 0.000000 0.000000 0.031607 0.000000 0.000000
# 5 0.000000 0.000000 0.000000 0.000000 0.047320 0.000000
# 6 0.000000 0.000000 0.000000 0.000000 0.000000 0.090743
#
#
# Mechanical properties :
#
#
# Convention : Reuss Voigt Hill
#
# Bulk Modulus (GPa) = 58.74461 58.82520 58.78490
# Shear Modulus (GPa) = 20.66370 24.07754 22.37062
#
# Velocity S-wave (km/s) = 3.34038 3.60577 3.47561
# Velocity P-wave (km/s) = 6.82634 7.00717 6.91735
#
# Compressibility (1/GPa) = 0.01702284
#
# Stress axis : x y z
#
# Youngs Moduli (GPa) = 82.32210 67.79773 66.99142
#
# Poissons Ratio (x) = 0.24813 0.19171
# Poissons Ratio (y) = 0.30129 0.39385
# Poissons Ratio (z) = 0.23559 0.39859
#
# Static dielectric constant tensor:
#      x y z
#    x 3.643510 0.000000 0.000000 
#    y 0.000000 3.236740 0.000000 
#    z 0.000000 0.000000 3.399960 
# 
# 
# High freq. dielectric constant tensor:
#      x y z
#    x 1.718110 0.000000 0.000000 
#    y 0.000000 1.682690 0.000000 
#    z 0.000000 0.000000 1.727040 
# 
# From -- ./inp_files/7155.got.cif
#   From: 2010.03.12/outbox.cif.g09.slc.cpg/sg47_4_cif.got.tgz:7155.got - 2010.04.14 03:12:58.
