data_PCOD8197122
_publ_section_title
;
Structure prediction by ZEFSAII (Michael W. Deem and Ramdas Pophale) SiO2 
 PCOD8197122
Probable space group: P M M M
;
_chemical_formula_sum "Si O2"
_cell_formula_units_Z 48
_cell_length_a 14.897222
_cell_length_b 9.253014
_cell_length_c 19.527672
_cell_angle_alpha 90.000000
_cell_angle_beta 90.000000
_cell_angle_gamma 90.000000
_cell_volume 2691.776397
_symmetry_space_group_name_H-M "P M M M"
_symmetry_group_IT_number 47
_symmetry_cell_setting 'orthorhombic'
loop_
_space_group_symop_operation_xyz
x,y,z
-x,-y,z
x,-y,-z
-x,y,-z
-x,-y,-z
x,y,-z
-x,y,z
x,-y,z
loop_
_atom_site_type_symbol
_atom_site_label
_atom_site_fract_x
_atom_site_fract_y
_atom_site_fract_z
Si Si1 0.098072 0.834614 0.739984
Si Si2 0.651903 0.661609 0.179765
Si Si3 0.894642 0.839476 0.000000
Si Si4 0.500000 0.328490 0.922291
Si Si5 0.602384 0.333413 0.420447
Si Si6 0.147647 0.338723 0.867981
Si Si7 0.290729 0.830134 0.309570
O O1 0.094044 0.735224 0.806572
O O2 0.183690 0.791775 0.693054
O O3 0.000000 0.815661 0.702590
O O4 0.110566 0.000000 0.764061
O O5 0.621030 0.500000 0.202436
O O6 0.586073 0.724786 0.121306
O O7 0.748199 0.654435 0.146656
O O8 0.653615 0.763380 0.246336
O O9 0.861994 0.754545 0.934774
O O10 0.000000 0.850682 0.000000
O O11 0.852130 0.000000 0.000000
O O12 0.500000 0.500000 0.929066
O O13 0.500000 0.262590 0.000000
O O14 0.619379 0.303227 0.500000
O O15 0.500000 0.293555 0.401038
O O16 0.621393 0.500000 0.402741
O O17 0.671728 0.234356 0.379618
O O18 0.108725 0.500000 0.878795
O O19 0.307102 0.000000 0.308829
#
# Coordination Sequence:
#
# PCOD8197122 Si02
#       7
#     8   8   4   4   8   8   8
#     4   9  18  34  53  72 100 138 173 204 249 309
#     4   9  19  34  52  74  99 132 171 211 255 305
#     4  11  23  35  47  64  89 124 160 197 255 327
#     4   9  18  32  53  73  92 127 176 215 247 300
#     4   9  19  36  57  80 108 143 178 209 249 306
#     4  10  20  32  49  72  96 120 159 215 263 301
#     4  10  20  33  53  81 110 137 171 216 257 300
#
# _framework density 17.832090999999998
#
# number of rings (size 3 to 8) (size 9 to 14) (size 15 to 20)
#    0.000    2.500    0.000    2.250    2.333    5.000 
#    0.000    0.833    0.000    1.000    0.000    3.500 
#    0.000    0.000    0.000    0.000    0.000    0.000 
#
# Total GULP energy -594995.164380 kJ/mol
# GULP energy per Si atom -12395.732591 kJ/mol
# Density = 1.779150 g / cm^3
# Si number density = 17.832091 Si / 1000 Ang^3
#
#
#
# Elastic Constant Matrix: (Units=GPa)
#
#
# Indices 1 2 3 4 5 6 
#
# 1 94.3879 33.6895 54.1601 0.0000 0.0000 0.0000
# 2 33.6895 100.5852 55.9516 0.0000 0.0000 0.0000
# 3 54.1601 55.9516 99.4661 0.0000 0.0000 0.0000
# 4 0.0000 0.0000 0.0000 -73.2066 0.0000 0.0000
# 5 0.0000 0.0000 0.0000 0.0000 91.7858 0.0000
# 6 0.0000 0.0000 0.0000 0.0000 0.0000 14.8562
#
#
#
# Elastic Compliance Matrix: (Units=1/GPa)
#
#
# Indices 1 2 3 4 5 6 
#
# 1 0.015445 -0.000720 -0.008005 0.000000 0.000000 0.000000
# 2 -0.000720 0.014503 -0.007766 0.000000 0.000000 0.000000
# 3 -0.008005 -0.007766 0.018781 0.000000 0.000000 0.000000
# 4 0.000000 0.000000 0.000000 -0.013660 0.000000 0.000000
# 5 0.000000 0.000000 0.000000 0.000000 0.010895 0.000000
# 6 0.000000 0.000000 0.000000 0.000000 0.000000 0.067312
#
#
# Mechanical properties :
#
#
# Convention : Reuss Voigt Hill
#
# Bulk Modulus (GPa) = 63.50547 64.67129 64.08838
# Shear Modulus (GPa) = 33.00197 16.72961 24.86579
#
# Velocity S-wave (km/s) = 4.30665 3.06629 3.73827
# Velocity P-wave (km/s) = 7.77303 6.99154 7.39262
#
# Compressibility (1/GPa) = 0.01574667
#
# Stress axis : x y z
#
# Youngs Moduli (GPa) = 64.74692 68.95117 53.24595
#
# Poissons Ratio (x) = 0.04967 0.42621
# Poissons Ratio (y) = 0.04664 0.41351
# Poissons Ratio (z) = 0.51827 0.53547
#
# Static dielectric constant tensor:
#      x y z
#    x 3.367770 0.000000 0.000000 
#    y 0.000000 3.509330 0.000000 
#    z 0.000000 0.000000 3.280810 
# 
# 
# High freq. dielectric constant tensor:
#      x y z
#    x 1.697900 0.000000 0.000000 
#    y 0.000000 1.688510 0.000000 
#    z 0.000000 0.000000 1.669590 
# 
# From -- ./inp_files/28041.got.cif
#   From: 2010.03.12/outbox.cif.g09.slc.cpg/sg47_15_cif.got.tgz:28041.got - 2010.04.14 03:12:58.
