data_PCOD8197668
_publ_section_title
;
Structure prediction by ZEFSAII (Michael W. Deem and Ramdas Pophale) SiO2 
 PCOD8197668
Probable space group: P M M M
;
_chemical_formula_sum "Si O2"
_cell_formula_units_Z 36
_cell_length_a 23.511040
_cell_length_b 9.456593
_cell_length_c 8.454333
_cell_angle_alpha 90.000000
_cell_angle_beta 90.000000
_cell_angle_gamma 90.000000
_cell_volume 1879.688516
_symmetry_space_group_name_H-M "P M M M"
_symmetry_group_IT_number 47
_symmetry_cell_setting 'orthorhombic'
loop_
_space_group_symop_operation_xyz
x,y,z
-x,-y,z
x,-y,-z
-x,y,-z
-x,-y,-z
x,y,-z
-x,y,z
x,-y,z
loop_
_atom_site_type_symbol
_atom_site_label
_atom_site_fract_x
_atom_site_fract_y
_atom_site_fract_z
Si Si1 0.562296 0.158503 0.811835
Si Si2 0.210257 0.659040 0.812015
Si Si3 0.335817 0.341754 0.188156
Si Si4 0.000000 0.662418 0.313033
Si Si5 0.105300 0.160937 0.811895
O O1 0.500000 0.218606 0.761115
O O2 0.613762 0.248343 0.736093
O O3 0.568936 0.000000 0.747515
O O4 0.566706 0.159906 0.000000
O O5 0.197713 0.500000 0.748122
O O6 0.273104 0.710212 0.756318
O O7 0.163731 0.769485 0.746940
O O8 0.208059 0.655189 0.000000
O O9 0.345624 0.500000 0.249248
O O10 0.338955 0.336148 0.000000
O O11 0.945361 0.743556 0.250250
O O12 0.000000 0.500000 0.251054
O O13 0.000000 0.665641 0.500000
O O14 0.100561 0.000000 0.747694
O O15 0.103626 0.160643 0.000000
#
# Coordination Sequence:
#
# PCOD8197668 Si02
#       5
#     8   8   8   4   8
#     4   8  13  19  25  35  55  86 124 165 209 255
#     4   8  14  25  40  58  81 108 138 175 219 263
#     4   8  13  20  30  45  65  91 126 168 211 252
#     4  11  24  39  54  72  94 123 156 185 220 268
#     4  10  20  33  51  75  98 120 150 187 227 271
#
# _framework density 19.152108999999999
#
# number of rings (size 3 to 8) (size 9 to 14) (size 15 to 20)
#    0.000    3.222    0.000    3.333    0.000    4.889 
#    0.000    6.667    0.000    0.000    0.000    0.000 
#    0.000    0.000    0.000    0.000    0.000    1.111 
#
# Total GULP energy -446064.678494 kJ/mol
# GULP energy per Si atom -12390.685514 kJ/mol
# Density = 1.910852 g / cm^3
# Si number density = 19.152109 Si / 1000 Ang^3
#
#
#
# Elastic Constant Matrix: (Units=GPa)
#
#
# Indices 1 2 3 4 5 6 
#
# 1 214.7708 118.6541 9.8286 0.0000 0.0000 0.0000
# 2 118.6541 148.3079 10.4531 0.0000 0.0000 0.0000
# 3 9.8286 10.4531 7.1290 0.0000 0.0000 0.0000
# 4 0.0000 0.0000 0.0000 8.5371 0.0000 0.0000
# 5 0.0000 0.0000 0.0000 0.0000 -5.8481 0.0000
# 6 0.0000 0.0000 0.0000 0.0000 0.0000 39.5157
#
#
#
# Elastic Compliance Matrix: (Units=1/GPa)
#
#
# Indices 1 2 3 4 5 6 
#
# 1 0.008368 -0.006559 -0.001918 0.000000 0.000000 0.000000
# 2 -0.006559 0.012662 -0.009522 0.000000 0.000000 0.000000
# 3 -0.001918 -0.009522 0.156880 0.000000 0.000000 0.000000
# 4 0.000000 0.000000 0.000000 0.117136 0.000000 0.000000
# 5 0.000000 0.000000 0.000000 0.000000 -0.170995 0.000000
# 6 0.000000 0.000000 0.000000 0.000000 0.000000 0.025306
#
#
# Mechanical properties :
#
#
# Convention : Reuss Voigt Hill
#
# Bulk Modulus (GPa) = 7.04675 72.00880 39.52778
# Shear Modulus (GPa) = 21.49040 23.85905 22.67473
#
# Velocity S-wave (km/s) = 3.35340 3.53337 3.44456
# Velocity P-wave (km/s) = 4.32216 7.37064 6.04183
#
# Compressibility (1/GPa) = 0.14190930
#
# Stress axis : x y z
#
# Youngs Moduli (GPa) = 119.50537 78.97760 6.37428
#
# Poissons Ratio (x) = 0.51805 0.01223
# Poissons Ratio (y) = 0.78389 0.06070
# Poissons Ratio (z) = 0.22927 0.75206
#
# Static dielectric constant tensor:
#      x y z
#    x 4.074350 0.000000 0.000000 
#    y 0.000000 3.823670 0.000000 
#    z 0.000000 0.000000 2.752170 
# 
# 
# High freq. dielectric constant tensor:
#      x y z
#    x 1.767230 0.000000 0.000000 
#    y 0.000000 1.744420 0.000000 
#    z 0.000000 0.000000 1.668290 
# 
# From -- ./inp_files/12060.got.cif
#   From: 2010.03.12/outbox.cif.g09.slc.cpg/sg47_7_cif.got.tgz:12060.got - 2010.04.14 03:12:58.
