data_PCOD8197523
_publ_section_title
;
Structure prediction by ZEFSAII (Michael W. Deem and Ramdas Pophale) SiO2 
 PCOD8197523
Probable space group: P M M M
;
_chemical_formula_sum "Si O2"
_cell_formula_units_Z 40
_cell_length_a 9.036740
_cell_length_b 9.401474
_cell_length_c 25.967355
_cell_angle_alpha 90.000000
_cell_angle_beta 90.000000
_cell_angle_gamma 90.000000
_cell_volume 2206.152104
_symmetry_space_group_name_H-M "P M M M"
_symmetry_group_IT_number 47
_symmetry_cell_setting 'orthorhombic'
loop_
_space_group_symop_operation_xyz
x,y,z
-x,-y,z
x,-y,-z
-x,y,-z
-x,-y,-z
x,y,-z
-x,y,z
x,-y,z
loop_
_atom_site_type_symbol
_atom_site_label
_atom_site_fract_x
_atom_site_fract_y
_atom_site_fract_z
Si Si1 0.166758 0.668965 0.500000
Si Si2 0.323766 0.158778 0.095044
Si Si3 0.323242 0.659905 0.000000
Si Si4 0.673530 0.664879 0.602368
Si Si5 0.169804 0.831938 0.691863
Si Si6 0.335527 0.168931 0.207722
O O1 0.168877 0.500000 0.500000
O O2 0.249745 0.724914 0.449240
O O3 0.000000 0.728955 0.500000
O O4 0.500000 0.152600 0.092872
O O5 0.260757 0.261625 0.050793
O O6 0.276670 0.219047 0.151467
O O7 0.259968 0.000000 0.085808
O O8 0.261753 0.500000 0.000000
O O9 0.500000 0.661862 0.000000
O O10 0.500000 0.687872 0.596175
O O11 0.713359 0.500000 0.611492
O O12 0.731264 0.754857 0.649917
O O13 0.223858 0.779210 0.748007
O O14 0.000000 0.786844 0.685007
O O15 0.191708 0.000000 0.685675
O O16 0.500000 0.230886 0.218952
O O17 0.345053 0.000000 0.206376
#
# Coordination Sequence:
#
# PCOD8197523 Si02
#       6
#     4   8   4   8   8   8
#     4   9  17  31  52  75 100 131 164 200 242 285
#     4   8  13  22  37  55  76 108 149 185 218 266
#     4   9  15  21  31  53  86 115 136 172 230 281
#     4  10  20  34  53  76 100 128 164 203 241 284
#     4  10  20  33  50  73 100 129 160 197 244 294
#     4   8  14  26  44  64  87 118 155 192 230 276
#
# _framework density 18.131115999999999
#
# number of rings (size 3 to 8) (size 9 to 14) (size 15 to 20)
#    0.000    3.000    0.000    3.000    0.000    4.800 
#    0.000    1.500    0.000    6.600    0.000    0.700 
#    0.000    5.600    0.000    0.000    0.000    0.000 
#
# Total GULP energy -495845.852422 kJ/mol
# GULP energy per Si atom -12396.146311 kJ/mol
# Density = 1.808985 g / cm^3
# Si number density = 18.131116 Si / 1000 Ang^3
#
#
#
# Elastic Constant Matrix: (Units=GPa)
#
#
# Indices 1 2 3 4 5 6 
#
# 1 67.8626 23.3180 46.4254 0.0000 0.0000 0.0000
# 2 23.3180 53.4207 50.6857 0.0000 0.0000 0.0000
# 3 46.4254 50.6857 170.3550 0.0000 0.0000 0.0000
# 4 0.0000 0.0000 0.0000 0.5406 0.0000 0.0000
# 5 0.0000 0.0000 0.0000 0.0000 7.1990 0.0000
# 6 0.0000 0.0000 0.0000 0.0000 0.0000 15.8519
#
#
#
# Elastic Compliance Matrix: (Units=1/GPa)
#
#
# Indices 1 2 3 4 5 6 
#
# 1 0.018920 -0.004691 -0.003761 0.000000 0.000000 0.000000
# 2 -0.004691 0.027245 -0.006828 0.000000 0.000000 0.000000
# 3 -0.003761 -0.006828 0.008926 0.000000 0.000000 0.000000
# 4 0.000000 0.000000 0.000000 1.849805 0.000000 0.000000
# 5 0.000000 0.000000 0.000000 0.000000 0.138908 0.000000
# 6 0.000000 0.000000 0.000000 0.000000 0.000000 0.063084
#
#
# Mechanical properties :
#
#
# Convention : Reuss Voigt Hill
#
# Bulk Modulus (GPa) = 40.76059 59.16627 49.96343
# Shear Modulus (GPa) = 2.33032 16.13223 9.23128
#
# Velocity S-wave (km/s) = 1.13492 2.98611 2.25886
# Velocity P-wave (km/s) = 4.92415 6.67776 5.86684
#
# Compressibility (1/GPa) = 0.02453350
#
# Stress axis : x y z
#
# Youngs Moduli (GPa) = 52.85422 36.70379 112.02663
#
# Poissons Ratio (x) = 0.17216 0.42128
# Poissons Ratio (y) = 0.24791 0.76492
# Poissons Ratio (z) = 0.19876 0.25061
#
# Static dielectric constant tensor:
#      x y z
#    x 3.140010 0.000000 0.000000 
#    y 0.000000 3.079590 0.000000 
#    z 0.000000 0.000000 3.781650 
# 
# 
# High freq. dielectric constant tensor:
#      x y z
#    x 1.672990 0.000000 0.000000 
#    y 0.000000 1.662880 0.000000 
#    z 0.000000 0.000000 1.723410 
# 
# From -- ./inp_files/13083.got.cif
#   From: 2010.03.12/outbox.cif.g09.slc.cpg/sg47_7_cif.got.tgz:13083.got - 2010.04.14 03:12:58.
