data_PCOD8197577
_publ_section_title
;
Structure prediction by ZEFSAII (Michael W. Deem and Ramdas Pophale) SiO2 
 PCOD8197577
Probable space group: P M M M
;
_chemical_formula_sum "Si O2"
_cell_formula_units_Z 40
_cell_length_a 22.781911
_cell_length_b 10.341585
_cell_length_c 9.097471
_cell_angle_alpha 90.000000
_cell_angle_beta 90.000000
_cell_angle_gamma 90.000000
_cell_volume 2143.373893
_symmetry_space_group_name_H-M "P M M M"
_symmetry_group_IT_number 47
_symmetry_cell_setting 'orthorhombic'
loop_
_space_group_symop_operation_xyz
x,y,z
-x,-y,z
x,-y,-z
-x,y,-z
-x,-y,-z
x,y,-z
-x,y,z
x,-y,z
loop_
_atom_site_type_symbol
_atom_site_label
_atom_site_fract_x
_atom_site_fract_y
_atom_site_fract_z
Si Si1 0.382031 0.349615 0.674108
Si Si2 0.833317 0.145956 0.842316
Si Si3 0.069495 0.500000 0.162465
Si Si4 0.704719 0.150445 0.826391
Si Si5 0.933687 0.751970 0.672239
Si Si6 0.500000 0.347762 0.835557
O O1 0.386980 0.334063 0.500000
O O2 0.367209 0.500000 0.714693
O O3 0.334270 0.250229 0.735266
O O4 0.442908 0.303383 0.746185
O O5 0.770968 0.201627 0.787370
O O6 0.886257 0.144127 0.723953
O O7 0.817179 0.000000 0.875181
O O8 0.853133 0.209016 0.000000
O O9 0.091000 0.623356 0.251822
O O10 0.000000 0.500000 0.155216
O O11 0.097146 0.500000 0.000000
O O12 0.693686 0.000000 0.778408
O O13 0.692708 0.165572 0.000000
O O14 0.932641 0.732735 0.500000
O O15 0.000000 0.789063 0.723183
O O16 0.500000 0.500000 0.849647
O O17 0.500000 0.286126 0.000000
#
# Coordination Sequence:
#
# PCOD8197577 Si02
#       6
#     8   8   4   8   8   4
#     4  10  20  34  54  83 116 146 179 220 266 318
#     4   9  19  36  55  74  98 132 175 218 260 310
#     4   9  17  31  51  71  93 125 163 200 245 304
#     4   9  19  37  58  78 104 141 184 227 270 318
#     4  10  20  33  50  74 103 132 164 208 263 319
#     4   9  17  31  54  81 110 147 184 220 266 313
#
# _framework density 18.662167
#
# number of rings (size 3 to 8) (size 9 to 14) (size 15 to 20)
#    0.000    2.600    0.000    3.000    0.000    6.800 
#    1.800    4.500    0.000    3.000    0.000    0.000 
#    0.000    0.000    0.000    0.000    0.000    0.000 
#
# Total GULP energy -495560.624272 kJ/mol
# GULP energy per Si atom -12389.015607 kJ/mol
# Density = 1.861969 g / cm^3
# Si number density = 18.662167 Si / 1000 Ang^3
#
#
#
# Elastic Constant Matrix: (Units=GPa)
#
#
# Indices 1 2 3 4 5 6 
#
# 1 135.9541 46.4288 70.0253 0.0000 0.0000 0.0000
# 2 46.4288 62.7725 37.3692 0.0000 0.0000 0.0000
# 3 70.0253 37.3692 106.8601 0.0000 0.0000 0.0000
# 4 0.0000 0.0000 0.0000 25.5688 0.0000 0.0000
# 5 0.0000 0.0000 0.0000 0.0000 29.6708 0.0000
# 6 0.0000 0.0000 0.0000 0.0000 0.0000 28.6022
#
#
#
# Elastic Compliance Matrix: (Units=1/GPa)
#
#
# Indices 1 2 3 4 5 6 
#
# 1 0.012441 -0.005492 -0.006232 0.000000 0.000000 0.000000
# 2 -0.005492 0.022543 -0.004285 0.000000 0.000000 0.000000
# 3 -0.006232 -0.004285 0.014940 0.000000 0.000000 0.000000
# 4 0.000000 0.000000 0.000000 0.039110 0.000000 0.000000
# 5 0.000000 0.000000 0.000000 0.000000 0.033703 0.000000
# 6 0.000000 0.000000 0.000000 0.000000 0.000000 0.034962
#
#
# Mechanical properties :
#
#
# Convention : Reuss Voigt Hill
#
# Bulk Modulus (GPa) = 55.84279 68.13702 61.98991
# Shear Modulus (GPa) = 25.55122 26.88592 26.21857
#
# Velocity S-wave (km/s) = 3.70421 3.79973 3.75227
# Velocity P-wave (km/s) = 6.94859 7.47266 7.21538
#
# Compressibility (1/GPa) = 0.01790741
#
# Stress axis : x y z
#
# Youngs Moduli (GPa) = 80.38134 44.35950 66.93364
#
# Poissons Ratio (x) = 0.24361 0.41713
# Poissons Ratio (y) = 0.44143 0.28679
# Poissons Ratio (z) = 0.50093 0.19007
#
# Static dielectric constant tensor:
#      x y z
#    x 3.443560 0.000000 0.000000 
#    y 0.000000 3.327410 0.000000 
#    z 0.000000 0.000000 3.447550 
# 
# 
# High freq. dielectric constant tensor:
#      x y z
#    x 1.723070 0.000000 0.000000 
#    y 0.000000 1.704080 0.000000 
#    z 0.000000 0.000000 1.729620 
# 
# From -- ./inp_files/10660.got.cif
#   From: 2010.03.12/outbox.cif.g09.slc.cpg/sg47_6_cif.got.tgz:10660.got - 2010.04.14 03:12:58.
