data_PCOD8197920
_publ_section_title
;
Structure prediction by ZEFSAII (Michael W. Deem and Ramdas Pophale) SiO2 
 PCOD8197920
Probable space group: P M M M
;
_chemical_formula_sum "Si O2"
_cell_formula_units_Z 48
_cell_length_a 8.378121
_cell_length_b 21.905666
_cell_length_c 13.715546
_cell_angle_alpha 90.000000
_cell_angle_beta 90.000000
_cell_angle_gamma 90.000000
_cell_volume 2517.191120
_symmetry_space_group_name_H-M "P M M M"
_symmetry_group_IT_number 47
_symmetry_cell_setting 'orthorhombic'
loop_
_space_group_symop_operation_xyz
x,y,z
-x,-y,z
x,-y,-z
-x,y,-z
-x,-y,-z
x,y,-z
-x,y,z
x,-y,z
loop_
_atom_site_type_symbol
_atom_site_label
_atom_site_fract_x
_atom_site_fract_y
_atom_site_fract_z
Si Si1 0.680548 0.500000 0.384753
Si Si2 0.320085 0.136745 0.614976
Si Si3 0.315515 0.933986 0.885685
Si Si4 0.185937 0.192004 0.888912
Si Si5 0.184748 0.374805 0.607968
Si Si6 0.000000 0.069500 0.615724
Si Si7 0.318802 0.737645 0.715969
O O1 0.500000 0.500000 0.351496
O O2 0.706627 0.500000 0.500000
O O3 0.756373 0.437857 0.342565
O O4 0.322287 0.130633 0.500000
O O5 0.500000 0.116080 0.653699
O O6 0.288154 0.206560 0.642842
O O7 0.167559 0.098474 0.656537
O O8 0.500000 0.924573 0.861555
O O9 0.223334 0.875226 0.842600
O O10 0.257295 0.000000 0.842472
O O11 0.283638 0.935877 0.000000
O O12 0.271423 0.243720 0.825719
O O13 0.000000 0.203678 0.884262
O O14 0.250067 0.196395 0.000000
O O15 0.264187 0.364215 0.500000
O O16 0.216933 0.319320 0.680509
O O17 0.000000 0.380993 0.592648
O O18 0.000000 0.076597 0.500000
O O19 0.000000 0.000000 0.649980
O O20 0.500000 0.716226 0.715647
#
# Coordination Sequence:
#
# PCOD8197920 Si02
#       7
#     4   8   8   8   8   4   8
#     4   9  17  31  51  77 114 153 184 215 249 295
#     4   9  19  34  52  76 104 132 169 219 269 321
#     4   8  14  27  48  70  91 119 156 200 256 321
#     4  10  21  35  51  73 101 132 170 219 271 322
#     4  10  20  33  53  82 115 149 181 215 257 306
#     4   9  18  32  52  74  97 134 178 218 266 318
#     4  11  22  35  53  76 103 138 178 217 262 318
#
# _framework density 19.068874999999998
#
# number of rings (size 3 to 8) (size 9 to 14) (size 15 to 20)
#    0.000    2.500    0.000    2.750    2.333    4.333 
#    0.000    4.167    0.000    1.000    0.000    0.583 
#    0.000    4.667    0.000    0.000    0.000    0.000 
#
# Total GULP energy -594816.834003 kJ/mol
# GULP energy per Si atom -12392.017375 kJ/mol
# Density = 1.902547 g / cm^3
# Si number density = 19.068875 Si / 1000 Ang^3
#
#
#
# Elastic Constant Matrix: (Units=GPa)
#
#
# Indices 1 2 3 4 5 6 
#
# 1 105.2755 53.5484 11.8734 0.0000 0.0000 0.0000
# 2 53.5484 136.4354 38.2133 0.0000 0.0000 0.0000
# 3 11.8734 38.2133 37.1228 0.0000 0.0000 0.0000
# 4 0.0000 0.0000 0.0000 4.7564 0.0000 0.0000
# 5 0.0000 0.0000 0.0000 0.0000 15.0726 0.0000
# 6 0.0000 0.0000 0.0000 0.0000 0.0000 36.1862
#
#
#
# Elastic Compliance Matrix: (Units=1/GPa)
#
#
# Indices 1 2 3 4 5 6 
#
# 1 0.011920 -0.005073 0.001410 0.000000 0.000000 0.000000
# 2 -0.005073 0.012458 -0.011201 0.000000 0.000000 0.000000
# 3 0.001410 -0.011201 0.038017 0.000000 0.000000 0.000000
# 4 0.000000 0.000000 0.000000 0.210241 0.000000 0.000000
# 5 0.000000 0.000000 0.000000 0.000000 0.066346 0.000000
# 6 0.000000 0.000000 0.000000 0.000000 0.000000 0.027635
#
#
# Mechanical properties :
#
#
# Convention : Reuss Voigt Hill
#
# Bulk Modulus (GPa) = 30.61316 54.01153 42.31234
# Shear Modulus (GPa) = 12.27791 22.88295 17.58043
#
# Velocity S-wave (km/s) = 2.54022 3.46788 3.03965
# Velocity P-wave (km/s) = 4.96915 6.66490 5.87849
#
# Compressibility (1/GPa) = 0.03266569
#
# Stress axis : x y z
#
# Youngs Moduli (GPa) = 83.88915 80.26973 26.30405
#
# Poissons Ratio (x) = 0.40724 -0.03708
# Poissons Ratio (y) = 0.42561 0.29464
# Poissons Ratio (z) = -0.11827 0.89912
#
# Static dielectric constant tensor:
#      x y z
#    x 3.701230 0.000000 0.000000 
#    y 0.000000 3.436060 0.000000 
#    z 0.000000 0.000000 3.250420 
# 
# 
# High freq. dielectric constant tensor:
#      x y z
#    x 1.752370 0.000000 0.000000 
#    y 0.000000 1.728200 0.000000 
#    z 0.000000 0.000000 1.713610 
# 
# From -- ./inp_files/9150.got.cif
#   From: 2010.03.12/outbox.cif.g09.slc.cpg/sg47_5_cif.got.tgz:9150.got - 2010.04.14 03:12:58.
