data_PCOD8197136
_publ_section_title
;
Structure prediction by ZEFSAII (Michael W. Deem and Ramdas Pophale) SiO2 
 PCOD8197136
Probable space group: P M M M
;
_chemical_formula_sum "Si O2"
_cell_formula_units_Z 36
_cell_length_a 9.332252
_cell_length_b 9.330574
_cell_length_c 24.501843
_cell_angle_alpha 90.000000
_cell_angle_beta 90.000000
_cell_angle_gamma 90.000000
_cell_volume 2133.504543
_symmetry_space_group_name_H-M "P M M M"
_symmetry_group_IT_number 47
_symmetry_cell_setting 'orthorhombic'
loop_
_space_group_symop_operation_xyz
x,y,z
-x,-y,z
x,-y,-z
-x,y,-z
-x,-y,-z
x,y,-z
-x,y,z
x,-y,z
loop_
_atom_site_type_symbol
_atom_site_label
_atom_site_fract_x
_atom_site_fract_y
_atom_site_fract_z
Si Si1 0.168305 0.000000 0.436754
Si Si2 0.165464 0.663249 0.063231
Si Si3 0.329226 0.661761 0.255424
Si Si4 0.330818 0.835237 0.848705
Si Si5 0.660121 0.842390 0.644584
O O1 0.237660 0.143046 0.408883
O O2 0.208151 0.000000 0.500000
O O3 0.000000 0.000000 0.426514
O O4 0.208981 0.500000 0.077270
O O5 0.261472 0.772224 0.097007
O O6 0.000000 0.689024 0.077647
O O7 0.194341 0.695218 0.000000
O O8 0.500000 0.667456 0.255866
O O9 0.271011 0.500000 0.251978
O O10 0.270455 0.749308 0.203635
O O11 0.272611 0.732497 0.311669
O O12 0.500000 0.817013 0.854086
O O13 0.285859 0.000000 0.842300
O O14 0.500000 0.793612 0.626344
O O15 0.651056 0.000000 0.672961
#
# Coordination Sequence:
#
# PCOD8197136 Si02
#       5
#     4   8   8   8   8
#     4   9  17  29  47  71  97 125 158 195 232 271
#     4   9  19  36  54  70  92 125 164 204 246 292
#     4   9  16  28  48  72  97 125 157 194 239 285
#     4  10  20  32  49  74 102 128 158 198 242 291
#     4   8  15  27  46  70  94 121 155 193 230 273
#
# _framework density 16.873645
#
# number of rings (size 3 to 8) (size 9 to 14) (size 15 to 20)
#    0.667    2.333    0.000    2.000    0.000    6.222 
#    0.000    4.444    0.000    2.667    0.000    4.667 
#    0.000    0.000    0.000    0.000    0.000    0.000 
#
# Total GULP energy -446170.725851 kJ/mol
# GULP energy per Si atom -12393.631274 kJ/mol
# Density = 1.683524 g / cm^3
# Si number density = 16.873645 Si / 1000 Ang^3
#
#
#
# Elastic Constant Matrix: (Units=GPa)
#
#
# Indices 1 2 3 4 5 6 
#
# 1 44.0293 36.5150 47.4859 0.0000 0.0000 0.0000
# 2 36.5150 119.3631 73.7719 0.0000 0.0000 0.0000
# 3 47.4859 73.7719 126.7369 0.0000 0.0000 0.0000
# 4 0.0000 0.0000 0.0000 24.5233 0.0000 0.0000
# 5 0.0000 0.0000 0.0000 0.0000 11.3323 0.0000
# 6 0.0000 0.0000 0.0000 0.0000 0.0000 17.7556
#
#
#
# Elastic Compliance Matrix: (Units=1/GPa)
#
#
# Indices 1 2 3 4 5 6 
#
# 1 0.039672 -0.004607 -0.012183 0.000000 0.000000 0.000000
# 2 -0.004607 0.013620 -0.006202 0.000000 0.000000 0.000000
# 3 -0.012183 -0.006202 0.016065 0.000000 0.000000 0.000000
# 4 0.000000 0.000000 0.000000 0.040778 0.000000 0.000000
# 5 0.000000 0.000000 0.000000 0.000000 0.088243 0.000000
# 6 0.000000 0.000000 0.000000 0.000000 0.000000 0.056320
#
#
# Mechanical properties :
#
#
# Convention : Reuss Voigt Hill
#
# Bulk Modulus (GPa) = 42.78245 67.29722 55.03983
# Shear Modulus (GPa) = 16.20887 19.54600 17.87744
#
# Velocity S-wave (km/s) = 3.10272 3.40718 3.25851
# Velocity P-wave (km/s) = 6.18429 7.44635 6.84447
#
# Compressibility (1/GPa) = 0.02337407
#
# Stress axis : x y z
#
# Youngs Moduli (GPa) = 25.20677 73.41996 62.24637
#
# Poissons Ratio (x) = 0.33823 0.75833
# Poissons Ratio (y) = 0.11612 0.38606
# Poissons Ratio (z) = 0.30709 0.45536
#
# Static dielectric constant tensor:
#      x y z
#    x 2.852430 0.000000 0.000000 
#    y 0.000000 3.141150 0.000000 
#    z 0.000000 0.000000 3.078570 
# 
# 
# High freq. dielectric constant tensor:
#      x y z
#    x 1.623130 0.000000 0.000000 
#    y 0.000000 1.641420 0.000000 
#    z 0.000000 0.000000 1.647550 
# 
# From -- ./inp_files/32973.got.cif
#   From: 2010.03.12/outbox.cif.g09.slc.cpg/sg47_17_cif.got.tgz:32973.got - 2010.04.14 03:12:58.
