data_PCOD8197975
_publ_section_title
;
Structure prediction by ZEFSAII (Michael W. Deem and Ramdas Pophale) SiO2 
 PCOD8197975
Probable space group: P M M M
;
_chemical_formula_sum "Si O2"
_cell_formula_units_Z 52
_cell_length_a 19.936574
_cell_length_b 9.187638
_cell_length_c 14.981600
_cell_angle_alpha 90.000000
_cell_angle_beta 90.000000
_cell_angle_gamma 90.000000
_cell_volume 2744.180045
_symmetry_space_group_name_H-M "P M M M"
_symmetry_group_IT_number 47
_symmetry_cell_setting 'orthorhombic'
loop_
_space_group_symop_operation_xyz
x,y,z
-x,-y,z
x,-y,-z
-x,y,-z
-x,-y,-z
x,y,-z
-x,y,z
x,-y,z
loop_
_atom_site_type_symbol
_atom_site_label
_atom_site_fract_x
_atom_site_fract_y
_atom_site_fract_z
Si Si1 0.714486 0.335748 0.603493
Si Si2 0.865944 0.662686 0.654526
Si Si3 0.076606 0.834574 0.185822
Si Si4 0.210696 0.832392 0.095939
Si Si5 0.578643 0.666513 0.898193
Si Si6 0.927067 0.829985 0.500000
Si Si7 0.322804 0.172850 0.228738
O O1 0.715722 0.277646 0.500000
O O2 0.686096 0.500000 0.602743
O O3 0.786299 0.333919 0.651154
O O4 0.670384 0.236816 0.670346
O O5 0.891615 0.500000 0.631938
O O6 0.899690 0.712366 0.745644
O O7 0.887954 0.782127 0.585600
O O8 0.130207 0.816078 0.106591
O O9 0.000000 0.803363 0.154046
O O10 0.081196 0.000000 0.224882
O O11 0.255017 0.768763 0.177813
O O12 0.230712 0.000000 0.090829
O O13 0.228817 0.758587 0.000000
O O14 0.500000 0.686385 0.883443
O O15 0.599881 0.500000 0.878549
O O16 0.614698 0.774427 0.829765
O O17 0.597885 0.707879 0.000000
O O18 0.000000 0.756454 0.500000
O O19 0.933173 0.000000 0.500000
O O20 0.324067 0.000000 0.238463
#
# Coordination Sequence:
#
# PCOD8197975 Si02
#       7
#     8   8   8   8   8   4   8
#     4  10  21  38  57  78 106 143 188 234 280 338
#     4  11  21  35  53  73  99 132 175 229 285 340
#     4  10  20  34  51  71  99 138 184 231 281 337
#     4   9  18  32  50  76 108 141 182 230 278 329
#     4   9  19  37  61  90 125 163 197 226 263 319
#     4  11  23  35  49  71  99 131 170 221 284 353
#     4  11  21  34  57  87 119 151 183 231 286 333
#
# _framework density 18.949193000000001
#
# number of rings (size 3 to 8) (size 9 to 14) (size 15 to 20)
#    0.000    1.923    2.308    2.538    0.000    5.231 
#    0.000    2.308    0.000    1.846    0.000    4.308 
#    0.000    0.000    0.000    0.000    0.000    0.000 
#
# Total GULP energy -644264.285474 kJ/mol
# GULP energy per Si atom -12389.697798 kJ/mol
# Density = 1.890606 g / cm^3
# Si number density = 18.949193 Si / 1000 Ang^3
#
#
#
# Elastic Constant Matrix: (Units=GPa)
#
#
# Indices 1 2 3 4 5 6 
#
# 1 69.1577 28.8774 36.6133 0.0000 0.0000 0.0000
# 2 28.8774 69.4350 44.0512 0.0000 0.0000 0.0000
# 3 36.6133 44.0512 124.7448 0.0000 0.0000 0.0000
# 4 0.0000 0.0000 0.0000 51.0077 0.0000 0.0000
# 5 0.0000 0.0000 0.0000 0.0000 28.3324 0.0000
# 6 0.0000 0.0000 0.0000 0.0000 0.0000 26.1721
#
#
#
# Elastic Compliance Matrix: (Units=1/GPa)
#
#
# Indices 1 2 3 4 5 6 
#
# 1 0.018625 -0.005513 -0.003520 0.000000 0.000000 0.000000
# 2 -0.005513 0.020192 -0.005512 0.000000 0.000000 0.000000
# 3 -0.003520 -0.005512 0.010996 0.000000 0.000000 0.000000
# 4 0.000000 0.000000 0.000000 0.019605 0.000000 0.000000
# 5 0.000000 0.000000 0.000000 0.000000 0.035295 0.000000
# 6 0.000000 0.000000 0.000000 0.000000 0.000000 0.038209
#
#
# Mechanical properties :
#
#
# Convention : Reuss Voigt Hill
#
# Bulk Modulus (GPa) = 48.25576 53.60238 50.92907
# Shear Modulus (GPa) = 27.94553 31.35548 29.65050
#
# Velocity S-wave (km/s) = 3.84443 4.07223 3.95997
# Velocity P-wave (km/s) = 6.72513 7.10349 6.91690
#
# Compressibility (1/GPa) = 0.02072292
#
# Stress axis : x y z
#
# Youngs Moduli (GPa) = 53.69093 49.52488 90.94221
#
# Poissons Ratio (x) = 0.27303 0.32010
# Poissons Ratio (y) = 0.29600 0.50130
# Poissons Ratio (z) = 0.18898 0.27299
#
# Static dielectric constant tensor:
#      x y z
#    x 3.344070 0.000000 0.000000 
#    y 0.000000 3.397210 0.000000 
#    z 0.000000 0.000000 3.513300 
# 
# 
# High freq. dielectric constant tensor:
#      x y z
#    x 1.719180 0.000000 0.000000 
#    y 0.000000 1.723270 0.000000 
#    z 0.000000 0.000000 1.735750 
# 
# From -- ./inp_files/25039.got.cif
#   From: 2010.03.12/outbox.cif.g09.slc.cpg/sg47_13_cif.got.tgz:25039.got - 2010.04.14 03:12:58.
