data_PCOD8197108
_publ_section_title
;
Structure prediction by ZEFSAII (Michael W. Deem and Ramdas Pophale) SiO2 
 PCOD8197108
Probable space group: P M M M
;
_chemical_formula_sum "Si O2"
_cell_formula_units_Z 52
_cell_length_a 30.338691
_cell_length_b 10.368144
_cell_length_c 9.233453
_cell_angle_alpha 90.000000
_cell_angle_beta 90.000000
_cell_angle_gamma 90.000000
_cell_volume 2904.437276
_symmetry_space_group_name_H-M "P M M M"
_symmetry_group_IT_number 47
_symmetry_cell_setting 'orthorhombic'
loop_
_space_group_symop_operation_xyz
x,y,z
-x,-y,z
x,-y,-z
-x,y,-z
-x,-y,-z
x,y,-z
-x,y,z
x,-y,z
loop_
_atom_site_type_symbol
_atom_site_label
_atom_site_fract_x
_atom_site_fract_y
_atom_site_fract_z
Si Si1 0.551996 0.353765 0.334243
Si Si2 0.609685 0.850431 0.171176
Si Si3 0.051961 0.500000 0.159639
Si Si4 0.861195 0.146550 0.342095
Si Si5 0.302413 0.152546 0.337459
Si Si6 0.049007 0.252136 0.668698
Si Si7 0.218844 0.845874 0.838424
O O1 0.565856 0.325021 0.500000
O O2 0.500000 0.342143 0.316377
O O3 0.566896 0.500000 0.291851
O O4 0.572504 0.245894 0.229771
O O5 0.655061 0.806725 0.245710
O O6 0.597954 0.000000 0.208986
O O7 0.614615 0.833038 0.000000
O O8 0.067018 0.623932 0.247816
O O9 0.000000 0.500000 0.146082
O O10 0.073672 0.500000 0.000000
O O11 0.855923 0.214276 0.500000
O O12 0.912901 0.148690 0.295338
O O13 0.827224 0.208815 0.227818
O O14 0.846768 0.000000 0.357203
O O15 0.305379 0.210409 0.500000
O O16 0.259078 0.207908 0.258100
O O17 0.298959 0.000000 0.345618
O O18 0.046061 0.284971 0.500000
O O19 0.000000 0.206098 0.721689
O O20 0.219610 0.000000 0.844338
O O21 0.223252 0.789432 0.000000
#
# Coordination Sequence:
#
# PCOD8197108 Si02
#       7
#     8   8   4   8   8   8   8
#     4   9  19  36  55  74  99 135 179 220 255 297
#     4  10  20  32  48  75 108 136 166 208 257 305
#     4   9  17  29  45  63  81 103 137 181 223 263
#     4   9  17  28  42  63  91 121 152 183 219 270
#     4   9  16  27  45  68  94 124 158 197 240 284
#     4   9  17  29  45  64  86 113 146 185 226 267
#     4   9  16  26  41  62  90 122 154 189 229 274
#
# _framework density 17.903641
#
# number of rings (size 3 to 8) (size 9 to 14) (size 15 to 20)
#    0.000    2.846    0.000    2.077    0.000    7.385 
#    0.000    3.846    0.000    0.000    2.000    4.308 
#    0.000    0.000    0.000    0.000    0.000    0.000 
#
# Total GULP energy -644330.709144 kJ/mol
# GULP energy per Si atom -12390.975176 kJ/mol
# Density = 1.786289 g / cm^3
# Si number density = 17.903641 Si / 1000 Ang^3
#
#
#
# Elastic Constant Matrix: (Units=GPa)
#
#
# Indices 1 2 3 4 5 6 
#
# 1 105.6070 31.7021 61.0098 0.0000 0.0000 0.0000
# 2 31.7021 43.1403 33.8651 0.0000 0.0000 0.0000
# 3 61.0098 33.8651 115.6606 0.0000 0.0000 0.0000
# 4 0.0000 0.0000 0.0000 17.0632 0.0000 0.0000
# 5 0.0000 0.0000 0.0000 0.0000 25.5571 0.0000
# 6 0.0000 0.0000 0.0000 0.0000 0.0000 4.7717
#
#
#
# Elastic Compliance Matrix: (Units=1/GPa)
#
#
# Indices 1 2 3 4 5 6 
#
# 1 0.014780 -0.006156 -0.005994 0.000000 0.000000 0.000000
# 2 -0.006156 0.032662 -0.006316 0.000000 0.000000 0.000000
# 3 -0.005994 -0.006316 0.013657 0.000000 0.000000 0.000000
# 4 0.000000 0.000000 0.000000 0.058606 0.000000 0.000000
# 5 0.000000 0.000000 0.000000 0.000000 0.039128 0.000000
# 6 0.000000 0.000000 0.000000 0.000000 0.000000 0.209569
#
#
# Mechanical properties :
#
#
# Convention : Reuss Voigt Hill
#
# Bulk Modulus (GPa) = 41.37850 57.50688 49.44269
# Shear Modulus (GPa) = 12.09517 18.66713 15.38115
#
# Velocity S-wave (km/s) = 2.60199 3.23250 2.93423
# Velocity P-wave (km/s) = 5.67355 6.79132 6.25744
#
# Compressibility (1/GPa) = 0.02416714
#
# Stress axis : x y z
#
# Youngs Moduli (GPa) = 67.66090 30.61649 73.22286
#
# Poissons Ratio (x) = 0.18847 0.43887
# Poissons Ratio (y) = 0.41652 0.46249
# Poissons Ratio (z) = 0.40554 0.19338
#
# Static dielectric constant tensor:
#      x y z
#    x 3.371860 0.000000 0.000000 
#    y 0.000000 2.956750 0.000000 
#    z 0.000000 0.000000 3.574140 
# 
# 
# High freq. dielectric constant tensor:
#      x y z
#    x 1.696100 0.000000 0.000000 
#    y 0.000000 1.636250 0.000000 
#    z 0.000000 0.000000 1.701570 
# 
# From -- ./inp_files/13235.got.cif
#   From: 2010.03.12/outbox.cif.g09.slc.cpg/sg47_7_cif.got.tgz:13235.got - 2010.04.14 03:12:58.
