data_PCOD8197469
_publ_section_title
;
Structure prediction by ZEFSAII (Michael W. Deem and Ramdas Pophale) SiO2 
 PCOD8197469
Probable space group: P M M M
;
_chemical_formula_sum "Si O2"
_cell_formula_units_Z 52
_cell_length_a 21.440170
_cell_length_b 14.785103
_cell_length_c 9.039452
_cell_angle_alpha 90.000000
_cell_angle_beta 90.000000
_cell_angle_gamma 90.000000
_cell_volume 2865.462188
_symmetry_space_group_name_H-M "P M M M"
_symmetry_group_IT_number 47
_symmetry_cell_setting 'orthorhombic'
loop_
_space_group_symop_operation_xyz
x,y,z
-x,-y,z
x,-y,-z
-x,y,-z
-x,-y,-z
x,y,-z
-x,y,z
x,-y,z
loop_
_atom_site_type_symbol
_atom_site_label
_atom_site_fract_x
_atom_site_fract_y
_atom_site_fract_z
Si Si1 0.068686 0.670218 0.669511
Si Si2 0.374985 0.104350 0.824988
Si Si3 0.203169 0.601143 0.672057
Si Si4 0.500000 0.893105 0.665194
Si Si5 0.262967 0.767226 0.173420
Si Si6 0.930635 0.144625 0.167267
Si Si7 0.819683 0.098141 0.333486
O O1 0.075005 0.704577 0.500000
O O2 0.129046 0.609303 0.709320
O O3 0.071082 0.751753 0.783191
O O4 0.000000 0.621246 0.687824
O O5 0.438691 0.139233 0.751565
O O6 0.323574 0.176988 0.769231
O O7 0.358531 0.000000 0.778003
O O8 0.382792 0.108547 0.000000
O O9 0.214226 0.617942 0.500000
O O10 0.223159 0.500000 0.718902
O O11 0.250602 0.669622 0.754269
O O12 0.500000 0.851609 0.500000
O O13 0.500000 0.000000 0.657826
O O14 0.205799 0.830741 0.216411
O O15 0.266537 0.752767 0.000000
O O16 0.890781 0.085117 0.281987
O O17 0.000000 0.105278 0.174083
O O18 0.904543 0.137406 0.000000
O O19 0.814820 0.136894 0.500000
O O20 0.786364 0.000000 0.324972
#
# Coordination Sequence:
#
# PCOD8197469 Si02
#       7
#     8   8   8   4   8   8   8
#     4   9  17  31  52  74  97 127 164 210 267 330
#     4   9  18  33  53  78 111 149 183 214 252 299
#     4  10  21  36  54  77 105 137 174 218 271 329
#     4   9  17  29  49  81 116 147 180 215 249 290
#     4  11  22  36  55  78 105 140 179 219 261 308
#     4  10  20  33  50  71  95 125 163 210 263 315
#     4  11  23  36  51  72  99 133 172 213 259 313
#
# _framework density 18.147158999999998
#
# number of rings (size 3 to 8) (size 9 to 14) (size 15 to 20)
#    0.000    2.077    1.538    2.077    0.000    5.846 
#    0.000    4.615    0.000    0.000    0.000    3.769 
#    0.000    4.308    0.000    0.000    0.000    0.000 
#
# Total GULP energy -644272.018514 kJ/mol
# GULP energy per Si atom -12389.846510 kJ/mol
# Density = 1.810586 g / cm^3
# Si number density = 18.147159 Si / 1000 Ang^3
#
#
#
# Elastic Constant Matrix: (Units=GPa)
#
#
# Indices 1 2 3 4 5 6 
#
# 1 108.6887 52.9965 39.1420 0.0000 0.0000 0.0000
# 2 52.9965 105.0343 34.0652 0.0000 0.0000 0.0000
# 3 39.1420 34.0652 51.2001 0.0000 0.0000 0.0000
# 4 0.0000 0.0000 0.0000 9.7477 0.0000 0.0000
# 5 0.0000 0.0000 0.0000 0.0000 24.9533 0.0000
# 6 0.0000 0.0000 0.0000 0.0000 0.0000 19.3930
#
#
#
# Elastic Compliance Matrix: (Units=1/GPa)
#
#
# Indices 1 2 3 4 5 6 
#
# 1 0.014297 -0.004678 -0.007817 0.000000 0.000000 0.000000
# 2 -0.004678 0.013671 -0.005519 0.000000 0.000000 0.000000
# 3 -0.007817 -0.005519 0.029180 0.000000 0.000000 0.000000
# 4 0.000000 0.000000 0.000000 0.102588 0.000000 0.000000
# 5 0.000000 0.000000 0.000000 0.000000 0.040075 0.000000
# 6 0.000000 0.000000 0.000000 0.000000 0.000000 0.051565
#
#
# Mechanical properties :
#
#
# Convention : Reuss Voigt Hill
#
# Bulk Modulus (GPa) = 47.35313 57.48115 52.41714
# Shear Modulus (GPa) = 16.98109 20.06676 18.52393
#
# Velocity S-wave (km/s) = 3.06231 3.32893 3.19840
# Velocity P-wave (km/s) = 6.21726 6.82052 6.52586
#
# Compressibility (1/GPa) = 0.02111793
#
# Stress axis : x y z
#
# Youngs Moduli (GPa) = 69.94479 73.14570 34.27047
#
# Poissons Ratio (x) = 0.34221 0.26790
# Poissons Ratio (y) = 0.32723 0.18915
# Poissons Ratio (z) = 0.54677 0.40372
#
# Static dielectric constant tensor:
#      x y z
#    x 3.480250 0.000000 0.000000 
#    y 0.000000 3.163680 0.000000 
#    z 0.000000 0.000000 3.329650 
# 
# 
# High freq. dielectric constant tensor:
#      x y z
#    x 1.689780 0.000000 0.000000 
#    y 0.000000 1.674970 0.000000 
#    z 0.000000 0.000000 1.706040 
# 
# From -- ./inp_files/11053.got.cif
#   From: 2010.03.12/outbox.cif.g09.slc.cpg/sg47_6_cif.got.tgz:11053.got - 2010.04.14 03:12:58.
