data_PCOD8197327
_publ_section_title
;
Structure prediction by ZEFSAII (Michael W. Deem and Ramdas Pophale) SiO2 
 PCOD8197327
Probable space group: P M M M
;
_chemical_formula_sum "Si O2"
_cell_formula_units_Z 44
_cell_length_a 11.449567
_cell_length_b 14.634218
_cell_length_c 15.099390
_cell_angle_alpha 90.000000
_cell_angle_beta 90.000000
_cell_angle_gamma 90.000000
_cell_volume 2529.985229
_symmetry_space_group_name_H-M "P M M M"
_symmetry_group_IT_number 47
_symmetry_cell_setting 'orthorhombic'
loop_
_space_group_symop_operation_xyz
x,y,z
-x,-y,z
x,-y,-z
-x,y,-z
-x,-y,-z
x,y,-z
-x,y,z
x,-y,z
loop_
_atom_site_type_symbol
_atom_site_label
_atom_site_fract_x
_atom_site_fract_y
_atom_site_fract_z
Si Si1 0.500000 0.146807 0.098876
Si Si2 0.128661 0.608389 0.000000
Si Si3 0.137635 0.770558 0.755338
Si Si4 0.500000 0.362306 0.898404
Si Si5 0.745849 0.602911 0.825053
Si Si6 0.861425 0.898165 0.598449
Si Si7 0.752396 0.896409 0.896780
O O1 0.500000 0.254818 0.100389
O O2 0.620052 0.111227 0.143117
O O3 0.500000 0.106946 0.000000
O O4 0.195469 0.642550 0.913879
O O5 0.124011 0.500000 0.000000
O O6 0.000000 0.651573 0.000000
O O7 0.210310 0.675138 0.751655
O O8 0.185001 0.826280 0.670343
O O9 0.162541 0.829872 0.843075
O O10 0.000000 0.749051 0.750416
O O11 0.391632 0.399317 0.842103
O O12 0.500000 0.400426 0.000000
O O13 0.787296 0.500000 0.799844
O O14 0.819507 0.868611 0.500000
O O15 0.000000 0.900539 0.602179
O O16 0.813695 0.000000 0.620597
O O17 0.797273 0.000000 0.885710
O O18 0.754931 0.865974 0.000000
#
# Coordination Sequence:
#
# PCOD8197327 Si02
#       7
#     4   4   8   4   8   8   8
#     4   9  17  31  49  66  89 126 172 215 252 286
#     4   9  18  31  45  63  92 132 172 204 246 302
#     4  11  22  33  49  74 105 136 167 204 250 311
#     4  11  19  33  53  70  91 127 185 243 267 279
#     4  11  22  34  49  70  97 134 177 221 263 296
#     4   8  15  31  55  79 101 127 163 207 252 300
#     4  10  20  33  48  68  98 136 172 205 246 298
#
# _framework density 17.391404999999999
#
# number of rings (size 3 to 8) (size 9 to 14) (size 15 to 20)
#    0.000    2.091    2.727    2.182    1.273    4.000 
#    0.000    0.909    0.000    0.545    0.000    5.091 
#    0.000    8.727    0.000    0.000    0.000    0.000 
#
# Total GULP energy -545412.739008 kJ/mol
# GULP energy per Si atom -12395.744068 kJ/mol
# Density = 1.735182 g / cm^3
# Si number density = 17.391405 Si / 1000 Ang^3
#
#
#
# Elastic Constant Matrix: (Units=GPa)
#
#
# Indices 1 2 3 4 5 6 
#
# 1 77.5206 22.5834 25.1862 0.0000 0.0000 0.0000
# 2 22.5834 118.5675 55.9882 0.0000 0.0000 0.0000
# 3 25.1862 55.9882 83.6893 0.0000 0.0000 0.0000
# 4 0.0000 0.0000 0.0000 19.4826 0.0000 0.0000
# 5 0.0000 0.0000 0.0000 0.0000 4.8501 0.0000
# 6 0.0000 0.0000 0.0000 0.0000 0.0000 31.0309
#
#
#
# Elastic Compliance Matrix: (Units=1/GPa)
#
#
# Indices 1 2 3 4 5 6 
#
# 1 0.014381 -0.001017 -0.003648 0.000000 0.000000 0.000000
# 2 -0.001017 0.012401 -0.007990 0.000000 0.000000 0.000000
# 3 -0.003648 -0.007990 0.018392 0.000000 0.000000 0.000000
# 4 0.000000 0.000000 0.000000 0.051328 0.000000 0.000000
# 5 0.000000 0.000000 0.000000 0.000000 0.206181 0.000000
# 6 0.000000 0.000000 0.000000 0.000000 0.000000 0.032226
#
#
# Mechanical properties :
#
#
# Convention : Reuss Voigt Hill
#
# Bulk Modulus (GPa) = 50.34033 54.14366 52.24199
# Shear Modulus (GPa) = 13.62993 22.80735 18.21864
#
# Velocity S-wave (km/s) = 2.80253 3.62527 3.24012
# Velocity P-wave (km/s) = 6.28336 6.98022 6.64094
#
# Compressibility (1/GPa) = 0.01986479
#
# Stress axis : x y z
#
# Youngs Moduli (GPa) = 69.53549 80.64121 54.37102
#
# Poissons Ratio (x) = 0.08198 0.19834
# Poissons Ratio (y) = 0.07069 0.43443
# Poissons Ratio (z) = 0.25366 0.64433
#
# Static dielectric constant tensor:
#      x y z
#    x 3.205830 0.000000 0.000000 
#    y 0.000000 3.304220 0.000000 
#    z 0.000000 0.000000 3.108860 
# 
# 
# High freq. dielectric constant tensor:
#      x y z
#    x 1.659680 0.000000 0.000000 
#    y 0.000000 1.683980 0.000000 
#    z 0.000000 0.000000 1.620800 
# 
# From -- ./inp_files/22630.got.cif
#   From: 2010.03.12/outbox.cif.g09.slc.cpg/sg47_12_cif.got.tgz:22630.got - 2010.04.14 03:12:58.
