data_PCOD8197925
_publ_section_title
;
Structure prediction by ZEFSAII (Michael W. Deem and Ramdas Pophale) SiO2 
 PCOD8197925
Probable space group: P M M M
;
_chemical_formula_sum "Si O2"
_cell_formula_units_Z 64
_cell_length_a 8.993336
_cell_length_b 23.839409
_cell_length_c 15.472780
_cell_angle_alpha 90.000000
_cell_angle_beta 90.000000
_cell_angle_gamma 90.000000
_cell_volume 3317.299281
_symmetry_space_group_name_H-M "P M M M"
_symmetry_group_IT_number 47
_symmetry_cell_setting 'orthorhombic'
loop_
_space_group_symop_operation_xyz
x,y,z
-x,-y,z
x,-y,-z
-x,y,-z
-x,-y,-z
x,y,-z
-x,y,z
x,-y,z
loop_
_atom_site_type_symbol
_atom_site_label
_atom_site_fract_x
_atom_site_fract_y
_atom_site_fract_z
Si Si1 0.170850 0.163848 0.904424
Si Si2 0.824115 0.238343 0.744619
Si Si3 0.176634 0.634556 0.254796
Si Si4 0.826160 0.063251 0.653196
Si Si5 0.328395 0.937060 0.834312
Si Si6 0.329980 0.168753 0.403567
Si Si7 0.327084 0.435817 0.400715
Si Si8 0.823205 0.563059 0.904378
O O1 0.227604 0.208030 0.832944
O O2 0.269888 0.107515 0.903664
O O3 0.000000 0.147528 0.886688
O O4 0.188861 0.190794 0.000000
O O5 0.764873 0.301834 0.747738
O O6 0.756090 0.208620 0.661597
O O7 0.000000 0.236493 0.734897
O O8 0.232182 0.605113 0.341411
O O9 0.242017 0.603649 0.169614
O O10 0.000000 0.632309 0.254721
O O11 0.770406 0.072279 0.750000
O O12 0.740345 0.106616 0.592562
O O13 0.000000 0.076782 0.650330
O O14 0.793099 0.000000 0.620984
O O15 0.500000 0.925714 0.811529
O O16 0.307378 0.000000 0.871248
O O17 0.317850 0.194254 0.500000
O O18 0.500000 0.164195 0.373409
O O19 0.290014 0.421431 0.500000
O O20 0.500000 0.426125 0.381882
O O21 0.282946 0.500000 0.380567
O O22 0.765846 0.500000 0.886103
O O23 0.000000 0.564016 0.901670
O O24 0.769247 0.582747 0.000000
#
# Coordination Sequence:
#
# PCOD8197925 Si02
#       8
#     8   8   8   8   8   8   8   8
#     4  10  21  37  57  80 108 146 190 232 278 334
#     4  10  22  39  56  78 110 147 186 231 280 326
#     4  10  20  33  54  83 111 142 185 232 274 318
#     4  10  20  35  58  86 114 143 175 217 275 338
#     4  10  20  34  55  83 113 144 180 225 277 332
#     4  11  24  40  59  82 108 143 186 230 277 329
#     4   9  19  36  56  79 110 147 183 220 270 332
#     4   8  14  26  47  78 114 146 175 213 265 322
#
# _framework density 19.292801000000001
#
# number of rings (size 3 to 8) (size 9 to 14) (size 15 to 20)
#    0.000    2.250    1.250    2.250    0.000    5.750 
#    0.000    8.125    0.000    0.375    0.000    3.500 
#    0.000    0.000    0.000    0.000    0.000    0.000 
#
# Total GULP energy -793554.798566 kJ/mol
# GULP energy per Si atom -12399.293728 kJ/mol
# Density = 1.924889 g / cm^3
# Si number density = 19.292801 Si / 1000 Ang^3
#
#
#
# Elastic Constant Matrix: (Units=GPa)
#
#
# Indices 1 2 3 4 5 6 
#
# 1 30.6848 31.6818 22.5685 0.0000 0.0000 0.0000
# 2 31.6818 136.4378 71.5883 0.0000 0.0000 0.0000
# 3 22.5685 71.5883 121.2029 0.0000 0.0000 0.0000
# 4 0.0000 0.0000 0.0000 13.9015 0.0000 0.0000
# 5 0.0000 0.0000 0.0000 0.0000 7.8230 0.0000
# 6 0.0000 0.0000 0.0000 0.0000 0.0000 20.3743
#
#
#
# Elastic Compliance Matrix: (Units=1/GPa)
#
#
# Indices 1 2 3 4 5 6 
#
# 1 0.043658 -0.008509 -0.003103 0.000000 0.000000 0.000000
# 2 -0.008509 0.012279 -0.005668 0.000000 0.000000 0.000000
# 3 -0.003103 -0.005668 0.012176 0.000000 0.000000 0.000000
# 4 0.000000 0.000000 0.000000 0.071935 0.000000 0.000000
# 5 0.000000 0.000000 0.000000 0.000000 0.127828 0.000000
# 6 0.000000 0.000000 0.000000 0.000000 0.000000 0.049081
#
#
# Mechanical properties :
#
#
# Convention : Reuss Voigt Hill
#
# Bulk Modulus (GPa) = 29.80472 60.00029 44.90250
# Shear Modulus (GPa) = 13.78539 19.25223 16.51881
#
# Velocity S-wave (km/s) = 2.67598 3.16238 2.92929
# Velocity P-wave (km/s) = 5.00300 6.67095 5.89625
#
# Compressibility (1/GPa) = 0.03355173
#
# Stress axis : x y z
#
# Youngs Moduli (GPa) = 22.90546 81.43696 82.12566
#
# Poissons Ratio (x) = 0.69298 0.25485
# Poissons Ratio (y) = 0.19491 0.46552
# Poissons Ratio (z) = 0.07108 0.46161
#
# Static dielectric constant tensor:
#      x y z
#    x 3.322340 0.000000 0.000000 
#    y 0.000000 3.673960 0.000000 
#    z 0.000000 0.000000 3.540940 
# 
# 
# High freq. dielectric constant tensor:
#      x y z
#    x 1.732740 0.000000 0.000000 
#    y 0.000000 1.747830 0.000000 
#    z 0.000000 0.000000 1.755130 
# 
# From -- ./inp_files/21916.got.cif
#   From: 2010.03.12/outbox.cif.g09.slc.cpg/sg47_11_cif.got.tgz:21916.got - 2010.04.14 03:12:58.
