data_PCOD8197696
_publ_section_title
;
Structure prediction by ZEFSAII (Michael W. Deem and Ramdas Pophale) SiO2 
 PCOD8197696
Probable space group: P M M M
;
_chemical_formula_sum "Si O2"
_cell_formula_units_Z 40
_cell_length_a 9.614569
_cell_length_b 7.766895
_cell_length_c 28.963524
_cell_angle_alpha 90.000000
_cell_angle_beta 90.000000
_cell_angle_gamma 90.000000
_cell_volume 2162.861231
_symmetry_space_group_name_H-M "P M M M"
_symmetry_group_IT_number 47
_symmetry_cell_setting 'orthorhombic'
loop_
_space_group_symop_operation_xyz
x,y,z
-x,-y,z
x,-y,-z
-x,y,-z
-x,-y,-z
x,y,-z
-x,y,z
x,-y,z
loop_
_atom_site_type_symbol
_atom_site_label
_atom_site_fract_x
_atom_site_fract_y
_atom_site_fract_z
Si Si1 0.163070 0.697718 0.882235
Si Si2 0.159247 0.691479 0.614685
Si Si3 0.342079 0.196066 0.695304
Si Si4 0.165280 0.000000 0.551491
Si Si5 0.343163 0.701854 0.204772
Si Si6 0.164592 0.000000 0.051325
O O1 0.200431 0.500000 0.895777
O O2 0.242222 0.758732 0.836360
O O3 0.213041 0.825443 0.922862
O O4 0.000000 0.717329 0.872439
O O5 0.171504 0.500000 0.593100
O O6 0.245190 0.693121 0.662025
O O7 0.000000 0.736472 0.626962
O O8 0.218412 0.828907 0.577863
O O9 0.500000 0.266083 0.691896
O O10 0.290296 0.210450 0.748094
O O11 0.332425 0.000000 0.678949
O O12 0.229603 0.000000 0.500000
O O13 0.000000 0.000000 0.548346
O O14 0.500000 0.762269 0.192713
O O15 0.336762 0.500000 0.212645
O O16 0.000000 0.000000 0.047778
O O17 0.230617 0.000000 0.000000
#
# Coordination Sequence:
#
# PCOD8197696 Si02
#       6
#     8   8   8   4   8   4
#     4   9  18  32  50  73  99 127 162 202 243 289
#     4  10  20  34  54  79 105 135 171 210 254 301
#     4  10  20  33  51  76 105 139 175 208 248 300
#     4   9  18  34  54  77 106 134 165 211 260 305
#     4   9  18  32  49  71 100 133 166 200 241 291
#     4   9  18  32  50  73  98 124 159 203 250 295
#
# _framework density 18.494019000000002
#
# number of rings (size 3 to 8) (size 9 to 14) (size 15 to 20)
#    0.000    2.600    1.000    0.600    1.400    2.800 
#    0.000    6.000    0.000    2.400    0.000    4.200 
#    0.000    0.000    0.000    0.000    0.000    0.000 
#
# Total GULP energy -495956.837319 kJ/mol
# GULP energy per Si atom -12398.920933 kJ/mol
# Density = 1.845193 g / cm^3
# Si number density = 18.494019 Si / 1000 Ang^3
#
#
#
# Elastic Constant Matrix: (Units=GPa)
#
#
# Indices 1 2 3 4 5 6 
#
# 1 44.8169 28.6719 50.3175 0.0000 0.0000 0.0000
# 2 28.6719 106.8230 68.1205 0.0000 0.0000 0.0000
# 3 50.3175 68.1205 148.5872 0.0000 0.0000 0.0000
# 4 0.0000 0.0000 0.0000 26.2309 0.0000 0.0000
# 5 0.0000 0.0000 0.0000 0.0000 4.8453 0.0000
# 6 0.0000 0.0000 0.0000 0.0000 0.0000 15.0716
#
#
#
# Elastic Compliance Matrix: (Units=1/GPa)
#
#
# Indices 1 2 3 4 5 6 
#
# 1 0.036547 -0.002709 -0.011134 0.000000 0.000000 0.000000
# 2 -0.002709 0.013430 -0.005239 0.000000 0.000000 0.000000
# 3 -0.011134 -0.005239 0.012903 0.000000 0.000000 0.000000
# 4 0.000000 0.000000 0.000000 0.038123 0.000000 0.000000
# 5 0.000000 0.000000 0.000000 0.000000 0.206385 0.000000
# 6 0.000000 0.000000 0.000000 0.000000 0.000000 0.066350
#
#
# Mechanical properties :
#
#
# Convention : Reuss Voigt Hill
#
# Bulk Modulus (GPa) = 40.46365 66.04966 53.25666
# Shear Modulus (GPa) = 11.90076 19.43736 15.66906
#
# Velocity S-wave (km/s) = 2.53947 3.24544 2.91391
# Velocity P-wave (km/s) = 5.52497 7.05942 6.33880
#
# Compressibility (1/GPa) = 0.02471354
#
# Stress axis : x y z
#
# Youngs Moduli (GPa) = 27.36199 74.46245 77.50377
#
# Poissons Ratio (x) = 0.20173 0.86295
# Poissons Ratio (y) = 0.07413 0.40608
# Poissons Ratio (z) = 0.30466 0.39014
#
# Static dielectric constant tensor:
#      x y z
#    x 3.200000 0.000000 0.000000 
#    y 0.000000 3.524990 0.000000 
#    z 0.000000 0.000000 3.454690 
# 
# 
# High freq. dielectric constant tensor:
#      x y z
#    x 1.685920 0.000000 0.000000 
#    y 0.000000 1.730010 0.000000 
#    z 0.000000 0.000000 1.708590 
# 
# From -- ./inp_files/1855.got.cif
#   From: 2010.03.12/outbox.cif.g09.slc.cpg/sg47_1_cif.got.tgz:1855.got - 2010.04.14 03:12:58.
