data_PCOD8197761
_publ_section_title
;
Structure prediction by ZEFSAII (Michael W. Deem and Ramdas Pophale) SiO2 
 PCOD8197761
Probable space group: P M M M
;
_chemical_formula_sum "Si O2"
_cell_formula_units_Z 36
_cell_length_a 9.008838
_cell_length_b 23.063328
_cell_length_c 9.257681
_cell_angle_alpha 90.000000
_cell_angle_beta 90.000000
_cell_angle_gamma 90.000000
_cell_volume 1923.503428
_symmetry_space_group_name_H-M "P M M M"
_symmetry_group_IT_number 47
_symmetry_cell_setting 'orthorhombic'
loop_
_space_group_symop_operation_xyz
x,y,z
-x,-y,z
x,-y,-z
-x,y,-z
-x,-y,-z
x,y,-z
-x,y,z
x,-y,z
loop_
_atom_site_type_symbol
_atom_site_label
_atom_site_fract_x
_atom_site_fract_y
_atom_site_fract_z
Si Si1 0.668725 0.566139 0.168751
Si Si2 0.171771 0.334919 0.667794
Si Si3 0.174077 0.895137 0.668771
Si Si4 0.326093 0.000000 0.169424
Si Si5 0.666972 0.778959 0.328435
O O1 0.500000 0.580909 0.213487
O O2 0.706125 0.500000 0.209863
O O3 0.781327 0.606630 0.253395
O O4 0.691444 0.576318 0.000000
O O5 0.207138 0.343235 0.500000
O O6 0.261026 0.280063 0.732532
O O7 0.000000 0.322771 0.695820
O O8 0.208566 0.905377 0.500000
O O9 0.254513 0.943693 0.760709
O O10 0.236499 0.833573 0.723422
O O11 0.000000 0.897198 0.699655
O O12 0.500000 0.000000 0.202761
O O13 0.292244 0.000000 0.000000
O O14 0.667711 0.776557 0.500000
O O15 0.500000 0.784809 0.267777
#
# Coordination Sequence:
#
# PCOD8197761 Si02
#       5
#     8   8   8   4   8
#     4   9  19  36  55  74  99 134 176 219 261 307
#     4  10  20  33  51  78 110 139 169 210 259 309
#     4  10  20  35  57  83 108 136 173 215 259 309
#     4  11  24  39  54  76 108 143 178 217 260 304
#     4   9  17  31  53  79 106 137 172 211 256 305
#
# _framework density 18.715848999999999
#
# number of rings (size 3 to 8) (size 9 to 14) (size 15 to 20)
#    0.000    2.333    0.000    3.333    0.000    8.889 
#    0.000    4.444    0.000    6.667    0.000    0.000 
#    0.000    0.000    0.000    0.000    0.000    0.000 
#
# Total GULP energy -446474.993551 kJ/mol
# GULP energy per Si atom -12402.083154 kJ/mol
# Density = 1.867325 g / cm^3
# Si number density = 18.715849 Si / 1000 Ang^3
#
#
#
# Elastic Constant Matrix: (Units=GPa)
#
#
# Indices 1 2 3 4 5 6 
#
# 1 113.3636 74.7116 49.8923 0.0000 0.0000 0.0000
# 2 74.7116 153.5946 53.9924 0.0000 0.0000 0.0000
# 3 49.8923 53.9924 49.4068 0.0000 0.0000 0.0000
# 4 0.0000 0.0000 0.0000 -30.6411 0.0000 0.0000
# 5 0.0000 0.0000 0.0000 0.0000 26.5193 0.0000
# 6 0.0000 0.0000 0.0000 0.0000 0.0000 34.8184
#
#
#
# Elastic Compliance Matrix: (Units=1/GPa)
#
#
# Indices 1 2 3 4 5 6 
#
# 1 0.017044 -0.003638 -0.013236 0.000000 0.000000 0.000000
# 2 -0.003638 0.011348 -0.008728 0.000000 0.000000 0.000000
# 3 -0.013236 -0.008728 0.043144 0.000000 0.000000 0.000000
# 4 0.000000 0.000000 0.000000 -0.032636 0.000000 0.000000
# 5 0.000000 0.000000 0.000000 0.000000 0.037708 0.000000
# 6 0.000000 0.000000 0.000000 0.000000 0.000000 0.028720
#
#
# Mechanical properties :
#
#
# Convention : Reuss Voigt Hill
#
# Bulk Modulus (GPa) = 49.18136 74.83971 62.01053
# Shear Modulus (GPa) = 30.61651 15.32390 22.97020
#
# Velocity S-wave (km/s) = 4.04896 2.86451 3.50710
# Velocity P-wave (km/s) = 6.94217 7.14246 7.04303
#
# Compressibility (1/GPa) = 0.02033291
#
# Stress axis : x y z
#
# Youngs Moduli (GPa) = 58.67213 88.11947 23.17800
#
# Poissons Ratio (x) = 0.32055 0.30678
# Poissons Ratio (y) = 0.21343 0.20230
# Poissons Ratio (z) = 0.77659 0.76911
#
# Static dielectric constant tensor:
#      x y z
#    x 3.555950 0.000000 0.000000 
#    y 0.000000 3.681720 0.000000 
#    z 0.000000 0.000000 3.122620 
# 
# 
# High freq. dielectric constant tensor:
#      x y z
#    x 1.739780 0.000000 0.000000 
#    y 0.000000 1.743380 0.000000 
#    z 0.000000 0.000000 1.692670 
# 
# From -- ./inp_files/1448.got.cif
#   From: 2010.03.12/outbox.cif.g09.slc.cpg/sg47_1_cif.got.tgz:1448.got - 2010.04.14 03:12:58.
