data_PCOD8197550
_publ_section_title
;
Structure prediction by ZEFSAII (Michael W. Deem and Ramdas Pophale) SiO2 
 PCOD8197550
Probable space group: P M M M
;
_chemical_formula_sum "Si O2"
_cell_formula_units_Z 48
_cell_length_a 9.041779
_cell_length_b 30.955729
_cell_length_c 9.228340
_cell_angle_alpha 90.000000
_cell_angle_beta 90.000000
_cell_angle_gamma 90.000000
_cell_volume 2582.964936
_symmetry_space_group_name_H-M "P M M M"
_symmetry_group_IT_number 47
_symmetry_cell_setting 'orthorhombic'
loop_
_space_group_symop_operation_xyz
x,y,z
-x,-y,z
x,-y,-z
-x,y,-z
-x,-y,-z
x,y,-z
-x,y,z
x,-y,z
loop_
_atom_site_type_symbol
_atom_site_label
_atom_site_fract_x
_atom_site_fract_y
_atom_site_fract_z
Si Si1 0.175823 0.747733 0.162120
Si Si2 0.829762 0.075458 0.329916
Si Si3 0.833558 0.500000 0.171980
Si Si4 0.171784 0.662912 0.670137
Si Si5 0.824232 0.171886 0.339192
Si Si6 0.326017 0.586080 0.167412
Si Si7 0.325598 0.000000 0.164176
O O1 0.227681 0.707227 0.257560
O O2 0.240572 0.791840 0.231386
O O3 0.000000 0.750029 0.158922
O O4 0.239866 0.742917 0.000000
O O5 0.805890 0.067996 0.500000
O O6 0.779675 0.123972 0.285842
O O7 0.000000 0.067385 0.288545
O O8 0.729887 0.042845 0.241998
O O9 0.749257 0.457508 0.227541
O O10 0.000000 0.500000 0.234494
O O11 0.834097 0.500000 0.000000
O O12 0.200105 0.666439 0.500000
O O13 0.268754 0.624861 0.735225
O O14 0.000000 0.654182 0.705611
O O15 0.760129 0.180486 0.500000
O O16 0.000000 0.174866 0.346457
O O17 0.500000 0.580921 0.186338
O O18 0.283093 0.594721 0.000000
O O19 0.500000 0.000000 0.171126
O O20 0.267113 0.000000 0.000000
#
# Coordination Sequence:
#
# PCOD8197550 Si02
#       7
#     8   8   4   8   8   8   4
#     4   9  16  26  44  72 103 133 166 205 249 297
#     4   9  18  33  54  78 101 128 166 209 252 302
#     4   9  17  31  54  81 106 133 166 206 252 303
#     4  10  20  33  50  73 102 137 175 213 252 294
#     4   8  14  26  45  71 102 130 157 198 252 304
#     4  10  20  34  53  77 105 136 170 209 254 303
#     4  11  24  37  48  68 100 135 170 209 254 302
#
# _framework density 18.583293999999999
#
# number of rings (size 3 to 8) (size 9 to 14) (size 15 to 20)
#    0.000    2.667    0.000    3.250    0.000    7.667 
#    0.000    2.083    0.000    3.500    0.000    4.667 
#    0.000    0.000    0.000    0.000    0.000    0.000 
#
# Total GULP energy -595160.748376 kJ/mol
# GULP energy per Si atom -12399.182258 kJ/mol
# Density = 1.854100 g / cm^3
# Si number density = 18.583294 Si / 1000 Ang^3
#
#
#
# Elastic Constant Matrix: (Units=GPa)
#
#
# Indices 1 2 3 4 5 6 
#
# 1 52.8508 46.3308 34.7414 0.0000 0.0000 0.0000
# 2 46.3308 173.9039 76.9849 0.0000 0.0000 0.0000
# 3 34.7414 76.9849 98.3691 0.0000 0.0000 0.0000
# 4 0.0000 0.0000 0.0000 32.4463 0.0000 0.0000
# 5 0.0000 0.0000 0.0000 0.0000 20.2828 0.0000
# 6 0.0000 0.0000 0.0000 0.0000 0.0000 -2.2115
#
#
#
# Elastic Compliance Matrix: (Units=1/GPa)
#
#
# Indices 1 2 3 4 5 6 
#
# 1 0.026769 -0.004508 -0.005926 0.000000 0.000000 0.000000
# 2 -0.004508 0.009558 -0.005888 0.000000 0.000000 0.000000
# 3 -0.005926 -0.005888 0.016867 0.000000 0.000000 0.000000
# 4 0.000000 0.000000 0.000000 0.030820 0.000000 0.000000
# 5 0.000000 0.000000 0.000000 0.000000 0.049303 0.000000
# 6 0.000000 0.000000 0.000000 0.000000 0.000000 -0.452172
#
#
# Mechanical properties :
#
#
# Convention : Reuss Voigt Hill
#
# Bulk Modulus (GPa) = 48.66375 71.24866 59.95620
# Shear Modulus (GPa) = -17.89790 21.24129 1.67169
#
# Velocity S-wave (km/s) = -3.10678 3.38454 0.94948
# Velocity P-wave (km/s) = 3.65708 7.32782 5.79099
#
# Compressibility (1/GPa) = 0.02054918
#
# Stress axis : x y z
#
# Youngs Moduli (GPa) = 37.35716 104.62557 59.28908
#
# Poissons Ratio (x) = 0.47169 0.35133
# Poissons Ratio (y) = 0.16842 0.34909
# Poissons Ratio (z) = 0.22137 0.61602
#
# Static dielectric constant tensor:
#      x y z
#    x 3.038840 0.000000 0.000000 
#    y 0.000000 3.668370 0.000000 
#    z 0.000000 0.000000 3.468180 
# 
# 
# High freq. dielectric constant tensor:
#      x y z
#    x 1.680940 0.000000 0.000000 
#    y 0.000000 1.740070 0.000000 
#    z 0.000000 0.000000 1.713430 
# 
# From -- ./inp_files/2569.got.cif
#   From: 2010.03.12/outbox.cif.g09.slc.cpg/sg47_2_cif.got.tgz:2569.got - 2010.04.14 03:12:58.
