data_PCOD8197862
_publ_section_title
;
Structure prediction by ZEFSAII (Michael W. Deem and Ramdas Pophale) SiO2 
 PCOD8197862
Probable space group: P M M M
;
_chemical_formula_sum "Si O2"
_cell_formula_units_Z 48
_cell_length_a 31.417794
_cell_length_b 8.609647
_cell_length_c 9.139983
_cell_angle_alpha 90.000000
_cell_angle_beta 90.000000
_cell_angle_gamma 90.000000
_cell_volume 2472.329901
_symmetry_space_group_name_H-M "P M M M"
_symmetry_group_IT_number 47
_symmetry_cell_setting 'orthorhombic'
loop_
_space_group_symop_operation_xyz
x,y,z
-x,-y,z
x,-y,-z
-x,y,-z
-x,-y,-z
x,y,-z
-x,y,z
x,-y,z
loop_
_atom_site_type_symbol
_atom_site_label
_atom_site_fract_x
_atom_site_fract_y
_atom_site_fract_z
Si Si1 0.955148 0.818849 0.170978
Si Si2 0.372956 0.683684 0.662838
Si Si3 0.705245 0.819459 0.831971
Si Si4 0.216193 0.319825 0.669858
Si Si5 0.546902 0.684751 0.164273
Si Si6 0.137253 0.817270 0.172314
O O1 0.909543 0.756599 0.228982
O O2 0.000000 0.747427 0.237284
O O3 0.955678 0.000000 0.203408
O O4 0.955634 0.786740 0.000000
O O5 0.367235 0.753323 0.500000
O O6 0.376435 0.500000 0.655105
O O7 0.333001 0.724999 0.761455
O O8 0.416385 0.754109 0.731576
O O9 0.748957 0.783348 0.750609
O O10 0.695027 0.000000 0.817153
O O11 0.709907 0.768253 0.000000
O O12 0.216214 0.275074 0.500000
O O13 0.227043 0.500000 0.693195
O O14 0.170430 0.282778 0.736838
O O15 0.500000 0.738499 0.219549
O O16 0.549108 0.500000 0.163793
O O17 0.554734 0.746988 0.000000
O O18 0.143266 0.000000 0.204227
O O19 0.143167 0.785374 0.000000
#
# Coordination Sequence:
#
# PCOD8197862 Si02
#       6
#     8   8   8   8   8   8
#     4   7  10  19  39  69 102 131 160 200 248 292
#     4  10  20  33  52  80 111 141 173 209 252 302
#     4  11  24  40  58  79 101 128 166 210 256 307
#     4  11  24  39  54  74 101 133 169 207 250 303
#     4   8  14  26  46  73 105 141 179 216 253 293
#     4   9  17  30  51  79 106 132 167 209 252 300
#
# _framework density 19.414885999999999
#
# number of rings (size 3 to 8) (size 9 to 14) (size 15 to 20)
#    0.000    2.667    0.000    4.500    0.000    8.333 
#    0.000    1.667    0.000    1.500    0.000    9.333 
#    0.000    0.000    0.000    0.000    0.000    0.000 
#
# Total GULP energy -594752.370132 kJ/mol
# GULP energy per Si atom -12390.674378 kJ/mol
# Density = 1.937070 g / cm^3
# Si number density = 19.414886 Si / 1000 Ang^3
#
#
#
# Elastic Constant Matrix: (Units=GPa)
#
#
# Indices 1 2 3 4 5 6 
#
# 1 163.3001 7.8247 60.5749 0.0000 0.0000 0.0000
# 2 7.8247 16.6365 19.4455 0.0000 0.0000 0.0000
# 3 60.5749 19.4455 105.6231 0.0000 0.0000 0.0000
# 4 0.0000 0.0000 0.0000 19.2361 0.0000 0.0000
# 5 0.0000 0.0000 0.0000 0.0000 -4.5036 0.0000
# 6 0.0000 0.0000 0.0000 0.0000 0.0000 77.0289
#
#
#
# Elastic Compliance Matrix: (Units=1/GPa)
#
#
# Indices 1 2 3 4 5 6 
#
# 1 0.007830 0.001995 -0.004858 0.000000 0.000000 0.000000
# 2 0.001995 0.077099 -0.015338 0.000000 0.000000 0.000000
# 3 -0.004858 -0.015338 0.015077 0.000000 0.000000 0.000000
# 4 0.000000 0.000000 0.000000 0.051986 0.000000 0.000000
# 5 0.000000 0.000000 0.000000 0.000000 -0.222047 0.000000
# 6 0.000000 0.000000 0.000000 0.000000 0.000000 0.012982
#
#
# Mechanical properties :
#
#
# Convention : Reuss Voigt Hill
#
# Bulk Modulus (GPa) = 15.72219 51.24999 33.48609
# Shear Modulus (GPa) = 9421.32386 31.53326 4726.42856
#
# Velocity S-wave (km/s) = 69.73639 4.03448 49.39352
# Velocity P-wave (km/s) = 80.57502 6.93955 57.18606
#
# Compressibility (1/GPa) = 0.06360439
#
# Stress axis : x y z
#
# Youngs Moduli (GPa) = 127.71246 12.97038 66.32400
#
# Poissons Ratio (x) = -0.02588 0.32220
# Poissons Ratio (y) = -0.25484 1.01731
# Poissons Ratio (z) = 0.62042 0.19895
#
# Static dielectric constant tensor:
#      x y z
#    x 4.093870 0.000000 0.000000 
#    y 0.000000 3.090210 0.000000 
#    z 0.000000 0.000000 3.535380 
# 
# 
# High freq. dielectric constant tensor:
#      x y z
#    x 1.786040 0.000000 0.000000 
#    y 0.000000 1.710400 0.000000 
#    z 0.000000 0.000000 1.736720 
# 
# From -- ./inp_files/2522.got.cif
#   From: 2010.03.12/outbox.cif.g09.slc.cpg/sg47_2_cif.got.tgz:2522.got - 2010.04.14 03:12:58.
