data_PCOD8197636
_publ_section_title
;
Structure prediction by ZEFSAII (Michael W. Deem and Ramdas Pophale) SiO2 
 PCOD8197636
Probable space group: P M M M
;
_chemical_formula_sum "Si O2"
_cell_formula_units_Z 64
_cell_length_a 9.040514
_cell_length_b 14.874442
_cell_length_c 24.287119
_cell_angle_alpha 90.000000
_cell_angle_beta 90.000000
_cell_angle_gamma 90.000000
_cell_volume 3265.952066
_symmetry_space_group_name_H-M "P M M M"
_symmetry_group_IT_number 47
_symmetry_cell_setting 'orthorhombic'
loop_
_space_group_symop_operation_xyz
x,y,z
-x,-y,z
x,-y,-z
-x,y,-z
-x,-y,-z
x,y,-z
-x,y,z
x,-y,z
loop_
_atom_site_type_symbol
_atom_site_label
_atom_site_fract_x
_atom_site_fract_y
_atom_site_fract_z
Si Si1 0.660979 0.903259 0.435946
Si Si2 0.171148 0.269056 0.440587
Si Si3 0.329483 0.600366 0.880817
Si Si4 0.825491 0.601100 0.769849
Si Si5 0.328782 0.220410 0.937457
Si Si6 0.828126 0.895863 0.846560
Si Si7 0.325632 0.896159 0.266948
Si Si8 0.823749 0.735684 0.677024
O O1 0.641040 0.917336 0.500000
O O2 0.500000 0.870084 0.412208
O O3 0.793812 0.834421 0.426207
O O4 0.700703 0.000000 0.408576
O O5 0.247486 0.299256 0.500000
O O6 0.219043 0.313185 0.382200
O O7 0.000000 0.282550 0.450189
O O8 0.500000 0.599032 0.863811
O O9 0.279674 0.500000 0.900364
O O10 0.239639 0.632998 0.827669
O O11 0.298644 0.673089 0.928351
O O12 0.773119 0.500000 0.755987
O O13 0.765340 0.666591 0.722576
O O14 0.000000 0.607186 0.774025
O O15 0.500000 0.197722 0.925937
O O16 0.228874 0.160363 0.898209
O O17 0.285127 0.197895 0.000000
O O18 0.743409 0.866372 0.791406
O O19 0.000000 0.875060 0.837175
O O20 0.799150 0.000000 0.859885
O O21 0.500000 0.881927 0.263575
O O22 0.257889 0.831843 0.314439
O O23 0.285196 0.000000 0.280118
O O24 0.000000 0.751513 0.679618
#
# Coordination Sequence:
#
# PCOD8197636 Si02
#       8
#     8   8   8   8   8   8   8   8
#     4   8  14  25  40  57  79 110 149 191 231 272
#     4   9  18  31  45  63  90 125 163 200 240 290
#     4   9  18  33  53  77 105 135 166 203 250 304
#     4   9  18  33  53  76 100 126 160 205 257 309
#     4  10  21  35  52  77 108 142 179 216 253 295
#     4  10  21  37  56  76 101 136 176 218 263 306
#     4  10  21  36  54  77 104 133 167 209 257 307
#     4  10  20  33  51  74 100 132 167 206 253 302
#
# _framework density 19.596124
#
# number of rings (size 3 to 8) (size 9 to 14) (size 15 to 20)
#    0.000    2.625    0.000    1.875    0.000    6.500 
#    0.000    6.250    0.000    0.375    0.000    5.250 
#    0.000    0.000    0.000    7.375    0.000    7.750 
#
# Total GULP energy -792876.047610 kJ/mol
# GULP energy per Si atom -12388.688244 kJ/mol
# Density = 1.955152 g / cm^3
# Si number density = 19.596124 Si / 1000 Ang^3
#
#
#
# Elastic Constant Matrix: (Units=GPa)
#
#
# Indices 1 2 3 4 5 6 
#
# 1 37.4129 18.1811 27.8164 0.0000 0.0000 0.0000
# 2 18.1811 48.8589 29.0678 0.0000 0.0000 0.0000
# 3 27.8164 29.0678 114.4871 0.0000 0.0000 0.0000
# 4 0.0000 0.0000 0.0000 14.8154 0.0000 0.0000
# 5 0.0000 0.0000 0.0000 0.0000 15.0385 0.0000
# 6 0.0000 0.0000 0.0000 0.0000 0.0000 22.8024
#
#
#
# Elastic Compliance Matrix: (Units=1/GPa)
#
#
# Indices 1 2 3 4 5 6 
#
# 1 0.036135 -0.009686 -0.006320 0.000000 0.000000 0.000000
# 2 -0.009686 0.026705 -0.004427 0.000000 0.000000 0.000000
# 3 -0.006320 -0.004427 0.011394 0.000000 0.000000 0.000000
# 4 0.000000 0.000000 0.000000 0.067497 0.000000 0.000000
# 5 0.000000 0.000000 0.000000 0.000000 0.066496 0.000000
# 6 0.000000 0.000000 0.000000 0.000000 0.000000 0.043855
#
#
# Mechanical properties :
#
#
# Convention : Reuss Voigt Hill
#
# Bulk Modulus (GPa) = 29.96922 38.98772 34.47847
# Shear Modulus (GPa) = 16.44347 18.91083 17.67715
#
# Velocity S-wave (km/s) = 2.89990 3.10986 3.00671
# Velocity P-wave (km/s) = 5.15162 5.73008 5.44853
#
# Compressibility (1/GPa) = 0.03336757
#
# Stress axis : x y z
#
# Youngs Moduli (GPa) = 27.67405 37.44590 87.76396
#
# Poissons Ratio (x) = 0.36271 0.55469
# Poissons Ratio (y) = 0.26806 0.38852
# Poissons Ratio (z) = 0.17491 0.16577
#
# Static dielectric constant tensor:
#      x y z
#    x 3.466450 0.000000 0.000000 
#    y 0.000000 3.608250 0.000000 
#    z 0.000000 0.000000 3.781940 
# 
# 
# High freq. dielectric constant tensor:
#      x y z
#    x 1.750430 0.000000 0.000000 
#    y 0.000000 1.742370 0.000000 
#    z 0.000000 0.000000 1.772790 
# 
# From -- ./inp_files/7865.got.cif
#   From: 2010.03.12/outbox.cif.g09.slc.cpg/sg47_4_cif.got.tgz:7865.got - 2010.04.14 03:12:58.
