data_PCOD8197273
_publ_section_title
;
Structure prediction by ZEFSAII (Michael W. Deem and Ramdas Pophale) SiO2 
 PCOD8197273
Probable space group: P M M M
;
_chemical_formula_sum "Si O2"
_cell_formula_units_Z 48
_cell_length_a 23.337706
_cell_length_b 16.890914
_cell_length_c 8.906951
_cell_angle_alpha 90.000000
_cell_angle_beta 90.000000
_cell_angle_gamma 90.000000
_cell_volume 3511.077197
_symmetry_space_group_name_H-M "P M M M"
_symmetry_group_IT_number 47
_symmetry_cell_setting 'orthorhombic'
loop_
_space_group_symop_operation_xyz
x,y,z
-x,-y,z
x,-y,-z
-x,y,-z
-x,-y,-z
x,y,-z
-x,y,z
x,-y,z
loop_
_atom_site_type_symbol
_atom_site_label
_atom_site_fract_x
_atom_site_fract_y
_atom_site_fract_z
Si Si1 0.067723 0.500000 0.835962
Si Si2 0.893182 0.175746 0.322559
Si Si3 0.000000 0.093712 0.828582
Si Si4 0.788227 0.906833 0.173257
Si Si5 0.437142 0.094138 0.831147
Si Si6 0.066225 0.671095 0.821742
Si Si7 0.673564 0.905948 0.332793
O O1 0.084353 0.583535 0.756849
O O2 0.000000 0.500000 0.857493
O O3 0.096657 0.500000 0.000000
O O4 0.899740 0.174688 0.500000
O O5 0.943579 0.124529 0.251498
O O6 0.833151 0.138431 0.276217
O O7 0.894741 0.265557 0.262994
O O8 0.000000 0.000000 0.821476
O O9 0.000000 0.124426 0.000000
O O10 0.725229 0.879219 0.224981
O O11 0.796773 0.000000 0.198136
O O12 0.796960 0.883644 0.000000
O O13 0.500000 0.120584 0.769883
O O14 0.386378 0.129709 0.728861
O O15 0.433444 0.000000 0.831774
O O16 0.428740 0.125925 0.000000
O O17 0.000000 0.689932 0.784421
O O18 0.076463 0.674762 0.000000
O O19 0.683828 0.872504 0.500000
O O20 0.669873 0.000000 0.336028
#
# Coordination Sequence:
#
# PCOD8197273 Si02
#       7
#     4   8   4   8   8   8   8
#     4   7  12  24  45  69  83  99 124 146 171 212
#     4  12  23  32  44  62  82  99 121 156 198 236
#     4  11  23  37  49  58  71  96 129 161 196 237
#     4  10  20  33  46  56  69  96 133 166 197 235
#     4   8  13  21  33  49  69  93 120 149 183 225
#     4   9  16  29  48  65  83 103 124 148 179 224
#     4   9  16  25  37  53  72  92 117 154 197 234
#
# _framework density 13.671018999999999
#
# number of rings (size 3 to 8) (size 9 to 14) (size 15 to 20)
#    0.000    2.500    0.833    4.750    0.000    6.000 
#    0.000    2.083    0.000    1.500    0.000    0.000 
#    0.000    0.000    0.000    0.000    0.000    0.000 
#
# Total GULP energy -594886.291394 kJ/mol
# GULP energy per Si atom -12393.464404 kJ/mol
# Density = 1.363990 g / cm^3
# Si number density = 13.671019 Si / 1000 Ang^3
#
#
#
# Elastic Constant Matrix: (Units=GPa)
#
#
# Indices 1 2 3 4 5 6 
#
# 1 85.9394 27.9966 34.8642 0.0000 0.0000 0.0000
# 2 27.9966 53.9010 29.5766 0.0000 0.0000 0.0000
# 3 34.8642 29.5766 79.5537 0.0000 0.0000 0.0000
# 4 0.0000 0.0000 0.0000 6.3561 0.0000 0.0000
# 5 0.0000 0.0000 0.0000 0.0000 7.7436 0.0000
# 6 0.0000 0.0000 0.0000 0.0000 0.0000 0.1840
#
#
#
# Elastic Compliance Matrix: (Units=1/GPa)
#
#
# Indices 1 2 3 4 5 6 
#
# 1 0.015292 -0.005359 -0.004710 0.000000 0.000000 0.000000
# 2 -0.005359 0.025185 -0.007015 0.000000 0.000000 0.000000
# 3 -0.004710 -0.007015 0.017242 0.000000 0.000000 0.000000
# 4 0.000000 0.000000 0.000000 0.157329 0.000000 0.000000
# 5 0.000000 0.000000 0.000000 0.000000 0.129138 0.000000
# 6 0.000000 0.000000 0.000000 0.000000 0.000000 5.435414
#
#
# Mechanical properties :
#
#
# Convention : Reuss Voigt Hill
#
# Bulk Modulus (GPa) = 42.45712 44.91876 43.68794
# Shear Modulus (GPa) = 0.85887 11.32051 6.08969
#
# Velocity S-wave (km/s) = 0.79348 2.88074 2.11285
# Velocity P-wave (km/s) = 5.65360 6.63273 6.16264
#
# Compressibility (1/GPa) = 0.02355317
#
# Stress axis : x y z
#
# Youngs Moduli (GPa) = 65.39176 39.70589 57.99758
#
# Poissons Ratio (x) = 0.21278 0.27314
# Poissons Ratio (y) = 0.35042 0.40685
# Poissons Ratio (z) = 0.30797 0.27853
#
# Static dielectric constant tensor:
#      x y z
#    x 2.789080 0.000000 0.000000 
#    y 0.000000 2.575860 0.000000 
#    z 0.000000 0.000000 2.778050 
# 
# 
# High freq. dielectric constant tensor:
#      x y z
#    x 1.508940 0.000000 0.000000 
#    y 0.000000 1.474270 0.000000 
#    z 0.000000 0.000000 1.525470 
# 
# From -- ./inp_files/11423.got.cif
#   From: 2010.03.12/outbox.cif.g09.slc.cpg/sg47_6_cif.got.tgz:11423.got - 2010.04.14 03:12:58.
