data_PCOD8197701
_publ_section_title
;
Structure prediction by ZEFSAII (Michael W. Deem and Ramdas Pophale) SiO2 
 PCOD8197701
Probable space group: P M M M
;
_chemical_formula_sum "Si O2"
_cell_formula_units_Z 64
_cell_length_a 18.558346
_cell_length_b 20.634526
_cell_length_c 9.042121
_cell_angle_alpha 90.000000
_cell_angle_beta 90.000000
_cell_angle_gamma 90.000000
_cell_volume 3462.613986
_symmetry_space_group_name_H-M "P M M M"
_symmetry_group_IT_number 47
_symmetry_cell_setting 'orthorhombic'
loop_
_space_group_symop_operation_xyz
x,y,z
-x,-y,z
x,-y,-z
-x,y,-z
-x,-y,-z
x,y,-z
-x,y,z
x,-y,z
loop_
_atom_site_type_symbol
_atom_site_label
_atom_site_fract_x
_atom_site_fract_y
_atom_site_fract_z
Si Si1 0.580301 0.428481 0.175545
Si Si2 0.085628 0.070534 0.832559
Si Si3 0.918519 0.804176 0.326166
Si Si4 0.414525 0.928719 0.165749
Si Si5 0.672871 0.309356 0.823744
Si Si6 0.414880 0.197669 0.329372
Si Si7 0.826310 0.318099 0.675210
Si Si8 0.917318 0.575146 0.170827
O O1 0.500000 0.414271 0.237198
O O2 0.605929 0.500000 0.228166
O O3 0.634910 0.374779 0.236128
O O4 0.578150 0.425845 0.000000
O O5 0.117318 0.129989 0.737702
O O6 0.000000 0.071246 0.821884
O O7 0.113386 0.000000 0.774406
O O8 0.111482 0.080413 0.000000
O O9 0.916740 0.810749 0.500000
O O10 0.874506 0.742189 0.271899
O O11 0.000000 0.795236 0.267647
O O12 0.500000 0.929790 0.164495
O O13 0.387755 0.873540 0.278671
O O14 0.386124 0.000000 0.216441
O O15 0.386302 0.913296 0.000000
O O16 0.625858 0.249140 0.770975
O O17 0.750746 0.308116 0.752981
O O18 0.678907 0.307770 0.000000
O O19 0.393824 0.207111 0.500000
O O20 0.500000 0.206118 0.303646
O O21 0.816097 0.320126 0.500000
O O22 0.864320 0.384018 0.726380
O O23 0.900619 0.500000 0.200527
O O24 0.000000 0.590826 0.212348
O O25 0.902691 0.592273 0.000000
#
# Coordination Sequence:
#
# PCOD8197701 Si02
#       8
#     8   8   8   8   8   8   8   8
#     4   8  15  30  53  79 102 124 157 204 254 301
#     4   8  14  25  43  70 101 128 157 199 250 300
#     4   9  18  32  50  72  98 131 170 209 250 300
#     4   8  14  26  46  73 103 133 168 212 259 308
#     4  11  22  35  53  76 103 138 178 218 260 308
#     4  10  20  33  51  76 106 139 174 215 264 317
#     4  11  23  37  52  74 107 142 176 216 262 313
#     4   9  19  37  60  84 108 135 172 217 260 307
#
# _framework density 18.483146000000001
#
# number of rings (size 3 to 8) (size 9 to 14) (size 15 to 20)
#    0.000    2.750    0.000    3.375    0.000    4.250 
#    0.000    5.625    0.000    1.875    0.000    7.875 
#    0.000    0.000    0.000    0.000    0.000    0.000 
#
# Total GULP energy -793337.949559 kJ/mol
# GULP energy per Si atom -12395.905462 kJ/mol
# Density = 1.844108 g / cm^3
# Si number density = 18.483146 Si / 1000 Ang^3
#
#
#
# Elastic Constant Matrix: (Units=GPa)
#
#
# Indices 1 2 3 4 5 6 
#
# 1 73.1844 60.3017 38.3161 0.0000 0.0000 0.0000
# 2 60.3017 152.0075 51.6722 0.0000 0.0000 0.0000
# 3 38.3161 51.6722 62.5526 0.0000 0.0000 0.0000
# 4 0.0000 0.0000 0.0000 28.5583 0.0000 0.0000
# 5 0.0000 0.0000 0.0000 0.0000 24.9268 0.0000
# 6 0.0000 0.0000 0.0000 0.0000 0.0000 -0.3922
#
#
#
# Elastic Compliance Matrix: (Units=1/GPa)
#
#
# Indices 1 2 3 4 5 6 
#
# 1 0.023693 -0.006209 -0.009384 0.000000 0.000000 0.000000
# 2 -0.006209 0.010774 -0.005097 0.000000 0.000000 0.000000
# 3 -0.009384 -0.005097 0.025945 0.000000 0.000000 0.000000
# 4 0.000000 0.000000 0.000000 0.035016 0.000000 0.000000
# 5 0.000000 0.000000 0.000000 0.000000 0.040118 0.000000
# 6 0.000000 0.000000 0.000000 0.000000 0.000000 -2.549866
#
#
# Mechanical properties :
#
#
# Convention : Reuss Voigt Hill
#
# Bulk Modulus (GPa) = 52.54166 65.36939 58.95553
# Shear Modulus (GPa) = -2.11274 19.78221 8.83474
#
# Velocity S-wave (km/s) = -1.07030 3.27507 2.18867
# Velocity P-wave (km/s) = 5.19241 7.05303 6.19299
#
# Compressibility (1/GPa) = 0.01903251
#
# Stress axis : x y z
#
# Youngs Moduli (GPa) = 42.20582 92.81198 38.54313
#
# Poissons Ratio (x) = 0.57630 0.36169
# Poissons Ratio (y) = 0.26207 0.19645
# Poissons Ratio (z) = 0.39606 0.47305
#
# Static dielectric constant tensor:
#      x y z
#    x 3.138310 0.000000 0.000000 
#    y 0.000000 3.880970 0.000000 
#    z 0.000000 0.000000 3.270770 
# 
# 
# High freq. dielectric constant tensor:
#      x y z
#    x 1.683740 0.000000 0.000000 
#    y 0.000000 1.736950 0.000000 
#    z 0.000000 0.000000 1.702730 
# 
# From -- ./inp_files/10009.got.cif
#   From: 2010.03.12/outbox.cif.g09.slc.cpg/sg47_6_cif.got.tgz:10009.got - 2010.04.14 03:12:58.
