data_PCOD8197568
_publ_section_title
;
Structure prediction by ZEFSAII (Michael W. Deem and Ramdas Pophale) SiO2 
 PCOD8197568
Probable space group: P M M M
;
_chemical_formula_sum "Si O2"
_cell_formula_units_Z 40
_cell_length_a 9.306065
_cell_length_b 25.829854
_cell_length_c 9.274049
_cell_angle_alpha 90.000000
_cell_angle_beta 90.000000
_cell_angle_gamma 90.000000
_cell_volume 2229.243039
_symmetry_space_group_name_H-M "P M M M"
_symmetry_group_IT_number 47
_symmetry_cell_setting 'orthorhombic'
loop_
_space_group_symop_operation_xyz
x,y,z
-x,-y,z
x,-y,-z
-x,y,-z
-x,-y,-z
x,y,-z
-x,y,z
x,-y,z
loop_
_atom_site_type_symbol
_atom_site_label
_atom_site_fract_x
_atom_site_fract_y
_atom_site_fract_z
Si Si1 0.841275 0.196716 0.671184
Si Si2 0.334013 0.399986 0.829751
Si Si3 0.833008 0.687732 0.331432
Si Si4 0.671223 0.000000 0.836889
Si Si5 0.331503 0.900672 0.666484
Si Si6 0.162928 0.500000 0.828530
O O1 0.844968 0.195756 0.500000
O O2 0.791314 0.254026 0.718788
O O3 0.735973 0.152179 0.729794
O O4 0.000000 0.185323 0.732653
O O5 0.500000 0.406648 0.785842
O O6 0.269909 0.349253 0.757525
O O7 0.246455 0.449559 0.771188
O O8 0.316477 0.394277 0.000000
O O9 0.803075 0.679736 0.500000
O O10 0.000000 0.676481 0.296373
O O11 0.730251 0.949117 0.756062
O O12 0.500000 0.000000 0.831598
O O13 0.728972 0.000000 0.000000
O O14 0.289911 0.909646 0.500000
O O15 0.500000 0.895177 0.686915
O O16 0.000000 0.500000 0.767924
O O17 0.162226 0.500000 0.000000
#
# Coordination Sequence:
#
# PCOD8197568 Si02
#       6
#     8   8   8   4   8   4
#     4   8  15  29  48  69  93 120 151 189 232 276
#     4  10  20  33  50  74 102 129 160 201 245 287
#     4   9  18  33  52  73  98 129 163 198 239 289
#     4   9  17  29  44  63  90 122 150 181 228 278
#     4   9  16  27  46  69  88 111 150 193 225 263
#     4   9  17  31  52  73  94 127 168 204 240 285
#
# _framework density 17.94331
#
# number of rings (size 3 to 8) (size 9 to 14) (size 15 to 20)
#    0.000    3.000    0.000    2.400    0.000    4.800 
#    0.000    4.000    0.000   10.200    0.000    0.000 
#    0.000    0.000    0.000    0.000    0.000    0.000 
#
# Total GULP energy -495880.061229 kJ/mol
# GULP energy per Si atom -12397.001531 kJ/mol
# Density = 1.790247 g / cm^3
# Si number density = 17.943310 Si / 1000 Ang^3
#
#
#
# Elastic Constant Matrix: (Units=GPa)
#
#
# Indices 1 2 3 4 5 6 
#
# 1 95.8589 83.0145 37.4350 0.0000 0.0000 0.0000
# 2 83.0145 181.0110 50.0133 0.0000 0.0000 0.0000
# 3 37.4350 50.0133 42.3776 0.0000 0.0000 0.0000
# 4 0.0000 0.0000 0.0000 5.4596 0.0000 0.0000
# 5 0.0000 0.0000 0.0000 0.0000 19.3705 0.0000
# 6 0.0000 0.0000 0.0000 0.0000 0.0000 35.2736
#
#
#
# Elastic Compliance Matrix: (Units=1/GPa)
#
#
# Indices 1 2 3 4 5 6 
#
# 1 0.019831 -0.006313 -0.010067 0.000000 0.000000 0.000000
# 2 -0.006313 0.010207 -0.006470 0.000000 0.000000 0.000000
# 3 -0.010067 -0.006470 0.040126 0.000000 0.000000 0.000000
# 4 0.000000 0.000000 0.000000 0.183164 0.000000 0.000000
# 5 0.000000 0.000000 0.000000 0.000000 0.051625 0.000000
# 6 0.000000 0.000000 0.000000 0.000000 0.000000 0.028350
#
#
# Mechanical properties :
#
#
# Convention : Reuss Voigt Hill
#
# Bulk Modulus (GPa) = 40.87666 73.35255 57.11461
# Shear Modulus (GPa) = 12.91465 21.93972 17.42719
#
# Velocity S-wave (km/s) = 2.68572 3.50054 3.11985
# Velocity P-wave (km/s) = 5.69631 7.57016 6.69908
#
# Compressibility (1/GPa) = 0.02446384
#
# Stress axis : x y z
#
# Youngs Moduli (GPa) = 50.42705 97.96802 24.92155
#
# Poissons Ratio (x) = 0.61848 0.25089
# Poissons Ratio (y) = 0.31835 0.16124
# Poissons Ratio (z) = 0.50766 0.63384
#
# Static dielectric constant tensor:
#      x y z
#    x 3.320580 0.000000 0.000000 
#    y 0.000000 3.632330 0.000000 
#    z 0.000000 0.000000 2.981460 
# 
# 
# High freq. dielectric constant tensor:
#      x y z
#    x 1.684140 0.000000 0.000000 
#    y 0.000000 1.711910 0.000000 
#    z 0.000000 0.000000 1.655710 
# 
# From -- ./inp_files/1716.got.cif
#   From: 2010.03.12/outbox.cif.g09.slc.cpg/sg47_1_cif.got.tgz:1716.got - 2010.04.14 03:12:58.
