data_PCOD8197319
_publ_section_title
;
Structure prediction by ZEFSAII (Michael W. Deem and Ramdas Pophale) SiO2 
 PCOD8197319
Probable space group: P M M M
;
_chemical_formula_sum "Si O2"
_cell_formula_units_Z 52
_cell_length_a 23.429048
_cell_length_b 14.007713
_cell_length_c 9.070055
_cell_angle_alpha 90.000000
_cell_angle_beta 90.000000
_cell_angle_gamma 90.000000
_cell_volume 2976.677589
_symmetry_space_group_name_H-M "P M M M"
_symmetry_group_IT_number 47
_symmetry_cell_setting 'orthorhombic'
loop_
_space_group_symop_operation_xyz
x,y,z
-x,-y,z
x,-y,-z
-x,y,-z
-x,-y,-z
x,y,-z
-x,y,z
x,-y,z
loop_
_atom_site_type_symbol
_atom_site_label
_atom_site_fract_x
_atom_site_fract_y
_atom_site_fract_z
Si Si1 0.938449 0.110701 0.160355
Si Si2 0.820835 0.293923 0.826547
Si Si3 0.936473 0.606581 0.825765
Si Si4 0.278299 0.388261 0.664073
Si Si5 0.829562 0.108306 0.671314
Si Si6 0.611809 0.613933 0.166465
Si Si7 0.500000 0.613732 0.333457
O O1 0.896134 0.128229 0.295283
O O2 0.000000 0.158348 0.195755
O O3 0.947395 0.000000 0.138021
O O4 0.915698 0.152110 0.000000
O O5 0.886583 0.318596 0.778036
O O6 0.779868 0.371017 0.752439
O O7 0.798882 0.189941 0.767679
O O8 0.812144 0.299429 0.000000
O O9 0.922876 0.500000 0.763524
O O10 0.000000 0.639122 0.770262
O O11 0.936882 0.600460 0.000000
O O12 0.275161 0.342822 0.500000
O O13 0.287398 0.500000 0.650338
O O14 0.332480 0.344523 0.750841
O O15 0.817309 0.123692 0.500000
O O16 0.811975 0.000000 0.719433
O O17 0.612251 0.500000 0.165491
O O18 0.555869 0.652730 0.250047
O O19 0.611424 0.653584 0.000000
O O20 0.500000 0.500000 0.334007
O O21 0.500000 0.653328 0.500000
#
# Coordination Sequence:
#
# PCOD8197319 Si02
#       7
#     8   8   8   8   8   8   4
#     4   8  14  26  44  63  81 102 130 165 206 256
#     4  11  21  32  50  72  91 115 151 194 239 288
#     4   8  15  29  48  69  91 113 141 182 231 280
#     4  10  20  33  48  67  94 126 158 194 236 280
#     4  10  21  35  48  63  86 115 146 182 228 283
#     4   9  16  26  41  62  89 122 161 200 232 265
#     4   9  15  23  37  59  89 125 162 195 230 271
#
# _framework density 17.469141
#
# number of rings (size 3 to 8) (size 9 to 14) (size 15 to 20)
#    0.000    2.692    0.000    3.462    0.000    6.154 
#    0.000    3.077    0.000    1.385    0.000    5.385 
#    0.000    0.000    0.000    0.692    0.000   12.846 
#
# Total GULP energy -644192.884532 kJ/mol
# GULP energy per Si atom -12388.324703 kJ/mol
# Density = 1.742938 g / cm^3
# Si number density = 17.469141 Si / 1000 Ang^3
#
#
#
# Elastic Constant Matrix: (Units=GPa)
#
#
# Indices 1 2 3 4 5 6 
#
# 1 103.2546 9.2450 48.1088 0.0000 0.0000 0.0000
# 2 9.2450 54.2430 20.3977 0.0000 0.0000 0.0000
# 3 48.1088 20.3977 107.6957 0.0000 0.0000 0.0000
# 4 0.0000 0.0000 0.0000 18.1997 0.0000 0.0000
# 5 0.0000 0.0000 0.0000 0.0000 26.6835 0.0000
# 6 0.0000 0.0000 0.0000 0.0000 0.0000 2.8006
#
#
#
# Elastic Compliance Matrix: (Units=1/GPa)
#
#
# Indices 1 2 3 4 5 6 
#
# 1 0.012230 -0.000032 -0.005457 0.000000 0.000000 0.000000
# 2 -0.000032 0.019849 -0.003745 0.000000 0.000000 0.000000
# 3 -0.005457 -0.003745 0.012433 0.000000 0.000000 0.000000
# 4 0.000000 0.000000 0.000000 0.054946 0.000000 0.000000
# 5 0.000000 0.000000 0.000000 0.000000 0.037476 0.000000
# 6 0.000000 0.000000 0.000000 0.000000 0.000000 0.357061
#
#
# Mechanical properties :
#
#
# Convention : Reuss Voigt Hill
#
# Bulk Modulus (GPa) = 38.39810 46.74403 42.57107
# Shear Modulus (GPa) = 9.59424 22.03288 15.81356
#
# Velocity S-wave (km/s) = 2.34607 3.55526 3.01197
# Velocity P-wave (km/s) = 5.41913 6.60827 6.04302
#
# Compressibility (1/GPa) = 0.02604295
#
# Stress axis : x y z
#
# Youngs Moduli (GPa) = 81.76356 50.37940 80.43384
#
# Poissons Ratio (x) = 0.00163 0.43895
# Poissons Ratio (y) = 0.00264 0.30123
# Poissons Ratio (z) = 0.44621 0.18867
#
# Static dielectric constant tensor:
#      x y z
#    x 3.262090 0.000000 0.000000 
#    y 0.000000 3.110840 0.000000 
#    z 0.000000 0.000000 3.255060 
# 
# 
# High freq. dielectric constant tensor:
#      x y z
#    x 1.655050 0.000000 0.000000 
#    y 0.000000 1.635890 0.000000 
#    z 0.000000 0.000000 1.669910 
# 
# From -- ./inp_files/12531.got.cif
#   From: 2010.03.12/outbox.cif.g09.slc.cpg/sg47_7_cif.got.tgz:12531.got - 2010.04.14 03:12:58.
