data_PCOD8197126
_publ_section_title
;
Structure prediction by ZEFSAII (Michael W. Deem and Ramdas Pophale) SiO2 
 PCOD8197126
Probable space group: P M M M
;
_chemical_formula_sum "Si O2"
_cell_formula_units_Z 60
_cell_length_a 9.228636
_cell_length_b 18.682708
_cell_length_c 18.874482
_cell_angle_alpha 90.000000
_cell_angle_beta 90.000000
_cell_angle_gamma 90.000000
_cell_volume 3254.261021
_symmetry_space_group_name_H-M "P M M M"
_symmetry_group_IT_number 47
_symmetry_cell_setting 'orthorhombic'
loop_
_space_group_symop_operation_xyz
x,y,z
-x,-y,z
x,-y,-z
-x,y,-z
-x,-y,-z
x,y,-z
-x,y,z
x,-y,z
loop_
_atom_site_type_symbol
_atom_site_label
_atom_site_fract_x
_atom_site_fract_y
_atom_site_fract_z
Si Si1 0.667611 0.844302 0.193022
Si Si2 0.833211 0.000000 0.416229
Si Si3 0.840658 0.083560 0.922547
Si Si4 0.672023 0.138756 0.356757
Si Si5 0.839856 0.707967 0.798959
Si Si6 0.835759 0.717352 0.630761
Si Si7 0.663665 0.420214 0.625769
Si Si8 0.661346 0.421571 0.794270
O O1 0.500000 0.831925 0.182416
O O2 0.723572 0.903001 0.138422
O O3 0.702894 0.867336 0.273113
O O4 0.744906 0.771521 0.170447
O O5 0.748934 0.929529 0.390866
O O6 0.832752 0.000000 0.500000
O O7 0.000000 0.000000 0.387959
O O8 0.000000 0.114314 0.901366
O O9 0.852972 0.000000 0.930271
O O10 0.794020 0.115012 0.000000
O O11 0.500000 0.138679 0.373264
O O12 0.741912 0.211824 0.388625
O O13 0.839266 0.709222 0.714524
O O14 0.772978 0.634212 0.827703
O O15 0.000000 0.714906 0.829974
O O16 0.764094 0.645124 0.596957
O O17 0.000000 0.725555 0.601106
O O18 0.500000 0.407897 0.597744
O O19 0.718170 0.500000 0.600890
O O20 0.663931 0.418010 0.709909
O O21 0.500000 0.403144 0.820840
O O22 0.708515 0.500000 0.820437
#
# Coordination Sequence:
#
# PCOD8197126 Si02
#       8
#     8   4   8   8   8   8   8   8
#     4  10  20  32  49  73 100 129 165 205 243 289
#     4  11  25  43  61  81 104 129 162 207 255 302
#     4   9  19  35  52  71  97 129 162 197 242 293
#     4  10  21  36  54  76 102 133 168 207 253 304
#     4   9  16  25  38  58  86 120 158 199 243 287
#     4   9  16  26  41  63  92 125 163 205 248 293
#     4   8  13  21  34  54  84 124 164 199 240 292
#     4   8  13  21  33  50  77 115 155 194 239 289
#
# _framework density 18.437365
#
# number of rings (size 3 to 8) (size 9 to 14) (size 15 to 20)
#    0.000    2.867    0.000    3.000    0.933    6.400 
#    0.000    3.333    0.000    0.000    0.000    0.000 
#    0.000    1.067    0.000   11.200    0.000   15.467 
#
# Total GULP energy -743511.875281 kJ/mol
# GULP energy per Si atom -12391.864588 kJ/mol
# Density = 1.839540 g / cm^3
# Si number density = 18.437365 Si / 1000 Ang^3
#
#
#
# Elastic Constant Matrix: (Units=GPa)
#
#
# Indices 1 2 3 4 5 6 
#
# 1 136.5198 79.5709 31.3552 0.0000 0.0000 0.0000
# 2 79.5709 140.5886 24.5508 0.0000 0.0000 0.0000
# 3 31.3552 24.5508 33.7644 0.0000 0.0000 0.0000
# 4 0.0000 0.0000 0.0000 -5.5484 0.0000 0.0000
# 5 0.0000 0.0000 0.0000 0.0000 12.2853 0.0000
# 6 0.0000 0.0000 0.0000 0.0000 0.0000 33.9383
#
#
#
# Elastic Compliance Matrix: (Units=1/GPa)
#
#
# Indices 1 2 3 4 5 6 
#
# 1 0.012324 -0.005700 -0.007300 0.000000 0.000000 0.000000
# 2 -0.005700 0.010784 -0.002548 0.000000 0.000000 0.000000
# 3 -0.007300 -0.002548 0.038248 0.000000 0.000000 0.000000
# 4 0.000000 0.000000 0.000000 -0.180233 0.000000 0.000000
# 5 0.000000 0.000000 0.000000 0.000000 0.081398 0.000000
# 6 0.000000 0.000000 0.000000 0.000000 0.000000 0.029465
#
#
# Mechanical properties :
#
#
# Convention : Reuss Voigt Hill
#
# Bulk Modulus (GPa) = 33.04604 64.64739 48.84671
# Shear Modulus (GPa) = 150.73814 19.82810 85.28312
#
# Velocity S-wave (km/s) = 9.05176 3.28293 6.80852
# Velocity P-wave (km/s) = 11.27866 7.03630 9.39994
#
# Compressibility (1/GPa) = 0.03026081
#
# Stress axis : x y z
#
# Youngs Moduli (GPa) = 81.14200 92.72796 26.14485
#
# Poissons Ratio (x) = 0.52859 0.19085
# Poissons Ratio (y) = 0.46255 0.06661
# Poissons Ratio (z) = 0.59232 0.23624
#
# Static dielectric constant tensor:
#      x y z
#    x 3.643420 0.000000 0.000000 
#    y 0.000000 3.642660 0.000000 
#    z 0.000000 0.000000 2.900100 
# 
# 
# High freq. dielectric constant tensor:
#      x y z
#    x 1.723980 0.000000 0.000000 
#    y 0.000000 1.725150 0.000000 
#    z 0.000000 0.000000 1.652770 
# 
# From -- ./inp_files/29979.got.cif
#   From: 2010.03.12/outbox.cif.g09.slc.cpg/sg47_15_cif.got.tgz:29979.got - 2010.04.14 03:12:58.
