data_PCOD8197652
_publ_section_title
;
Structure prediction by ZEFSAII (Michael W. Deem and Ramdas Pophale) SiO2 
 PCOD8197652
Probable space group: P M M M
;
_chemical_formula_sum "Si O2"
_cell_formula_units_Z 64
_cell_length_a 14.147827
_cell_length_b 9.130958
_cell_length_c 31.161187
_cell_angle_alpha 90.000000
_cell_angle_beta 90.000000
_cell_angle_gamma 90.000000
_cell_volume 4025.502293
_symmetry_space_group_name_H-M "P M M M"
_symmetry_group_IT_number 47
_symmetry_cell_setting 'orthorhombic'
loop_
_space_group_symop_operation_xyz
x,y,z
-x,-y,z
x,-y,-z
-x,y,-z
-x,-y,-z
x,y,-z
-x,y,z
x,-y,z
loop_
_atom_site_type_symbol
_atom_site_label
_atom_site_fract_x
_atom_site_fract_y
_atom_site_fract_z
Si Si1 0.612390 0.335319 0.047123
Si Si2 0.895378 0.666091 0.589871
Si Si3 0.717309 0.326296 0.703156
Si Si4 0.702530 0.331006 0.548626
Si Si5 0.893029 0.829739 0.322965
Si Si6 0.612733 0.164394 0.128447
Si Si7 0.608557 0.329150 0.211984
Si Si8 0.389623 0.829120 0.625887
O O1 0.500000 0.334180 0.049604
O O2 0.649791 0.500000 0.053827
O O3 0.655034 0.235729 0.085028
O O4 0.644489 0.276774 0.000000
O O5 0.886804 0.500000 0.607898
O O6 0.815032 0.695700 0.554635
O O7 0.878667 0.778447 0.628338
O O8 0.000000 0.690456 0.569498
O O9 0.718538 0.500000 0.697697
O O10 0.823311 0.263331 0.707258
O O11 0.664056 0.276936 0.746095
O O12 0.666531 0.258050 0.662081
O O13 0.676917 0.288386 0.500000
O O14 0.677185 0.500000 0.558054
O O15 0.640767 0.229102 0.579355
O O16 0.000000 0.800379 0.307409
O O17 0.866846 0.000000 0.320336
O O18 0.500000 0.171570 0.127425
O O19 0.650753 0.248285 0.170357
O O20 0.650682 0.000000 0.130644
O O21 0.500000 0.285908 0.219582
O O22 0.620539 0.500000 0.203444
O O23 0.500000 0.799907 0.632522
O O24 0.364828 0.000000 0.629237
#
# Coordination Sequence:
#
# PCOD8197652 Si02
#       8
#     8   8   8   8   8   8   8   8
#     4   8  13  21  33  48  68 100 143 188 232 275
#     4   9  17  31  52  76 100 124 148 175 211 258
#     4  11  21  34  54  76  95 118 151 189 228 269
#     4  10  21  36  54  76  99 124 153 184 220 262
#     4  10  20  33  51  75 101 125 147 175 215 264
#     4   9  16  24  35  53  78 108 143 186 232 273
#     4   9  18  31  45  62  86 117 151 187 228 272
#     4  11  24  39  54  72  94 122 154 188 228 270
#
# _framework density 15.898637000000001
#
# number of rings (size 3 to 8) (size 9 to 14) (size 15 to 20)
#    0.000    2.375    1.250    2.250    0.000    5.750 
#    0.000    5.000    0.000    0.000    0.000    2.625 
#    0.000    0.000    0.000    0.000    0.000    0.625 
#
# Total GULP energy -793480.718970 kJ/mol
# GULP energy per Si atom -12398.136234 kJ/mol
# Density = 1.586245 g / cm^3
# Si number density = 15.898637 Si / 1000 Ang^3
#
#
#
# Elastic Constant Matrix: (Units=GPa)
#
#
# Indices 1 2 3 4 5 6 
#
# 1 59.7363 35.5852 35.6420 0.0000 0.0000 0.0000
# 2 35.5852 82.4189 55.6938 0.0000 0.0000 0.0000
# 3 35.6420 55.6938 119.7942 0.0000 0.0000 0.0000
# 4 0.0000 0.0000 0.0000 9.2698 0.0000 0.0000
# 5 0.0000 0.0000 0.0000 0.0000 5.3649 0.0000
# 6 0.0000 0.0000 0.0000 0.0000 0.0000 20.6591
#
#
#
# Elastic Compliance Matrix: (Units=1/GPa)
#
#
# Indices 1 2 3 4 5 6 
#
# 1 0.023400 -0.007871 -0.003303 0.000000 0.000000 0.000000
# 2 -0.007871 0.020339 -0.007114 0.000000 0.000000 0.000000
# 3 -0.003303 -0.007114 0.012638 0.000000 0.000000 0.000000
# 4 0.000000 0.000000 0.000000 0.107877 0.000000 0.000000
# 5 0.000000 0.000000 0.000000 0.000000 0.186395 0.000000
# 6 0.000000 0.000000 0.000000 0.000000 0.000000 0.048405
#
#
# Mechanical properties :
#
#
# Convention : Reuss Voigt Hill
#
# Bulk Modulus (GPa) = 50.50357 57.31015 53.90686
# Shear Modulus (GPa) = 11.30637 16.06067 13.68352
#
# Velocity S-wave (km/s) = 2.66964 3.18180 2.93690
# Velocity P-wave (km/s) = 6.42943 7.04443 6.74394
#
# Compressibility (1/GPa) = 0.01980058
#
# Stress axis : x y z
#
# Youngs Moduli (GPa) = 42.73544 49.16717 79.12942
#
# Poissons Ratio (x) = 0.38702 0.26133
# Poissons Ratio (y) = 0.33639 0.56291
# Poissons Ratio (z) = 0.14114 0.34976
#
# Static dielectric constant tensor:
#      x y z
#    x 2.921490 0.000000 0.000000 
#    y 0.000000 3.127150 0.000000 
#    z 0.000000 0.000000 3.071770 
# 
# 
# High freq. dielectric constant tensor:
#      x y z
#    x 1.574380 0.000000 0.000000 
#    y 0.000000 1.619340 0.000000 
#    z 0.000000 0.000000 1.600760 
# 
# From -- ./inp_files/14318.got.cif
#   From: 2010.03.12/outbox.cif.g09.slc.cpg/sg47_8_cif.got.tgz:14318.got - 2010.04.14 03:12:58.
