data_PCOD8197626
_publ_section_title
;
Structure prediction by ZEFSAII (Michael W. Deem and Ramdas Pophale) SiO2 
 PCOD8197626
Probable space group: P M M M
;
_chemical_formula_sum "Si O2"
_cell_formula_units_Z 52
_cell_length_a 14.417375
_cell_length_b 7.914329
_cell_length_c 24.939560
_cell_angle_alpha 90.000000
_cell_angle_beta 90.000000
_cell_angle_gamma 90.000000
_cell_volume 2845.699790
_symmetry_space_group_name_H-M "P M M M"
_symmetry_group_IT_number 47
_symmetry_cell_setting 'orthorhombic'
loop_
_space_group_symop_operation_xyz
x,y,z
-x,-y,z
x,-y,-z
-x,y,-z
-x,-y,-z
x,y,-z
-x,y,z
x,-y,z
loop_
_atom_site_type_symbol
_atom_site_label
_atom_site_fract_x
_atom_site_fract_y
_atom_site_fract_z
Si Si1 0.392677 0.188750 0.130824
Si Si2 0.100800 0.700685 0.724255
Si Si3 0.288549 0.194082 0.441833
Si Si4 0.389769 0.500000 0.940054
Si Si5 0.291664 0.694422 0.232554
Si Si6 0.103615 0.698118 0.396518
Si Si7 0.392448 0.199471 0.661690
O O1 0.500000 0.225119 0.143506
O O2 0.354331 0.329992 0.089679
O O3 0.338852 0.194684 0.186808
O O4 0.379543 0.000000 0.106312
O O5 0.102332 0.500000 0.721765
O O6 0.186067 0.764001 0.760830
O O7 0.114130 0.768853 0.663974
O O8 0.000000 0.762295 0.746847
O O9 0.313696 0.276821 0.500000
O O10 0.178205 0.209338 0.433395
O O11 0.345905 0.275717 0.392561
O O12 0.316885 0.000000 0.444342
O O13 0.500000 0.500000 0.942822
O O14 0.347809 0.500000 0.000000
O O15 0.292729 0.500000 0.214240
O O16 0.346264 0.708996 0.288078
O O17 0.123869 0.500000 0.398306
O O18 0.000000 0.737740 0.417926
O O19 0.500000 0.246395 0.660343
O O20 0.375691 0.000000 0.667020
#
# Coordination Sequence:
#
# PCOD8197626 Si02
#       7
#     8   8   8   4   8   8   8
#     4  10  20  33  50  76 112 150 185 222 263 305
#     4   8  15  28  47  71  97 126 160 198 248 309
#     4  10  21  35  49  66  89 117 154 202 252 305
#     4   9  18  34  54  78 111 149 192 232 260 297
#     4  11  19  30  52  76 102 133 166 210 259 308
#     4   9  17  32  52  70  89 115 149 189 239 303
#     4  10  21  35  49  66  89 121 162 205 254 311
#
# _framework density 18.273185000000002
#
# number of rings (size 3 to 8) (size 9 to 14) (size 15 to 20)
#    0.000    2.385    2.308    1.846    0.000    3.692 
#    0.000    4.615    0.000    1.846    0.000    2.154 
#    0.000    1.231    0.000    1.385    0.000    0.154 
#
# Total GULP energy -644546.356366 kJ/mol
# GULP energy per Si atom -12395.122238 kJ/mol
# Density = 1.823159 g / cm^3
# Si number density = 18.273185 Si / 1000 Ang^3
#
#
#
# Elastic Constant Matrix: (Units=GPa)
#
#
# Indices 1 2 3 4 5 6 
#
# 1 98.7631 18.0449 42.4096 0.0000 0.0000 0.0000
# 2 18.0449 56.5559 30.9703 0.0000 0.0000 0.0000
# 3 42.4096 30.9703 114.1456 0.0000 0.0000 0.0000
# 4 0.0000 0.0000 0.0000 18.9120 0.0000 0.0000
# 5 0.0000 0.0000 0.0000 0.0000 14.3482 0.0000
# 6 0.0000 0.0000 0.0000 0.0000 0.0000 17.9924
#
#
#
# Elastic Compliance Matrix: (Units=1/GPa)
#
#
# Indices 1 2 3 4 5 6 
#
# 1 0.012178 -0.001653 -0.004076 0.000000 0.000000 0.000000
# 2 -0.001653 0.020992 -0.005081 0.000000 0.000000 0.000000
# 3 -0.004076 -0.005081 0.011654 0.000000 0.000000 0.000000
# 4 0.000000 0.000000 0.000000 0.052876 0.000000 0.000000
# 5 0.000000 0.000000 0.000000 0.000000 0.069695 0.000000
# 6 0.000000 0.000000 0.000000 0.000000 0.000000 0.055579
#
#
# Mechanical properties :
#
#
# Convention : Reuss Voigt Hill
#
# Bulk Modulus (GPa) = 43.09979 50.25713 46.67846
# Shear Modulus (GPa) = 19.81544 22.11984 20.96764
#
# Velocity S-wave (km/s) = 3.29660 3.48301 3.39108
# Velocity P-wave (km/s) = 6.17476 6.61348 6.39788
#
# Compressibility (1/GPa) = 0.02320197
#
# Stress axis : x y z
#
# Youngs Moduli (GPa) = 82.11851 47.63791 85.80955
#
# Poissons Ratio (x) = 0.07877 0.34974
# Poissons Ratio (y) = 0.13578 0.43602
# Poissons Ratio (z) = 0.33470 0.24206
#
# Static dielectric constant tensor:
#      x y z
#    x 3.553730 0.000000 0.000000 
#    y 0.000000 3.202450 0.000000 
#    z 0.000000 0.000000 3.284600 
# 
# 
# High freq. dielectric constant tensor:
#      x y z
#    x 1.698650 0.000000 0.000000 
#    y 0.000000 1.697460 0.000000 
#    z 0.000000 0.000000 1.677710 
# 
# From -- ./inp_files/29897.got.cif
#   From: 2010.03.12/outbox.cif.g09.slc.cpg/sg47_15_cif.got.tgz:29897.got - 2010.04.14 03:12:58.
