data_PCOD8197014
_publ_section_title
;
Structure prediction by ZEFSAII (Michael W. Deem and Ramdas Pophale) SiO2 
 PCOD8197014
Probable space group: P M M M
;
_chemical_formula_sum "Si O2"
_cell_formula_units_Z 48
_cell_length_a 31.218057
_cell_length_b 9.244472
_cell_length_c 9.163243
_cell_angle_alpha 90.000000
_cell_angle_beta 90.000000
_cell_angle_gamma 90.000000
_cell_volume 2644.461109
_symmetry_space_group_name_H-M "P M M M"
_symmetry_group_IT_number 47
_symmetry_cell_setting 'orthorhombic'
loop_
_space_group_symop_operation_xyz
x,y,z
-x,-y,z
x,-y,-z
-x,y,-z
-x,-y,-z
x,y,-z
-x,y,z
x,-y,z
loop_
_atom_site_type_symbol
_atom_site_label
_atom_site_fract_x
_atom_site_fract_y
_atom_site_fract_z
Si Si1 0.047085 0.662095 0.673146
Si Si2 0.452808 0.672006 0.336023
Si Si3 0.710656 0.671986 0.664441
Si Si4 0.204655 0.331537 0.829047
Si Si5 0.371672 0.672780 0.835929
Si Si6 0.129158 0.830515 0.330010
O O1 0.046143 0.663250 0.500000
O O2 0.057527 0.500000 0.729185
O O3 0.083621 0.770945 0.728963
O O4 0.000000 0.710685 0.731550
O O5 0.444686 0.728864 0.500000
O O6 0.500000 0.722778 0.281359
O O7 0.450790 0.500000 0.335692
O O8 0.415856 0.734820 0.231583
O O9 0.712669 0.733481 0.500000
O O10 0.708969 0.500000 0.662848
O O11 0.752118 0.725205 0.752716
O O12 0.668230 0.733271 0.742901
O O13 0.196868 0.500000 0.795457
O O14 0.165712 0.242157 0.764714
O O15 0.208954 0.301808 0.000000
O O16 0.371707 0.500000 0.834074
O O17 0.367560 0.731658 0.000000
O O18 0.136158 0.791716 0.500000
O O19 0.129904 0.000000 0.302621
#
# Coordination Sequence:
#
# PCOD8197014 Si02
#       6
#     8   8   8   8   8   8
#     4   8  14  26  46  72 100 129 161 197 235 273
#     4   8  13  20  28  38  56  87 128 171 214 262
#     4   9  16  26  41  59  78 102 135 178 227 275
#     4  10  20  33  49  68  90 118 154 195 238 283
#     4   9  15  21  30  46  69  95 126 169 219 269
#     4  10  20  32  48  72 100 129 160 193 232 280
#
# _framework density 18.151145
#
# number of rings (size 3 to 8) (size 9 to 14) (size 15 to 20)
#    0.000    3.000    0.000    3.000    0.000    6.667 
#    0.000    3.333    0.000    0.500    0.000    3.500 
#    0.000    0.000    0.000    0.000    0.000    0.833 
#
# Total GULP energy -594985.731877 kJ/mol
# GULP energy per Si atom -12395.536081 kJ/mol
# Density = 1.810983 g / cm^3
# Si number density = 18.151145 Si / 1000 Ang^3
#
#
#
# Elastic Constant Matrix: (Units=GPa)
#
#
# Indices 1 2 3 4 5 6 
#
# 1 191.1966 43.5365 86.8244 0.0000 0.0000 0.0000
# 2 43.5365 35.2596 31.8015 0.0000 0.0000 0.0000
# 3 86.8244 31.8015 114.1628 0.0000 0.0000 0.0000
# 4 0.0000 0.0000 0.0000 11.5542 0.0000 0.0000
# 5 0.0000 0.0000 0.0000 0.0000 11.5255 0.0000
# 6 0.0000 0.0000 0.0000 0.0000 0.0000 -1.0105
#
#
#
# Elastic Compliance Matrix: (Units=1/GPa)
#
#
# Indices 1 2 3 4 5 6 
#
# 1 0.009011 -0.006604 -0.005013 0.000000 0.000000 0.000000
# 2 -0.006604 0.042718 -0.006877 0.000000 0.000000 0.000000
# 3 -0.005013 -0.006877 0.014488 0.000000 0.000000 0.000000
# 4 0.000000 0.000000 0.000000 0.086549 0.000000 0.000000
# 5 0.000000 0.000000 0.000000 0.000000 0.086764 0.000000
# 6 0.000000 0.000000 0.000000 0.000000 0.000000 -0.989619
#
#
# Mechanical properties :
#
#
# Convention : Reuss Voigt Hill
#
# Bulk Modulus (GPa) = 34.21404 73.88263 54.04833
# Shear Modulus (GPa) = -7.10875 16.31094 4.60109
#
# Velocity S-wave (km/s) = -1.98114 3.00095 1.59386
# Velocity P-wave (km/s) = 3.69557 7.26636 5.76443
#
# Compressibility (1/GPa) = 0.02922777
#
# Stress axis : x y z
#
# Youngs Moduli (GPa) = 110.98111 23.40928 69.02407
#
# Poissons Ratio (x) = 0.15460 0.34602
# Poissons Ratio (y) = 0.73295 0.47467
# Poissons Ratio (z) = 0.55636 0.16098
#
# Static dielectric constant tensor:
#      x y z
#    x 3.792340 0.000000 0.000000 
#    y 0.000000 2.786450 0.000000 
#    z 0.000000 0.000000 3.307730 
# 
# 
# High freq. dielectric constant tensor:
#      x y z
#    x 1.725810 0.000000 0.000000 
#    y 0.000000 1.635370 0.000000 
#    z 0.000000 0.000000 1.689980 
# 
# From -- ./inp_files/13796.got.cif
#   From: 2010.03.12/outbox.cif.g09.slc.cpg/sg47_7_cif.got.tgz:13796.got - 2010.04.14 03:12:58.
