data_PCOD8197956
_publ_section_title
;
Structure prediction by ZEFSAII (Michael W. Deem and Ramdas Pophale) SiO2 
 PCOD8197956
Probable space group: P M M M
;
_chemical_formula_sum "Si O2"
_cell_formula_units_Z 52
_cell_length_a 14.023053
_cell_length_b 23.652382
_cell_length_c 8.989304
_cell_angle_alpha 90.000000
_cell_angle_beta 90.000000
_cell_angle_gamma 90.000000
_cell_volume 2981.559823
_symmetry_space_group_name_H-M "P M M M"
_symmetry_group_IT_number 47
_symmetry_cell_setting 'orthorhombic'
loop_
_space_group_symop_operation_xyz
x,y,z
-x,-y,z
x,-y,-z
-x,y,-z
-x,-y,-z
x,y,-z
-x,y,z
x,-y,z
loop_
_atom_site_type_symbol
_atom_site_label
_atom_site_fract_x
_atom_site_fract_y
_atom_site_fract_z
Si Si1 0.391395 0.261042 0.833425
Si Si2 0.239065 0.328552 0.674369
Si Si3 0.606542 0.064403 0.675236
Si Si4 0.000000 0.566169 0.664610
Si Si5 0.808764 0.435694 0.823956
Si Si6 0.270782 0.153535 0.833945
Si Si7 0.110566 0.761151 0.175843
O O1 0.500000 0.263811 0.785078
O O2 0.334933 0.294834 0.708092
O O3 0.358675 0.196556 0.832344
O O4 0.374749 0.286220 0.000000
O O5 0.222611 0.335494 0.500000
O O6 0.260290 0.390075 0.748386
O O7 0.148284 0.295622 0.744320
O O8 0.609357 0.070699 0.500000
O O9 0.500000 0.082803 0.731755
O O10 0.694875 0.100643 0.737569
O O11 0.625123 0.000000 0.724104
O O12 0.910095 0.584480 0.760715
O O13 0.000000 0.500000 0.641887
O O14 0.000000 0.594985 0.500000
O O15 0.782304 0.500000 0.776352
O O16 0.808724 0.430161 0.000000
O O17 0.174470 0.184728 0.772341
O O18 0.249956 0.131546 0.000000
O O19 0.000000 0.771585 0.218021
O O20 0.124730 0.752037 0.000000
#
# Coordination Sequence:
#
# PCOD8197956 Si02
#       7
#     8   8   8   4   8   8   8
#     4   9  18  34  54  74  99 130 164 202 244 296
#     4  11  22  33  49  75 104 129 159 203 251 296
#     4   9  18  31  46  68 101 138 169 197 238 294
#     4   9  17  29  45  67  93 119 151 193 238 281
#     4  10  20  34  51  69  93 129 168 200 239 297
#     4   9  17  30  50  76  99 123 162 206 248 288
#     4   9  19  36  54  70  95 132 169 205 246 295
#
# _framework density 17.440535000000001
#
# number of rings (size 3 to 8) (size 9 to 14) (size 15 to 20)
#    0.000    2.538    0.000    3.923    1.077    6.154 
#    0.000    0.769    0.000    0.923    0.000    6.462 
#    0.000    0.000    0.000    0.000    0.000    0.000 
#
# Total GULP energy -644440.265284 kJ/mol
# GULP energy per Si atom -12393.082025 kJ/mol
# Density = 1.740084 g / cm^3
# Si number density = 17.440535 Si / 1000 Ang^3
#
#
#
# Elastic Constant Matrix: (Units=GPa)
#
#
# Indices 1 2 3 4 5 6 
#
# 1 101.5987 45.5259 29.5534 0.0000 0.0000 0.0000
# 2 45.5259 97.7437 43.6881 0.0000 0.0000 0.0000
# 3 29.5534 43.6881 74.0797 0.0000 0.0000 0.0000
# 4 0.0000 0.0000 0.0000 27.4921 0.0000 0.0000
# 5 0.0000 0.0000 0.0000 0.0000 13.1147 0.0000
# 6 0.0000 0.0000 0.0000 0.0000 0.0000 19.1004
#
#
#
# Elastic Compliance Matrix: (Units=1/GPa)
#
#
# Indices 1 2 3 4 5 6 
#
# 1 0.012684 -0.004951 -0.002140 0.000000 0.000000 0.000000
# 2 -0.004951 0.015826 -0.007358 0.000000 0.000000 0.000000
# 3 -0.002140 -0.007358 0.018692 0.000000 0.000000 0.000000
# 4 0.000000 0.000000 0.000000 0.036374 0.000000 0.000000
# 5 0.000000 0.000000 0.000000 0.000000 0.076250 0.000000
# 6 0.000000 0.000000 0.000000 0.000000 0.000000 0.052355
#
#
# Mechanical properties :
#
#
# Convention : Reuss Voigt Hill
#
# Bulk Modulus (GPa) = 54.63553 56.77299 55.70426
# Shear Modulus (GPa) = 20.22817 22.25176 21.23996
#
# Velocity S-wave (km/s) = 3.40933 3.57580 3.49356
# Velocity P-wave (km/s) = 6.84783 7.04780 6.94853
#
# Compressibility (1/GPa) = 0.01830311
#
# Stress axis : x y z
#
# Youngs Moduli (GPa) = 78.84105 63.18864 53.49872
#
# Poissons Ratio (x) = 0.31285 0.11450
# Poissons Ratio (y) = 0.39035 0.39364
# Poissons Ratio (z) = 0.16873 0.46493
#
# Static dielectric constant tensor:
#      x y z
#    x 3.269970 0.000000 0.000000 
#    y 0.000000 3.196190 0.000000 
#    z 0.000000 0.000000 3.176090 
# 
# 
# High freq. dielectric constant tensor:
#      x y z
#    x 1.655750 0.000000 0.000000 
#    y 0.000000 1.665010 0.000000 
#    z 0.000000 0.000000 1.671790 
# 
# From -- ./inp_files/6941.got.cif
#   From: 2010.03.12/outbox.cif.g09.slc.cpg/sg47_4_cif.got.tgz:6941.got - 2010.04.14 03:12:58.
