data_PCOD8197067
_publ_section_title
;
Structure prediction by ZEFSAII (Michael W. Deem and Ramdas Pophale) SiO2 
 PCOD8197067
Probable space group: P M M M
;
_chemical_formula_sum "Si O2"
_cell_formula_units_Z 64
_cell_length_a 23.290501
_cell_length_b 9.163759
_cell_length_c 15.283595
_cell_angle_alpha 90.000000
_cell_angle_beta 90.000000
_cell_angle_gamma 90.000000
_cell_volume 3261.955339
_symmetry_space_group_name_H-M "P M M M"
_symmetry_group_IT_number 47
_symmetry_cell_setting 'orthorhombic'
loop_
_space_group_symop_operation_xyz
x,y,z
-x,-y,z
x,-y,-z
-x,y,-z
-x,-y,-z
x,y,-z
-x,y,z
x,-y,z
loop_
_atom_site_type_symbol
_atom_site_label
_atom_site_fract_x
_atom_site_fract_y
_atom_site_fract_z
Si Si1 0.772593 0.166468 0.146951
Si Si2 0.620669 0.171813 0.602130
Si Si3 0.878729 0.335111 0.905626
Si Si4 0.343311 0.328407 0.100329
Si Si5 0.171015 0.166475 0.334881
Si Si6 0.730732 0.659138 0.401317
Si Si7 0.064901 0.670810 0.270895
Si Si8 0.565296 0.667628 0.244986
O O1 0.822416 0.235667 0.088380
O O2 0.713608 0.249970 0.133817
O O3 0.793324 0.181222 0.246114
O O4 0.763900 0.000000 0.118373
O O5 0.606954 0.208040 0.500000
O O6 0.680503 0.239887 0.637993
O O7 0.572779 0.238091 0.666275
O O8 0.624726 0.000000 0.615872
O O9 0.857866 0.500000 0.887401
O O10 0.923337 0.287996 0.830548
O O11 0.910123 0.322639 0.000000
O O12 0.332658 0.500000 0.106371
O O13 0.395267 0.279268 0.163909
O O14 0.357600 0.283002 0.000000
O O15 0.208163 0.259182 0.402803
O O16 0.107623 0.235682 0.330742
O O17 0.164679 0.000000 0.365885
O O18 0.713187 0.630176 0.500000
O O19 0.734031 0.500000 0.353151
O O20 0.074789 0.500000 0.288722
O O21 0.000000 0.716609 0.293637
O O22 0.500000 0.686934 0.213355
O O23 0.579043 0.500000 0.268820
#
# Coordination Sequence:
#
# PCOD8197067 Si02
#       8
#     8   8   8   8   8   8   8   8
#     4  10  20  32  48  73 102 131 167 210 257 311
#     4  10  21  37  58  85 116 146 174 209 259 319
#     4   9  17  29  46  69  97 128 163 206 256 307
#     4  10  21  36  54  76 103 137 177 223 274 321
#     4  10  20  33  51  75 104 138 172 210 257 308
#     4  10  20  34  55  83 111 136 164 202 250 305
#     4   9  18  32  49  69  95 131 174 216 257 301
#     4  10  22  39  58  80 106 140 183 227 268 313
#
# _framework density 19.620135000000001
#
# number of rings (size 3 to 8) (size 9 to 14) (size 15 to 20)
#    0.000    2.250    0.000    2.625    0.000    8.750 
#    0.000    3.750    0.000    0.375    0.000    7.875 
#    0.000    0.000    0.000    0.000    0.000    0.000 
#
# Total GULP energy -793395.879617 kJ/mol
# GULP energy per Si atom -12396.810619 kJ/mol
# Density = 1.957548 g / cm^3
# Si number density = 19.620135 Si / 1000 Ang^3
#
#
#
# Elastic Constant Matrix: (Units=GPa)
#
#
# Indices 1 2 3 4 5 6 
#
# 1 113.3221 46.5951 28.5547 0.0000 0.0000 0.0000
# 2 46.5951 90.8533 26.8467 0.0000 0.0000 0.0000
# 3 28.5547 26.8467 49.9021 0.0000 0.0000 0.0000
# 4 0.0000 0.0000 0.0000 21.4990 0.0000 0.0000
# 5 0.0000 0.0000 0.0000 0.0000 18.5362 0.0000
# 6 0.0000 0.0000 0.0000 0.0000 0.0000 19.3685
#
#
#
# Elastic Compliance Matrix: (Units=1/GPa)
#
#
# Indices 1 2 3 4 5 6 
#
# 1 0.011874 -0.004854 -0.004183 0.000000 0.000000 0.000000
# 2 -0.004854 0.015071 -0.005331 0.000000 0.000000 0.000000
# 3 -0.004183 -0.005331 0.025301 0.000000 0.000000 0.000000
# 4 0.000000 0.000000 0.000000 0.046514 0.000000 0.000000
# 5 0.000000 0.000000 0.000000 0.000000 0.053949 0.000000
# 6 0.000000 0.000000 0.000000 0.000000 0.000000 0.051630
#
#
# Mechanical properties :
#
#
# Convention : Reuss Voigt Hill
#
# Bulk Modulus (GPa) = 42.53383 50.89672 46.71528
# Shear Modulus (GPa) = 20.75451 22.01947 21.38699
#
# Velocity S-wave (km/s) = 3.25594 3.35369 3.30518
# Velocity P-wave (km/s) = 5.98837 6.40263 6.19896
#
# Compressibility (1/GPa) = 0.02351070
#
# Stress axis : x y z
#
# Youngs Moduli (GPa) = 84.21596 66.35162 39.52423
#
# Poissons Ratio (x) = 0.32205 0.16535
# Poissons Ratio (y) = 0.40876 0.21069
# Poissons Ratio (z) = 0.35231 0.35371
#
# Static dielectric constant tensor:
#      x y z
#    x 3.461980 0.000000 0.000000 
#    y 0.000000 3.659780 0.000000 
#    z 0.000000 0.000000 3.496210 
# 
# 
# High freq. dielectric constant tensor:
#      x y z
#    x 1.754100 0.000000 0.000000 
#    y 0.000000 1.765420 0.000000 
#    z 0.000000 0.000000 1.754040 
# 
# From -- ./inp_files/10019.got.cif
#   From: 2010.03.12/outbox.cif.g09.slc.cpg/sg47_6_cif.got.tgz:10019.got - 2010.04.14 03:12:58.
