data_PCOD8197209
_publ_section_title
;
Structure prediction by ZEFSAII (Michael W. Deem and Ramdas Pophale) SiO2 
 PCOD8197209
Probable space group: P M M M
;
_chemical_formula_sum "Si O2"
_cell_formula_units_Z 44
_cell_length_a 9.117252
_cell_length_b 27.983573
_cell_length_c 9.499515
_cell_angle_alpha 90.000000
_cell_angle_beta 90.000000
_cell_angle_gamma 90.000000
_cell_volume 2423.642486
_symmetry_space_group_name_H-M "P M M M"
_symmetry_group_IT_number 47
_symmetry_cell_setting 'orthorhombic'
loop_
_space_group_symop_operation_xyz
x,y,z
-x,-y,z
x,-y,-z
-x,y,-z
-x,-y,-z
x,y,-z
-x,y,z
x,-y,z
loop_
_atom_site_type_symbol
_atom_site_label
_atom_site_fract_x
_atom_site_fract_y
_atom_site_fract_z
Si Si1 0.330826 0.055249 0.160705
Si Si2 0.825734 0.867403 0.659265
Si Si3 0.165513 0.500000 0.332693
Si Si4 0.168308 0.673667 0.834575
Si Si5 0.671372 0.405940 0.336590
Si Si6 0.173994 0.219179 0.844304
O O1 0.500000 0.068202 0.186088
O O2 0.230931 0.085442 0.264613
O O3 0.301840 0.000000 0.194846
O O4 0.286473 0.066593 0.000000
O O5 0.767077 0.866701 0.500000
O O6 0.763138 0.819981 0.736116
O O7 0.000000 0.868211 0.663907
O O8 0.168740 0.500000 0.500000
O O9 0.247526 0.547102 0.276730
O O10 0.000000 0.500000 0.274017
O O11 0.274735 0.639510 0.749201
O O12 0.218206 0.727562 0.795713
O O13 0.000000 0.664658 0.789134
O O14 0.187004 0.664533 0.000000
O O15 0.708697 0.397588 0.500000
O O16 0.500000 0.413408 0.312222
O O17 0.000000 0.216296 0.851658
O O18 0.238364 0.208394 0.000000
#
# Coordination Sequence:
#
# PCOD8197209 Si02
#       6
#     8   8   4   8   8   8
#     4   9  19  36  55  73  95 128 171 212 248 293
#     4  10  20  32  49  77 108 133 161 202 251 300
#     4   9  17  31  52  75  98 129 170 210 248 293
#     4   9  18  33  53  76 100 128 166 209 249 292
#     4  10  20  33  50  74 104 135 166 203 248 297
#     4   8  15  30  51  72  96 129 167 205 245 290
#
# _framework density 18.154494
#
# number of rings (size 3 to 8) (size 9 to 14) (size 15 to 20)
#    0.000    2.818    0.000    3.000    0.000    5.455 
#    0.000    5.909    0.000    3.818    0.000    0.000 
#    0.000    0.000    0.000    0.000    0.000    0.000 
#
# Total GULP energy -545570.638450 kJ/mol
# GULP energy per Si atom -12399.332692 kJ/mol
# Density = 1.811317 g / cm^3
# Si number density = 18.154494 Si / 1000 Ang^3
#
#
#
# Elastic Constant Matrix: (Units=GPa)
#
#
# Indices 1 2 3 4 5 6 
#
# 1 54.3531 42.2001 34.2071 0.0000 0.0000 0.0000
# 2 42.2001 133.3597 70.9505 0.0000 0.0000 0.0000
# 3 34.2071 70.9505 91.6352 0.0000 0.0000 0.0000
# 4 0.0000 0.0000 0.0000 31.5055 0.0000 0.0000
# 5 0.0000 0.0000 0.0000 0.0000 25.3028 0.0000
# 6 0.0000 0.0000 0.0000 0.0000 0.0000 9.9534
#
#
#
# Elastic Compliance Matrix: (Units=1/GPa)
#
#
# Indices 1 2 3 4 5 6 
#
# 1 0.026018 -0.005213 -0.005676 0.000000 0.000000 0.000000
# 2 -0.005213 0.013796 -0.008735 0.000000 0.000000 0.000000
# 3 -0.005676 -0.008735 0.019795 0.000000 0.000000 0.000000
# 4 0.000000 0.000000 0.000000 0.031740 0.000000 0.000000
# 5 0.000000 0.000000 0.000000 0.000000 0.039521 0.000000
# 6 0.000000 0.000000 0.000000 0.000000 0.000000 0.100468
#
#
# Mechanical properties :
#
#
# Convention : Reuss Voigt Hill
#
# Bulk Modulus (GPa) = 49.11707 63.78482 56.45095
# Shear Modulus (GPa) = 18.02612 22.15169 20.08890
#
# Velocity S-wave (km/s) = 3.15450 3.49689 3.33010
# Velocity P-wave (km/s) = 6.35465 7.17740 6.77852
#
# Compressibility (1/GPa) = 0.02035952
#
# Stress axis : x y z
#
# Youngs Moduli (GPa) = 38.43488 72.48624 50.51720
#
# Poissons Ratio (x) = 0.37790 0.28673
# Poissons Ratio (y) = 0.20038 0.44129
# Poissons Ratio (z) = 0.21815 0.63320
#
# Static dielectric constant tensor:
#      x y z
#    x 3.107280 0.000000 0.000000 
#    y 0.000000 3.495200 0.000000 
#    z 0.000000 0.000000 3.342950 
# 
# 
# High freq. dielectric constant tensor:
#      x y z
#    x 1.681890 0.000000 0.000000 
#    y 0.000000 1.716330 0.000000 
#    z 0.000000 0.000000 1.691190 
# 
# From -- ./inp_files/2297.got.cif
#   From: 2010.03.12/outbox.cif.g09.slc.cpg/sg47_2_cif.got.tgz:2297.got - 2010.04.14 03:12:58.
