data_PCOD8197721
_publ_section_title
;
Structure prediction by ZEFSAII (Michael W. Deem and Ramdas Pophale) SiO2 
 PCOD8197721
Probable space group: P M M M
;
_chemical_formula_sum "Si O2"
_cell_formula_units_Z 36
_cell_length_a 9.761845
_cell_length_b 9.228665
_cell_length_c 22.604739
_cell_angle_alpha 90.000000
_cell_angle_beta 90.000000
_cell_angle_gamma 90.000000
_cell_volume 2036.433749
_symmetry_space_group_name_H-M "P M M M"
_symmetry_group_IT_number 47
_symmetry_cell_setting 'orthorhombic'
loop_
_space_group_symop_operation_xyz
x,y,z
-x,-y,z
x,-y,-z
-x,y,-z
-x,-y,-z
x,y,-z
-x,y,z
x,-y,z
loop_
_atom_site_type_symbol
_atom_site_label
_atom_site_fract_x
_atom_site_fract_y
_atom_site_fract_z
Si Si1 0.159683 0.169654 0.115941
Si Si2 0.658848 0.666290 0.792523
Si Si3 0.655347 0.666843 0.656185
Si Si4 0.154836 0.829363 0.566011
Si Si5 0.162549 0.336424 0.000000
O O1 0.245603 0.225670 0.171308
O O2 0.214941 0.252167 0.057856
O O3 0.000000 0.202812 0.127477
O O4 0.185298 0.000000 0.106809
O O5 0.500000 0.701185 0.805240
O O6 0.691001 0.500000 0.809726
O O7 0.694497 0.693638 0.724200
O O8 0.500000 0.715906 0.644892
O O9 0.674745 0.500000 0.639574
O O10 0.750913 0.760068 0.614988
O O11 0.203182 0.784028 0.500000
O O12 0.000000 0.775632 0.576305
O O13 0.163538 0.000000 0.573247
O O14 0.221713 0.500000 0.000000
O O15 0.000000 0.338308 0.000000
#
# Coordination Sequence:
#
# PCOD8197721 Si02
#       5
#     8   8   8   8   4
#     4  10  20  33  51  77 106 133 164 205 251 297
#     4   9  19  36  54  72  99 134 169 206 249 296
#     4   9  19  35  53  74 100 130 166 208 251 295
#     4   9  19  35  52  72 101 134 166 203 248 297
#     4   9  17  31  52  75 100 133 170 206 246 293
#
# _framework density 17.677962000000001
#
# number of rings (size 3 to 8) (size 9 to 14) (size 15 to 20)
#    0.000    2.778    0.000    3.000    0.000    6.667 
#    0.000   10.556    0.000    3.333    0.000    0.000 
#    0.000    0.000    0.000    0.000    0.000    0.000 
#
# Total GULP energy -446389.023567 kJ/mol
# GULP energy per Si atom -12399.695099 kJ/mol
# Density = 1.763773 g / cm^3
# Si number density = 17.677962 Si / 1000 Ang^3
#
#
#
# Elastic Constant Matrix: (Units=GPa)
#
#
# Indices 1 2 3 4 5 6 
#
# 1 69.0046 46.3888 59.2707 0.0000 0.0000 0.0000
# 2 46.3888 86.1681 57.1193 0.0000 0.0000 0.0000
# 3 59.2707 57.1193 105.0017 0.0000 0.0000 0.0000
# 4 0.0000 0.0000 0.0000 31.6235 0.0000 0.0000
# 5 0.0000 0.0000 0.0000 0.0000 52.0250 0.0000
# 6 0.0000 0.0000 0.0000 0.0000 0.0000 33.2706
#
#
#
# Elastic Compliance Matrix: (Units=1/GPa)
#
#
# Indices 1 2 3 4 5 6 
#
# 1 0.031333 -0.008045 -0.013310 0.000000 0.000000 0.000000
# 2 -0.008045 0.020216 -0.006456 0.000000 0.000000 0.000000
# 3 -0.013310 -0.006456 0.020549 0.000000 0.000000 0.000000
# 4 0.000000 0.000000 0.000000 0.031622 0.000000 0.000000
# 5 0.000000 0.000000 0.000000 0.000000 0.019222 0.000000
# 6 0.000000 0.000000 0.000000 0.000000 0.000000 0.030057
#
#
# Mechanical properties :
#
#
# Convention : Reuss Voigt Hill
#
# Bulk Modulus (GPa) = 60.69718 65.08132 62.88925
# Shear Modulus (GPa) = 23.35239 29.87686 26.61462
#
# Velocity S-wave (km/s) = 3.63848 4.11550 3.88432
# Velocity P-wave (km/s) = 7.21532 7.71220 7.46789
#
# Compressibility (1/GPa) = 0.01647523
#
# Stress axis : x y z
#
# Youngs Moduli (GPa) = 31.91565 49.46638 48.66467
#
# Poissons Ratio (x) = 0.39795 0.64773
# Poissons Ratio (y) = 0.25676 0.31418
# Poissons Ratio (z) = 0.42480 0.31935
#
# Static dielectric constant tensor:
#      x y z
#    x 3.151680 0.000000 0.000000 
#    y 0.000000 3.234830 0.000000 
#    z 0.000000 0.000000 3.773890 
# 
# 
# High freq. dielectric constant tensor:
#      x y z
#    x 1.670270 0.000000 0.000000 
#    y 0.000000 1.685330 0.000000 
#    z 0.000000 0.000000 1.692070 
# 
# From -- ./inp_files/1347.got.cif
#   From: 2010.03.12/outbox.cif.g09.slc.cpg/sg47_1_cif.got.tgz:1347.got - 2010.04.14 03:12:58.
