data_PCOD8197340
_publ_section_title
;
Structure prediction by ZEFSAII (Michael W. Deem and Ramdas Pophale) SiO2 
 PCOD8197340
Probable space group: P M M M
;
_chemical_formula_sum "Si O2"
_cell_formula_units_Z 48
_cell_length_a 13.689398
_cell_length_b 8.527189
_cell_length_c 24.429307
_cell_angle_alpha 90.000000
_cell_angle_beta 90.000000
_cell_angle_gamma 90.000000
_cell_volume 2851.683918
_symmetry_space_group_name_H-M "P M M M"
_symmetry_group_IT_number 47
_symmetry_cell_setting 'orthorhombic'
loop_
_space_group_symop_operation_xyz
x,y,z
-x,-y,z
x,-y,-z
-x,y,-z
-x,-y,-z
x,y,-z
-x,y,z
x,-y,z
loop_
_atom_site_type_symbol
_atom_site_label
_atom_site_fract_x
_atom_site_fract_y
_atom_site_fract_z
Si Si1 0.889082 0.316926 0.835088
Si Si2 0.615860 0.324618 0.442132
Si Si3 0.387772 0.312949 0.323913
Si Si4 0.389173 0.683240 0.883959
Si Si5 0.207710 0.182771 0.937951
Si Si6 0.292695 0.182602 0.780706
O O1 0.873047 0.500000 0.824930
O O2 0.862813 0.279474 0.898051
O O3 0.820203 0.221704 0.793551
O O4 0.000000 0.266174 0.823438
O O5 0.648349 0.239151 0.500000
O O6 0.500000 0.333247 0.440030
O O7 0.658467 0.500000 0.444183
O O8 0.647946 0.248141 0.384079
O O9 0.500000 0.264439 0.312177
O O10 0.376943 0.500000 0.321227
O O11 0.316727 0.230904 0.280959
O O12 0.500000 0.733081 0.895936
O O13 0.372852 0.500000 0.893896
O O14 0.320733 0.779143 0.925275
O O15 0.363056 0.721526 0.821209
O O16 0.189485 0.000000 0.927986
O O17 0.183206 0.231103 0.000000
O O18 0.311317 0.000000 0.789739
#
# Coordination Sequence:
#
# PCOD8197340 Si02
#       6
#     8   8   8   8   8   8
#     4  10  21  37  56  73  88 110 141 180 226 271
#     4   7  10  18  34  57  84 116 156 196 227 253
#     4   9  16  26  42  64  92 126 160 193 225 257
#     4  10  20  33  49  67  89 120 155 189 223 257
#     4  10  21  35  51  72  96 120 145 175 213 261
#     4  11  21  31  46  67  92 120 149 184 224 269
#
# _framework density 16.832159999999998
#
# number of rings (size 3 to 8) (size 9 to 14) (size 15 to 20)
#    0.000    2.500    0.000    7.000    0.000    7.000 
#    0.000    3.333    0.000    0.500    0.000    2.333 
#    0.000    0.667    0.000    7.667    0.000    2.500 
#
# Total GULP energy -594820.712211 kJ/mol
# GULP energy per Si atom -12392.098171 kJ/mol
# Density = 1.679385 g / cm^3
# Si number density = 16.832160 Si / 1000 Ang^3
#
#
#
# Elastic Constant Matrix: (Units=GPa)
#
#
# Indices 1 2 3 4 5 6 
#
# 1 68.7116 15.4236 32.1353 0.0000 0.0000 0.0000
# 2 15.4236 28.6306 13.2960 0.0000 0.0000 0.0000
# 3 32.1353 13.2960 120.3429 0.0000 0.0000 0.0000
# 4 0.0000 0.0000 0.0000 6.4937 0.0000 0.0000
# 5 0.0000 0.0000 0.0000 0.0000 13.5470 0.0000
# 6 0.0000 0.0000 0.0000 0.0000 0.0000 8.6730
#
#
#
# Elastic Compliance Matrix: (Units=1/GPa)
#
#
# Indices 1 2 3 4 5 6 
#
# 1 0.018202 -0.007956 -0.003981 0.000000 0.000000 0.000000
# 2 -0.007956 0.040295 -0.002327 0.000000 0.000000 0.000000
# 3 -0.003981 -0.002327 0.009630 0.000000 0.000000 0.000000
# 4 0.000000 0.000000 0.000000 0.153995 0.000000 0.000000
# 5 0.000000 0.000000 0.000000 0.000000 0.073817 0.000000
# 6 0.000000 0.000000 0.000000 0.000000 0.000000 0.115300
#
#
# Mechanical properties :
#
#
# Convention : Reuss Voigt Hill
#
# Bulk Modulus (GPa) = 25.25514 37.71055 31.48284
# Shear Modulus (GPa) = 11.03833 16.19810 13.61821
#
# Velocity S-wave (km/s) = 2.56361 3.10551 2.84748
# Velocity P-wave (km/s) = 4.87847 5.94234 5.43649
#
# Compressibility (1/GPa) = 0.03959590
#
# Stress axis : x y z
#
# Youngs Moduli (GPa) = 54.94035 24.81722 103.84372
#
# Poissons Ratio (x) = 0.19746 0.41343
# Poissons Ratio (y) = 0.43713 0.24168
# Poissons Ratio (z) = 0.21874 0.05776
#
# Static dielectric constant tensor:
#      x y z
#    x 2.949210 0.000000 0.000000 
#    y 0.000000 3.006810 0.000000 
#    z 0.000000 0.000000 3.534140 
# 
# 
# High freq. dielectric constant tensor:
#      x y z
#    x 1.611560 0.000000 0.000000 
#    y 0.000000 1.639460 0.000000 
#    z 0.000000 0.000000 1.654380 
# 
# From -- ./inp_files/32601.got.cif
#   From: 2010.03.12/outbox.cif.g09.slc.cpg/sg47_17_cif.got.tgz:32601.got - 2010.04.14 03:12:58.
