data_PCOD8197750
_publ_section_title
;
Structure prediction by ZEFSAII (Michael W. Deem and Ramdas Pophale) SiO2 
 PCOD8197750
Probable space group: P M M M
;
_chemical_formula_sum "Si O2"
_cell_formula_units_Z 52
_cell_length_a 9.070851
_cell_length_b 21.240155
_cell_length_c 13.760478
_cell_angle_alpha 90.000000
_cell_angle_beta 90.000000
_cell_angle_gamma 90.000000
_cell_volume 2651.180124
_symmetry_space_group_name_H-M "P M M M"
_symmetry_group_IT_number 47
_symmetry_cell_setting 'orthorhombic'
loop_
_space_group_symop_operation_xyz
x,y,z
-x,-y,z
x,-y,-z
-x,y,-z
-x,-y,-z
x,y,-z
-x,y,z
x,-y,z
loop_
_atom_site_type_symbol
_atom_site_label
_atom_site_fract_x
_atom_site_fract_y
_atom_site_fract_z
Si Si1 0.170072 0.570177 0.793111
Si Si2 0.665354 0.766641 0.384910
Si Si3 0.335370 0.684474 0.114825
Si Si4 0.171463 0.881197 0.295122
Si Si5 0.675140 0.000000 0.612644
Si Si6 0.829568 0.808028 0.109721
Si Si7 0.831750 0.644412 0.609254
O O1 0.231982 0.500000 0.812795
O O2 0.255843 0.620247 0.857164
O O3 0.189874 0.584387 0.678462
O O4 0.000000 0.574146 0.823510
O O5 0.662225 0.765975 0.500000
O O6 0.500000 0.777227 0.343403
O O7 0.776552 0.820789 0.354019
O O8 0.727935 0.699657 0.348449
O O9 0.500000 0.683658 0.157420
O O10 0.256056 0.747704 0.153919
O O11 0.334826 0.688520 0.000000
O O12 0.265744 0.939957 0.330134
O O13 0.198668 0.867925 0.180023
O O14 0.000000 0.894131 0.316637
O O15 0.500000 0.000000 0.617206
O O16 0.728138 0.000000 0.500000
O O17 0.000000 0.788790 0.110436
O O18 0.778257 0.825828 0.000000
O O19 0.786901 0.624499 0.500000
O O20 0.000000 0.668884 0.612126
#
# Coordination Sequence:
#
# PCOD8197750 Si02
#       7
#     8   8   8   8   4   8   8
#     4  10  21  35  51  73 101 136 178 220 266 323
#     4  10  20  33  51  77 108 140 174 216 268 322
#     4  10  21  36  55  80 108 138 174 219 270 320
#     4  11  22  36  58  85 111 143 182 222 263 307
#     4  11  25  43  60  81 114 154 189 219 258 309
#     4   9  19  37  60  85 112 141 175 217 266 318
#     4   9  18  33  52  74 101 133 172 220 270 319
#
# _framework density 19.613907000000001
#
# number of rings (size 3 to 8) (size 9 to 14) (size 15 to 20)
#    0.000    2.077    0.000    3.000    0.000   10.769 
#    0.000    3.462    0.000    2.308    0.000    3.231 
#    0.000    0.000    0.000    0.000    0.000    0.000 
#
# Total GULP energy -644796.255399 kJ/mol
# GULP energy per Si atom -12399.927988 kJ/mol
# Density = 1.956927 g / cm^3
# Si number density = 19.613907 Si / 1000 Ang^3
#
#
#
# Elastic Constant Matrix: (Units=GPa)
#
#
# Indices 1 2 3 4 5 6 
#
# 1 86.8791 46.5246 36.7213 0.0000 0.0000 0.0000
# 2 46.5246 116.4892 50.1521 0.0000 0.0000 0.0000
# 3 36.7213 50.1521 50.0711 0.0000 0.0000 0.0000
# 4 0.0000 0.0000 0.0000 27.3606 0.0000 0.0000
# 5 0.0000 0.0000 0.0000 0.0000 24.0190 0.0000
# 6 0.0000 0.0000 0.0000 0.0000 0.0000 -24.3820
#
#
#
# Elastic Compliance Matrix: (Units=1/GPa)
#
#
# Indices 1 2 3 4 5 6 
#
# 1 0.017090 -0.002513 -0.010016 0.000000 0.000000 0.000000
# 2 -0.002513 0.015463 -0.013644 0.000000 0.000000 0.000000
# 3 -0.010016 -0.013644 0.040983 0.000000 0.000000 0.000000
# 4 0.000000 0.000000 0.000000 0.036549 0.000000 0.000000
# 5 0.000000 0.000000 0.000000 0.000000 0.041634 0.000000
# 6 0.000000 0.000000 0.000000 0.000000 0.000000 -0.041014
#
#
# Mechanical properties :
#
#
# Convention : Reuss Voigt Hill
#
# Bulk Modulus (GPa) = 47.19518 57.80392 52.49955
# Shear Modulus (GPa) = 29.39204 13.40228 21.39716
#
# Velocity S-wave (km/s) = 3.87529 2.61685 3.30649
# Velocity P-wave (km/s) = 6.64365 6.21815 6.43442
#
# Compressibility (1/GPa) = 0.02118860
#
# Stress axis : x y z
#
# Youngs Moduli (GPa) = 58.51536 64.67235 24.40012
#
# Poissons Ratio (x) = 0.16254 0.24439
# Poissons Ratio (y) = 0.14707 0.33292
# Poissons Ratio (z) = 0.58608 0.88241
#
# Static dielectric constant tensor:
#      x y z
#    x 3.785050 0.000000 0.000000 
#    y 0.000000 3.589870 0.000000 
#    z 0.000000 0.000000 3.755440 
# 
# 
# High freq. dielectric constant tensor:
#      x y z
#    x 1.766580 0.000000 0.000000 
#    y 0.000000 1.748520 0.000000 
#    z 0.000000 0.000000 1.775690 
# 
# From -- ./inp_files/21489.got.cif
#   From: 2010.03.12/outbox.cif.g09.slc.cpg/sg47_11_cif.got.tgz:21489.got - 2010.04.14 03:12:58.
