data_PCOD8197184
_publ_section_title
;
Structure prediction by ZEFSAII (Michael W. Deem and Ramdas Pophale) SiO2 
 PCOD8197184
Probable space group: P M M M
;
_chemical_formula_sum "Si O2"
_cell_formula_units_Z 44
_cell_length_a 9.351791
_cell_length_b 28.042280
_cell_length_c 9.311540
_cell_angle_alpha 90.000000
_cell_angle_beta 90.000000
_cell_angle_gamma 90.000000
_cell_volume 2441.909852
_symmetry_space_group_name_H-M "P M M M"
_symmetry_group_IT_number 47
_symmetry_cell_setting 'orthorhombic'
loop_
_space_group_symop_operation_xyz
x,y,z
-x,-y,z
x,-y,-z
-x,y,-z
-x,-y,-z
x,y,-z
-x,y,z
x,-y,z
loop_
_atom_site_type_symbol
_atom_site_label
_atom_site_fract_x
_atom_site_fract_y
_atom_site_fract_z
Si Si1 0.668532 0.092273 0.333563
Si Si2 0.663866 0.554842 0.165536
Si Si3 0.167067 0.827964 0.833300
Si Si4 0.330043 0.000000 0.162817
Si Si5 0.169505 0.367598 0.336760
Si Si6 0.830317 0.721100 0.841402
O O1 0.709303 0.085844 0.500000
O O2 0.500000 0.098401 0.313366
O O3 0.743611 0.138593 0.270616
O O4 0.726290 0.046441 0.246667
O O5 0.500000 0.568592 0.196289
O O6 0.691383 0.500000 0.206090
O O7 0.766850 0.586241 0.261782
O O8 0.701810 0.563958 0.000000
O O9 0.215252 0.774142 0.792944
O O10 0.000000 0.835716 0.803169
O O11 0.201992 0.838695 0.000000
O O12 0.500000 0.000000 0.161633
O O13 0.269619 0.000000 0.000000
O O14 0.220596 0.367133 0.500000
O O15 0.229967 0.318927 0.266029
O O16 0.000000 0.370475 0.322234
O O17 0.000000 0.719236 0.846877
O O18 0.768686 0.710139 0.000000
#
# Coordination Sequence:
#
# PCOD8197184 Si02
#       6
#     8   8   8   4   8   8
#     4  10  20  33  50  74 103 132 163 201 245 294
#     4   9  19  36  55  73  95 127 167 206 244 290
#     4   9  18  33  53  76 100 128 165 206 246 290
#     4   9  17  31  52  73  94 127 168 206 246 291
#     4  10  20  32  49  76 105 130 160 200 244 291
#     4   8  15  30  51  72  96 129 167 204 242 286
#
# _framework density 18.018682999999999
#
# number of rings (size 3 to 8) (size 9 to 14) (size 15 to 20)
#    0.000    2.818    0.000    3.000    0.000    5.455 
#    0.000    5.909    0.000    3.818    0.000    0.000 
#    0.000    0.000    0.000    0.000    0.000    0.000 
#
# Total GULP energy -545542.239283 kJ/mol
# GULP energy per Si atom -12398.687256 kJ/mol
# Density = 1.797767 g / cm^3
# Si number density = 18.018683 Si / 1000 Ang^3
#
#
#
# Elastic Constant Matrix: (Units=GPa)
#
#
# Indices 1 2 3 4 5 6 
#
# 1 24.4556 33.4075 36.3414 0.0000 0.0000 0.0000
# 2 33.4075 138.6042 89.8666 0.0000 0.0000 0.0000
# 3 36.3414 89.8666 137.6371 0.0000 0.0000 0.0000
# 4 0.0000 0.0000 0.0000 20.2304 0.0000 0.0000
# 5 0.0000 0.0000 0.0000 0.0000 26.1549 0.0000
# 6 0.0000 0.0000 0.0000 0.0000 0.0000 101.1585
#
#
#
# Elastic Compliance Matrix: (Units=1/GPa)
#
#
# Indices 1 2 3 4 5 6 
#
# 1 0.073057 -0.008847 -0.013513 0.000000 0.000000 0.000000
# 2 -0.008847 0.013583 -0.006532 0.000000 0.000000 0.000000
# 3 -0.013513 -0.006532 0.015099 0.000000 0.000000 0.000000
# 4 0.000000 0.000000 0.000000 0.049431 0.000000 0.000000
# 5 0.000000 0.000000 0.000000 0.000000 0.038234 0.000000
# 6 0.000000 0.000000 0.000000 0.000000 0.000000 0.009885
#
#
# Mechanical properties :
#
#
# Convention : Reuss Voigt Hill
#
# Bulk Modulus (GPa) = 22.75177 68.88087 45.81632
# Shear Modulus (GPa) = 18.40094 38.91418 28.65756
#
# Velocity S-wave (km/s) = 3.19911 4.65225 3.99235
# Velocity P-wave (km/s) = 5.12835 8.19563 6.83624
#
# Compressibility (1/GPa) = 0.04395263
#
# Stress axis : x y z
#
# Youngs Moduli (GPa) = 13.68789 73.62338 66.23092
#
# Poissons Ratio (x) = 0.65136 0.89500
# Poissons Ratio (y) = 0.12110 0.43265
# Poissons Ratio (z) = 0.18497 0.48094
#
# Static dielectric constant tensor:
#      x y z
#    x 2.946600 0.000000 0.000000 
#    y 0.000000 3.492000 0.000000 
#    z 0.000000 0.000000 3.461590 
# 
# 
# High freq. dielectric constant tensor:
#      x y z
#    x 1.660830 0.000000 0.000000 
#    y 0.000000 1.711690 0.000000 
#    z 0.000000 0.000000 1.702530 
# 
# From -- ./inp_files/1954.got.cif
#   From: 2010.03.12/outbox.cif.g09.slc.cpg/sg47_1_cif.got.tgz:1954.got - 2010.04.14 03:12:58.
