data_PCOD8197281
_publ_section_title
;
Structure prediction by ZEFSAII (Michael W. Deem and Ramdas Pophale) SiO2 
 PCOD8197281
Probable space group: P M M M
;
_chemical_formula_sum "Si O2"
_cell_formula_units_Z 44
_cell_length_a 23.334601
_cell_length_b 13.967464
_cell_length_c 8.958837
_cell_angle_alpha 90.000000
_cell_angle_beta 90.000000
_cell_angle_gamma 90.000000
_cell_volume 2919.910736
_symmetry_space_group_name_H-M "P M M M"
_symmetry_group_IT_number 47
_symmetry_cell_setting 'orthorhombic'
loop_
_space_group_symop_operation_xyz
x,y,z
-x,-y,z
x,-y,-z
-x,y,-z
-x,-y,-z
x,y,-z
-x,y,z
x,-y,z
loop_
_atom_site_type_symbol
_atom_site_label
_atom_site_fract_x
_atom_site_fract_y
_atom_site_fract_z
Si Si1 0.787552 0.612572 0.827293
Si Si2 0.107040 0.289353 0.676162
Si Si3 0.562948 0.386155 0.832168
Si Si4 0.000000 0.613253 0.170622
Si Si5 0.933371 0.108649 0.828072
Si Si6 0.326894 0.386276 0.333636
O O1 0.796607 0.500000 0.801919
O O2 0.832895 0.668471 0.727963
O O3 0.724903 0.645894 0.773126
O O4 0.794936 0.640111 0.000000
O O5 0.101548 0.297731 0.500000
O O6 0.056539 0.349190 0.750519
O O7 0.103882 0.178469 0.724987
O O8 0.500000 0.354110 0.772164
O O9 0.566635 0.500000 0.832961
O O10 0.613355 0.343254 0.729135
O O11 0.571801 0.347724 0.000000
O O12 0.000000 0.500000 0.179417
O O13 0.000000 0.649518 0.000000
O O14 0.000000 0.133585 0.805447
O O15 0.920802 0.000000 0.777999
O O16 0.916038 0.123284 0.000000
O O17 0.317050 0.345579 0.500000
O O18 0.330557 0.500000 0.337432
#
# Coordination Sequence:
#
# PCOD8197281 Si02
#       6
#     8   8   8   4   8   8
#     4  10  20  33  47  60  79 113 151 181 211 254
#     4  12  23  33  48  70  91 110 135 174 219 258
#     4   8  13  21  33  49  70  98 133 171 209 250
#     4  11  23  37  50  63  84 115 147 176 208 251
#     4   9  18  34  55  73  89 111 137 166 203 253
#     4   9  16  25  37  54  76 101 133 176 219 253
#
# _framework density 15.068955000000001
#
# number of rings (size 3 to 8) (size 9 to 14) (size 15 to 20)
#    0.000    2.273    0.909    4.636    0.000    6.909 
#    0.000    2.727    0.000    0.000    0.000    0.000 
#    0.000    0.000    0.000    0.000    0.000    0.909 
#
# Total GULP energy -545532.647827 kJ/mol
# GULP energy per Si atom -12398.469269 kJ/mol
# Density = 1.503466 g / cm^3
# Si number density = 15.068955 Si / 1000 Ang^3
#
#
#
# Elastic Constant Matrix: (Units=GPa)
#
#
# Indices 1 2 3 4 5 6 
#
# 1 107.1527 30.3124 51.3968 0.0000 0.0000 0.0000
# 2 30.3124 43.5103 34.1971 0.0000 0.0000 0.0000
# 3 51.3968 34.1971 112.3773 0.0000 0.0000 0.0000
# 4 0.0000 0.0000 0.0000 13.9382 0.0000 0.0000
# 5 0.0000 0.0000 0.0000 0.0000 9.4287 0.0000
# 6 0.0000 0.0000 0.0000 0.0000 0.0000 0.9053
#
#
#
# Elastic Compliance Matrix: (Units=1/GPa)
#
#
# Indices 1 2 3 4 5 6 
#
# 1 0.012963 -0.005745 -0.004180 0.000000 0.000000 0.000000
# 2 -0.005745 0.032754 -0.007340 0.000000 0.000000 0.000000
# 3 -0.004180 -0.007340 0.013044 0.000000 0.000000 0.000000
# 4 0.000000 0.000000 0.000000 0.071745 0.000000 0.000000
# 5 0.000000 0.000000 0.000000 0.000000 0.106059 0.000000
# 6 0.000000 0.000000 0.000000 0.000000 0.000000 1.104548
#
#
# Mechanical properties :
#
#
# Convention : Reuss Voigt Hill
#
# Bulk Modulus (GPa) = 41.27020 54.98366 48.12693
# Shear Modulus (GPa) = 3.61345 14.66340 9.13842
#
# Velocity S-wave (km/s) = 1.55021 3.12282 2.46527
# Velocity P-wave (km/s) = 5.53635 7.04059 6.33329
#
# Compressibility (1/GPa) = 0.02423056
#
# Stress axis : x y z
#
# Youngs Moduli (GPa) = 77.14311 30.53035 76.66341
#
# Poissons Ratio (x) = 0.17541 0.32048
# Poissons Ratio (y) = 0.44321 0.56268
# Poissons Ratio (z) = 0.32249 0.22408
#
# Static dielectric constant tensor:
#      x y z
#    x 3.075110 0.000000 0.000000 
#    y 0.000000 2.565140 0.000000 
#    z 0.000000 0.000000 3.052250 
# 
# 
# High freq. dielectric constant tensor:
#      x y z
#    x 1.578450 0.000000 0.000000 
#    y 0.000000 1.519380 0.000000 
#    z 0.000000 0.000000 1.589300 
# 
# From -- ./inp_files/10887.got.cif
#   From: 2010.03.12/outbox.cif.g09.slc.cpg/sg47_6_cif.got.tgz:10887.got - 2010.04.14 03:12:58.
