data_PCOD8197232
_publ_section_title
;
Structure prediction by ZEFSAII (Michael W. Deem and Ramdas Pophale) SiO2 
 PCOD8197232
Probable space group: P M M M
;
_chemical_formula_sum "Si O2"
_cell_formula_units_Z 52
_cell_length_a 12.825250
_cell_length_b 8.081093
_cell_length_c 27.613627
_cell_angle_alpha 90.000000
_cell_angle_beta 90.000000
_cell_angle_gamma 90.000000
_cell_volume 2861.932579
_symmetry_space_group_name_H-M "P M M M"
_symmetry_group_IT_number 47
_symmetry_cell_setting 'orthorhombic'
loop_
_space_group_symop_operation_xyz
x,y,z
-x,-y,z
x,-y,-z
-x,y,-z
-x,-y,-z
x,y,-z
-x,y,z
x,-y,z
loop_
_atom_site_type_symbol
_atom_site_label
_atom_site_fract_x
_atom_site_fract_y
_atom_site_fract_z
Si Si1 0.116106 0.694518 0.053030
Si Si2 0.385441 0.304552 0.319519
Si Si3 0.000000 0.191003 0.795638
Si Si4 0.121477 0.000000 0.556624
Si Si5 0.196965 0.190437 0.850681
Si Si6 0.000000 0.312200 0.309886
Si Si7 0.380507 0.692322 0.211993
Si Si8 0.811386 0.304771 0.381288
O O1 0.111725 0.500000 0.050000
O O2 0.198008 0.744765 0.094298
O O3 0.000000 0.762915 0.065839
O O4 0.150799 0.763865 0.000000
O O5 0.500000 0.238376 0.335904
O O6 0.390121 0.500000 0.314454
O O7 0.357617 0.235527 0.265982
O O8 0.299964 0.253788 0.358917
O O9 0.103924 0.275134 0.818851
O O10 0.000000 0.203219 0.737789
O O11 0.000000 0.000000 0.808581
O O12 0.170801 0.172562 0.575945
O O13 0.142650 0.000000 0.500000
O O14 0.000000 0.000000 0.569662
O O15 0.308954 0.218586 0.827020
O O16 0.173484 0.000000 0.852826
O O17 0.898017 0.272578 0.340960
O O18 0.000000 0.500000 0.292405
O O19 0.500000 0.726923 0.197869
O O20 0.353895 0.500000 0.210314
O O21 0.814559 0.500000 0.398600
#
# Coordination Sequence:
#
# PCOD8197232 Si02
#       8
#     8   8   4   4   8   4   8   8
#     4   9  18  33  53  74  95 126 173 223 267 316
#     4   8  15  31  56  82 108 141 180 219 264 320
#     4  10  22  32  43  71 111 146 169 199 253 318
#     4  11  24  40  59  83 111 149 190 227 277 328
#     4  11  21  33  47  72 108 140 171 209 261 321
#     4  10  20  32  50  76 103 139 179 216 262 314
#     4   9  18  34  54  75 102 139 181 219 256 307
#     4  10  20  36  57  83 112 141 182 230 274 323
#
# _framework density 18.169539
#
# number of rings (size 3 to 8) (size 9 to 14) (size 15 to 20)
#    0.000    2.385    1.538    2.769    1.077    3.385 
#    1.385    1.923    0.000    1.385    0.000    5.385 
#    0.000    0.000    0.000    0.000    0.000    0.000 
#
# Total GULP energy -644452.220637 kJ/mol
# GULP energy per Si atom -12393.311935 kJ/mol
# Density = 1.812818 g / cm^3
# Si number density = 18.169539 Si / 1000 Ang^3
#
#
#
# Elastic Constant Matrix: (Units=GPa)
#
#
# Indices 1 2 3 4 5 6 
#
# 1 99.7093 29.1238 63.1184 0.0000 0.0000 0.0000
# 2 29.1238 55.9061 43.1573 0.0000 0.0000 0.0000
# 3 63.1184 43.1573 120.7654 0.0000 0.0000 0.0000
# 4 0.0000 0.0000 0.0000 22.0954 0.0000 0.0000
# 5 0.0000 0.0000 0.0000 0.0000 31.6528 0.0000
# 6 0.0000 0.0000 0.0000 0.0000 0.0000 14.0215
#
#
#
# Elastic Compliance Matrix: (Units=1/GPa)
#
#
# Indices 1 2 3 4 5 6 
#
# 1 0.015231 -0.002471 -0.007078 0.000000 0.000000 0.000000
# 2 -0.002471 0.025102 -0.007679 0.000000 0.000000 0.000000
# 3 -0.007078 -0.007679 0.014724 0.000000 0.000000 0.000000
# 4 0.000000 0.000000 0.000000 0.045258 0.000000 0.000000
# 5 0.000000 0.000000 0.000000 0.000000 0.031593 0.000000
# 6 0.000000 0.000000 0.000000 0.000000 0.000000 0.071319
#
#
# Mechanical properties :
#
#
# Convention : Reuss Voigt Hill
#
# Bulk Modulus (GPa) = 48.53912 60.79776 54.66844
# Shear Modulus (GPa) = 20.44565 22.95268 21.69916
#
# Velocity S-wave (km/s) = 3.35814 3.55808 3.45956
# Velocity P-wave (km/s) = 6.46597 7.10028 6.79053
#
# Compressibility (1/GPa) = 0.02060194
#
# Stress axis : x y z
#
# Youngs Moduli (GPa) = 65.65484 39.83675 67.91657
#
# Poissons Ratio (x) = 0.09843 0.48069
# Poissons Ratio (y) = 0.16223 0.52155
# Poissons Ratio (z) = 0.46468 0.30592
#
# Static dielectric constant tensor:
#      x y z
#    x 3.564280 0.000000 0.000000 
#    y 0.000000 3.181160 0.000000 
#    z 0.000000 0.000000 3.616430 
# 
# 
# High freq. dielectric constant tensor:
#      x y z
#    x 1.697230 0.000000 0.000000 
#    y 0.000000 1.692240 0.000000 
#    z 0.000000 0.000000 1.690820 
# 
# From -- ./inp_files/33645.got.cif
#   From: 2010.03.12/outbox.cif.g09.slc.cpg/sg47_17_cif.got.tgz:33645.got - 2010.04.14 03:12:58.
