data_PCOD8197921
_publ_section_title
;
Structure prediction by ZEFSAII (Michael W. Deem and Ramdas Pophale) SiO2 
 PCOD8197921
Probable space group: P M M M
;
_chemical_formula_sum "Si O2"
_cell_formula_units_Z 48
_cell_length_a 19.654819
_cell_length_b 15.167760
_cell_length_c 8.786885
_cell_angle_alpha 90.000000
_cell_angle_beta 90.000000
_cell_angle_gamma 90.000000
_cell_volume 2619.542443
_symmetry_space_group_name_H-M "P M M M"
_symmetry_group_IT_number 47
_symmetry_cell_setting 'orthorhombic'
loop_
_space_group_symop_operation_xyz
x,y,z
-x,-y,z
x,-y,-z
-x,y,-z
-x,-y,-z
x,y,-z
-x,y,z
x,-y,z
loop_
_atom_site_type_symbol
_atom_site_label
_atom_site_fract_x
_atom_site_fract_y
_atom_site_fract_z
Si Si1 0.000000 0.899863 0.665730
Si Si2 0.691594 0.713590 0.820181
Si Si3 0.172275 0.658441 0.321910
Si Si4 0.077833 0.500000 0.680936
Si Si5 0.129624 0.832581 0.174234
Si Si6 0.725659 0.095552 0.825229
Si Si7 0.578717 0.600455 0.324104
O O1 0.936155 0.882279 0.771275
O O2 0.000000 0.849310 0.500000
O O3 0.000000 0.000000 0.622039
O O4 0.753427 0.654549 0.756081
O O5 0.692459 0.814901 0.753594
O O6 0.620973 0.668085 0.777782
O O7 0.701116 0.718182 0.000000
O O8 0.184446 0.646743 0.500000
O O9 0.120747 0.583890 0.259930
O O10 0.136942 0.749921 0.284776
O O11 0.073231 0.500000 0.500000
O O12 0.000000 0.500000 0.746709
O O13 0.193203 0.897860 0.191830
O O14 0.122623 0.800539 0.000000
O O15 0.703667 0.000000 0.750313
O O16 0.703655 0.091782 0.000000
O O17 0.597129 0.615172 0.500000
O O18 0.500000 0.620975 0.293857
O O19 0.595469 0.500000 0.276739
#
# Coordination Sequence:
#
# PCOD8197921 Si02
#       7
#     4   8   8   4   8   8   8
#     4  11  23  35  49  72  99 130 169 213 266 329
#     4  10  20  33  53  83 113 139 175 223 267 313
#     4  10  20  35  55  76 102 139 179 220 265 318
#     4   9  20  36  53  73  96 133 183 224 262 315
#     4  10  20  34  52  74 100 129 168 219 274 323
#     4   8  15  30  51  73 100 135 172 209 254 309
#     4   9  19  36  57  80 108 144 182 216 259 322
#
# _framework density 18.323810000000002
#
# number of rings (size 3 to 8) (size 9 to 14) (size 15 to 20)
#    0.000    2.500    0.000    3.750    2.333    2.000 
#    0.000    2.083    0.000   12.500    0.000    3.500 
#    0.000    0.000    0.000    0.000    0.000    0.000 
#
# Total GULP energy -594816.016314 kJ/mol
# GULP energy per Si atom -12392.000340 kJ/mol
# Density = 1.828210 g / cm^3
# Si number density = 18.323810 Si / 1000 Ang^3
#
#
#
# Elastic Constant Matrix: (Units=GPa)
#
#
# Indices 1 2 3 4 5 6 
#
# 1 93.9035 58.4757 28.7918 0.0000 0.0000 0.0000
# 2 58.4757 114.2048 23.9110 0.0000 0.0000 0.0000
# 3 28.7918 23.9110 49.4910 0.0000 0.0000 0.0000
# 4 0.0000 0.0000 0.0000 21.9528 0.0000 0.0000
# 5 0.0000 0.0000 0.0000 0.0000 29.1451 0.0000
# 6 0.0000 0.0000 0.0000 0.0000 0.0000 -23.0865
#
#
#
# Elastic Compliance Matrix: (Units=1/GPa)
#
#
# Indices 1 2 3 4 5 6 
#
# 1 0.017299 -0.007510 -0.006435 0.000000 0.000000 0.000000
# 2 -0.007510 0.013002 -0.001913 0.000000 0.000000 0.000000
# 3 -0.006435 -0.001913 0.024874 0.000000 0.000000 0.000000
# 4 0.000000 0.000000 0.000000 0.045552 0.000000 0.000000
# 5 0.000000 0.000000 0.000000 0.000000 0.034311 0.000000
# 6 0.000000 0.000000 0.000000 0.000000 0.000000 -0.043315
#
#
# Mechanical properties :
#
#
# Convention : Reuss Voigt Hill
#
# Bulk Modulus (GPa) = 42.62902 53.32849 47.97875
# Shear Modulus (GPa) = 38.09261 15.36367 26.72814
#
# Velocity S-wave (km/s) = 4.56440 2.89875 3.82338
# Velocity P-wave (km/s) = 7.14794 6.35376 6.76252
#
# Compressibility (1/GPa) = 0.02345820
#
# Stress axis : x y z
#
# Youngs Moduli (GPa) = 57.80618 76.91083 40.20318
#
# Poissons Ratio (x) = 0.57762 0.25873
# Poissons Ratio (y) = 0.43414 0.07689
# Poissons Ratio (z) = 0.37201 0.14710
#
# Static dielectric constant tensor:
#      x y z
#    x 3.263490 0.000000 0.000000 
#    y 0.000000 3.590800 0.000000 
#    z 0.000000 0.000000 3.181140 
# 
# 
# High freq. dielectric constant tensor:
#      x y z
#    x 1.696250 0.000000 0.000000 
#    y 0.000000 1.716310 0.000000 
#    z 0.000000 0.000000 1.693000 
# 
# From -- ./inp_files/9209.got.cif
#   From: 2010.03.12/outbox.cif.g09.slc.cpg/sg47_5_cif.got.tgz:9209.got - 2010.04.14 03:12:58.
