data_PCOD8197118
_publ_section_title
;
Structure prediction by ZEFSAII (Michael W. Deem and Ramdas Pophale) SiO2 
 PCOD8197118
Probable space group: P M M M
;
_chemical_formula_sum "Si O2"
_cell_formula_units_Z 52
_cell_length_a 14.792265
_cell_length_b 9.081062
_cell_length_c 22.368946
_cell_angle_alpha 90.000000
_cell_angle_beta 90.000000
_cell_angle_gamma 90.000000
_cell_volume 3004.808786
_symmetry_space_group_name_H-M "P M M M"
_symmetry_group_IT_number 47
_symmetry_cell_setting 'orthorhombic'
loop_
_space_group_symop_operation_xyz
x,y,z
-x,-y,z
x,-y,-z
-x,y,-z
-x,-y,-z
x,y,-z
-x,y,z
x,-y,z
loop_
_atom_site_type_symbol
_atom_site_label
_atom_site_fract_x
_atom_site_fract_y
_atom_site_fract_z
Si Si1 0.892979 0.334339 0.000000
Si Si2 0.849026 0.164345 0.341860
Si Si3 0.000000 0.825423 0.432292
Si Si4 0.598708 0.668771 0.269425
Si Si5 0.793233 0.326468 0.773451
Si Si6 0.105157 0.173487 0.119483
Si Si7 0.647222 0.837334 0.616816
Si Si8 0.606145 0.337380 0.500000
O O1 0.859853 0.246847 0.941711
O O2 0.852491 0.500000 0.000000
O O3 0.000000 0.340959 0.000000
O O4 0.847371 0.273703 0.285313
O O5 0.751639 0.152635 0.369562
O O6 0.913506 0.228102 0.393963
O O7 0.881197 0.000000 0.321287
O O8 0.000000 0.757416 0.500000
O O9 0.000000 0.000000 0.438626
O O10 0.500000 0.690388 0.236750
O O11 0.612175 0.500000 0.288557
O O12 0.685617 0.714584 0.229445
O O13 0.593280 0.762078 0.329621
O O14 0.808538 0.500000 0.781558
O O15 0.833440 0.240031 0.828943
O O16 0.000000 0.210454 0.131740
O O17 0.120944 0.000000 0.115078
O O18 0.639679 0.745633 0.557550
O O19 0.606235 0.000000 0.607344
O O20 0.649017 0.500000 0.500000
O O21 0.500000 0.346420 0.500000
#
# Coordination Sequence:
#
# PCOD8197118 Si02
#       8
#     4   8   4   8   8   8   8   4
#     4   9  17  31  51  77 108 141 178 215 251 288
#     4   9  19  34  51  71  95 123 160 203 248 299
#     4   9  18  32  53  71  87 120 165 202 241 299
#     4   9  18  34  53  71  96 130 163 198 248 307
#     4  10  20  33  51  76 104 133 169 211 253 295
#     4  10  20  33  51  75 108 146 180 209 245 294
#     4  10  20  32  49  71  93 115 148 197 247 294
#     4  11  23  35  47  64  87 116 148 183 235 307
#
# _framework density 17.305592999999998
#
# number of rings (size 3 to 8) (size 9 to 14) (size 15 to 20)
#    0.000    2.385    0.000    2.308    2.154    5.846 
#    0.000    0.000    0.000    0.462    0.000    0.538 
#    0.000    4.308    0.000    0.000    0.000    0.000 
#
# Total GULP energy -644563.821762 kJ/mol
# GULP energy per Si atom -12395.458111 kJ/mol
# Density = 1.726620 g / cm^3
# Si number density = 17.305593 Si / 1000 Ang^3
#
#
#
# Elastic Constant Matrix: (Units=GPa)
#
#
# Indices 1 2 3 4 5 6 
#
# 1 76.3304 28.5593 52.2337 0.0000 0.0000 0.0000
# 2 28.5593 106.7295 62.7870 0.0000 0.0000 0.0000
# 3 52.2337 62.7870 130.3551 0.0000 0.0000 0.0000
# 4 0.0000 0.0000 0.0000 37.8785 0.0000 0.0000
# 5 0.0000 0.0000 0.0000 0.0000 10.4633 0.0000
# 6 0.0000 0.0000 0.0000 0.0000 0.0000 22.3726
#
#
#
# Elastic Compliance Matrix: (Units=1/GPa)
#
#
# Indices 1 2 3 4 5 6 
#
# 1 0.018100 -0.000805 -0.006865 0.000000 0.000000 0.000000
# 2 -0.000805 0.013110 -0.005992 0.000000 0.000000 0.000000
# 3 -0.006865 -0.005992 0.013308 0.000000 0.000000 0.000000
# 4 0.000000 0.000000 0.000000 0.026400 0.000000 0.000000
# 5 0.000000 0.000000 0.000000 0.000000 0.095573 0.000000
# 6 0.000000 0.000000 0.000000 0.000000 0.000000 0.044698
#
#
# Mechanical properties :
#
#
# Convention : Reuss Voigt Hill
#
# Bulk Modulus (GPa) = 58.15846 66.73054 62.44450
# Shear Modulus (GPa) = 20.47138 25.46519 22.96828
#
# Velocity S-wave (km/s) = 3.44311 3.84018 3.64705
# Velocity P-wave (km/s) = 7.03466 7.63586 7.34142
#
# Compressibility (1/GPa) = 0.01719440
#
# Stress axis : x y z
#
# Youngs Moduli (GPa) = 55.24907 76.27873 75.14078
#
# Poissons Ratio (x) = 0.06138 0.51585
# Poissons Ratio (y) = 0.04446 0.45025
# Poissons Ratio (z) = 0.37929 0.45707
#
# Static dielectric constant tensor:
#      x y z
#    x 3.257140 0.000000 0.000000 
#    y 0.000000 3.544070 0.000000 
#    z 0.000000 0.000000 6.732210 
# 
# 
# High freq. dielectric constant tensor:
#      x y z
#    x 1.661840 0.000000 0.000000 
#    y 0.000000 1.675110 0.000000 
#    z 0.000000 0.000000 1.651780 
# 
# From -- ./inp_files/11143.got.cif
#   From: 2010.03.12/outbox.cif.g09.slc.cpg/sg47_6_cif.got.tgz:11143.got - 2010.04.14 03:12:58.
