data_PCOD8197344
_publ_section_title
;
Structure prediction by ZEFSAII (Michael W. Deem and Ramdas Pophale) SiO2 
 PCOD8197344
Probable space group: P M M M
;
_chemical_formula_sum "Si O2"
_cell_formula_units_Z 40
_cell_length_a 17.076565
_cell_length_b 7.832031
_cell_length_c 19.872404
_cell_angle_alpha 90.000000
_cell_angle_beta 90.000000
_cell_angle_gamma 90.000000
_cell_volume 2657.818506
_symmetry_space_group_name_H-M "P M M M"
_symmetry_group_IT_number 47
_symmetry_cell_setting 'orthorhombic'
loop_
_space_group_symop_operation_xyz
x,y,z
-x,-y,z
x,-y,-z
-x,y,-z
-x,-y,-z
x,y,-z
-x,y,z
x,-y,z
loop_
_atom_site_type_symbol
_atom_site_label
_atom_site_fract_x
_atom_site_fract_y
_atom_site_fract_z
Si Si1 0.845559 0.695196 0.352220
Si Si2 0.412833 0.500000 0.420287
Si Si3 0.910767 0.797714 0.070989
Si Si4 0.305632 0.808939 0.422541
Si Si5 0.000000 0.296741 0.424219
Si Si6 0.090887 0.798023 0.216306
O O1 0.832290 0.500000 0.374020
O O2 0.771763 0.802218 0.377237
O O3 0.923082 0.773888 0.386870
O O4 0.855469 0.707320 0.271856
O O5 0.500000 0.500000 0.388653
O O6 0.418968 0.500000 0.500000
O O7 0.368339 0.670949 0.395658
O O8 0.875829 0.734486 0.142757
O O9 0.000000 0.736668 0.069588
O O10 0.907111 0.000000 0.071702
O O11 0.870719 0.731383 0.000000
O O12 0.283186 0.768693 0.500000
O O13 0.341288 0.000000 0.415943
O O14 0.000000 0.500000 0.421517
O O15 0.000000 0.227122 0.500000
O O16 0.000000 0.743563 0.224960
O O17 0.099150 0.000000 0.223889
#
# Coordination Sequence:
#
# PCOD8197344 Si02
#       6
#     8   4   8   8   4   8
#     4  11  19  29  42  56  81 114 147 184 221 259
#     4   9  18  34  54  73  91 109 132 168 215 267
#     4   7  10  18  33  51  69  93 129 175 223 262
#     4  10  20  33  49  68  89 113 142 178 218 261
#     4   9  18  28  39  53  70 104 150 188 220 253
#     4   9  16  25  37  54  77 103 139 186 224 258
#
# _framework density 15.049937999999999
#
# number of rings (size 3 to 8) (size 9 to 14) (size 15 to 20)
#    0.000    2.800    2.000    3.000    0.000    1.200 
#    0.000    2.000    0.000    3.000    0.000    2.800 
#    0.000    0.000    0.000    0.000    0.000    2.000 
#
# Total GULP energy -495530.200869 kJ/mol
# GULP energy per Si atom -12388.255022 kJ/mol
# Density = 1.501568 g / cm^3
# Si number density = 15.049938 Si / 1000 Ang^3
#
#
#
# Elastic Constant Matrix: (Units=GPa)
#
#
# Indices 1 2 3 4 5 6 
#
# 1 75.5101 29.6611 30.1962 0.0000 0.0000 0.0000
# 2 29.6611 58.3054 16.1142 0.0000 0.0000 0.0000
# 3 30.1962 16.1142 105.6922 0.0000 0.0000 0.0000
# 4 0.0000 0.0000 0.0000 11.9869 0.0000 0.0000
# 5 0.0000 0.0000 0.0000 0.0000 5.6214 0.0000
# 6 0.0000 0.0000 0.0000 0.0000 0.0000 10.5237
#
#
#
# Elastic Compliance Matrix: (Units=1/GPa)
#
#
# Indices 1 2 3 4 5 6 
#
# 1 0.017972 -0.008064 -0.003905 0.000000 0.000000 0.000000
# 2 -0.008064 0.021523 -0.000978 0.000000 0.000000 0.000000
# 3 -0.003905 -0.000978 0.010726 0.000000 0.000000 0.000000
# 4 0.000000 0.000000 0.000000 0.083424 0.000000 0.000000
# 5 0.000000 0.000000 0.000000 0.000000 0.177890 0.000000
# 6 0.000000 0.000000 0.000000 0.000000 0.000000 0.095024
#
#
# Mechanical properties :
#
#
# Convention : Reuss Voigt Hill
#
# Bulk Modulus (GPa) = 41.10365 43.49454 42.29909
# Shear Modulus (GPa) = 11.34909 16.52882 13.93896
#
# Velocity S-wave (km/s) = 2.74906 3.31760 3.04662
# Velocity P-wave (km/s) = 6.11941 6.60592 6.36732
#
# Compressibility (1/GPa) = 0.02432874
#
# Stress axis : x y z
#
# Youngs Moduli (GPa) = 55.64075 46.46105 93.22921
#
# Poissons Ratio (x) = 0.37464 0.36409
# Poissons Ratio (y) = 0.44867 0.09116
# Poissons Ratio (z) = 0.21729 0.04543
#
# Static dielectric constant tensor:
#      x y z
#    x 2.558210 0.000000 0.000000 
#    y 0.000000 2.774450 0.000000 
#    z 0.000000 0.000000 3.231880 
# 
# 
# High freq. dielectric constant tensor:
#      x y z
#    x 1.511000 0.000000 0.000000 
#    y 0.000000 1.573330 0.000000 
#    z 0.000000 0.000000 1.574680 
# 
# From -- ./inp_files/30713.got.cif
#   From: 2010.03.12/outbox.cif.g09.slc.cpg/sg47_16_cif.got.tgz:30713.got - 2010.04.14 03:12:58.
