data_PCOD8197022
_publ_section_title
;
Structure prediction by ZEFSAII (Michael W. Deem and Ramdas Pophale) SiO2 
 PCOD8197022
Probable space group: P M M M
;
_chemical_formula_sum "Si O2"
_cell_formula_units_Z 36
_cell_length_a 9.013987
_cell_length_b 23.364843
_cell_length_c 9.308801
_cell_angle_alpha 90.000000
_cell_angle_beta 90.000000
_cell_angle_gamma 90.000000
_cell_volume 1960.530219
_symmetry_space_group_name_H-M "P M M M"
_symmetry_group_IT_number 47
_symmetry_cell_setting 'orthorhombic'
loop_
_space_group_symop_operation_xyz
x,y,z
-x,-y,z
x,-y,-z
-x,y,-z
-x,-y,-z
x,y,-z
-x,y,z
x,-y,z
loop_
_atom_site_type_symbol
_atom_site_label
_atom_site_fract_x
_atom_site_fract_y
_atom_site_fract_z
Si Si1 0.823911 0.562993 0.161021
Si Si2 0.173525 0.328326 0.667714
Si Si3 0.167072 0.887977 0.829171
Si Si4 0.332449 0.000000 0.171502
Si Si5 0.674431 0.773231 0.165847
O O1 0.764980 0.500000 0.208776
O O2 0.765888 0.611549 0.269227
O O3 0.000000 0.562082 0.162764
O O4 0.767272 0.577026 0.000000
O O5 0.206472 0.328397 0.500000
O O6 0.264881 0.278156 0.740113
O O7 0.000000 0.319693 0.701722
O O8 0.249738 0.943900 0.767821
O O9 0.252025 0.831502 0.776190
O O10 0.000000 0.886790 0.768472
O O11 0.166744 0.890431 0.000000
O O12 0.500000 0.000000 0.229886
O O13 0.331050 0.000000 0.000000
O O14 0.500000 0.779006 0.186705
O O15 0.716764 0.762157 0.000000
#
# Coordination Sequence:
#
# PCOD8197022 Si02
#       5
#     8   8   8   4   8
#     4   8  14  26  46  72 100 129 161 198 241 289
#     4  10  20  32  48  72 100 130 164 202 246 295
#     4   9  16  26  42  65  93 125 161 202 248 295
#     4   9  15  23  37  61  96 131 160 195 242 295
#     4  10  20  33  49  69  94 127 167 208 251 298
#
# _framework density 18.362380000000002
#
# number of rings (size 3 to 8) (size 9 to 14) (size 15 to 20)
#    0.000    2.778    0.000    3.000    0.000    7.111 
#    0.000    2.222    0.000    0.667    0.000    5.444 
#    0.000    6.222    0.000    0.000    0.000    0.000 
#
# Total GULP energy -446326.642389 kJ/mol
# GULP energy per Si atom -12397.962289 kJ/mol
# Density = 1.832059 g / cm^3
# Si number density = 18.362380 Si / 1000 Ang^3
#
#
#
# Elastic Constant Matrix: (Units=GPa)
#
#
# Indices 1 2 3 4 5 6 
#
# 1 95.3044 71.8544 37.8465 0.0000 0.0000 0.0000
# 2 71.8544 189.3752 59.1732 0.0000 0.0000 0.0000
# 3 37.8465 59.1732 56.8477 0.0000 0.0000 0.0000
# 4 0.0000 0.0000 0.0000 -1.0804 0.0000 0.0000
# 5 0.0000 0.0000 0.0000 0.0000 15.4022 0.0000
# 6 0.0000 0.0000 0.0000 0.0000 0.0000 4.7015
#
#
#
# Elastic Compliance Matrix: (Units=1/GPa)
#
#
# Indices 1 2 3 4 5 6 
#
# 1 0.016165 -0.004106 -0.006488 0.000000 0.000000 0.000000
# 2 -0.004106 0.008869 -0.006498 0.000000 0.000000 0.000000
# 3 -0.006488 -0.006498 0.028674 0.000000 0.000000 0.000000
# 4 0.000000 0.000000 0.000000 -0.925621 0.000000 0.000000
# 5 0.000000 0.000000 0.000000 0.000000 0.064926 0.000000
# 6 0.000000 0.000000 0.000000 0.000000 0.000000 0.212698
#
#
# Mechanical properties :
#
#
# Convention : Reuss Voigt Hill
#
# Bulk Modulus (GPa) = 51.21910 75.47507 63.34708
# Shear Modulus (GPa) = -9.03184 15.31487 3.14151
#
# Velocity S-wave (km/s) = -2.22021 2.89110 1.30941
# Velocity P-wave (km/s) = 4.62402 7.23443 6.07118
#
# Compressibility (1/GPa) = 0.01952397
#
# Stress axis : x y z
#
# Youngs Moduli (GPa) = 61.86243 112.75254 34.87505
#
# Poissons Ratio (x) = 0.46300 0.22625
# Poissons Ratio (y) = 0.25403 0.22662
# Poissons Ratio (z) = 0.40133 0.73267
#
# Static dielectric constant tensor:
#      x y z
#    x 3.243930 0.000000 0.000000 
#    y 0.000000 3.769190 0.000000 
#    z 0.000000 0.000000 3.017800 
# 
# 
# High freq. dielectric constant tensor:
#      x y z
#    x 1.694490 0.000000 0.000000 
#    y 0.000000 1.733400 0.000000 
#    z 0.000000 0.000000 1.665110 
# 
# From -- ./inp_files/1449.got.cif
#   From: 2010.03.12/outbox.cif.g09.slc.cpg/sg47_1_cif.got.tgz:1449.got - 2010.04.14 03:12:58.
