data_PCOD8197271
_publ_section_title
;
Structure prediction by ZEFSAII (Michael W. Deem and Ramdas Pophale) SiO2 
 PCOD8197271
Probable space group: P M M M
;
_chemical_formula_sum "Si O2"
_cell_formula_units_Z 52
_cell_length_a 16.073426
_cell_length_b 9.644596
_cell_length_c 23.805351
_cell_angle_alpha 90.000000
_cell_angle_beta 90.000000
_cell_angle_gamma 90.000000
_cell_volume 3690.345984
_symmetry_space_group_name_H-M "P M M M"
_symmetry_group_IT_number 47
_symmetry_cell_setting 'orthorhombic'
loop_
_space_group_symop_operation_xyz
x,y,z
-x,-y,z
x,-y,-z
-x,y,-z
-x,-y,-z
x,y,-z
-x,y,z
x,-y,z
loop_
_atom_site_type_symbol
_atom_site_label
_atom_site_fract_x
_atom_site_fract_y
_atom_site_fract_z
Si Si1 0.098965 0.844555 0.937336
Si Si2 0.174054 0.250491 0.382453
Si Si3 0.901339 0.343404 0.837772
Si Si4 0.500000 0.842651 0.433610
Si Si5 0.656586 0.338043 0.565414
Si Si6 0.096522 0.162074 0.731354
Si Si7 0.094614 0.500000 0.561365
Si Si8 0.908915 0.000000 0.564019
O O1 0.135465 0.733759 0.892919
O O2 0.000000 0.844499 0.934242
O O3 0.130944 0.000000 0.922887
O O4 0.128389 0.801743 0.000000
O O5 0.268475 0.295201 0.393700
O O6 0.158049 0.207494 0.318370
O O7 0.113426 0.372222 0.399415
O O8 0.149199 0.127457 0.422827
O O9 0.864931 0.500000 0.834020
O O10 0.874620 0.253799 0.784004
O O11 0.000000 0.349955 0.841815
O O12 0.500000 0.851101 0.500000
O O13 0.580425 0.756809 0.413705
O O14 0.500000 0.000000 0.408576
O O15 0.678491 0.309514 0.500000
O O16 0.634688 0.500000 0.573985
O O17 0.000000 0.190975 0.715699
O O18 0.109352 0.000000 0.745326
O O19 0.142795 0.500000 0.500000
O O20 0.000000 0.500000 0.545398
O O21 0.931805 0.000000 0.500000
O O22 0.000000 0.000000 0.596244
#
# Coordination Sequence:
#
# PCOD8197271 Si02
#       8
#     8   8   8   4   8   8   4   4
#     4   8  13  22  36  53  73  97 124 157 202 252
#     4  12  22  33  48  65  83 109 142 175 213 257
#     4   9  17  26  38  55  73  97 130 170 211 247
#     4   9  19  33  53  75  89 103 123 155 200 253
#     4  10  20  35  51  68  89 109 129 158 206 264
#     4  10  20  33  44  55  76 108 144 178 212 249
#     4  11  22  34  46  61  83 109 138 173 213 257
#     4  11  22  34  46  61  83 109 140 179 219 253
#
# _framework density 14.090821
#
# number of rings (size 3 to 8) (size 9 to 14) (size 15 to 20)
#    0.000    2.077    1.538    3.923    2.154    4.308 
#    0.000    1.538    0.000    0.000    0.000    0.000 
#    0.000    0.000    0.000    0.000    0.000    0.000 
#
# Total GULP energy -644483.286502 kJ/mol
# GULP energy per Si atom -12393.909356 kJ/mol
# Density = 1.405875 g / cm^3
# Si number density = 14.090821 Si / 1000 Ang^3
#
#
#
# Elastic Constant Matrix: (Units=GPa)
#
#
# Indices 1 2 3 4 5 6 
#
# 1 53.3160 31.3713 22.9078 0.0000 0.0000 0.0000
# 2 31.3713 127.4785 52.3494 0.0000 0.0000 0.0000
# 3 22.9078 52.3494 89.5385 0.0000 0.0000 0.0000
# 4 0.0000 0.0000 0.0000 15.8670 0.0000 0.0000
# 5 0.0000 0.0000 0.0000 0.0000 4.2800 0.0000
# 6 0.0000 0.0000 0.0000 0.0000 0.0000 28.4487
#
#
#
# Elastic Compliance Matrix: (Units=1/GPa)
#
#
# Indices 1 2 3 4 5 6 
#
# 1 0.022666 -0.004207 -0.003340 0.000000 0.000000 0.000000
# 2 -0.004207 0.011104 -0.005416 0.000000 0.000000 0.000000
# 3 -0.003340 -0.005416 0.015189 0.000000 0.000000 0.000000
# 4 0.000000 0.000000 0.000000 0.063024 0.000000 0.000000
# 5 0.000000 0.000000 0.000000 0.000000 0.233647 0.000000
# 6 0.000000 0.000000 0.000000 0.000000 0.000000 0.035151
#
#
# Mechanical properties :
#
#
# Convention : Reuss Voigt Hill
#
# Bulk Modulus (GPa) = 43.41153 53.73223 48.57188
# Shear Modulus (GPa) = 12.06615 20.63275 16.34945
#
# Velocity S-wave (km/s) = 2.92946 3.83073 3.41000
# Velocity P-wave (km/s) = 6.50519 7.60142 7.07457
#
# Compressibility (1/GPa) = 0.02303536
#
# Stress axis : x y z
#
# Youngs Moduli (GPa) = 44.11869 90.06113 65.83685
#
# Poissons Ratio (x) = 0.37884 0.21987
# Poissons Ratio (y) = 0.18559 0.35654
# Poissons Ratio (z) = 0.14734 0.48773
#
# Static dielectric constant tensor:
#      x y z
#    x 2.406090 0.000000 0.000000 
#    y 0.000000 3.089690 0.000000 
#    z 0.000000 0.000000 2.738630 
# 
# 
# High freq. dielectric constant tensor:
#      x y z
#    x 1.480280 0.000000 0.000000 
#    y 0.000000 1.561550 0.000000 
#    z 0.000000 0.000000 1.521130 
# 
# From -- ./inp_files/32680.got.cif
#   From: 2010.03.12/outbox.cif.g09.slc.cpg/sg47_17_cif.got.tgz:32680.got - 2010.04.14 03:12:58.
