data_PCOD8197835
_publ_section_title
;
Structure prediction by ZEFSAII (Michael W. Deem and Ramdas Pophale) SiO2 
 PCOD8197835
Probable space group: P M M M
;
_chemical_formula_sum "Si O2"
_cell_formula_units_Z 48
_cell_length_a 8.974013
_cell_length_b 9.330106
_cell_length_c 31.063636
_cell_angle_alpha 90.000000
_cell_angle_beta 90.000000
_cell_angle_gamma 90.000000
_cell_volume 2600.911415
_symmetry_space_group_name_H-M "P M M M"
_symmetry_group_IT_number 47
_symmetry_cell_setting 'orthorhombic'
loop_
_space_group_symop_operation_xyz
x,y,z
-x,-y,z
x,-y,-z
-x,y,-z
-x,-y,-z
x,y,-z
-x,y,z
x,-y,z
loop_
_atom_site_type_symbol
_atom_site_label
_atom_site_fract_x
_atom_site_fract_y
_atom_site_fract_z
Si Si1 0.175011 0.166572 0.792012
Si Si2 0.324289 0.664807 0.284483
Si Si3 0.833068 0.669992 0.047243
Si Si4 0.828739 0.666987 0.627969
Si Si5 0.177122 0.838370 0.452880
Si Si6 0.327794 0.331219 0.868339
O O1 0.253330 0.233634 0.750817
O O2 0.230033 0.245771 0.834504
O O3 0.000000 0.189947 0.787444
O O4 0.217650 0.000000 0.795036
O O5 0.500000 0.683091 0.283096
O O6 0.277587 0.500000 0.275502
O O7 0.265286 0.715911 0.330777
O O8 0.834369 0.500000 0.046346
O O9 0.720288 0.722920 0.084143
O O10 0.000000 0.726343 0.057348
O O11 0.781244 0.726826 0.000000
O O12 0.813167 0.500000 0.619567
O O13 0.758774 0.742153 0.585758
O O14 0.000000 0.711967 0.635832
O O15 0.233416 0.784095 0.500000
O O16 0.000000 0.830795 0.452168
O O17 0.232333 0.000000 0.445354
O O18 0.500000 0.294173 0.861306
O O19 0.297623 0.500000 0.862348
#
# Coordination Sequence:
#
# PCOD8197835 Si02
#       6
#     8   8   8   8   8   8
#     4  11  24  39  55  76 101 131 169 211 254 301
#     4  10  21  37  56  77 102 132 166 205 252 306
#     4   8  14  26  46  73 104 137 173 212 252 294
#     4   9  17  29  47  72  99 126 159 201 247 294
#     4   8  14  25  42  66  96 128 162 202 246 289
#     4  10  20  33  52  79 108 138 171 207 252 304
#
# _framework density 18.455069999999999
#
# number of rings (size 3 to 8) (size 9 to 14) (size 15 to 20)
#    0.000    2.667    0.000    3.000    0.000    6.667 
#    0.000    5.000    0.000    1.000    0.000    7.000 
#    0.000    0.000    0.000    0.000    0.000    0.000 
#
# Total GULP energy -595060.126687 kJ/mol
# GULP energy per Si atom -12397.085973 kJ/mol
# Density = 1.841307 g / cm^3
# Si number density = 18.455070 Si / 1000 Ang^3
#
#
#
# Elastic Constant Matrix: (Units=GPa)
#
#
# Indices 1 2 3 4 5 6 
#
# 1 57.4177 31.1093 45.3466 0.0000 0.0000 0.0000
# 2 31.1093 55.1243 58.1710 0.0000 0.0000 0.0000
# 3 45.3466 58.1710 162.0601 0.0000 0.0000 0.0000
# 4 0.0000 0.0000 0.0000 -7.2707 0.0000 0.0000
# 5 0.0000 0.0000 0.0000 0.0000 -8.0500 0.0000
# 6 0.0000 0.0000 0.0000 0.0000 0.0000 18.4014
#
#
#
# Elastic Compliance Matrix: (Units=1/GPa)
#
#
# Indices 1 2 3 4 5 6 
#
# 1 0.026106 -0.011308 -0.003246 0.000000 0.000000 0.000000
# 2 -0.011308 0.034100 -0.009076 0.000000 0.000000 0.000000
# 3 -0.003246 -0.009076 0.010337 0.000000 0.000000 0.000000
# 4 0.000000 0.000000 0.000000 -0.137538 0.000000 0.000000
# 5 0.000000 0.000000 0.000000 0.000000 -0.124224 0.000000
# 6 0.000000 0.000000 0.000000 0.000000 0.000000 0.054344
#
#
# Mechanical properties :
#
#
# Convention : Reuss Voigt Hill
#
# Bulk Modulus (GPa) = 42.94884 60.42843 51.68864
# Shear Modulus (GPa) = -61.08424 9.94783 -25.56820
#
# Velocity S-wave (km/s) = -5.75941 2.32422 -3.72617
# Velocity P-wave (km/s) = 4.57220 6.32592 3.09130
#
# Compressibility (1/GPa) = 0.02328351
#
# Stress axis : x y z
#
# Youngs Moduli (GPa) = 38.30477 29.32561 96.74303
#
# Poissons Ratio (x) = 0.33160 0.31404
# Poissons Ratio (y) = 0.43313 0.87804
# Poissons Ratio (z) = 0.12434 0.26616
#
# Static dielectric constant tensor:
#      x y z
#    x 3.269710 0.000000 0.000000 
#    y 0.000000 3.242320 0.000000 
#    z 0.000000 0.000000 3.917460 
# 
# 
# High freq. dielectric constant tensor:
#      x y z
#    x 1.698570 0.000000 0.000000 
#    y 0.000000 1.688810 0.000000 
#    z 0.000000 0.000000 1.736800 
# 
# From -- ./inp_files/2475.got.cif
#   From: 2010.03.12/outbox.cif.g09.slc.cpg/sg47_2_cif.got.tgz:2475.got - 2010.04.14 03:12:58.
