data_PCOD8197441
_publ_section_title
;
Structure prediction by ZEFSAII (Michael W. Deem and Ramdas Pophale) SiO2 
 PCOD8197441
Probable space group: P M M M
;
_chemical_formula_sum "Si O2"
_cell_formula_units_Z 44
_cell_length_a 13.575176
_cell_length_b 9.774321
_cell_length_c 19.494230
_cell_angle_alpha 90.000000
_cell_angle_beta 90.000000
_cell_angle_gamma 90.000000
_cell_volume 2586.652883
_symmetry_space_group_name_H-M "P M M M"
_symmetry_group_IT_number 47
_symmetry_cell_setting 'orthorhombic'
loop_
_space_group_symop_operation_xyz
x,y,z
-x,-y,z
x,-y,-z
-x,y,-z
-x,-y,-z
x,y,-z
-x,y,z
x,-y,z
loop_
_atom_site_type_symbol
_atom_site_label
_atom_site_fract_x
_atom_site_fract_y
_atom_site_fract_z
Si Si1 0.114535 0.846813 0.500000
Si Si2 0.309046 0.748721 0.663242
Si Si3 0.384116 0.846953 0.805555
Si Si4 0.382831 0.653143 0.923522
Si Si5 0.888460 0.660631 0.371844
Si Si6 0.385309 0.500000 0.576426
Si Si7 0.384578 0.000000 0.581780
O O1 0.142809 0.753597 0.564124
O O2 0.000000 0.874051 0.500000
O O3 0.165523 0.000000 0.500000
O O4 0.362270 0.769900 0.735159
O O5 0.194459 0.710668 0.682022
O O6 0.356326 0.628129 0.620994
O O7 0.324679 0.875179 0.613072
O O8 0.500000 0.857699 0.814932
O O9 0.338222 0.759989 0.868580
O O10 0.337896 0.000000 0.805486
O O11 0.500000 0.653271 0.919511
O O12 0.344201 0.500000 0.906767
O O13 0.348628 0.696918 0.000000
O O14 0.877779 0.500000 0.390247
O O15 0.000000 0.691077 0.345879
O O16 0.500000 0.500000 0.564889
O O17 0.335807 0.500000 0.500000
O O18 0.500000 0.000000 0.604698
O O19 0.377089 0.000000 0.500000
#
# Coordination Sequence:
#
# PCOD8197441 Si02
#       7
#     4   8   8   8   8   4   4
#     4   9  19  33  53  75  92 115 154 205 262 321
#     4  12  23  36  55  75  97 134 175 219 267 316
#     4  10  20  33  49  72 104 138 170 206 251 306
#     4   8  15  28  47  72 101 134 171 207 242 285
#     4  10  22  38  53  72  99 128 163 213 270 323
#     4  11  24  38  51  71  98 130 179 226 259 307
#     4  11  24  40  55  71 100 138 175 218 267 309
#
# _framework density 17.010400000000001
#
# number of rings (size 3 to 8) (size 9 to 14) (size 15 to 20)
#    0.000    1.909    1.818    3.000    5.091    2.909 
#    0.000    1.818    0.000    0.000    0.000    0.000 
#    0.000    0.727    0.000    5.636    0.000    1.818 
#
# Total GULP energy -545172.198742 kJ/mol
# GULP energy per Si atom -12390.277244 kJ/mol
# Density = 1.697168 g / cm^3
# Si number density = 17.010400 Si / 1000 Ang^3
#
#
#
# Elastic Constant Matrix: (Units=GPa)
#
#
# Indices 1 2 3 4 5 6 
#
# 1 60.2830 25.4094 9.1053 0.0000 0.0000 0.0000
# 2 25.4094 138.6758 65.2453 0.0000 0.0000 0.0000
# 3 9.1053 65.2453 116.8955 0.0000 0.0000 0.0000
# 4 0.0000 0.0000 0.0000 26.5855 0.0000 0.0000
# 5 0.0000 0.0000 0.0000 0.0000 2.9971 0.0000
# 6 0.0000 0.0000 0.0000 0.0000 0.0000 21.3996
#
#
#
# Elastic Compliance Matrix: (Units=1/GPa)
#
#
# Indices 1 2 3 4 5 6 
#
# 1 0.018007 -0.003580 0.000595 0.000000 0.000000 0.000000
# 2 -0.003580 0.010491 -0.005577 0.000000 0.000000 0.000000
# 3 0.000595 -0.005577 0.011621 0.000000 0.000000 0.000000
# 4 0.000000 0.000000 0.000000 0.037614 0.000000 0.000000
# 5 0.000000 0.000000 0.000000 0.000000 0.333655 0.000000
# 6 0.000000 0.000000 0.000000 0.000000 0.000000 0.046730
#
#
# Mechanical properties :
#
#
# Convention : Reuss Voigt Hill
#
# Bulk Modulus (GPa) = 43.48357 57.26380 50.37368
# Shear Modulus (GPa) = 10.35400 24.60272 17.47836
#
# Velocity S-wave (km/s) = 2.46983 3.80720 3.20896
# Velocity P-wave (km/s) = 5.80964 7.28446 6.58845
#
# Compressibility (1/GPa) = 0.02299719
#
# Stress axis : x y z
#
# Youngs Moduli (GPa) = 55.53304 95.32321 86.05239
#
# Poissons Ratio (x) = 0.34121 -0.05122
# Poissons Ratio (y) = 0.19878 0.47987
# Poissons Ratio (z) = -0.03306 0.53157
#
# Static dielectric constant tensor:
#      x y z
#    x 3.156140 0.000000 0.000000 
#    y 0.000000 3.517890 0.000000 
#    z 0.000000 0.000000 3.197090 
# 
# 
# High freq. dielectric constant tensor:
#      x y z
#    x 1.624370 0.000000 0.000000 
#    y 0.000000 1.679970 0.000000 
#    z 0.000000 0.000000 1.632410 
# 
# From -- ./inp_files/24361.got.cif
#   From: 2010.03.12/outbox.cif.g09.slc.cpg/sg47_13_cif.got.tgz:24361.got - 2010.04.14 03:12:58.
