data_PCOD8197296
_publ_section_title
;
Structure prediction by ZEFSAII (Michael W. Deem and Ramdas Pophale) SiO2 
 PCOD8197296
Probable space group: P M M M
;
_chemical_formula_sum "Si O2"
_cell_formula_units_Z 64
_cell_length_a 31.724888
_cell_length_b 14.348123
_cell_length_c 8.859835
_cell_angle_alpha 90.000000
_cell_angle_beta 90.000000
_cell_angle_gamma 90.000000
_cell_volume 4032.931287
_symmetry_space_group_name_H-M "P M M M"
_symmetry_group_IT_number 47
_symmetry_cell_setting 'orthorhombic'
loop_
_space_group_symop_operation_xyz
x,y,z
-x,-y,z
x,-y,-z
-x,y,-z
-x,-y,-z
x,y,-z
-x,y,z
x,-y,z
loop_
_atom_site_type_symbol
_atom_site_label
_atom_site_fract_x
_atom_site_fract_y
_atom_site_fract_z
Si Si1 0.953609 0.605351 0.179543
Si Si2 0.289243 0.718608 0.821444
Si Si3 0.126268 0.711039 0.177839
Si Si4 0.544563 0.610515 0.331383
Si Si5 0.791747 0.394868 0.820252
Si Si6 0.167068 0.896288 0.825903
Si Si7 0.255618 0.105692 0.676048
Si Si8 0.635587 0.393355 0.680140
O O1 0.943753 0.500000 0.231973
O O2 0.917526 0.672962 0.248536
O O3 0.000000 0.636156 0.239211
O O4 0.953530 0.610172 0.000000
O O5 0.248801 0.661419 0.760688
O O6 0.286335 0.825042 0.765470
O O7 0.331007 0.673914 0.755133
O O8 0.291819 0.716577 0.000000
O O9 0.166046 0.653888 0.243795
O O10 0.131349 0.820699 0.217481
O O11 0.124812 0.694926 0.000000
O O12 0.542984 0.651574 0.500000
O O13 0.500000 0.641453 0.249005
O O14 0.546129 0.500000 0.340451
O O15 0.589254 0.640828 0.257346
O O16 0.789568 0.500000 0.757381
O O17 0.792127 0.394382 0.000000
O O18 0.207592 0.877508 0.724759
O O19 0.148567 0.000000 0.798189
O O20 0.180998 0.882774 0.000000
O O21 0.259324 0.126590 0.500000
O O22 0.269334 0.000000 0.714743
O O23 0.637136 0.384657 0.500000
O O24 0.644829 0.500000 0.729195
#
# Coordination Sequence:
#
# PCOD8197296 Si02
#       8
#     8   8   8   8   8   8   8   8
#     4   8  13  20  31  50  77 107 136 168 207 248
#     4  11  20  30  43  61  87 118 149 178 211 259
#     4   9  14  22  36  54  76 105 139 172 206 245
#     4   7  10  19  37  59  81 109 149 191 223 252
#     4   9  16  24  35  54  78 106 141 174 199 232
#     4   9  16  27  43  62  82 104 135 171 209 257
#     4  10  20  33  48  64  82 106 139 181 225 262
#     4   9  17  28  42  62  90 123 155 187 223 257
#
# _framework density 15.869351
#
# number of rings (size 3 to 8) (size 9 to 14) (size 15 to 20)
#    0.000    3.000    1.250    3.000    0.000    3.000 
#    0.000    0.000    0.000    0.750    0.000    4.375 
#    0.000    1.000    0.000   10.250    0.000    6.375 
#
# Total GULP energy -792906.253668 kJ/mol
# GULP energy per Si atom -12389.160214 kJ/mol
# Density = 1.583323 g / cm^3
# Si number density = 15.869351 Si / 1000 Ang^3
#
#
#
# Elastic Constant Matrix: (Units=GPa)
#
#
# Indices 1 2 3 4 5 6 
#
# 1 152.5082 73.7085 21.3732 0.0000 0.0000 0.0000
# 2 73.7085 109.2010 19.3634 0.0000 0.0000 0.0000
# 3 21.3732 19.3634 17.8526 0.0000 0.0000 0.0000
# 4 0.0000 0.0000 0.0000 13.6629 0.0000 0.0000
# 5 0.0000 0.0000 0.0000 0.0000 12.0836 0.0000
# 6 0.0000 0.0000 0.0000 0.0000 0.0000 13.4342
#
#
#
# Elastic Compliance Matrix: (Units=1/GPa)
#
#
# Indices 1 2 3 4 5 6 
#
# 1 0.010207 -0.005847 -0.005878 0.000000 0.000000 0.000000
# 2 -0.005847 0.014688 -0.008930 0.000000 0.000000 0.000000
# 3 -0.005878 -0.008930 0.072737 0.000000 0.000000 0.000000
# 4 0.000000 0.000000 0.000000 0.073191 0.000000 0.000000
# 5 0.000000 0.000000 0.000000 0.000000 0.082757 0.000000
# 6 0.000000 0.000000 0.000000 0.000000 0.000000 0.074437
#
#
# Mechanical properties :
#
#
# Convention : Reuss Voigt Hill
#
# Bulk Modulus (GPa) = 17.75526 56.49468 37.12497
# Shear Modulus (GPa) = 12.88326 18.84390 15.86358
#
# Velocity S-wave (km/s) = 2.85236 3.44966 3.16513
# Velocity P-wave (km/s) = 4.69687 7.17942 6.06649
#
# Compressibility (1/GPa) = 0.05632135
#
# Stress axis : x y z
#
# Youngs Moduli (GPa) = 97.97491 68.08431 13.74810
#
# Poissons Ratio (x) = 0.39810 0.08081
# Poissons Ratio (y) = 0.57287 0.12278
# Poissons Ratio (z) = 0.57585 0.60803
#
# Static dielectric constant tensor:
#      x y z
#    x 3.402110 0.000000 0.000000 
#    y 0.000000 3.058450 0.000000 
#    z 0.000000 0.000000 2.612440 
# 
# 
# High freq. dielectric constant tensor:
#      x y z
#    x 1.606980 0.000000 0.000000 
#    y 0.000000 1.593690 0.000000 
#    z 0.000000 0.000000 1.564790 
# 
# From -- ./inp_files/14326.got.cif
#   From: 2010.03.12/outbox.cif.g09.slc.cpg/sg47_8_cif.got.tgz:14326.got - 2010.04.14 03:12:58.
