data_PCOD8197038
_publ_section_title
;
Structure prediction by ZEFSAII (Michael W. Deem and Ramdas Pophale) SiO2 
 PCOD8197038
Probable space group: P M M M
;
_chemical_formula_sum "Si O2"
_cell_formula_units_Z 44
_cell_length_a 31.939372
_cell_length_b 7.949992
_cell_length_c 9.849810
_cell_angle_alpha 90.000000
_cell_angle_beta 90.000000
_cell_angle_gamma 90.000000
_cell_volume 2501.041612
_symmetry_space_group_name_H-M "P M M M"
_symmetry_group_IT_number 47
_symmetry_cell_setting 'orthorhombic'
loop_
_space_group_symop_operation_xyz
x,y,z
-x,-y,z
x,-y,-z
-x,y,-z
-x,-y,-z
x,y,-z
-x,y,z
x,-y,z
loop_
_atom_site_type_symbol
_atom_site_label
_atom_site_fract_x
_atom_site_fract_y
_atom_site_fract_z
Si Si1 0.000000 0.809551 0.160582
Si Si2 0.749006 0.810720 0.338616
Si Si3 0.840818 0.194677 0.647536
Si Si4 0.399895 0.500000 0.337885
Si Si5 0.911505 0.306147 0.152220
Si Si6 0.305109 0.500000 0.662023
Si Si7 0.547189 0.186724 0.661367
O O1 0.042212 0.722166 0.216047
O O2 0.000000 0.000000 0.211094
O O3 0.000000 0.791134 0.000000
O O4 0.746338 0.818739 0.500000
O O5 0.795584 0.744532 0.296657
O O6 0.716786 0.670722 0.281517
O O7 0.739175 0.000000 0.280772
O O8 0.851364 0.279363 0.500000
O O9 0.877294 0.221344 0.754420
O O10 0.835458 0.000000 0.621655
O O11 0.401118 0.500000 0.500000
O O12 0.352515 0.500000 0.283948
O O13 0.422621 0.332289 0.280140
O O14 0.901113 0.500000 0.146513
O O15 0.909073 0.227866 0.000000
O O16 0.303244 0.500000 0.500000
O O17 0.547786 0.193266 0.500000
O O18 0.500000 0.220775 0.713359
O O19 0.562128 0.000000 0.709505
#
# Coordination Sequence:
#
# PCOD8197038 Si02
#       7
#     4   8   8   4   8   4   8
#     4   9  17  31  50  67  88 121 150 172 208 257
#     4   8  15  27  40  55  76 100 130 168 206 252
#     4   9  18  32  49  68  88 114 149 183 217 260
#     4   9  15  20  27  42  60  79 110 152 194 246
#     4  10  20  32  48  72  97 118 143 177 216 259
#     4   9  16  23  34  51  69  94 124 155 207 262
#     4   8  13  20  28  37  52  78 111 148 194 244
#
# _framework density 17.592670999999999
#
# number of rings (size 3 to 8) (size 9 to 14) (size 15 to 20)
#    0.000    3.182    0.000    2.727    1.273    4.364 
#    0.000    4.091    0.000    2.727    0.000    0.000 
#    0.000    0.000    0.000    0.000    0.000    0.000 
#
# Total GULP energy -545130.263911 kJ/mol
# GULP energy per Si atom -12389.324180 kJ/mol
# Density = 1.755263 g / cm^3
# Si number density = 17.592671 Si / 1000 Ang^3
#
#
#
# Elastic Constant Matrix: (Units=GPa)
#
#
# Indices 1 2 3 4 5 6 
#
# 1 152.1685 66.7750 27.6991 0.0000 0.0000 0.0000
# 2 66.7750 97.6542 12.6785 0.0000 0.0000 0.0000
# 3 27.6991 12.6785 22.0086 0.0000 0.0000 0.0000
# 4 0.0000 0.0000 0.0000 9.2499 0.0000 0.0000
# 5 0.0000 0.0000 0.0000 0.0000 -2.5353 0.0000
# 6 0.0000 0.0000 0.0000 0.0000 0.0000 32.0581
#
#
#
# Elastic Compliance Matrix: (Units=1/GPa)
#
#
# Indices 1 2 3 4 5 6 
#
# 1 0.011271 -0.006339 -0.010533 0.000000 0.000000 0.000000
# 2 -0.006339 0.014634 -0.000452 0.000000 0.000000 0.000000
# 3 -0.010533 -0.000452 0.058953 0.000000 0.000000 0.000000
# 4 0.000000 0.000000 0.000000 0.108110 0.000000 0.000000
# 5 0.000000 0.000000 0.000000 0.000000 -0.394430 0.000000
# 6 0.000000 0.000000 0.000000 0.000000 0.000000 0.031193
#
#
# Mechanical properties :
#
#
# Convention : Reuss Voigt Hill
#
# Bulk Modulus (GPa) = 19.91638 54.01516 36.96577
# Shear Modulus (GPa) = -42.05763 18.73311 -11.66226
#
# Velocity S-wave (km/s) = -4.89471 3.26671 -2.57749
# Velocity P-wave (km/s) = 4.53860 6.70808 3.49281
#
# Compressibility (1/GPa) = 0.05020993
#
# Stress axis : x y z
#
# Youngs Moduli (GPa) = 88.72445 68.33571 16.96253
#
# Poissons Ratio (x) = 0.43321 0.17867
# Poissons Ratio (y) = 0.56246 0.00766
# Poissons Ratio (z) = 0.93454 0.03086
#
# Static dielectric constant tensor:
#      x y z
#    x 3.529180 0.000000 0.000000 
#    y 0.000000 3.530330 0.000000 
#    z 0.000000 0.000000 2.711020 
# 
# 
# High freq. dielectric constant tensor:
#      x y z
#    x 1.686480 0.000000 0.000000 
#    y 0.000000 1.692660 0.000000 
#    z 0.000000 0.000000 1.590810 
# 
# From -- ./inp_files/13715.got.cif
#   From: 2010.03.12/outbox.cif.g09.slc.cpg/sg47_7_cif.got.tgz:13715.got - 2010.04.14 03:12:58.
