data_PCOD8197445
_publ_section_title
;
Structure prediction by ZEFSAII (Michael W. Deem and Ramdas Pophale) SiO2 
 PCOD8197445
Probable space group: P M M M
;
_chemical_formula_sum "Si O2"
_cell_formula_units_Z 52
_cell_length_a 14.363832
_cell_length_b 23.370851
_cell_length_c 9.025947
_cell_angle_alpha 90.000000
_cell_angle_beta 90.000000
_cell_angle_gamma 90.000000
_cell_volume 3029.965075
_symmetry_space_group_name_H-M "P M M M"
_symmetry_group_IT_number 47
_symmetry_cell_setting 'orthorhombic'
loop_
_space_group_symop_operation_xyz
x,y,z
-x,-y,z
x,-y,-z
-x,y,-z
-x,-y,-z
x,y,-z
-x,y,z
x,-y,z
loop_
_atom_site_type_symbol
_atom_site_label
_atom_site_fract_x
_atom_site_fract_y
_atom_site_fract_z
Si Si1 0.203923 0.279009 0.324225
Si Si2 0.222639 0.936931 0.172331
Si Si3 0.889409 0.500000 0.667120
Si Si4 0.109186 0.614052 0.827256
Si Si5 0.600906 0.763425 0.324580
Si Si6 0.395312 0.108216 0.327482
Si Si7 0.108770 0.827626 0.172933
O O1 0.191625 0.284665 0.500000
O O2 0.162168 0.333699 0.245433
O O3 0.312884 0.276314 0.275914
O O4 0.151840 0.222431 0.270934
O O5 0.323161 0.932968 0.247586
O O6 0.151986 0.887869 0.227602
O O7 0.180785 0.000000 0.208380
O O8 0.239441 0.929308 0.000000
O O9 0.849876 0.500000 0.500000
O O10 0.853193 0.443974 0.752344
O O11 0.000000 0.500000 0.666664
O O12 0.000000 0.622597 0.798616
O O13 0.132155 0.611120 0.000000
O O14 0.597431 0.767834 0.500000
O O15 0.500000 0.739554 0.267280
O O16 0.616565 0.827477 0.263049
O O17 0.372124 0.107145 0.500000
O O18 0.500000 0.086089 0.297134
O O19 0.000000 0.830613 0.205171
O O20 0.128774 0.815423 0.000000
#
# Coordination Sequence:
#
# PCOD8197445 Si02
#       7
#     8   8   4   8   8   8   8
#     4  11  20  31  52  78 101 127 163 207 248 289
#     4  10  21  35  50  69  93 122 159 203 249 298
#     4   9  17  31  51  75 104 137 178 221 249 276
#     4  10  20  33  49  72 107 147 177 202 241 292
#     4   8  15  29  49  72  97 124 155 195 245 296
#     4   9  17  32  53  73  94 122 155 192 241 302
#     4  10  21  36  51  67  92 126 162 202 249 299
#
# _framework density 17.161913999999999
#
# number of rings (size 3 to 8) (size 9 to 14) (size 15 to 20)
#    0.000    2.385    1.538    2.538    0.000    5.231 
#    0.000    3.077    0.000    1.846    0.000    2.692 
#    0.000    4.308    0.000    0.000    0.000    0.000 
#
# Total GULP energy -644624.995277 kJ/mol
# GULP energy per Si atom -12396.634525 kJ/mol
# Density = 1.712285 g / cm^3
# Si number density = 17.161914 Si / 1000 Ang^3
#
#
#
# Elastic Constant Matrix: (Units=GPa)
#
#
# Indices 1 2 3 4 5 6 
#
# 1 98.1052 63.1182 42.4065 0.0000 0.0000 0.0000
# 2 63.1182 136.8215 56.6769 0.0000 0.0000 0.0000
# 3 42.4065 56.6769 61.6152 0.0000 0.0000 0.0000
# 4 0.0000 0.0000 0.0000 25.4361 0.0000 0.0000
# 5 0.0000 0.0000 0.0000 0.0000 21.7243 0.0000
# 6 0.0000 0.0000 0.0000 0.0000 0.0000 442.9644
#
#
#
# Elastic Compliance Matrix: (Units=1/GPa)
#
#
# Indices 1 2 3 4 5 6 
#
# 1 0.016115 -0.004588 -0.006871 0.000000 0.000000 0.000000
# 2 -0.004588 0.013114 -0.008906 0.000000 0.000000 0.000000
# 3 -0.006871 -0.008906 0.029150 0.000000 0.000000 0.000000
# 4 0.000000 0.000000 0.000000 0.039314 0.000000 0.000000
# 5 0.000000 0.000000 0.000000 0.000000 0.046031 0.000000
# 6 0.000000 0.000000 0.000000 0.000000 0.000000 0.002258
#
#
# Mechanical properties :
#
#
# Convention : Reuss Voigt Hill
#
# Bulk Modulus (GPa) = 56.65428 68.99392 62.82410
# Shear Modulus (GPa) = 25.96122 106.98099 66.47110
#
# Velocity S-wave (km/s) = 3.89359 7.90390 6.23024
# Velocity P-wave (km/s) = 7.30046 11.11686 9.40429
#
# Compressibility (1/GPa) = 0.01765092
#
# Stress axis : x y z
#
# Youngs Moduli (GPa) = 62.05477 76.25240 34.30482
#
# Poissons Ratio (x) = 0.34984 0.23570
# Poissons Ratio (y) = 0.28470 0.30551
# Poissons Ratio (z) = 0.42636 0.67908
#
# Static dielectric constant tensor:
#      x y z
#    x 3.402920 0.000000 0.000000 
#    y 0.000000 3.297290 0.000000 
#    z 0.000000 0.000000 3.124060 
# 
# 
# High freq. dielectric constant tensor:
#      x y z
#    x 1.653250 0.000000 0.000000 
#    y 0.000000 1.654630 0.000000 
#    z 0.000000 0.000000 1.654040 
# 
# From -- ./inp_files/6935.got.cif
#   From: 2010.03.12/outbox.cif.g09.slc.cpg/sg47_4_cif.got.tgz:6935.got - 2010.04.14 03:12:58.
