data_PCOD8197670
_publ_section_title
;
Structure prediction by ZEFSAII (Michael W. Deem and Ramdas Pophale) SiO2 
 PCOD8197670
Probable space group: P M M M
;
_chemical_formula_sum "Si O2"
_cell_formula_units_Z 64
_cell_length_a 9.397351
_cell_length_b 25.632643
_cell_length_c 14.498999
_cell_angle_alpha 90.000000
_cell_angle_beta 90.000000
_cell_angle_gamma 90.000000
_cell_volume 3492.503558
_symmetry_space_group_name_H-M "P M M M"
_symmetry_group_IT_number 47
_symmetry_cell_setting 'orthorhombic'
loop_
_space_group_symop_operation_xyz
x,y,z
-x,-y,z
x,-y,-z
-x,y,-z
-x,-y,-z
x,y,-z
-x,y,z
x,-y,z
loop_
_atom_site_type_symbol
_atom_site_label
_atom_site_fract_x
_atom_site_fract_y
_atom_site_fract_z
Si Si1 0.668421 0.556923 0.213001
Si Si2 0.659096 0.061888 0.597314
Si Si3 0.668009 0.658234 0.892957
Si Si4 0.162584 0.288596 0.398588
Si Si5 0.669422 0.940160 0.203777
Si Si6 0.836892 0.854328 0.893815
Si Si7 0.165479 0.750553 0.205356
Si Si8 0.334105 0.392689 0.398079
O O1 0.500000 0.555069 0.204786
O O2 0.730894 0.500000 0.184052
O O3 0.725201 0.602831 0.146623
O O4 0.714251 0.566918 0.319381
O O5 0.737061 0.079204 0.500000
O O6 0.500000 0.084707 0.593904
O O7 0.729126 0.079004 0.694820
O O8 0.650536 0.000000 0.601010
O O9 0.500000 0.664266 0.876295
O O10 0.745854 0.704431 0.840227
O O11 0.707753 0.660573 0.000000
O O12 0.197095 0.263847 0.500000
O O13 0.191438 0.247633 0.316136
O O14 0.257818 0.338463 0.379820
O O15 0.000000 0.307569 0.395332
O O16 0.500000 0.933573 0.199509
O O17 0.742616 0.904926 0.126889
O O18 0.711983 0.000000 0.184062
O O19 0.780794 0.805561 0.834244
O O20 0.000000 0.867457 0.869991
O O21 0.817752 0.839183 0.000000
O O22 0.000000 0.741844 0.180733
O O23 0.297005 0.415274 0.500000
O O24 0.500000 0.380518 0.389180
#
# Coordination Sequence:
#
# PCOD8197670 Si02
#       8
#     8   8   8   8   8   8   8   8
#     4   9  17  29  45  69 102 134 164 202 249 302
#     4   7  10  20  42  71 100 129 160 193 232 281
#     4  10  20  33  51  75  99 126 166 214 259 300
#     4   9  17  30  51  77 101 127 160 198 246 302
#     4   9  18  33  54  80 107 135 169 208 248 291
#     4  10  22  38  53  72 100 134 171 209 252 301
#     4  10  20  36  57  76  98 130 166 206 250 300
#     4   9  16  27  46  71  98 129 164 202 244 293
#
# _framework density 18.324963
#
# number of rings (size 3 to 8) (size 9 to 14) (size 15 to 20)
#    0.000    2.875    1.250    1.500    0.000    2.500 
#    0.000    4.375    0.000    2.625    0.000    4.375 
#    0.000    0.000    0.000    0.000    0.000    0.000 
#
# Total GULP energy -792918.241335 kJ/mol
# GULP energy per Si atom -12389.347521 kJ/mol
# Density = 1.828325 g / cm^3
# Si number density = 18.324963 Si / 1000 Ang^3
#
#
#
# Elastic Constant Matrix: (Units=GPa)
#
#
# Indices 1 2 3 4 5 6 
#
# 1 27.5586 30.4245 29.4548 0.0000 0.0000 0.0000
# 2 30.4245 108.1977 62.2805 0.0000 0.0000 0.0000
# 3 29.4548 62.2805 117.9341 0.0000 0.0000 0.0000
# 4 0.0000 0.0000 0.0000 27.2055 0.0000 0.0000
# 5 0.0000 0.0000 0.0000 0.0000 20.5781 0.0000
# 6 0.0000 0.0000 0.0000 0.0000 0.0000 60.0656
#
#
#
# Elastic Compliance Matrix: (Units=1/GPa)
#
#
# Indices 1 2 3 4 5 6 
#
# 1 0.057917 -0.011436 -0.008426 0.000000 0.000000 0.000000
# 2 -0.011436 0.015537 -0.005349 0.000000 0.000000 0.000000
# 3 -0.008426 -0.005349 0.013408 0.000000 0.000000 0.000000
# 4 0.000000 0.000000 0.000000 0.036757 0.000000 0.000000
# 5 0.000000 0.000000 0.000000 0.000000 0.048595 0.000000
# 6 0.000000 0.000000 0.000000 0.000000 0.000000 0.016648
#
#
# Mechanical properties :
#
#
# Convention : Reuss Voigt Hill
#
# Bulk Modulus (GPa) = 27.44139 55.33445 41.38792
# Shear Modulus (GPa) = 19.88612 30.33855 25.11233
#
# Velocity S-wave (km/s) = 3.29780 4.07330 3.70589
# Velocity P-wave (km/s) = 5.43213 7.23769 6.39891
#
# Compressibility (1/GPa) = 0.03644130
#
# Stress axis : x y z
#
# Youngs Moduli (GPa) = 17.26604 64.36305 74.57982
#
# Poissons Ratio (x) = 0.73604 0.62841
# Poissons Ratio (y) = 0.19745 0.39891
# Poissons Ratio (z) = 0.14548 0.34427
#
# Static dielectric constant tensor:
#      x y z
#    x 3.070340 0.000000 0.000000 
#    y 0.000000 3.240660 0.000000 
#    z 0.000000 0.000000 3.874110 
# 
# 
# High freq. dielectric constant tensor:
#      x y z
#    x 1.672620 0.000000 0.000000 
#    y 0.000000 1.686280 0.000000 
#    z 0.000000 0.000000 1.733910 
# 
# From -- ./inp_files/21935.got.cif
#   From: 2010.03.12/outbox.cif.g09.slc.cpg/sg47_11_cif.got.tgz:21935.got - 2010.04.14 03:12:58.
