data_PCOD8197678
_publ_section_title
;
Structure prediction by ZEFSAII (Michael W. Deem and Ramdas Pophale) SiO2 
 PCOD8197678
Probable space group: P M M M
;
_chemical_formula_sum "Si O2"
_cell_formula_units_Z 52
_cell_length_a 9.505951
_cell_length_b 9.192180
_cell_length_c 33.315319
_cell_angle_alpha 90.000000
_cell_angle_beta 90.000000
_cell_angle_gamma 90.000000
_cell_volume 2911.106322
_symmetry_space_group_name_H-M "P M M M"
_symmetry_group_IT_number 47
_symmetry_cell_setting 'orthorhombic'
loop_
_space_group_symop_operation_xyz
x,y,z
-x,-y,z
x,-y,-z
-x,y,-z
-x,-y,-z
x,y,-z
-x,y,z
x,-y,z
loop_
_atom_site_type_symbol
_atom_site_label
_atom_site_fract_x
_atom_site_fract_y
_atom_site_fract_z
Si Si1 0.337019 0.330755 0.232924
Si Si2 0.667304 0.164229 0.688948
Si Si3 0.335763 0.669039 0.610818
Si Si4 0.837645 0.834001 0.453532
Si Si5 0.163071 0.669017 0.844187
Si Si6 0.167433 0.835746 0.922691
Si Si7 0.832104 0.335314 0.000000
O O1 0.500000 0.295830 0.224838
O O2 0.313157 0.500000 0.241971
O O3 0.277204 0.243065 0.271024
O O4 0.250269 0.278982 0.194314
O O5 0.500000 0.168769 0.688902
O O6 0.724243 0.247665 0.649806
O O7 0.725088 0.000000 0.688162
O O8 0.500000 0.700374 0.604751
O O9 0.304889 0.500000 0.617072
O O10 0.257085 0.724485 0.571536
O O11 0.808228 0.801671 0.500000
O O12 0.000000 0.805772 0.443184
O O13 0.796807 0.000000 0.443167
O O14 0.188479 0.500000 0.853618
O O15 0.220334 0.759080 0.882102
O O16 0.000000 0.701567 0.835683
O O17 0.000000 0.834904 0.923917
O O18 0.225863 0.000000 0.924213
O O19 0.226644 0.747308 0.960799
O O20 0.774567 0.500000 0.000000
O O21 0.000000 0.335232 0.000000
#
# Coordination Sequence:
#
# PCOD8197678 Si02
#       7
#     8   8   8   8   8   8   4
#     4   9  17  30  48  68  90 118 153 191 229 272
#     4   9  17  30  49  71  94 122 157 196 237 280
#     4  10  20  33  51  76 103 129 160 200 243 286
#     4   9  19  36  55  74  99 132 167 201 239 285
#     4   9  17  29  44  63  89 119 148 180 222 270
#     4   9  16  25  38  58  85 115 146 182 223 265
#     4   9  15  23  37  57  82 113 148 183 220 266
#
# _framework density 17.862624
#
# number of rings (size 3 to 8) (size 9 to 14) (size 15 to 20)
#    0.000    2.846    0.000    2.077    0.000    7.077 
#    0.000    3.077    0.000    2.769    0.000    0.538 
#    0.000    4.308    0.000    0.000    0.000    0.000 
#
# Total GULP energy -644840.579702 kJ/mol
# GULP energy per Si atom -12400.780379 kJ/mol
# Density = 1.782197 g / cm^3
# Si number density = 17.862624 Si / 1000 Ang^3
#
#
#
# Elastic Constant Matrix: (Units=GPa)
#
#
# Indices 1 2 3 4 5 6 
#
# 1 33.1558 34.9530 45.3388 0.0000 0.0000 0.0000
# 2 34.9530 124.8779 89.4099 0.0000 0.0000 0.0000
# 3 45.3388 89.4099 159.1714 0.0000 0.0000 0.0000
# 4 0.0000 0.0000 0.0000 38.2348 0.0000 0.0000
# 5 0.0000 0.0000 0.0000 0.0000 5.4786 0.0000
# 6 0.0000 0.0000 0.0000 0.0000 0.0000 17.7582
#
#
#
# Elastic Compliance Matrix: (Units=1/GPa)
#
#
# Indices 1 2 3 4 5 6 
#
# 1 0.052531 -0.006674 -0.011214 0.000000 0.000000 0.000000
# 2 -0.006674 0.014243 -0.006099 0.000000 0.000000 0.000000
# 3 -0.011214 -0.006099 0.012903 0.000000 0.000000 0.000000
# 4 0.000000 0.000000 0.000000 0.026154 0.000000 0.000000
# 5 0.000000 0.000000 0.000000 0.000000 0.182527 0.000000
# 6 0.000000 0.000000 0.000000 0.000000 0.000000 0.056312
#
#
# Mechanical properties :
#
#
# Convention : Reuss Voigt Hill
#
# Bulk Modulus (GPa) = 31.54407 72.95651 52.25029
# Shear Modulus (GPa) = 12.40037 22.12789 17.26413
#
# Velocity S-wave (km/s) = 2.63764 3.52345 3.11222
# Velocity P-wave (km/s) = 5.19363 7.58187 6.49840
#
# Compressibility (1/GPa) = 0.03170168
#
# Stress axis : x y z
#
# Youngs Moduli (GPa) = 19.03620 70.20968 77.50141
#
# Poissons Ratio (x) = 0.46860 0.86911
# Poissons Ratio (y) = 0.12705 0.47272
# Poissons Ratio (z) = 0.21347 0.42824
#
# Static dielectric constant tensor:
#      x y z
#    x 2.849710 0.000000 0.000000 
#    y 0.000000 3.399270 0.000000 
#    z 0.000000 0.000000 3.452070 
# 
# 
# High freq. dielectric constant tensor:
#      x y z
#    x 1.639130 0.000000 0.000000 
#    y 0.000000 1.698580 0.000000 
#    z 0.000000 0.000000 1.705390 
# 
# From -- ./inp_files/33247.got.cif
#   From: 2010.03.12/outbox.cif.g09.slc.cpg/sg47_17_cif.got.tgz:33247.got - 2010.04.14 03:12:58.
