data_PCOD8197390
_publ_section_title
;
Structure prediction by ZEFSAII (Michael W. Deem and Ramdas Pophale) SiO2 
 PCOD8197390
Probable space group: P M M M
;
_chemical_formula_sum "Si O2"
_cell_formula_units_Z 48
_cell_length_a 9.034061
_cell_length_b 8.828153
_cell_length_c 31.316348
_cell_angle_alpha 90.000000
_cell_angle_beta 90.000000
_cell_angle_gamma 90.000000
_cell_volume 2497.606296
_symmetry_space_group_name_H-M "P M M M"
_symmetry_group_IT_number 47
_symmetry_cell_setting 'orthorhombic'
loop_
_space_group_symop_operation_xyz
x,y,z
-x,-y,z
x,-y,-z
-x,y,-z
-x,-y,-z
x,y,-z
-x,y,z
x,-y,z
loop_
_atom_site_type_symbol
_atom_site_label
_atom_site_fract_x
_atom_site_fract_y
_atom_site_fract_z
Si Si1 0.828227 0.322116 0.915261
Si Si2 0.667254 0.819353 0.332356
Si Si3 0.832761 0.180512 0.751442
Si Si4 0.832817 0.180627 0.416196
Si Si5 0.332830 0.180635 0.500000
Si Si6 0.332340 0.179809 0.164509
Si Si7 0.667041 0.680109 0.000000
O O1 0.801906 0.500000 0.909834
O O2 0.758202 0.238165 0.875495
O O3 0.000000 0.281094 0.918158
O O4 0.750703 0.259631 0.958075
O O5 0.500000 0.757203 0.331793
O O6 0.752610 0.756717 0.290877
O O7 0.748825 0.757023 0.374478
O O8 0.667471 0.000000 0.332298
O O9 0.744776 0.241967 0.792574
O O10 0.000000 0.243380 0.752796
O O11 0.833193 0.000000 0.750999
O O12 0.750331 0.243091 0.458153
O O13 0.000000 0.242820 0.415962
O O14 0.832423 0.000000 0.416206
O O15 0.500000 0.242804 0.500000
O O16 0.332359 0.000000 0.500000
O O17 0.500000 0.241682 0.162823
O O18 0.330493 0.000000 0.164107
O O19 0.668566 0.500000 0.000000
O O20 0.500000 0.743529 0.000000
#
# Coordination Sequence:
#
# PCOD8197390 Si02
#       7
#     8   8   8   8   4   8   4
#     4  10  20  34  53  76 100 126 157 192 229 271
#     4   9  15  22  32  46  64  87 118 157 200 247
#     4   9  16  26  40  57  78 105 136 171 213 260
#     4   9  15  21  28  38  53  75 106 146 193 244
#     4   9  15  21  27  35  49  71 101 141 192 245
#     4  10  20  33  49  70  96 125 156 191 232 276
#     4   9  17  31  52  75  98 125 156 190 228 269
#
# _framework density 19.218399999999999
#
# number of rings (size 3 to 8) (size 9 to 14) (size 15 to 20)
#    0.000    2.667    0.000    3.000    0.000   10.000 
#    0.000    0.417    0.000    2.500    0.000    0.000 
#    0.000    0.000    0.000    0.000    0.000    0.000 
#
# Total GULP energy -595201.526849 kJ/mol
# GULP energy per Si atom -12400.031809 kJ/mol
# Density = 1.917466 g / cm^3
# Si number density = 19.218400 Si / 1000 Ang^3
#
#
#
# Elastic Constant Matrix: (Units=GPa)
#
#
# Indices 1 2 3 4 5 6 
#
# 1 159.8535 8.1556 80.0234 0.0000 0.0000 0.0000
# 2 8.1556 2.7368 7.6692 0.0000 0.0000 0.0000
# 3 80.0234 7.6692 190.2297 0.0000 0.0000 0.0000
# 4 0.0000 0.0000 0.0000 -8.7571 0.0000 0.0000
# 5 0.0000 0.0000 0.0000 0.0000 49.1781 0.0000
# 6 0.0000 0.0000 0.0000 0.0000 0.0000 11.9524
#
#
#
# Elastic Compliance Matrix: (Units=1/GPa)
#
#
# Indices 1 2 3 4 5 6 
#
# 1 0.008607 -0.017478 -0.002916 0.000000 0.000000 0.000000
# 2 -0.017478 0.447422 -0.010686 0.000000 0.000000 0.000000
# 3 -0.002916 -0.010686 0.006914 0.000000 0.000000 0.000000
# 4 0.000000 0.000000 0.000000 -0.114193 0.000000 0.000000
# 5 0.000000 0.000000 0.000000 0.000000 0.020334 0.000000
# 6 0.000000 0.000000 0.000000 0.000000 0.000000 0.083665
#
#
# Mechanical properties :
#
#
# Convention : Reuss Voigt Hill
#
# Bulk Modulus (GPa) = 2.49511 60.50181 31.49846
# Shear Modulus (GPa) = 7.71005 27.60613 17.65809
#
# Velocity S-wave (km/s) = 2.00512 3.79415 3.03448
# Velocity P-wave (km/s) = 2.58105 7.12346 5.35749
#
# Compressibility (1/GPa) = 0.40078458
#
# Stress axis : x y z
#
# Youngs Moduli (GPa) = 116.18061 2.23503 144.62706
#
# Poissons Ratio (x) = 0.03906 0.42176
# Poissons Ratio (y) = 2.03059 1.54543
# Poissons Ratio (z) = 0.33880 0.02388
#
# Static dielectric constant tensor:
#      x y z
#    x 3.823960 0.000000 0.000000 
#    y 0.000000 2.689110 0.000000 
#    z 0.000000 0.000000 3.765240 
# 
# 
# High freq. dielectric constant tensor:
#      x y z
#    x 1.770650 0.000000 0.000000 
#    y 0.000000 1.658750 0.000000 
#    z 0.000000 0.000000 1.769580 
# 
# From -- ./inp_files/13885.got.cif
#   From: 2010.03.12/outbox.cif.g09.slc.cpg/sg47_7_cif.got.tgz:13885.got - 2010.04.14 03:12:58.
