data_PCOD8197812
_publ_section_title
;
Structure prediction by ZEFSAII (Michael W. Deem and Ramdas Pophale) SiO2 
 PCOD8197812
Probable space group: P M M M
;
_chemical_formula_sum "Si O2"
_cell_formula_units_Z 48
_cell_length_a 34.221587
_cell_length_b 7.714321
_cell_length_c 9.373792
_cell_angle_alpha 90.000000
_cell_angle_beta 90.000000
_cell_angle_gamma 90.000000
_cell_volume 2474.646473
_symmetry_space_group_name_H-M "P M M M"
_symmetry_group_IT_number 47
_symmetry_cell_setting 'orthorhombic'
loop_
_space_group_symop_operation_xyz
x,y,z
-x,-y,z
x,-y,-z
-x,y,-z
-x,-y,-z
x,y,-z
-x,y,z
x,-y,z
loop_
_atom_site_type_symbol
_atom_site_label
_atom_site_fract_x
_atom_site_fract_y
_atom_site_fract_z
Si Si1 0.227139 0.700822 0.334185
Si Si2 0.000000 0.695387 0.331267
Si Si3 0.154214 0.697751 0.843678
Si Si4 0.713964 0.000000 0.666263
Si Si5 0.424904 0.699763 0.165671
Si Si6 0.916586 0.197568 0.339498
Si Si7 0.500000 0.705092 0.660081
Si Si8 0.365740 0.000000 0.165417
O O1 0.216763 0.720800 0.500000
O O2 0.237584 0.500000 0.297873
O O3 0.189467 0.775293 0.249971
O O4 0.262939 0.824816 0.290985
O O5 0.039550 0.786126 0.275231
O O6 0.000000 0.500000 0.275809
O O7 0.000000 0.710266 0.500000
O O8 0.164710 0.500000 0.867344
O O9 0.112999 0.705344 0.763482
O O10 0.151722 0.789348 0.000000
O O11 0.673717 0.000000 0.747948
O O12 0.704587 0.000000 0.500000
O O13 0.413708 0.500000 0.202360
O O14 0.461619 0.767832 0.256585
O O15 0.389166 0.825202 0.205591
O O16 0.436249 0.717677 0.000000
O O17 0.914594 0.277547 0.500000
O O18 0.903745 0.000000 0.343573
O O19 0.500000 0.500000 0.655057
O O20 0.500000 0.783064 0.500000
O O21 0.355012 0.000000 0.000000
#
# Coordination Sequence:
#
# PCOD8197812 Si02
#       8
#     8   4   8   4   8   8   4   4
#     4   9  19  37  59  81 107 139 175 218 267 321
#     4   9  17  31  52  75 100 135 178 218 254 297
#     4  10  21  36  54  79 108 136 170 213 262 315
#     4  10  22  38  57  81 108 137 176 220 268 326
#     4   9  18  34  54  75 105 145 184 222 266 318
#     4  10  20  33  52  78 107 138 173 213 257 307
#     4   9  17  30  51  80 109 139 180 229 277 320
#     4  10  22  37  53  78 107 140 183 223 264 320
#
# _framework density 19.396711
#
# number of rings (size 3 to 8) (size 9 to 14) (size 15 to 20)
#    0.000    2.500    0.000    1.500    1.167    6.333 
#    0.000    2.083    0.000    2.500    0.000    0.000 
#    0.000    0.000    0.000    0.000    0.000    0.000 
#
# Total GULP energy -595047.969178 kJ/mol
# GULP energy per Si atom -12396.832691 kJ/mol
# Density = 1.935256 g / cm^3
# Si number density = 19.396711 Si / 1000 Ang^3
#
#
#
# Elastic Constant Matrix: (Units=GPa)
#
#
# Indices 1 2 3 4 5 6 
#
# 1 175.3904 52.9635 85.6693 0.0000 0.0000 0.0000
# 2 52.9635 81.3418 33.4267 0.0000 0.0000 0.0000
# 3 85.6693 33.4267 95.6237 0.0000 0.0000 0.0000
# 4 0.0000 0.0000 0.0000 13.7818 0.0000 0.0000
# 5 0.0000 0.0000 0.0000 0.0000 14.4308 0.0000
# 6 0.0000 0.0000 0.0000 0.0000 0.0000 28.1547
#
#
#
# Elastic Compliance Matrix: (Units=1/GPa)
#
#
# Indices 1 2 3 4 5 6 
#
# 1 0.010985 -0.003630 -0.008573 0.000000 0.000000 0.000000
# 2 -0.003630 0.015555 -0.002186 0.000000 0.000000 0.000000
# 3 -0.008573 -0.002186 0.018902 0.000000 0.000000 0.000000
# 4 0.000000 0.000000 0.000000 0.072560 0.000000 0.000000
# 5 0.000000 0.000000 0.000000 0.000000 0.069296 0.000000
# 6 0.000000 0.000000 0.000000 0.000000 0.000000 0.035518
#
#
# Mechanical properties :
#
#
# Convention : Reuss Voigt Hill
#
# Bulk Modulus (GPa) = 60.00196 77.38611 68.69403
# Shear Modulus (GPa) = 19.44409 23.29321 21.36865
#
# Velocity S-wave (km/s) = 3.16957 3.46914 3.32273
# Velocity P-wave (km/s) = 6.66304 7.48530 7.08611
#
# Compressibility (1/GPa) = 0.01666612
#
# Stress axis : x y z
#
# Youngs Moduli (GPa) = 91.03400 64.28626 52.90477
#
# Poissons Ratio (x) = 0.23334 0.45353
# Poissons Ratio (y) = 0.33043 0.11564
# Poissons Ratio (z) = 0.78039 0.14052
#
# Static dielectric constant tensor:
#      x y z
#    x 3.455680 0.000000 0.000000 
#    y 0.000000 3.591080 0.000000 
#    z 0.000000 0.000000 3.646180 
# 
# 
# High freq. dielectric constant tensor:
#      x y z
#    x 1.750970 0.000000 0.000000 
#    y 0.000000 1.754970 0.000000 
#    z 0.000000 0.000000 1.740370 
# 
# From -- ./inp_files/14011.got.cif
#   From: 2010.03.12/outbox.cif.g09.slc.cpg/sg47_8_cif.got.tgz:14011.got - 2010.04.14 03:12:58.
