data_PCOD8197625
_publ_section_title
;
Structure prediction by ZEFSAII (Michael W. Deem and Ramdas Pophale) SiO2 
 PCOD8197625
Probable space group: P M M M
;
_chemical_formula_sum "Si O2"
_cell_formula_units_Z 44
_cell_length_a 9.030160
_cell_length_b 18.090868
_cell_length_c 14.208113
_cell_angle_alpha 90.000000
_cell_angle_beta 90.000000
_cell_angle_gamma 90.000000
_cell_volume 2321.086110
_symmetry_space_group_name_H-M "P M M M"
_symmetry_group_IT_number 47
_symmetry_cell_setting 'orthorhombic'
loop_
_space_group_symop_operation_xyz
x,y,z
-x,-y,z
x,-y,-z
-x,y,-z
-x,-y,-z
x,y,-z
-x,y,z
x,-y,z
loop_
_atom_site_type_symbol
_atom_site_label
_atom_site_fract_x
_atom_site_fract_y
_atom_site_fract_z
Si Si1 0.174725 0.082113 0.723470
Si Si2 0.327014 0.318941 0.893667
Si Si3 0.175557 0.635215 0.713222
Si Si4 0.327159 0.500000 0.610892
Si Si5 0.670302 0.149044 0.893514
Si Si6 0.175863 0.781567 0.394979
O O1 0.233933 0.096465 0.827806
O O2 0.239060 0.142952 0.651043
O O3 0.000000 0.088957 0.728234
O O4 0.222794 0.000000 0.690117
O O5 0.500000 0.328992 0.871579
O O6 0.231866 0.367647 0.820945
O O7 0.279011 0.233829 0.882623
O O8 0.292271 0.345951 0.000000
O O9 0.250883 0.571575 0.653634
O O10 0.227778 0.712309 0.667106
O O11 0.000000 0.624589 0.710914
O O12 0.500000 0.500000 0.636246
O O13 0.299598 0.500000 0.500000
O O14 0.500000 0.141174 0.864634
O O15 0.695846 0.122325 0.000000
O O16 0.242130 0.774376 0.500000
O O17 0.000000 0.784194 0.399559
#
# Coordination Sequence:
#
# PCOD8197625 Si02
#       6
#     8   8   8   4   8   8
#     4  10  20  33  50  76 109 143 184 234 282 328
#     4   9  18  34  57  84 114 149 188 229 276 334
#     4  11  21  36  61  89 117 148 184 232 283 333
#     4  11  25  43  62  87 120 155 189 228 278 333
#     4   9  18  33  53  76 105 144 186 227 274 331
#     4   9  18  33  53  78 107 141 182 227 277 331
#
# _framework density 18.956643
#
# number of rings (size 3 to 8) (size 9 to 14) (size 15 to 20)
#    0.000    2.273    1.818    2.455    0.000    3.273 
#    0.000    5.909    0.000    4.364    0.000    1.273 
#    0.000    0.000    0.000    0.000    0.000    0.000 
#
# Total GULP energy -545603.599150 kJ/mol
# GULP energy per Si atom -12400.081799 kJ/mol
# Density = 1.891350 g / cm^3
# Si number density = 18.956643 Si / 1000 Ang^3
#
#
#
# Elastic Constant Matrix: (Units=GPa)
#
#
# Indices 1 2 3 4 5 6 
#
# 1 55.2802 48.4413 46.9592 0.0000 0.0000 0.0000
# 2 48.4413 122.9911 65.5269 0.0000 0.0000 0.0000
# 3 46.9592 65.5269 135.8659 0.0000 0.0000 0.0000
# 4 0.0000 0.0000 0.0000 25.7419 0.0000 0.0000
# 5 0.0000 0.0000 0.0000 0.0000 27.3314 0.0000
# 6 0.0000 0.0000 0.0000 0.0000 0.0000 25.1235
#
#
#
# Elastic Compliance Matrix: (Units=1/GPa)
#
#
# Indices 1 2 3 4 5 6 
#
# 1 0.031476 -0.008884 -0.006595 0.000000 0.000000 0.000000
# 2 -0.008884 0.013450 -0.003416 0.000000 0.000000 0.000000
# 3 -0.006595 -0.003416 0.011287 0.000000 0.000000 0.000000
# 4 0.000000 0.000000 0.000000 0.038847 0.000000 0.000000
# 5 0.000000 0.000000 0.000000 0.000000 0.036588 0.000000
# 6 0.000000 0.000000 0.000000 0.000000 0.000000 0.039803
#
#
# Mechanical properties :
#
#
# Convention : Reuss Voigt Hill
#
# Bulk Modulus (GPa) = 54.27697 70.66576 62.47136
# Shear Modulus (GPa) = 23.21457 25.85336 24.53397
#
# Velocity S-wave (km/s) = 3.50325 3.69699 3.60142
# Velocity P-wave (km/s) = 6.71252 7.45535 7.09366
#
# Compressibility (1/GPa) = 0.01842402
#
# Stress axis : x y z
#
# Youngs Moduli (GPa) = 31.76988 74.35095 88.59719
#
# Poissons Ratio (x) = 0.66052 0.58426
# Poissons Ratio (y) = 0.28224 0.30266
# Poissons Ratio (z) = 0.20951 0.25400
#
# Static dielectric constant tensor:
#      x y z
#    x 3.216490 0.000000 0.000000 
#    y 0.000000 3.517610 0.000000 
#    z 0.000000 0.000000 3.624230 
# 
# 
# High freq. dielectric constant tensor:
#      x y z
#    x 1.714770 0.000000 0.000000 
#    y 0.000000 1.730330 0.000000 
#    z 0.000000 0.000000 1.746750 
# 
# From -- ./inp_files/6185.got.cif
#   From: 2010.03.12/outbox.cif.g09.slc.cpg/sg47_4_cif.got.tgz:6185.got - 2010.04.14 03:12:58.
