data_PCOD8197545
_publ_section_title
;
Structure prediction by ZEFSAII (Michael W. Deem and Ramdas Pophale) SiO2 
 PCOD8197545
Probable space group: P M M M
;
_chemical_formula_sum "Si O2"
_cell_formula_units_Z 56
_cell_length_a 14.362201
_cell_length_b 23.329731
_cell_length_c 9.072859
_cell_angle_alpha 90.000000
_cell_angle_beta 90.000000
_cell_angle_gamma 90.000000
_cell_volume 3040.009168
_symmetry_space_group_name_H-M "P M M M"
_symmetry_group_IT_number 47
_symmetry_cell_setting 'orthorhombic'
loop_
_space_group_symop_operation_xyz
x,y,z
-x,-y,z
x,-y,-z
-x,y,-z
-x,-y,-z
x,y,-z
-x,y,z
x,-y,z
loop_
_atom_site_type_symbol
_atom_site_label
_atom_site_fract_x
_atom_site_fract_y
_atom_site_fract_z
Si Si1 0.106119 0.066913 0.330817
Si Si2 0.776128 0.841014 0.174689
Si Si3 0.718398 0.562957 0.171223
Si Si4 0.895425 0.369888 0.168720
Si Si5 0.609748 0.660239 0.335170
Si Si6 0.606494 0.789498 0.325943
Si Si7 0.890838 0.255384 0.668010
O O1 0.120606 0.086091 0.500000
O O2 0.179439 0.099459 0.228306
O O3 0.000000 0.081174 0.283016
O O4 0.126105 0.000000 0.312299
O O5 0.672312 0.833894 0.240108
O O6 0.840666 0.789883 0.229464
O O7 0.770338 0.840944 0.000000
O O8 0.698540 0.500000 0.241197
O O9 0.826718 0.577426 0.200233
O O10 0.653101 0.611917 0.234019
O O11 0.696359 0.560609 0.000000
O O12 0.865369 0.318419 0.275336
O O13 0.000000 0.390885 0.203777
O O14 0.887169 0.348447 0.000000
O O15 0.647432 0.651066 0.500000
O O16 0.500000 0.652976 0.330520
O O17 0.635916 0.724455 0.281464
O O18 0.618178 0.797960 0.500000
O O19 0.500000 0.801634 0.278957
O O20 0.855758 0.249302 0.500000
O O21 0.000000 0.243758 0.680346
#
# Coordination Sequence:
#
# PCOD8197545 Si02
#       7
#     8   8   8   8   8   8   8
#     4   9  19  37  59  81 108 146 190 228 258 294
#     4  12  23  32  50  81 114 144 173 211 260 311
#     4  10  21  34  48  70  98 128 164 203 246 302
#     4   9  18  33  51  70  95 127 163 206 256 307
#     4   9  19  36  56  76  97 124 161 206 257 308
#     4   9  19  37  59  80 103 134 173 216 261 311
#     4  10  20  33  50  73 102 135 171 212 257 307
#
# _framework density 18.420997
#
# number of rings (size 3 to 8) (size 9 to 14) (size 15 to 20)
#    0.000    2.286    0.000    4.286    0.000    8.000 
#    0.000    5.000    0.000    0.429    0.000    6.000 
#    0.000    0.000    0.000    0.000    0.000    0.000 
#
# Total GULP energy -694386.431112 kJ/mol
# GULP energy per Si atom -12399.757698 kJ/mol
# Density = 1.837907 g / cm^3
# Si number density = 18.420997 Si / 1000 Ang^3
#
#
#
# Elastic Constant Matrix: (Units=GPa)
#
#
# Indices 1 2 3 4 5 6 
#
# 1 65.9571 57.2948 45.3375 0.0000 0.0000 0.0000
# 2 57.2948 90.1907 50.0851 0.0000 0.0000 0.0000
# 3 45.3375 50.0851 87.2688 0.0000 0.0000 0.0000
# 4 0.0000 0.0000 0.0000 28.8566 0.0000 0.0000
# 5 0.0000 0.0000 0.0000 0.0000 27.0307 0.0000
# 6 0.0000 0.0000 0.0000 0.0000 0.0000 25.0646
#
#
#
# Elastic Compliance Matrix: (Units=1/GPa)
#
#
# Indices 1 2 3 4 5 6 
#
# 1 0.037757 -0.019217 -0.008586 0.000000 0.000000 0.000000
# 2 -0.019217 0.026056 -0.004970 0.000000 0.000000 0.000000
# 3 -0.008586 -0.004970 0.018772 0.000000 0.000000 0.000000
# 4 0.000000 0.000000 0.000000 0.034654 0.000000 0.000000
# 5 0.000000 0.000000 0.000000 0.000000 0.036995 0.000000
# 6 0.000000 0.000000 0.000000 0.000000 0.000000 0.039897
#
#
# Mechanical properties :
#
#
# Convention : Reuss Voigt Hill
#
# Bulk Modulus (GPa) = 58.69484 60.98351 59.83917
# Shear Modulus (GPa) = 18.84257 22.23700 20.53978
#
# Velocity S-wave (km/s) = 3.20173 3.47818 3.34281
# Velocity P-wave (km/s) = 6.75280 7.02194 6.88868
#
# Compressibility (1/GPa) = 0.01703727
#
# Stress axis : x y z
#
# Youngs Moduli (GPa) = 26.48530 38.37915 53.27125
#
# Poissons Ratio (x) = 0.73755 0.45739
# Poissons Ratio (y) = 0.50898 0.26476
# Poissons Ratio (z) = 0.22740 0.19075
#
# Static dielectric constant tensor:
#      x y z
#    x 3.477540 0.000000 0.000000 
#    y 0.000000 3.343870 0.000000 
#    z 0.000000 0.000000 3.413170 
# 
# 
# High freq. dielectric constant tensor:
#      x y z
#    x 1.720370 0.000000 0.000000 
#    y 0.000000 1.701710 0.000000 
#    z 0.000000 0.000000 1.707270 
# 
# From -- ./inp_files/7199.got.cif
#   From: 2010.03.12/outbox.cif.g09.slc.cpg/sg47_4_cif.got.tgz:7199.got - 2010.04.14 03:12:58.
