data_PCOD8197049
_publ_section_title
;
Structure prediction by ZEFSAII (Michael W. Deem and Ramdas Pophale) SiO2 
 PCOD8197049
Probable space group: P M M M
;
_chemical_formula_sum "Si O2"
_cell_formula_units_Z 44
_cell_length_a 9.095250
_cell_length_b 28.636137
_cell_length_c 8.940725
_cell_angle_alpha 90.000000
_cell_angle_beta 90.000000
_cell_angle_gamma 90.000000
_cell_volume 2328.637084
_symmetry_space_group_name_H-M "P M M M"
_symmetry_group_IT_number 47
_symmetry_cell_setting 'orthorhombic'
loop_
_space_group_symop_operation_xyz
x,y,z
-x,-y,z
x,-y,-z
-x,y,-z
-x,-y,-z
x,y,-z
-x,y,z
x,-y,z
loop_
_atom_site_type_symbol
_atom_site_label
_atom_site_fract_x
_atom_site_fract_y
_atom_site_fract_z
Si Si1 0.333726 0.408750 0.321571
Si Si2 0.833973 0.317903 0.678043
Si Si3 0.665024 0.051452 0.177776
Si Si4 0.671242 0.774594 0.325524
Si Si5 0.833769 0.500000 0.678306
Si Si6 0.165752 0.140760 0.822223
O O1 0.333681 0.408511 0.500000
O O2 0.500000 0.409136 0.260287
O O3 0.251333 0.363009 0.258756
O O4 0.249666 0.454329 0.260495
O O5 0.833437 0.319339 0.500000
O O6 0.752882 0.271465 0.735390
O O7 0.000000 0.318187 0.740339
O O8 0.500000 0.061467 0.236608
O O9 0.773832 0.091235 0.240013
O O10 0.717368 0.000000 0.233069
O O11 0.664950 0.052451 0.000000
O O12 0.702570 0.782063 0.500000
O O13 0.500000 0.768479 0.291834
O O14 0.731099 0.818718 0.237589
O O15 0.834196 0.500000 0.500000
O O16 0.000000 0.500000 0.739954
O O17 0.000000 0.147377 0.762595
O O18 0.170603 0.141767 0.000000
#
# Coordination Sequence:
#
# PCOD8197049 Si02
#       6
#     8   8   8   8   4   8
#     4   9  15  22  32  47  69  98 134 175 217 263
#     4   9  16  26  40  57  78 106 141 181 223 267
#     4   8  14  26  45  68  93 121 152 185 222 266
#     4  10  20  33  49  68  90 120 158 195 231 273
#     4   9  15  21  29  43  65  95 132 173 218 265
#     4  10  20  32  48  72  99 125 153 187 229 274
#
# _framework density 18.895173
#
# number of rings (size 3 to 8) (size 9 to 14) (size 15 to 20)
#    0.000    2.818    0.000    3.000    0.000    8.000 
#    0.000    1.818    0.000    0.545    0.000    3.818 
#    0.000    0.000    0.000    0.818    0.000   16.000 
#
# Total GULP energy -545507.691894 kJ/mol
# GULP energy per Si atom -12397.902088 kJ/mol
# Density = 1.885217 g / cm^3
# Si number density = 18.895173 Si / 1000 Ang^3
#
#
#
# Elastic Constant Matrix: (Units=GPa)
#
#
# Indices 1 2 3 4 5 6 
#
# 1 155.4308 87.1486 13.3965 0.0000 0.0000 0.0000
# 2 87.1486 180.6363 13.8992 0.0000 0.0000 0.0000
# 3 13.3965 13.8992 6.0501 0.0000 0.0000 0.0000
# 4 0.0000 0.0000 0.0000 89.8717 0.0000 0.0000
# 5 0.0000 0.0000 0.0000 0.0000 13.3655 0.0000
# 6 0.0000 0.0000 0.0000 0.0000 0.0000 43.2841
#
#
#
# Elastic Compliance Matrix: (Units=1/GPa)
#
#
# Indices 1 2 3 4 5 6 
#
# 1 0.009579 -0.003631 -0.012868 0.000000 0.000000 0.000000
# 2 -0.003631 0.008101 -0.010571 0.000000 0.000000 0.000000
# 3 -0.012868 -0.010571 0.218067 0.000000 0.000000 0.000000
# 4 0.000000 0.000000 0.000000 0.011127 0.000000 0.000000
# 5 0.000000 0.000000 0.000000 0.000000 0.074819 0.000000
# 6 0.000000 0.000000 0.000000 0.000000 0.000000 0.023103
#
#
# Mechanical properties :
#
#
# Convention : Reuss Voigt Hill
#
# Bulk Modulus (GPa) = 5.50642 63.44510 34.47576
# Shear Modulus (GPa) = 10.88205 44.48245 27.68225
#
# Velocity S-wave (km/s) = 2.40243 4.85724 3.83174
# Velocity P-wave (km/s) = 3.25823 8.06891 6.15319
#
# Compressibility (1/GPa) = 0.18160610
#
# Stress axis : x y z
#
# Youngs Moduli (GPa) = 104.39736 123.43753 4.58575
#
# Poissons Ratio (x) = 0.44822 0.05901
# Poissons Ratio (y) = 0.37909 0.04848
# Poissons Ratio (z) = 1.34338 1.30487
#
# Static dielectric constant tensor:
#      x y z
#    x 3.727360 0.000000 0.000000 
#    y 0.000000 3.784090 0.000000 
#    z 0.000000 0.000000 2.680930 
# 
# 
# High freq. dielectric constant tensor:
#      x y z
#    x 1.749720 0.000000 0.000000 
#    y 0.000000 1.755500 0.000000 
#    z 0.000000 0.000000 1.649310 
# 
# From -- ./inp_files/1958.got.cif
#   From: 2010.03.12/outbox.cif.g09.slc.cpg/sg47_1_cif.got.tgz:1958.got - 2010.04.14 03:12:58.
