data_PCOD8197955
_publ_section_title
;
Structure prediction by ZEFSAII (Michael W. Deem and Ramdas Pophale) SiO2 
 PCOD8197955
Probable space group: P M M M
;
_chemical_formula_sum "Si O2"
_cell_formula_units_Z 52
_cell_length_a 8.835315
_cell_length_b 24.074509
_cell_length_c 14.084802
_cell_angle_alpha 90.000000
_cell_angle_beta 90.000000
_cell_angle_gamma 90.000000
_cell_volume 2995.920070
_symmetry_space_group_name_H-M "P M M M"
_symmetry_group_IT_number 47
_symmetry_cell_setting 'orthorhombic'
loop_
_space_group_symop_operation_xyz
x,y,z
-x,-y,z
x,-y,-z
-x,y,-z
-x,-y,-z
x,y,-z
-x,y,z
x,-y,z
loop_
_atom_site_type_symbol
_atom_site_label
_atom_site_fract_x
_atom_site_fract_y
_atom_site_fract_z
Si Si1 0.831033 0.658791 0.732596
Si Si2 0.180511 0.562478 0.393214
Si Si3 0.180319 0.740508 0.890323
Si Si4 0.323833 0.830251 0.761174
Si Si5 0.169492 0.236855 0.392172
Si Si6 0.821098 0.937231 0.807749
Si Si7 0.667273 0.934936 0.000000
O O1 0.750067 0.603640 0.688590
O O2 0.756475 0.688400 0.826209
O O3 0.831476 0.700626 0.644607
O O4 0.000000 0.642321 0.763656
O O5 0.239676 0.576789 0.500000
O O6 0.229877 0.500000 0.366143
O O7 0.000000 0.568342 0.393411
O O8 0.248222 0.797948 0.850161
O O9 0.000000 0.744687 0.878684
O O10 0.228631 0.732054 0.000000
O O11 0.500000 0.835838 0.781698
O O12 0.293351 0.798105 0.664198
O O13 0.253381 0.891373 0.740105
O O14 0.222271 0.236994 0.500000
O O15 0.000000 0.211567 0.379728
O O16 0.764404 0.916819 0.910181
O O17 0.000000 0.934403 0.803394
O O18 0.765826 0.000000 0.782860
O O19 0.500000 0.906664 0.000000
O O20 0.645021 0.000000 0.000000
#
# Coordination Sequence:
#
# PCOD8197955 Si02
#       7
#     8   8   8   8   8   8   4
#     4   8  13  23  40  62  87 119 159 194 229 275
#     4   8  12  17  29  55  91 125 153 186 233 286
#     4   9  18  32  48  64  86 120 161 201 238 281
#     4  11  22  33  48  71  98 123 150 190 240 288
#     4   9  17  31  51  71  92 121 158 196 232 278
#     4  10  20  34  51  69  92 124 159 191 226 276
#     4   9  17  29  45  67  93 119 149 185 226 269
#
# _framework density 17.356936999999999
#
# number of rings (size 3 to 8) (size 9 to 14) (size 15 to 20)
#    0.000    2.846    0.000    3.923    1.077    4.308 
#    0.000    0.000    0.000    0.923    0.000    6.462 
#    0.000    9.846    0.000   39.385    0.000   36.923 
#
# Total GULP energy -644200.023995 kJ/mol
# GULP energy per Si atom -12388.462000 kJ/mol
# Density = 1.731743 g / cm^3
# Si number density = 17.356937 Si / 1000 Ang^3
#
#
#
# Elastic Constant Matrix: (Units=GPa)
#
#
# Indices 1 2 3 4 5 6 
#
# 1 46.8900 27.6498 19.6821 0.0000 0.0000 0.0000
# 2 27.6498 114.9033 51.7785 0.0000 0.0000 0.0000
# 3 19.6821 51.7785 107.9246 0.0000 0.0000 0.0000
# 4 0.0000 0.0000 0.0000 20.2891 0.0000 0.0000
# 5 0.0000 0.0000 0.0000 0.0000 5.1704 0.0000
# 6 0.0000 0.0000 0.0000 0.0000 0.0000 6.4724
#
#
#
# Elastic Compliance Matrix: (Units=1/GPa)
#
#
# Indices 1 2 3 4 5 6 
#
# 1 0.025240 -0.005103 -0.002155 0.000000 0.000000 0.000000
# 2 -0.005103 0.012135 -0.004891 0.000000 0.000000 0.000000
# 3 -0.002155 -0.004891 0.012005 0.000000 0.000000 0.000000
# 4 0.000000 0.000000 0.000000 0.049287 0.000000 0.000000
# 5 0.000000 0.000000 0.000000 0.000000 0.193410 0.000000
# 6 0.000000 0.000000 0.000000 0.000000 0.000000 0.154503
#
#
# Mechanical properties :
#
#
# Convention : Reuss Voigt Hill
#
# Bulk Modulus (GPa) = 39.86834 51.99319 45.93076
# Shear Modulus (GPa) = 10.43321 17.76021 14.09671
#
# Velocity S-wave (km/s) = 2.45439 3.20227 2.85294
# Velocity P-wave (km/s) = 5.57239 6.61007 6.11329
#
# Compressibility (1/GPa) = 0.02508256
#
# Stress axis : x y z
#
# Youngs Moduli (GPa) = 39.61979 82.40611 83.29547
#
# Poissons Ratio (x) = 0.42048 0.17950
# Poissons Ratio (y) = 0.20216 0.40743
# Poissons Ratio (z) = 0.08538 0.40308
#
# Static dielectric constant tensor:
#      x y z
#    x 2.898970 0.000000 0.000000 
#    y 0.000000 3.381510 0.000000 
#    z 0.000000 0.000000 3.422210 
# 
# 
# High freq. dielectric constant tensor:
#      x y z
#    x 1.635190 0.000000 0.000000 
#    y 0.000000 1.668020 0.000000 
#    z 0.000000 0.000000 1.653180 
# 
# From -- ./inp_files/21764.got.cif
#   From: 2010.03.12/outbox.cif.g09.slc.cpg/sg47_11_cif.got.tgz:21764.got - 2010.04.14 03:12:58.
