data_PCOD8197924
_publ_section_title
;
Structure prediction by ZEFSAII (Michael W. Deem and Ramdas Pophale) SiO2 
 PCOD8197924
Probable space group: P M M M
;
_chemical_formula_sum "Si O2"
_cell_formula_units_Z 44
_cell_length_a 29.898474
_cell_length_b 8.104592
_cell_length_c 9.212808
_cell_angle_alpha 90.000000
_cell_angle_beta 90.000000
_cell_angle_gamma 90.000000
_cell_volume 2232.400955
_symmetry_space_group_name_H-M "P M M M"
_symmetry_group_IT_number 47
_symmetry_cell_setting 'orthorhombic'
loop_
_space_group_symop_operation_xyz
x,y,z
-x,-y,z
x,-y,-z
-x,y,-z
-x,-y,-z
x,y,-z
-x,y,z
x,-y,z
loop_
_atom_site_type_symbol
_atom_site_label
_atom_site_fract_x
_atom_site_fract_y
_atom_site_fract_z
Si Si1 0.369709 0.188751 0.159649
Si Si2 0.711849 0.312040 0.667277
Si Si3 0.902812 0.808611 0.673668
Si Si4 0.451241 0.692663 0.659149
Si Si5 0.052846 0.500000 0.167310
Si Si6 0.196526 0.809574 0.336299
O O1 0.324423 0.204941 0.250195
O O2 0.412304 0.274113 0.228684
O O3 0.382255 0.000000 0.148157
O O4 0.361949 0.265635 0.000000
O O5 0.712655 0.253955 0.500000
O O6 0.697061 0.500000 0.682384
O O7 0.761674 0.286778 0.736709
O O8 0.906229 0.785251 0.500000
O O9 0.932093 0.669488 0.753205
O O10 0.852201 0.777777 0.733661
O O11 0.917004 0.000000 0.711222
O O12 0.439388 0.768240 0.500000
O O13 0.500000 0.762312 0.710964
O O14 0.455523 0.500000 0.642258
O O15 0.000000 0.500000 0.173463
O O16 0.069694 0.500000 0.000000
O O17 0.192098 0.746047 0.500000
O O18 0.209124 0.000000 0.328774
#
# Coordination Sequence:
#
# PCOD8197924 Si02
#       6
#     8   8   8   8   4   8
#     4  11  24  38  51  72 106 145 181 218 261 312
#     4  10  20  33  54  83 109 138 178 221 267 322
#     4   9  19  37  63  92 119 151 196 252 307 356
#     4   9  19  37  60  83 104 128 165 215 268 323
#     4  11  25  41  57  83 121 165 207 245 294 359
#     4   8  15  30  54  84 113 140 175 224 281 335
#
# _framework density 19.709720000000001
#
# number of rings (size 3 to 8) (size 9 to 14) (size 15 to 20)
#    0.000    2.455    0.000    3.545    1.273    7.273 
#    0.000    5.455    0.000    1.091    0.000    0.000 
#    0.000    0.000    0.000    0.000    0.000    0.000 
#
# Total GULP energy -545133.419222 kJ/mol
# GULP energy per Si atom -12389.395891 kJ/mol
# Density = 1.966486 g / cm^3
# Si number density = 19.709720 Si / 1000 Ang^3
#
#
#
# Elastic Constant Matrix: (Units=GPa)
#
#
# Indices 1 2 3 4 5 6 
#
# 1 118.6419 40.2887 47.8514 0.0000 0.0000 0.0000
# 2 40.2887 75.3575 37.1495 0.0000 0.0000 0.0000
# 3 47.8514 37.1495 80.1023 0.0000 0.0000 0.0000
# 4 0.0000 0.0000 0.0000 22.5338 0.0000 0.0000
# 5 0.0000 0.0000 0.0000 0.0000 -13.2123 0.0000
# 6 0.0000 0.0000 0.0000 0.0000 0.0000 51.2209
#
#
#
# Elastic Compliance Matrix: (Units=1/GPa)
#
#
# Indices 1 2 3 4 5 6 
#
# 1 0.011845 -0.003688 -0.005366 0.000000 0.000000 0.000000
# 2 -0.003688 0.018351 -0.006308 0.000000 0.000000 0.000000
# 3 -0.005366 -0.006308 0.018615 0.000000 0.000000 0.000000
# 4 0.000000 0.000000 0.000000 0.044378 0.000000 0.000000
# 5 0.000000 0.000000 0.000000 0.000000 -0.075687 0.000000
# 6 0.000000 0.000000 0.000000 0.000000 0.000000 0.019523
#
#
# Mechanical properties :
#
#
# Convention : Reuss Voigt Hill
#
# Bulk Modulus (GPa) = 55.28353 58.29789 56.79071
# Shear Modulus (GPa) = 67.77119 22.02929 44.90024
#
# Velocity S-wave (km/s) = 5.87020 3.34681 4.77810
# Velocity P-wave (km/s) = 8.60555 6.67662 7.70171
#
# Compressibility (1/GPa) = 0.01808857
#
# Stress axis : x y z
#
# Youngs Moduli (GPa) = 84.42274 54.49210 53.72021
#
# Poissons Ratio (x) = 0.20094 0.28825
# Poissons Ratio (y) = 0.31132 0.33887
# Poissons Ratio (z) = 0.45300 0.34374
#
# Static dielectric constant tensor:
#      x y z
#    x 3.776980 0.000000 0.000000 
#    y 0.000000 3.524530 0.000000 
#    z 0.000000 0.000000 3.637890 
# 
# 
# High freq. dielectric constant tensor:
#      x y z
#    x 1.781900 0.000000 0.000000 
#    y 0.000000 1.767210 0.000000 
#    z 0.000000 0.000000 1.734080 
# 
# From -- ./inp_files/13652.got.cif
#   From: 2010.03.12/outbox.cif.g09.slc.cpg/sg47_7_cif.got.tgz:13652.got - 2010.04.14 03:12:58.
