data_PCOD8197683
_publ_section_title
;
Structure prediction by ZEFSAII (Michael W. Deem and Ramdas Pophale) SiO2 
 PCOD8197683
Probable space group: P M M M
;
_chemical_formula_sum "Si O2"
_cell_formula_units_Z 48
_cell_length_a 9.142784
_cell_length_b 8.568065
_cell_length_c 31.052076
_cell_angle_alpha 90.000000
_cell_angle_beta 90.000000
_cell_angle_gamma 90.000000
_cell_volume 2432.494419
_symmetry_space_group_name_H-M "P M M M"
_symmetry_group_IT_number 47
_symmetry_cell_setting 'orthorhombic'
loop_
_space_group_symop_operation_xyz
x,y,z
-x,-y,z
x,-y,-z
-x,y,-z
-x,-y,-z
x,y,-z
-x,y,z
x,-y,z
loop_
_atom_site_type_symbol
_atom_site_label
_atom_site_fract_x
_atom_site_fract_y
_atom_site_fract_z
Si Si1 0.830566 0.315990 0.740646
Si Si2 0.663717 0.816670 0.500000
Si Si3 0.664818 0.314644 0.918570
Si Si4 0.669758 0.181877 0.339714
Si Si5 0.832928 0.317539 0.580287
Si Si6 0.663753 0.314791 0.175987
Si Si7 0.163675 0.686587 0.000000
O O1 0.804493 0.500000 0.734114
O O2 0.736531 0.221112 0.706416
O O3 0.776187 0.257967 0.787497
O O4 0.000000 0.272444 0.735636
O O5 0.500000 0.743346 0.500000
O O6 0.749422 0.767232 0.457777
O O7 0.650548 0.000000 0.500000
O O8 0.500000 0.257969 0.926437
O O9 0.673523 0.500000 0.920106
O O10 0.717732 0.255873 0.871212
O O11 0.762164 0.243715 0.956900
O O12 0.500000 0.229860 0.340332
O O13 0.755289 0.281875 0.374870
O O14 0.689842 0.000000 0.349956
O O15 0.827902 0.500000 0.571194
O O16 0.000000 0.257675 0.582118
O O17 0.500000 0.250944 0.185700
O O18 0.658087 0.500000 0.175446
O O19 0.172659 0.500000 0.000000
O O20 0.000000 0.748459 0.000000
#
# Coordination Sequence:
#
# PCOD8197683 Si02
#       7
#     8   4   8   8   8   8   4
#     4  10  20  33  51  76 103 132 168 210 258 313
#     4  11  24  41  62  90 122 155 192 229 266 312
#     4   8  13  21  32  46  68 103 147 191 236 290
#     4  11  24  40  58  81 108 140 179 220 263 313
#     4  11  24  41  62  89 118 148 185 226 268 316
#     4   8  14  25  41  60  83 115 156 201 248 298
#     4   9  15  19  25  41  67 101 142 189 240 291
#
# _framework density 19.732828000000001
#
# number of rings (size 3 to 8) (size 9 to 14) (size 15 to 20)
#    0.000    2.333    0.000    4.250    0.000   11.000 
#    0.000    3.333    0.000    0.000    0.000    0.000 
#    0.000    0.000    0.000    0.750    0.000   15.333 
#
# Total GULP energy -595111.950506 kJ/mol
# GULP energy per Si atom -12398.165636 kJ/mol
# Density = 1.968792 g / cm^3
# Si number density = 19.732828 Si / 1000 Ang^3
#
#
#
# Elastic Constant Matrix: (Units=GPa)
#
#
# Indices 1 2 3 4 5 6 
#
# 1 151.0569 25.2417 77.3581 0.0000 0.0000 0.0000
# 2 25.2417 27.6712 14.0065 0.0000 0.0000 0.0000
# 3 77.3581 14.0065 152.8360 0.0000 0.0000 0.0000
# 4 0.0000 0.0000 0.0000 -122.5576 0.0000 0.0000
# 5 0.0000 0.0000 0.0000 0.0000 67.5182 0.0000
# 6 0.0000 0.0000 0.0000 0.0000 0.0000 18.2918
#
#
#
# Elastic Compliance Matrix: (Units=1/GPa)
#
#
# Indices 1 2 3 4 5 6 
#
# 1 0.010059 -0.006920 -0.004457 0.000000 0.000000 0.000000
# 2 -0.006920 0.042657 -0.000407 0.000000 0.000000 0.000000
# 3 -0.004457 -0.000407 0.008836 0.000000 0.000000 0.000000
# 4 0.000000 0.000000 0.000000 -0.008159 0.000000 0.000000
# 5 0.000000 0.000000 0.000000 0.000000 0.014811 0.000000
# 6 0.000000 0.000000 0.000000 0.000000 0.000000 0.054669
#
#
# Mechanical properties :
#
#
# Convention : Reuss Voigt Hill
#
# Bulk Modulus (GPa) = 26.32655 62.75297 44.53976
# Shear Modulus (GPa) = 31.42657 6.98102 19.20380
#
# Velocity S-wave (km/s) = 3.99507 1.88294 3.12298
# Velocity P-wave (km/s) = 5.88653 6.04960 5.96862
#
# Compressibility (1/GPa) = 0.03798447
#
# Stress axis : x y z
#
# Youngs Moduli (GPa) = 99.41495 23.44304 113.17022
#
# Poissons Ratio (x) = 0.16222 0.50442
# Poissons Ratio (y) = 0.68791 0.04605
# Poissons Ratio (z) = 0.44311 0.00954
#
# Static dielectric constant tensor:
#      x y z
#    x 3.806190 0.000000 0.000000 
#    y 0.000000 3.104890 0.000000 
#    z 0.000000 0.000000 4.259460 
# 
# 
# High freq. dielectric constant tensor:
#      x y z
#    x 1.776470 0.000000 0.000000 
#    y 0.000000 1.720010 0.000000 
#    z 0.000000 0.000000 1.790540 
# 
# From -- ./inp_files/34128.got.cif
#   From: 2010.03.12/outbox.cif.g09.slc.cpg/sg47_18_cif.got.tgz:34128.got - 2010.04.14 03:12:58.
