data_PCOD8197262
_publ_section_title
;
Structure prediction by ZEFSAII (Michael W. Deem and Ramdas Pophale) SiO2 
 PCOD8197262
Probable space group: P M M M
;
_chemical_formula_sum "Si O2"
_cell_formula_units_Z 64
_cell_length_a 14.146548
_cell_length_b 25.693532
_cell_length_c 9.364688
_cell_angle_alpha 90.000000
_cell_angle_beta 90.000000
_cell_angle_gamma 90.000000
_cell_volume 3403.827945
_symmetry_space_group_name_H-M "P M M M"
_symmetry_group_IT_number 47
_symmetry_cell_setting 'orthorhombic'
loop_
_space_group_symop_operation_xyz
x,y,z
-x,-y,z
x,-y,-z
-x,y,-z
-x,-y,-z
x,y,-z
-x,y,z
x,-y,z
loop_
_atom_site_type_symbol
_atom_site_label
_atom_site_fract_x
_atom_site_fract_y
_atom_site_fract_z
Si Si1 0.390970 0.090787 0.833507
Si Si2 0.395578 0.302282 0.664538
Si Si3 0.791385 0.352975 0.664960
Si Si4 0.111265 0.753293 0.335457
Si Si5 0.387769 0.206865 0.843960
Si Si6 0.221036 0.058412 0.664199
Si Si7 0.892641 0.440901 0.833214
Si Si8 0.887890 0.854385 0.165084
O O1 0.500000 0.083950 0.787061
O O2 0.351218 0.149316 0.805739
O O3 0.325895 0.055505 0.733264
O O4 0.379663 0.075888 0.000000
O O5 0.403560 0.288741 0.500000
O O6 0.500000 0.317240 0.725829
O O7 0.321798 0.348825 0.690849
O O8 0.352475 0.249973 0.733321
O O9 0.816182 0.362185 0.500000
O O10 0.841361 0.300196 0.718784
O O11 0.823381 0.402863 0.751335
O O12 0.138421 0.764644 0.500000
O O13 0.148926 0.800939 0.238324
O O14 0.000000 0.746194 0.316552
O O15 0.500000 0.203314 0.844082
O O16 0.350955 0.223585 0.000000
O O17 0.226885 0.077428 0.500000
O O18 0.153575 0.095839 0.754411
O O19 0.179092 0.000000 0.671352
O O20 0.864442 0.500000 0.795250
O O21 0.000000 0.430014 0.785085
O O22 0.881424 0.430681 0.000000
O O23 0.000000 0.857811 0.179166
O O24 0.855296 0.854690 0.000000
#
# Coordination Sequence:
#
# PCOD8197262 Si02
#       8
#     8   8   8   8   8   8   8   8
#     4   9  19  36  57  81 109 140 175 219 269 320
#     4   9  18  31  46  70 108 148 183 220 261 305
#     4  10  20  32  51  81 112 145 185 224 263 312
#     4   9  18  33  52  77 111 143 170 210 266 324
#     4   8  15  29  48  71  99 131 170 213 256 306
#     4  11  25  41  57  79 106 138 178 223 271 328
#     4   9  19  36  56  79 109 143 179 223 275 327
#     4  10  22  40  61  83 106 136 176 221 271 329
#
# _framework density 18.80236
#
# number of rings (size 3 to 8) (size 9 to 14) (size 15 to 20)
#    0.000    2.625    0.000    2.250    1.750    5.000 
#    0.000    5.625    0.000    0.375    0.000    2.625 
#    0.000    0.000    0.000    0.000    0.000    0.000 
#
# Total GULP energy -793469.003195 kJ/mol
# GULP energy per Si atom -12397.953175 kJ/mol
# Density = 1.875956 g / cm^3
# Si number density = 18.802360 Si / 1000 Ang^3
#
#
#
# Elastic Constant Matrix: (Units=GPa)
#
#
# Indices 1 2 3 4 5 6 
#
# 1 48.9207 45.8450 38.6685 0.0000 0.0000 0.0000
# 2 45.8450 116.0160 61.2331 0.0000 0.0000 0.0000
# 3 38.6685 61.2331 88.1450 0.0000 0.0000 0.0000
# 4 0.0000 0.0000 0.0000 32.1587 0.0000 0.0000
# 5 0.0000 0.0000 0.0000 0.0000 25.8654 0.0000
# 6 0.0000 0.0000 0.0000 0.0000 0.0000 27.3581
#
#
#
# Elastic Compliance Matrix: (Units=1/GPa)
#
#
# Indices 1 2 3 4 5 6 
#
# 1 0.036964 -0.009549 -0.009582 0.000000 0.000000 0.000000
# 2 -0.009549 0.016077 -0.006979 0.000000 0.000000 0.000000
# 3 -0.009582 -0.006979 0.020397 0.000000 0.000000 0.000000
# 4 0.000000 0.000000 0.000000 0.031096 0.000000 0.000000
# 5 0.000000 0.000000 0.000000 0.000000 0.038662 0.000000
# 6 0.000000 0.000000 0.000000 0.000000 0.000000 0.036552
#
#
# Mechanical properties :
#
#
# Convention : Reuss Voigt Hill
#
# Bulk Modulus (GPa) = 47.13270 60.50830 53.82050
# Shear Modulus (GPa) = 20.91699 24.23212 22.57456
#
# Velocity S-wave (km/s) = 3.33898 3.59385 3.46876
# Velocity P-wave (km/s) = 6.32352 7.03364 6.68801
#
# Compressibility (1/GPa) = 0.02121669
#
# Stress axis : x y z
#
# Youngs Moduli (GPa) = 27.05312 62.20259 49.02774
#
# Poissons Ratio (x) = 0.59400 0.46979
# Poissons Ratio (y) = 0.25834 0.34216
# Poissons Ratio (z) = 0.25922 0.43410
#
# Static dielectric constant tensor:
#      x y z
#    x 3.527530 0.000000 0.000000 
#    y 0.000000 3.321270 0.000000 
#    z 0.000000 0.000000 3.494110 
# 
# 
# High freq. dielectric constant tensor:
#      x y z
#    x 1.733300 0.000000 0.000000 
#    y 0.000000 1.713650 0.000000 
#    z 0.000000 0.000000 1.727260 
# 
# From -- ./inp_files/7784.got.cif
#   From: 2010.03.12/outbox.cif.g09.slc.cpg/sg47_4_cif.got.tgz:7784.got - 2010.04.14 03:12:58.
