data_PCOD8197458
_publ_section_title
;
Structure prediction by ZEFSAII (Michael W. Deem and Ramdas Pophale) SiO2 
 PCOD8197458
Probable space group: P M M M
;
_chemical_formula_sum "Si O2"
_cell_formula_units_Z 64
_cell_length_a 30.974574
_cell_length_b 9.040167
_cell_length_c 14.120190
_cell_angle_alpha 90.000000
_cell_angle_beta 90.000000
_cell_angle_gamma 90.000000
_cell_volume 3953.869546
_symmetry_space_group_name_H-M "P M M M"
_symmetry_group_IT_number 47
_symmetry_cell_setting 'orthorhombic'
loop_
_space_group_symop_operation_xyz
x,y,z
-x,-y,z
x,-y,-z
-x,y,-z
-x,-y,-z
x,y,-z
-x,y,z
x,-y,z
loop_
_atom_site_type_symbol
_atom_site_label
_atom_site_fract_x
_atom_site_fract_y
_atom_site_fract_z
Si Si1 0.215233 0.175638 0.216662
Si Si2 0.332652 0.831767 0.605194
Si Si3 0.244265 0.672017 0.392620
Si Si4 0.294037 0.672286 0.110885
Si Si5 0.549639 0.329357 0.109077
Si Si6 0.869204 0.825894 0.107633
Si Si7 0.374266 0.171582 0.797772
Si Si8 0.952965 0.667521 0.887500
O O1 0.213042 0.235166 0.324032
O O2 0.256428 0.242195 0.164531
O O3 0.171783 0.231693 0.166047
O O4 0.219188 0.000000 0.215121
O O5 0.352387 0.804100 0.500000
O O6 0.293357 0.721544 0.624374
O O7 0.368609 0.801892 0.684917
O O8 0.315111 0.000000 0.613491
O O9 0.229722 0.704737 0.500000
O O10 0.240940 0.500000 0.367748
O O11 0.291910 0.500000 0.137226
O O12 0.339961 0.735832 0.142105
O O13 0.287987 0.698881 0.000000
O O14 0.500000 0.295047 0.132536
O O15 0.560441 0.500000 0.129692
O O16 0.578082 0.226047 0.176278
O O17 0.559748 0.292095 0.000000
O O18 0.913321 0.762704 0.153777
O O19 0.872737 0.000000 0.111971
O O20 0.863231 0.769968 0.000000
O O21 0.369005 0.000000 0.824059
O O22 0.946365 0.500000 0.853588
O O23 0.000000 0.725676 0.851106
O O24 0.952511 0.678064 0.000000
#
# Coordination Sequence:
#
# PCOD8197458 Si02
#       8
#     8   8   8   8   8   8   8   8
#     4  11  21  33  48  67  94 128 162 198 239 282
#     4   9  18  33  51  71  96 125 156 191 236 285
#     4  10  20  33  50  71  93 120 158 201 241 283
#     4  11  23  35  47  66  95 131 165 196 232 277
#     4   9  19  36  55  73  96 128 161 193 234 283
#     4   9  18  30  43  62  90 125 162 197 234 278
#     4  11  21  32  51  77  99 123 156 197 239 280
#     4   8  14  25  41  61  85 115 154 198 239 278
#
# _framework density 16.186675000000001
#
# number of rings (size 3 to 8) (size 9 to 14) (size 15 to 20)
#    0.000    2.250    1.250    3.000    0.000    6.000 
#    0.000    3.125    0.000    0.375    0.000    2.625 
#    0.000    0.500    0.000    5.500    0.000    4.250 
#
# Total GULP energy -793521.916973 kJ/mol
# GULP energy per Si atom -12398.779953 kJ/mol
# Density = 1.614983 g / cm^3
# Si number density = 16.186675 Si / 1000 Ang^3
#
#
#
# Elastic Constant Matrix: (Units=GPa)
#
#
# Indices 1 2 3 4 5 6 
#
# 1 104.3966 40.8956 48.5571 0.0000 0.0000 0.0000
# 2 40.8956 68.4105 41.8678 0.0000 0.0000 0.0000
# 3 48.5571 41.8678 86.1203 0.0000 0.0000 0.0000
# 4 0.0000 0.0000 0.0000 23.5786 0.0000 0.0000
# 5 0.0000 0.0000 0.0000 0.0000 9.9955 0.0000
# 6 0.0000 0.0000 0.0000 0.0000 0.0000 27.8627
#
#
#
# Elastic Compliance Matrix: (Units=1/GPa)
#
#
# Indices 1 2 3 4 5 6 
#
# 1 0.014125 -0.005082 -0.005493 0.000000 0.000000 0.000000
# 2 -0.005082 0.022637 -0.008140 0.000000 0.000000 0.000000
# 3 -0.005493 -0.008140 0.018666 0.000000 0.000000 0.000000
# 4 0.000000 0.000000 0.000000 0.042411 0.000000 0.000000
# 5 0.000000 0.000000 0.000000 0.000000 0.100045 0.000000
# 6 0.000000 0.000000 0.000000 0.000000 0.000000 0.035890
#
#
# Mechanical properties :
#
#
# Convention : Reuss Voigt Hill
#
# Bulk Modulus (GPa) = 55.56169 57.95205 56.75687
# Shear Modulus (GPa) = 18.03726 20.79449 19.41588
#
# Velocity S-wave (km/s) = 3.34178 3.58811 3.46713
# Velocity P-wave (km/s) = 7.02069 7.28328 7.15319
#
# Compressibility (1/GPa) = 0.01799801
#
# Stress axis : x y z
#
# Youngs Moduli (GPa) = 70.79849 44.17512 53.57257
#
# Poissons Ratio (x) = 0.22448 0.29429
# Poissons Ratio (y) = 0.35977 0.43608
# Poissons Ratio (z) = 0.38892 0.35958
#
# Static dielectric constant tensor:
#      x y z
#    x 3.147690 0.000000 0.000000 
#    y 0.000000 3.138340 0.000000 
#    z 0.000000 0.000000 3.126120 
# 
# 
# High freq. dielectric constant tensor:
#      x y z
#    x 1.608930 0.000000 0.000000 
#    y 0.000000 1.631160 0.000000 
#    z 0.000000 0.000000 1.605000 
# 
# From -- ./inp_files/22143.got.cif
#   From: 2010.03.12/outbox.cif.g09.slc.cpg/sg47_12_cif.got.tgz:22143.got - 2010.04.14 03:12:58.
