data_PCOD8197431
_publ_section_title
;
Structure prediction by ZEFSAII (Michael W. Deem and Ramdas Pophale) SiO2 
 PCOD8197431
Probable space group: P M M M
;
_chemical_formula_sum "Si O2"
_cell_formula_units_Z 64
_cell_length_a 24.674320
_cell_length_b 14.277326
_cell_length_c 8.986275
_cell_angle_alpha 90.000000
_cell_angle_beta 90.000000
_cell_angle_gamma 90.000000
_cell_volume 3165.714706
_symmetry_space_group_name_H-M "P M M M"
_symmetry_group_IT_number 47
_symmetry_cell_setting 'orthorhombic'
loop_
_space_group_symop_operation_xyz
x,y,z
-x,-y,z
x,-y,-z
-x,y,-z
-x,-y,-z
x,y,-z
-x,y,z
x,-y,z
loop_
_atom_site_type_symbol
_atom_site_label
_atom_site_fract_x
_atom_site_fract_y
_atom_site_fract_z
Si Si1 0.560864 0.895322 0.676739
Si Si2 0.737307 0.889903 0.832703
Si Si3 0.344136 0.235408 0.674952
Si Si4 0.158781 0.110647 0.337525
Si Si5 0.059206 0.110871 0.164878
Si Si6 0.940022 0.610768 0.830038
Si Si7 0.833031 0.610867 0.330883
Si Si8 0.277735 0.391831 0.175838
O O1 0.563347 0.897685 0.500000
O O2 0.500000 0.873095 0.732246
O O3 0.599204 0.810240 0.733449
O O4 0.578199 0.000000 0.735064
O O5 0.698848 0.844778 0.710881
O O6 0.797430 0.860481 0.784828
O O7 0.728561 0.000000 0.825925
O O8 0.726743 0.851879 0.000000
O O9 0.345543 0.256712 0.500000
O O10 0.328083 0.331088 0.760148
O O11 0.171688 0.154120 0.500000
O O12 0.102212 0.153375 0.279809
O O13 0.155332 0.000000 0.352044
O O14 0.000000 0.140257 0.222937
O O15 0.064941 0.000000 0.156106
O O16 0.069026 0.152370 0.000000
O O17 0.939600 0.500000 0.814619
O O18 0.889160 0.652726 0.736761
O O19 0.000000 0.647187 0.775812
O O20 0.931178 0.641018 0.000000
O O21 0.827978 0.645760 0.500000
O O22 0.835078 0.500000 0.319658
O O23 0.779258 0.645648 0.243305
O O24 0.288202 0.500000 0.219814
O O25 0.274905 0.378912 0.000000
#
# Coordination Sequence:
#
# PCOD8197431 Si02
#       8
#     8   8   8   8   8   8   8   8
#     4   8  15  30  54  86 123 158 187 216 257 312
#     4  10  20  33  49  71 104 143 177 210 254 314
#     4  11  21  33  55  85 113 141 179 227 272 314
#     4   9  16  25  38  58  86 120 160 208 259 307
#     4   8  13  21  33  50  75 110 153 200 251 309
#     4   8  13  21  34  55  86 124 164 206 258 326
#     4   9  16  26  42  65  93 125 166 220 278 330
#     4  10  21  37  55  74 102 143 188 232 280 335
#
# _framework density 20.216605000000001
#
# number of rings (size 3 to 8) (size 9 to 14) (size 15 to 20)
#    0.000    2.875    0.000    3.375    0.000    5.500 
#    0.000    2.500    0.000    1.875    0.000    7.875 
#    0.000    7.000    0.000    0.750    0.000    0.625 
#
# Total GULP energy -792945.925998 kJ/mol
# GULP energy per Si atom -12389.780094 kJ/mol
# Density = 2.017059 g / cm^3
# Si number density = 20.216605 Si / 1000 Ang^3
#
#
#
# Elastic Constant Matrix: (Units=GPa)
#
#
# Indices 1 2 3 4 5 6 
#
# 1 134.4484 52.1683 41.6788 0.0000 0.0000 0.0000
# 2 52.1683 78.4083 25.2179 0.0000 0.0000 0.0000
# 3 41.6788 25.2179 81.9454 0.0000 0.0000 0.0000
# 4 0.0000 0.0000 0.0000 9.4757 0.0000 0.0000
# 5 0.0000 0.0000 0.0000 0.0000 25.2806 0.0000
# 6 0.0000 0.0000 0.0000 0.0000 0.0000 960.9618
#
#
#
# Elastic Compliance Matrix: (Units=1/GPa)
#
#
# Indices 1 2 3 4 5 6 
#
# 1 0.010948 -0.006097 -0.003692 0.000000 0.000000 0.000000
# 2 -0.006097 0.017550 -0.002300 0.000000 0.000000 0.000000
# 3 -0.003692 -0.002300 0.014789 0.000000 0.000000 0.000000
# 4 0.000000 0.000000 0.000000 0.105533 0.000000 0.000000
# 5 0.000000 0.000000 0.000000 0.000000 0.039556 0.000000
# 6 0.000000 0.000000 0.000000 0.000000 0.000000 0.001041
#
#
# Mechanical properties :
#
#
# Convention : Reuss Voigt Hill
#
# Bulk Modulus (GPa) = 52.33065 59.21467 55.77266
# Shear Modulus (GPa) = 22.73107 210.85943 116.79525
#
# Velocity S-wave (km/s) = 3.35681 10.22382 7.60903
# Velocity P-wave (km/s) = 6.40042 12.98932 10.23933
#
# Compressibility (1/GPa) = 0.01910926
#
# Stress axis : x y z
#
# Youngs Moduli (GPa) = 91.34123 56.98068 67.61825
#
# Poissons Ratio (x) = 0.34739 0.24966
# Poissons Ratio (y) = 0.55688 0.15552
# Poissons Ratio (z) = 0.33724 0.13105
#
# Static dielectric constant tensor:
#      x y z
#    x 3.985670 0.000000 0.000000 
#    y 0.000000 3.521380 0.000000 
#    z 0.000000 0.000000 3.711710 
# 
# 
# High freq. dielectric constant tensor:
#      x y z
#    x 1.777120 0.000000 0.000000 
#    y 0.000000 1.776550 0.000000 
#    z 0.000000 0.000000 1.776600 
# 
# From -- ./inp_files/12693.got.cif
#   From: 2010.03.12/outbox.cif.g09.slc.cpg/sg47_7_cif.got.tgz:12693.got - 2010.04.14 03:12:58.
