data_PCOD8197042
_publ_section_title
;
Structure prediction by ZEFSAII (Michael W. Deem and Ramdas Pophale) SiO2 
 PCOD8197042
Probable space group: P M M M
;
_chemical_formula_sum "Si O2"
_cell_formula_units_Z 64
_cell_length_a 15.375287
_cell_length_b 25.002456
_cell_length_c 9.423674
_cell_angle_alpha 90.000000
_cell_angle_beta 90.000000
_cell_angle_gamma 90.000000
_cell_volume 3622.648163
_symmetry_space_group_name_H-M "P M M M"
_symmetry_group_IT_number 47
_symmetry_cell_setting 'orthorhombic'
loop_
_space_group_symop_operation_xyz
x,y,z
-x,-y,z
x,-y,-z
-x,y,-z
-x,-y,-z
x,y,-z
-x,y,z
x,-y,z
loop_
_atom_site_type_symbol
_atom_site_label
_atom_site_fract_x
_atom_site_fract_y
_atom_site_fract_z
Si Si1 0.593784 0.666994 0.168324
Si Si2 0.371328 0.215707 0.159696
Si Si3 0.228665 0.938729 0.333315
Si Si4 0.218349 0.358667 0.170046
Si Si5 0.405209 0.886018 0.662546
Si Si6 0.175510 0.756986 0.158833
Si Si7 0.901400 0.137117 0.832775
Si Si8 0.900812 0.562369 0.662649
O O1 0.500000 0.641144 0.215945
O O2 0.596076 0.727891 0.223696
O O3 0.680145 0.635394 0.221074
O O4 0.600319 0.669178 0.000000
O O5 0.409408 0.169010 0.253541
O O6 0.267772 0.213916 0.162873
O O7 0.405857 0.207864 0.000000
O O8 0.215205 0.928898 0.500000
O O9 0.327213 0.924254 0.285252
O O10 0.159916 0.903570 0.248963
O O11 0.212193 0.000000 0.292456
O O12 0.179930 0.301995 0.230708
O O13 0.164139 0.406650 0.235106
O O14 0.212551 0.360985 0.000000
O O15 0.388822 0.870847 0.500000
O O16 0.500000 0.914528 0.681862
O O17 0.111117 0.801586 0.226252
O O18 0.144153 0.745515 0.000000
O O19 0.000000 0.119540 0.803817
O O20 0.878506 0.135376 0.000000
O O21 0.881040 0.577370 0.500000
O O22 0.885151 0.500000 0.688739
O O23 0.000000 0.577591 0.700734
#
# Coordination Sequence:
#
# PCOD8197042 Si02
#       8
#     8   8   8   8   8   8   8   8
#     4   8  14  25  43  71 106 138 165 195 236 287
#     4   9  15  27  49  72  96 130 166 195 230 285
#     4  10  22  39  55  70  93 127 164 205 251 296
#     4   9  17  29  50  79 105 132 168 207 243 284
#     4  10  20  32  48  72  98 123 156 200 248 295
#     4   8  15  29  48  74 106 132 155 191 242 292
#     4  10  20  35  56  78 100 128 160 197 246 302
#     4   9  19  36  54  71  97 134 171 209 257 305
#
# _framework density 17.666633999999998
#
# number of rings (size 3 to 8) (size 9 to 14) (size 15 to 20)
#    0.000    2.875    1.250    2.250    0.000    2.750 
#    0.000    7.500    0.000    1.500    0.000    4.375 
#    0.000    0.000    0.000    0.000    0.000    0.000 
#
# Total GULP energy -792878.977270 kJ/mol
# GULP energy per Si atom -12388.734020 kJ/mol
# Density = 1.762642 g / cm^3
# Si number density = 17.666634 Si / 1000 Ang^3
#
#
#
# Elastic Constant Matrix: (Units=GPa)
#
#
# Indices 1 2 3 4 5 6 
#
# 1 133.8766 66.2220 41.2959 0.0000 0.0000 0.0000
# 2 66.2220 84.5595 33.6180 0.0000 0.0000 0.0000
# 3 41.2959 33.6180 37.1659 0.0000 0.0000 0.0000
# 4 0.0000 0.0000 0.0000 2.3842 0.0000 0.0000
# 5 0.0000 0.0000 0.0000 0.0000 21.2152 0.0000
# 6 0.0000 0.0000 0.0000 0.0000 0.0000 18.3915
#
#
#
# Elastic Compliance Matrix: (Units=1/GPa)
#
#
# Indices 1 2 3 4 5 6 
#
# 1 0.013774 -0.007343 -0.008662 0.000000 0.000000 0.000000
# 2 -0.007343 0.022382 -0.012086 0.000000 0.000000 0.000000
# 3 -0.008662 -0.012086 0.047464 0.000000 0.000000 0.000000
# 4 0.000000 0.000000 0.000000 0.419424 0.000000 0.000000
# 5 0.000000 0.000000 0.000000 0.000000 0.047136 0.000000
# 6 0.000000 0.000000 0.000000 0.000000 0.000000 0.054373
#
#
# Mechanical properties :
#
#
# Convention : Reuss Voigt Hill
#
# Bulk Modulus (GPa) = 36.44818 59.76376 48.10597
# Shear Modulus (GPa) = 7.46403 16.02926 11.74665
#
# Velocity S-wave (km/s) = 2.05769 3.01544 2.58137
# Velocity P-wave (km/s) = 5.13043 6.78424 6.01445
#
# Compressibility (1/GPa) = 0.02743621
#
# Stress axis : x y z
#
# Youngs Moduli (GPa) = 72.60179 44.67964 21.06876
#
# Poissons Ratio (x) = 0.32808 0.18251
# Poissons Ratio (y) = 0.53311 0.25464
# Poissons Ratio (z) = 0.62890 0.54000
#
# Static dielectric constant tensor:
#      x y z
#    x 3.531660 0.000000 0.000000 
#    y 0.000000 3.125950 0.000000 
#    z 0.000000 0.000000 2.956040 
# 
# 
# High freq. dielectric constant tensor:
#      x y z
#    x 1.698250 0.000000 0.000000 
#    y 0.000000 1.664420 0.000000 
#    z 0.000000 0.000000 1.645950 
# 
# From -- ./inp_files/7933.got.cif
#   From: 2010.03.12/outbox.cif.g09.slc.cpg/sg47_4_cif.got.tgz:7933.got - 2010.04.14 03:12:58.
