data_PCOD8197267
_publ_section_title
;
Structure prediction by ZEFSAII (Michael W. Deem and Ramdas Pophale) SiO2 
 PCOD8197267
Probable space group: P M M M
;
_chemical_formula_sum "Si O2"
_cell_formula_units_Z 64
_cell_length_a 14.253688
_cell_length_b 25.762135
_cell_length_c 9.393469
_cell_angle_alpha 90.000000
_cell_angle_beta 90.000000
_cell_angle_gamma 90.000000
_cell_volume 3449.332866
_symmetry_space_group_name_H-M "P M M M"
_symmetry_group_IT_number 47
_symmetry_cell_setting 'orthorhombic'
loop_
_space_group_symop_operation_xyz
x,y,z
-x,-y,z
x,-y,-z
-x,y,-z
-x,-y,-z
x,y,-z
-x,y,z
x,-y,z
loop_
_atom_site_type_symbol
_atom_site_label
_atom_site_fract_x
_atom_site_fract_y
_atom_site_fract_z
Si Si1 0.393579 0.058979 0.666606
Si Si2 0.708229 0.558567 0.163074
Si Si3 0.894944 0.804728 0.162116
Si Si4 0.610816 0.648445 0.335498
Si Si5 0.888648 0.292606 0.341049
Si Si6 0.390126 0.749000 0.835271
Si Si7 0.708343 0.854718 0.162611
Si Si8 0.894674 0.389542 0.838114
O O1 0.381330 0.067761 0.500000
O O2 0.500000 0.071481 0.712860
O O3 0.323241 0.096684 0.746136
O O4 0.368164 0.000000 0.707836
O O5 0.681013 0.500000 0.205932
O O6 0.654161 0.597313 0.265886
O O7 0.821357 0.563555 0.179532
O O8 0.678821 0.570224 0.000000
O O9 0.855285 0.758397 0.258661
O O10 0.821484 0.851749 0.179350
O O11 0.000000 0.822993 0.207035
O O12 0.895319 0.784440 0.000000
O O13 0.640773 0.651287 0.500000
O O14 0.500000 0.644323 0.316865
O O15 0.648011 0.700570 0.257523
O O16 0.846485 0.292332 0.500000
O O17 0.853518 0.343605 0.259742
O O18 0.000000 0.293263 0.343306
O O19 0.500000 0.757541 0.809537
O O20 0.338620 0.801257 0.783431
O O21 0.367430 0.737051 0.000000
O O22 0.678509 0.864525 0.000000
O O23 0.000000 0.407316 0.792020
O O24 0.897075 0.369067 0.000000
#
# Coordination Sequence:
#
# PCOD8197267 Si02
#       8
#     8   8   8   8   8   8   8   8
#     4   9  19  36  56  79 110 146 180 217 266 322
#     4  10  22  38  56  78 101 129 169 214 260 313
#     4   9  18  32  48  70 106 147 182 217 259 305
#     4  10  22  39  57  77 102 134 171 211 259 315
#     4   9  17  29  46  70  99 131 170 212 252 300
#     4   9  18  33  52  76 107 137 166 208 262 316
#     4  10  20  32  52  82 110 141 182 224 263 305
#     4   9  18  33  53  75 101 133 166 204 253 309
#
# _framework density 18.554313
#
# number of rings (size 3 to 8) (size 9 to 14) (size 15 to 20)
#    0.000    2.625    0.000    1.500    1.750    5.500 
#    0.000    4.375    0.000    0.375    0.000    5.250 
#    0.000    0.000    0.000    0.000    0.000    0.000 
#
# Total GULP energy -793525.758126 kJ/mol
# GULP energy per Si atom -12398.839971 kJ/mol
# Density = 1.851208 g / cm^3
# Si number density = 18.554313 Si / 1000 Ang^3
#
#
#
# Elastic Constant Matrix: (Units=GPa)
#
#
# Indices 1 2 3 4 5 6 
#
# 1 60.0341 52.1389 34.4400 0.0000 0.0000 0.0000
# 2 52.1389 121.2318 61.4940 0.0000 0.0000 0.0000
# 3 34.4400 61.4940 89.2438 0.0000 0.0000 0.0000
# 4 0.0000 0.0000 0.0000 15.5966 0.0000 0.0000
# 5 0.0000 0.0000 0.0000 0.0000 20.7063 0.0000
# 6 0.0000 0.0000 0.0000 0.0000 0.0000 27.5790
#
#
#
# Elastic Compliance Matrix: (Units=1/GPa)
#
#
# Indices 1 2 3 4 5 6 
#
# 1 0.027390 -0.009867 -0.003771 0.000000 0.000000 0.000000
# 2 -0.009867 0.016235 -0.007379 0.000000 0.000000 0.000000
# 3 -0.003771 -0.007379 0.017745 0.000000 0.000000 0.000000
# 4 0.000000 0.000000 0.000000 0.064117 0.000000 0.000000
# 5 0.000000 0.000000 0.000000 0.000000 0.048294 0.000000
# 6 0.000000 0.000000 0.000000 0.000000 0.000000 0.036259
#
#
# Mechanical properties :
#
#
# Convention : Reuss Voigt Hill
#
# Bulk Modulus (GPa) = 51.71752 62.96172 57.33962
# Shear Modulus (GPa) = 19.34081 20.93884 20.13982
#
# Velocity S-wave (km/s) = 3.23211 3.36298 3.29819
# Velocity P-wave (km/s) = 6.47015 7.00621 6.74351
#
# Compressibility (1/GPa) = 0.01933581
#
# Stress axis : x y z
#
# Youngs Moduli (GPa) = 36.50988 61.59443 56.35277
#
# Poissons Ratio (x) = 0.60774 0.21252
# Poissons Ratio (y) = 0.36024 0.41584
# Poissons Ratio (z) = 0.13769 0.45452
#
# Static dielectric constant tensor:
#      x y z
#    x 3.453120 0.000000 0.000000 
#    y 0.000000 3.189840 0.000000 
#    z 0.000000 0.000000 3.468690 
# 
# 
# High freq. dielectric constant tensor:
#      x y z
#    x 1.724910 0.000000 0.000000 
#    y 0.000000 1.696710 0.000000 
#    z 0.000000 0.000000 1.716470 
# 
# From -- ./inp_files/7785.got.cif
#   From: 2010.03.12/outbox.cif.g09.slc.cpg/sg47_4_cif.got.tgz:7785.got - 2010.04.14 03:12:58.
