data_PCOD8197321
_publ_section_title
;
Structure prediction by ZEFSAII (Michael W. Deem and Ramdas Pophale) SiO2 
 PCOD8197321
Probable space group: P M M M
;
_chemical_formula_sum "Si O2"
_cell_formula_units_Z 44
_cell_length_a 9.217174
_cell_length_b 16.674799
_cell_length_c 15.542452
_cell_angle_alpha 90.000000
_cell_angle_beta 90.000000
_cell_angle_gamma 90.000000
_cell_volume 2388.789759
_symmetry_space_group_name_H-M "P M M M"
_symmetry_group_IT_number 47
_symmetry_cell_setting 'orthorhombic'
loop_
_space_group_symop_operation_xyz
x,y,z
-x,-y,z
x,-y,-z
-x,y,-z
-x,-y,-z
x,y,-z
-x,y,z
x,-y,z
loop_
_atom_site_type_symbol
_atom_site_label
_atom_site_fract_x
_atom_site_fract_y
_atom_site_fract_z
Si Si1 0.832080 0.877438 0.193650
Si Si2 0.664288 0.086533 0.358060
Si Si3 0.830560 0.302398 0.235649
Si Si4 0.666021 0.594557 0.902881
Si Si5 0.343011 0.000000 0.901724
Si Si6 0.668092 0.261396 0.594560
O O1 0.776617 0.917691 0.280543
O O2 0.800099 0.783088 0.192359
O O3 0.000000 0.896606 0.183160
O O4 0.746187 0.919140 0.116898
O O5 0.500000 0.095015 0.322935
O O6 0.700321 0.165549 0.413563
O O7 0.680127 0.000000 0.407869
O O8 0.764970 0.366965 0.170688
O O9 0.759904 0.305204 0.331028
O O10 0.000000 0.319903 0.247616
O O11 0.500000 0.621154 0.888014
O O12 0.681878 0.500000 0.892919
O O13 0.714861 0.619947 0.000000
O O14 0.500000 0.000000 0.853149
O O15 0.377016 0.000000 0.000000
O O16 0.708500 0.296858 0.500000
O O17 0.500000 0.277276 0.615509
#
# Coordination Sequence:
#
# PCOD8197321 Si02
#       6
#     8   8   8   8   4   8
#     4  10  20  33  48  67  95 132 173 214 257 311
#     4   9  16  27  46  69  94 127 169 219 269 314
#     4  10  21  35  54  81 111 145 179 215 266 323
#     4   9  19  37  61  88 115 141 171 211 261 318
#     4  11  23  35  47  65  90 125 172 223 271 314
#     4   9  18  32  50  74 105 143 186 228 270 317
#
# _framework density 18.419371000000002
#
# number of rings (size 3 to 8) (size 9 to 14) (size 15 to 20)
#    0.000    2.455    0.909    1.909    0.000    5.091 
#    0.000    6.364    0.000    0.545    0.000    8.909 
#    0.000    0.000    0.000    0.000    0.000    0.000 
#
# Total GULP energy -545194.546165 kJ/mol
# GULP energy per Si atom -12390.785140 kJ/mol
# Density = 1.837745 g / cm^3
# Si number density = 18.419371 Si / 1000 Ang^3
#
#
#
# Elastic Constant Matrix: (Units=GPa)
#
#
# Indices 1 2 3 4 5 6 
#
# 1 107.4112 37.7956 63.2101 0.0000 0.0000 0.0000
# 2 37.7956 53.3195 43.3428 0.0000 0.0000 0.0000
# 3 63.2101 43.3428 124.1100 0.0000 0.0000 0.0000
# 4 0.0000 0.0000 0.0000 -22.3249 0.0000 0.0000
# 5 0.0000 0.0000 0.0000 0.0000 -8.1752 0.0000
# 6 0.0000 0.0000 0.0000 0.0000 0.0000 15.3463
#
#
#
# Elastic Compliance Matrix: (Units=1/GPa)
#
#
# Indices 1 2 3 4 5 6 
#
# 1 0.014546 -0.005989 -0.005317 0.000000 0.000000 0.000000
# 2 -0.005989 0.028656 -0.006957 0.000000 0.000000 0.000000
# 3 -0.005317 -0.006957 0.013195 0.000000 0.000000 0.000000
# 4 0.000000 0.000000 0.000000 -0.044793 0.000000 0.000000
# 5 0.000000 0.000000 0.000000 0.000000 -0.122321 0.000000
# 6 0.000000 0.000000 0.000000 0.000000 0.000000 0.065162
#
#
# Mechanical properties :
#
#
# Convention : Reuss Voigt Hill
#
# Bulk Modulus (GPa) = 50.32568 63.72642 57.02605
# Shear Modulus (GPa) = -2079.25389 6.33539 -1036.45925
#
# Velocity S-wave (km/s) = -33.63468 1.85661 -23.74705
# Velocity P-wave (km/s) = 38.48386 6.26647 26.84901
#
# Compressibility (1/GPa) = 0.01987057
#
# Stress axis : x y z
#
# Youngs Moduli (GPa) = 68.74518 34.89727 75.78642
#
# Poissons Ratio (x) = 0.20900 0.40296
# Poissons Ratio (y) = 0.41172 0.52725
# Poissons Ratio (z) = 0.36552 0.24278
#
# Static dielectric constant tensor:
#      x y z
#    x 3.435980 0.000000 0.000000 
#    y 0.000000 3.351710 0.000000 
#    z 0.000000 0.000000 3.289230 
# 
# 
# High freq. dielectric constant tensor:
#      x y z
#    x 1.717110 0.000000 0.000000 
#    y 0.000000 1.694440 0.000000 
#    z 0.000000 0.000000 1.705160 
# 
# From -- ./inp_files/8966.got.cif
#   From: 2010.03.12/outbox.cif.g09.slc.cpg/sg47_5_cif.got.tgz:8966.got - 2010.04.14 03:12:58.
