data_PCOD8197274
_publ_section_title
;
Structure prediction by ZEFSAII (Michael W. Deem and Ramdas Pophale) SiO2 
 PCOD8197274
Probable space group: P M M M
;
_chemical_formula_sum "Si O2"
_cell_formula_units_Z 48
_cell_length_a 20.658113
_cell_length_b 19.777684
_cell_length_c 8.866057
_cell_angle_alpha 90.000000
_cell_angle_beta 90.000000
_cell_angle_gamma 90.000000
_cell_volume 3622.401636
_symmetry_space_group_name_H-M "P M M M"
_symmetry_group_IT_number 47
_symmetry_cell_setting 'orthorhombic'
loop_
_space_group_symop_operation_xyz
x,y,z
-x,-y,z
x,-y,-z
-x,y,-z
-x,-y,-z
x,y,-z
-x,y,z
x,-y,z
loop_
_atom_site_type_symbol
_atom_site_label
_atom_site_fract_x
_atom_site_fract_y
_atom_site_fract_z
Si Si1 0.759950 0.921086 0.823833
Si Si2 0.922996 0.717612 0.174723
Si Si3 0.500000 0.080726 0.170344
Si Si4 0.628369 0.080220 0.669333
Si Si5 0.072587 0.428522 0.821021
Si Si6 0.000000 0.079909 0.171366
Si Si7 0.120415 0.150194 0.677597
O O1 0.689550 0.896989 0.768515
O O2 0.811500 0.877852 0.732796
O O3 0.771194 0.000000 0.788785
O O4 0.766657 0.905839 0.000000
O O5 0.896691 0.643265 0.230746
O O6 0.885783 0.771771 0.275629
O O7 0.000000 0.723654 0.199711
O O8 0.905954 0.730291 0.000000
O O9 0.436609 0.109450 0.254559
O O10 0.500000 0.000000 0.171246
O O11 0.500000 0.108203 0.000000
O O12 0.634750 0.109304 0.500000
O O13 0.624077 0.000000 0.664764
O O14 0.107588 0.500000 0.769855
O O15 0.000000 0.431055 0.756941
O O16 0.069776 0.425785 0.000000
O O17 0.063744 0.106282 0.250995
O O18 0.000000 0.000000 0.178051
O O19 0.000000 0.106666 0.000000
O O20 0.115861 0.143438 0.500000
#
# Coordination Sequence:
#
# PCOD8197274 Si02
#       7
#     8   8   4   8   8   4   8
#     4  10  20  33  46  57  71  94 124 158 196 237
#     4   9  16  27  43  58  75  98 121 148 183 224
#     4   9  15  23  37  57  79 101 123 145 174 217
#     4   9  16  26  40  58  78  97 118 148 186 225
#     4   7  10  18  35  59  79  93 114 143 173 209
#     4  11  23  37  49  57  66  85 118 159 201 242
#     4  12  23  32  43  58  75  95 120 155 195 235
#
# _framework density 13.250878
#
# number of rings (size 3 to 8) (size 9 to 14) (size 15 to 20)
#    0.000    2.500    0.833    5.000    0.000    6.667 
#    0.000    0.000    0.000    0.500    0.000    2.333 
#    0.000    0.000    0.000    0.000    0.000    0.000 
#
# Total GULP energy -594791.844408 kJ/mol
# GULP energy per Si atom -12391.496758 kJ/mol
# Density = 1.322072 g / cm^3
# Si number density = 13.250878 Si / 1000 Ang^3
#
#
#
# Elastic Constant Matrix: (Units=GPa)
#
#
# Indices 1 2 3 4 5 6 
#
# 1 77.2749 34.6618 36.2700 0.0000 0.0000 0.0000
# 2 34.6618 74.6139 37.8651 0.0000 0.0000 0.0000
# 3 36.2700 37.8651 88.7816 0.0000 0.0000 0.0000
# 4 0.0000 0.0000 0.0000 5.0249 0.0000 0.0000
# 5 0.0000 0.0000 0.0000 0.0000 24.2217 0.0000
# 6 0.0000 0.0000 0.0000 0.0000 0.0000 0.0346
#
#
#
# Elastic Compliance Matrix: (Units=1/GPa)
#
#
# Indices 1 2 3 4 5 6 
#
# 1 0.017807 -0.005846 -0.004782 0.000000 0.000000 0.000000
# 2 -0.005846 0.019023 -0.005725 0.000000 0.000000 0.000000
# 3 -0.004782 -0.005725 0.015659 0.000000 0.000000 0.000000
# 4 0.000000 0.000000 0.000000 0.199009 0.000000 0.000000
# 5 0.000000 0.000000 0.000000 0.000000 0.041285 0.000000
# 6 0.000000 0.000000 0.000000 0.000000 0.000000 28.860589
#
#
# Mechanical properties :
#
#
# Convention : Reuss Voigt Hill
#
# Bulk Modulus (GPa) = 50.54527 50.91826 50.73176
# Shear Modulus (GPa) = 0.17128 14.64781 7.40954
#
# Velocity S-wave (km/s) = 0.35991 3.32840 2.36725
# Velocity P-wave (km/s) = 6.19680 7.29936 6.77056
#
# Compressibility (1/GPa) = 0.01978424
#
# Stress axis : x y z
#
# Youngs Moduli (GPa) = 56.15686 52.56677 63.86174
#
# Poissons Ratio (x) = 0.30729 0.30536
# Poissons Ratio (y) = 0.32828 0.36562
# Poissons Ratio (z) = 0.26852 0.30096
#
# Static dielectric constant tensor:
#      x y z
#    x 2.599920 0.000000 0.000000 
#    y 0.000000 2.777210 0.000000 
#    z 0.000000 0.000000 2.683280 
# 
# 
# High freq. dielectric constant tensor:
#      x y z
#    x 1.475030 0.000000 0.000000 
#    y 0.000000 1.477060 0.000000 
#    z 0.000000 0.000000 1.507860 
# 
# From -- ./inp_files/11433.got.cif
#   From: 2010.03.12/outbox.cif.g09.slc.cpg/sg47_6_cif.got.tgz:11433.got - 2010.04.14 03:12:58.
