data_PCOD8197958
_publ_section_title
;
Structure prediction by ZEFSAII (Michael W. Deem and Ramdas Pophale) SiO2 
 PCOD8197958
Probable space group: P M M M
;
_chemical_formula_sum "Si O2"
_cell_formula_units_Z 44
_cell_length_a 15.071294
_cell_length_b 9.146845
_cell_length_c 17.725771
_cell_angle_alpha 90.000000
_cell_angle_beta 90.000000
_cell_angle_gamma 90.000000
_cell_volume 2443.582442
_symmetry_space_group_name_H-M "P M M M"
_symmetry_group_IT_number 47
_symmetry_cell_setting 'orthorhombic'
loop_
_space_group_symop_operation_xyz
x,y,z
-x,-y,z
x,-y,-z
-x,y,-z
-x,-y,-z
x,y,-z
-x,y,z
x,-y,z
loop_
_atom_site_type_symbol
_atom_site_label
_atom_site_fract_x
_atom_site_fract_y
_atom_site_fract_z
Si Si1 0.649711 0.332903 0.415406
Si Si2 0.000000 0.839783 0.586737
Si Si3 0.779877 0.173449 0.203547
Si Si4 0.160053 0.667978 0.651124
Si Si5 0.899583 0.331214 0.911608
Si Si6 0.597232 0.831071 0.270398
O O1 0.629270 0.273057 0.500000
O O2 0.618780 0.500000 0.409511
O O3 0.753762 0.318329 0.400394
O O4 0.597152 0.245176 0.351858
O O5 0.916038 0.742451 0.604465
O O6 0.000000 0.873449 0.500000
O O7 0.000000 0.000000 0.627982
O O8 0.833817 0.243485 0.271531
O O9 0.822962 0.235196 0.127299
O O10 0.675663 0.221498 0.213555
O O11 0.790218 0.000000 0.203693
O O12 0.137696 0.500000 0.670099
O O13 0.884074 0.500000 0.890690
O O14 0.000000 0.284953 0.886986
O O15 0.888374 0.305324 0.000000
O O16 0.500000 0.802157 0.233141
O O17 0.612548 0.000000 0.287693
#
# Coordination Sequence:
#
# PCOD8197958 Si02
#       6
#     8   4   8   8   8   8
#     4   9  18  32  49  70  96 126 166 217 267 312
#     4  11  23  35  47  67  96 129 170 221 267 303
#     4  10  20  34  54  79 106 135 170 215 258 299
#     4  10  20  34  51  69  94 133 175 212 255 311
#     4   9  19  36  57  81 110 142 172 202 244 303
#     4   9  19  35  52  72 100 135 174 213 259 313
#
# _framework density 18.006350000000001
#
# number of rings (size 3 to 8) (size 9 to 14) (size 15 to 20)
#    0.000    2.455    0.000    2.455    1.273    4.727 
#    0.000    2.727    0.000    0.545    0.000    3.818 
#    0.000    0.000    0.000    0.000    0.000    0.000 
#
# Total GULP energy -545368.697931 kJ/mol
# GULP energy per Si atom -12394.743135 kJ/mol
# Density = 1.796537 g / cm^3
# Si number density = 18.006350 Si / 1000 Ang^3
#
#
#
# Elastic Constant Matrix: (Units=GPa)
#
#
# Indices 1 2 3 4 5 6 
#
# 1 114.0129 52.1313 47.2101 0.0000 0.0000 0.0000
# 2 52.1313 80.9279 39.4453 0.0000 0.0000 0.0000
# 3 47.2101 39.4453 74.9503 0.0000 0.0000 0.0000
# 4 0.0000 0.0000 0.0000 27.7460 0.0000 0.0000
# 5 0.0000 0.0000 0.0000 0.0000 24.4051 0.0000
# 6 0.0000 0.0000 0.0000 0.0000 0.0000 24.8623
#
#
#
# Elastic Compliance Matrix: (Units=1/GPa)
#
#
# Indices 1 2 3 4 5 6 
#
# 1 0.013908 -0.006307 -0.005441 0.000000 0.000000 0.000000
# 2 -0.006307 0.019480 -0.006279 0.000000 0.000000 0.000000
# 3 -0.005441 -0.006279 0.020074 0.000000 0.000000 0.000000
# 4 0.000000 0.000000 0.000000 0.036041 0.000000 0.000000
# 5 0.000000 0.000000 0.000000 0.000000 0.040975 0.000000
# 6 0.000000 0.000000 0.000000 0.000000 0.000000 0.040222
#
#
# Mechanical properties :
#
#
# Convention : Reuss Voigt Hill
#
# Bulk Modulus (GPa) = 57.44753 60.82940 59.13847
# Shear Modulus (GPa) = 23.52310 24.14297 23.83304
#
# Velocity S-wave (km/s) = 3.61831 3.66567 3.64207
# Velocity P-wave (km/s) = 7.03061 7.19526 7.11341
#
# Compressibility (1/GPa) = 0.01740719
#
# Stress axis : x y z
#
# Youngs Moduli (GPa) = 71.90256 51.33441 49.81514
#
# Poissons Ratio (x) = 0.32376 0.27105
# Poissons Ratio (y) = 0.45348 0.31281
# Poissons Ratio (z) = 0.39122 0.32235
#
# Static dielectric constant tensor:
#      x y z
#    x 3.445980 0.000000 0.000000 
#    y 0.000000 3.412340 0.000000 
#    z 0.000000 0.000000 3.140290 
# 
# 
# High freq. dielectric constant tensor:
#      x y z
#    x 1.703110 0.000000 0.000000 
#    y 0.000000 1.702590 0.000000 
#    z 0.000000 0.000000 1.674330 
# 
# From -- ./inp_files/6089.got.cif
#   From: 2010.03.12/outbox.cif.g09.slc.cpg/sg47_4_cif.got.tgz:6089.got - 2010.04.14 03:12:58.
