data_PCOD8197377
_publ_section_title
;
Structure prediction by ZEFSAII (Michael W. Deem and Ramdas Pophale) SiO2 
 PCOD8197377
Probable space group: P M M M
;
_chemical_formula_sum "Si O2"
_cell_formula_units_Z 36
_cell_length_a 9.111187
_cell_length_b 23.425172
_cell_length_c 8.984245
_cell_angle_alpha 90.000000
_cell_angle_beta 90.000000
_cell_angle_gamma 90.000000
_cell_volume 1917.517496
_symmetry_space_group_name_H-M "P M M M"
_symmetry_group_IT_number 47
_symmetry_cell_setting 'orthorhombic'
loop_
_space_group_symop_operation_xyz
x,y,z
-x,-y,z
x,-y,-z
-x,y,-z
-x,-y,-z
x,y,-z
-x,y,z
x,-y,z
loop_
_atom_site_type_symbol
_atom_site_label
_atom_site_fract_x
_atom_site_fract_y
_atom_site_fract_z
Si Si1 0.834177 0.000000 0.676966
Si Si2 0.669953 0.887488 0.675342
Si Si3 0.664521 0.671273 0.177327
Si Si4 0.835056 0.437116 0.822969
Si Si5 0.832407 0.783032 0.176463
O O1 0.750359 0.944111 0.736046
O O2 0.833906 0.000000 0.500000
O O3 0.000000 0.000000 0.739628
O O4 0.691999 0.880682 0.500000
O O5 0.500000 0.891994 0.718732
O O6 0.739741 0.833677 0.754675
O O7 0.500000 0.678713 0.239604
O O8 0.730287 0.612172 0.242445
O O9 0.763550 0.723677 0.233758
O O10 0.663693 0.669493 0.000000
O O11 0.779328 0.500000 0.771519
O O12 0.000000 0.426704 0.764037
O O13 0.835272 0.434042 0.000000
O O14 0.000000 0.786317 0.231937
O O15 0.822726 0.787518 0.000000
#
# Coordination Sequence:
#
# PCOD8197377 Si02
#       5
#     4   8   8   8   8
#     4   9  17  31  52  75  98 125 156 190 230 277
#     4  10  20  34  53  76 100 125 155 193 236 280
#     4   9  16  25  38  57  83 116 152 190 233 280
#     4   8  13  21  33  50  75 109 148 188 229 274
#     4  10  20  33  49  69  95 128 163 197 235 281
#
# _framework density 18.774274999999999
#
# number of rings (size 3 to 8) (size 9 to 14) (size 15 to 20)
#    0.000    2.778    0.000    3.000    0.000    7.111 
#    0.000    2.778    0.000    3.333    0.000    0.000 
#    0.000    0.889    0.000    9.333    0.000   12.889 
#
# Total GULP energy -446314.622067 kJ/mol
# GULP energy per Si atom -12397.628391 kJ/mol
# Density = 1.873154 g / cm^3
# Si number density = 18.774275 Si / 1000 Ang^3
#
#
#
# Elastic Constant Matrix: (Units=GPa)
#
#
# Indices 1 2 3 4 5 6 
#
# 1 139.4591 79.5382 17.2758 0.0000 0.0000 0.0000
# 2 79.5382 175.1310 17.4404 0.0000 0.0000 0.0000
# 3 17.2758 17.4404 7.6476 0.0000 0.0000 0.0000
# 4 0.0000 0.0000 0.0000 -59.3941 0.0000 0.0000
# 5 0.0000 0.0000 0.0000 0.0000 16.9946 0.0000
# 6 0.0000 0.0000 0.0000 0.0000 0.0000 39.2787
#
#
#
# Elastic Compliance Matrix: (Units=1/GPa)
#
#
# Indices 1 2 3 4 5 6 
#
# 1 0.011296 -0.003350 -0.017878 0.000000 0.000000 0.000000
# 2 -0.003350 0.008381 -0.011546 0.000000 0.000000 0.000000
# 3 -0.017878 -0.011546 0.197477 0.000000 0.000000 0.000000
# 4 0.000000 0.000000 0.000000 -0.016837 0.000000 0.000000
# 5 0.000000 0.000000 0.000000 0.000000 0.058842 0.000000
# 6 0.000000 0.000000 0.000000 0.000000 0.000000 0.025459
#
#
# Mechanical properties :
#
#
# Convention : Reuss Voigt Hill
#
# Bulk Modulus (GPa) = 6.59603 61.19406 33.89505
# Shear Modulus (GPa) = 12.47812 13.24137 12.85974
#
# Velocity S-wave (km/s) = 2.58086 2.65862 2.62003
# Velocity P-wave (km/s) = 3.52165 6.48766 5.21976
#
# Compressibility (1/GPa) = 0.15160635
#
# Stress axis : x y z
#
# Youngs Moduli (GPa) = 88.52952 119.31475 5.06388
#
# Poissons Ratio (x) = 0.39967 0.09053
# Poissons Ratio (y) = 0.29655 0.05847
# Poissons Ratio (z) = 1.58270 1.37765
#
# Static dielectric constant tensor:
#      x y z
#    x 3.721020 0.000000 0.000000 
#    y 0.000000 3.773060 0.000000 
#    z 0.000000 0.000000 2.783750 
# 
# 
# High freq. dielectric constant tensor:
#      x y z
#    x 1.743430 0.000000 0.000000 
#    y 0.000000 1.750780 0.000000 
#    z 0.000000 0.000000 1.654410 
# 
# From -- ./inp_files/1355.got.cif
#   From: 2010.03.12/outbox.cif.g09.slc.cpg/sg47_1_cif.got.tgz:1355.got - 2010.04.14 03:12:58.
