data_PCOD8197174
_publ_section_title
;
Structure prediction by ZEFSAII (Michael W. Deem and Ramdas Pophale) SiO2 
 PCOD8197174
Probable space group: P M M M
;
_chemical_formula_sum "Si O2"
_cell_formula_units_Z 52
_cell_length_a 14.305750
_cell_length_b 22.671479
_cell_length_c 9.168464
_cell_angle_alpha 90.000000
_cell_angle_beta 90.000000
_cell_angle_gamma 90.000000
_cell_volume 2973.630948
_symmetry_space_group_name_H-M "P M M M"
_symmetry_group_IT_number 47
_symmetry_cell_setting 'orthorhombic'
loop_
_space_group_symop_operation_xyz
x,y,z
-x,-y,z
x,-y,-z
-x,y,-z
-x,-y,-z
x,y,-z
-x,y,z
x,-y,z
loop_
_atom_site_type_symbol
_atom_site_label
_atom_site_fract_x
_atom_site_fract_y
_atom_site_fract_z
Si Si1 0.392892 0.277312 0.831369
Si Si2 0.389632 0.162900 0.336743
Si Si3 0.389940 0.500000 0.328918
Si Si4 0.719474 0.931317 0.830233
Si Si5 0.897773 0.069986 0.663088
Si Si6 0.106229 0.430871 0.667910
Si Si7 0.284069 0.604402 0.828543
O O1 0.500000 0.292559 0.788568
O O2 0.352779 0.222042 0.741150
O O3 0.327867 0.332361 0.793511
O O4 0.386393 0.260036 0.000000
O O5 0.348598 0.160918 0.500000
O O6 0.500000 0.163818 0.337989
O O7 0.360739 0.104366 0.250920
O O8 0.500000 0.500000 0.299435
O O9 0.366051 0.500000 0.500000
O O10 0.346025 0.442607 0.256603
O O11 0.819901 0.907185 0.775299
O O12 0.705669 0.000000 0.792430
O O13 0.712199 0.918985 0.000000
O O14 0.873292 0.092125 0.500000
O O15 0.000000 0.094359 0.710430
O O16 0.900529 0.000000 0.665292
O O17 0.123530 0.413405 0.500000
O O18 0.124692 0.500000 0.689953
O O19 0.177476 0.395478 0.771033
O O20 0.000000 0.414900 0.713402
O O21 0.285711 0.589933 0.000000
#
# Coordination Sequence:
#
# PCOD8197174 Si02
#       7
#     8   8   4   8   8   8   8
#     4   9  19  36  55  74 100 134 168 205 254 312
#     4  10  21  36  54  75  98 129 172 217 257 301
#     4  11  23  35  48  71 106 143 173 206 250 299
#     4  10  20  32  49  75 105 136 168 205 254 309
#     4   8  14  26  45  69  98 131 164 199 241 290
#     4   9  18  33  52  74 104 141 177 213 255 305
#     4  11  21  33  53  80 106 134 169 212 260 305
#
# _framework density 17.487037999999998
#
# number of rings (size 3 to 8) (size 9 to 14) (size 15 to 20)
#    0.000    2.385    0.769    3.000    0.000    5.231 
#    0.000    5.385    0.000    0.923    0.000    4.308 
#    0.000    0.000    0.000    0.000    0.000    0.000 
#
# Total GULP energy -644766.236239 kJ/mol
# GULP energy per Si atom -12399.350697 kJ/mol
# Density = 1.744724 g / cm^3
# Si number density = 17.487038 Si / 1000 Ang^3
#
#
#
# Elastic Constant Matrix: (Units=GPa)
#
#
# Indices 1 2 3 4 5 6 
#
# 1 83.3589 48.1936 52.6164 0.0000 0.0000 0.0000
# 2 48.1936 87.1520 65.5820 0.0000 0.0000 0.0000
# 3 52.6164 65.5820 112.4482 0.0000 0.0000 0.0000
# 4 0.0000 0.0000 0.0000 23.5549 0.0000 0.0000
# 5 0.0000 0.0000 0.0000 0.0000 32.5062 0.0000
# 6 0.0000 0.0000 0.0000 0.0000 0.0000 12.9714
#
#
#
# Elastic Compliance Matrix: (Units=1/GPa)
#
#
# Indices 1 2 3 4 5 6 
#
# 1 0.019058 -0.006822 -0.004939 0.000000 0.000000 0.000000
# 2 -0.006822 0.022891 -0.010158 0.000000 0.000000 0.000000
# 3 -0.004939 -0.010158 0.017128 0.000000 0.000000 0.000000
# 4 0.000000 0.000000 0.000000 0.042454 0.000000 0.000000
# 5 0.000000 0.000000 0.000000 0.000000 0.030763 0.000000
# 6 0.000000 0.000000 0.000000 0.000000 0.000000 0.077093
#
#
# Mechanical properties :
#
#
# Convention : Reuss Voigt Hill
#
# Bulk Modulus (GPa) = 65.62165 68.41590 67.01877
# Shear Modulus (GPa) = 19.35696 21.57762 20.46729
#
# Velocity S-wave (km/s) = 3.33067 3.51653 3.42486
# Velocity P-wave (km/s) = 7.23868 7.46302 7.35171
#
# Compressibility (1/GPa) = 0.01523887
#
# Stress axis : x y z
#
# Youngs Moduli (GPa) = 52.47161 43.68547 58.38328
#
# Poissons Ratio (x) = 0.29804 0.28833
# Poissons Ratio (y) = 0.35799 0.59306
# Poissons Ratio (z) = 0.25913 0.44376
#
# Static dielectric constant tensor:
#      x y z
#    x 3.434600 0.000000 0.000000 
#    y 0.000000 3.039530 0.000000 
#    z 0.000000 0.000000 3.401580 
# 
# 
# High freq. dielectric constant tensor:
#      x y z
#    x 1.678960 0.000000 0.000000 
#    y 0.000000 1.647380 0.000000 
#    z 0.000000 0.000000 1.684220 
# 
# From -- ./inp_files/7076.got.cif
#   From: 2010.03.12/outbox.cif.g09.slc.cpg/sg47_4_cif.got.tgz:7076.got - 2010.04.14 03:12:58.
