data_PCOD8197928
_publ_section_title
;
Structure prediction by ZEFSAII (Michael W. Deem and Ramdas Pophale) SiO2 
 PCOD8197928
Probable space group: P M M M
;
_chemical_formula_sum "Si O2"
_cell_formula_units_Z 40
_cell_length_a 9.107024
_cell_length_b 16.560928
_cell_length_c 13.312331
_cell_angle_alpha 90.000000
_cell_angle_beta 90.000000
_cell_angle_gamma 90.000000
_cell_volume 2007.775995
_symmetry_space_group_name_H-M "P M M M"
_symmetry_group_IT_number 47
_symmetry_cell_setting 'orthorhombic'
loop_
_space_group_symop_operation_xyz
x,y,z
-x,-y,z
x,-y,-z
-x,y,-z
-x,-y,-z
x,y,-z
-x,y,z
x,-y,z
loop_
_atom_site_type_symbol
_atom_site_label
_atom_site_fract_x
_atom_site_fract_y
_atom_site_fract_z
Si Si1 0.340106 0.840713 0.387648
Si Si2 0.825961 0.409899 0.809082
Si Si3 0.664436 0.858707 0.000000
Si Si4 0.665720 0.000000 0.847974
Si Si5 0.174472 0.691582 0.000000
Si Si6 0.171408 0.000000 0.653597
Si Si7 0.827724 0.686297 0.615724
O O1 0.371249 0.813607 0.500000
O O2 0.500000 0.852542 0.333337
O O3 0.246080 0.921547 0.392216
O O4 0.248680 0.767176 0.340493
O O5 0.761985 0.500000 0.824033
O O6 0.779525 0.381374 0.696626
O O7 0.000000 0.411486 0.816630
O O8 0.765197 0.353238 0.899403
O O9 0.689872 0.916775 0.094178
O O10 0.500000 0.823439 0.000000
O O11 0.774835 0.784267 0.000000
O O12 0.500000 0.000000 0.802686
O O13 0.798411 0.000000 0.770969
O O14 0.000000 0.691952 0.000000
O O15 0.000000 0.000000 0.628187
O O16 0.783669 0.662531 0.500000
O O17 0.000000 0.702714 0.620243
#
# Coordination Sequence:
#
# PCOD8197928 Si02
#       7
#     8   8   4   4   4   4   8
#     4  10  21  37  55  76 107 148 190 228 274 334
#     4   9  18  33  54  81 112 145 182 227 282 337
#     4   9  20  39  59  78 106 144 184 229 276 325
#     4   9  20  39  57  77 108 146 185 224 273 331
#     4  10  20  33  55  83 112 144 185 230 275 333
#     4  12  24  34  53  82 112 143 182 231 278 324
#     4   9  18  33  54  81 111 142 184 236 281 327
#
# _framework density 19.922540999999999
#
# number of rings (size 3 to 8) (size 9 to 14) (size 15 to 20)
#    0.000    2.400    0.000    2.700    2.800    4.800 
#    0.000    3.000    0.000    3.000    0.000    2.800 
#    0.000    0.000    0.000    0.000    0.000    0.000 
#
# Total GULP energy -495575.344775 kJ/mol
# GULP energy per Si atom -12389.383619 kJ/mol
# Density = 1.987720 g / cm^3
# Si number density = 19.922541 Si / 1000 Ang^3
#
#
#
# Elastic Constant Matrix: (Units=GPa)
#
#
# Indices 1 2 3 4 5 6 
#
# 1 66.7400 35.5270 24.3487 0.0000 0.0000 0.0000
# 2 35.5270 152.7543 53.2360 0.0000 0.0000 0.0000
# 3 24.3487 53.2360 111.5999 0.0000 0.0000 0.0000
# 4 0.0000 0.0000 0.0000 28.4681 0.0000 0.0000
# 5 0.0000 0.0000 0.0000 0.0000 15.9048 0.0000
# 6 0.0000 0.0000 0.0000 0.0000 0.0000 6.9683
#
#
#
# Elastic Compliance Matrix: (Units=1/GPa)
#
#
# Indices 1 2 3 4 5 6 
#
# 1 0.017563 -0.003297 -0.002259 0.000000 0.000000 0.000000
# 2 -0.003297 0.008471 -0.003321 0.000000 0.000000 0.000000
# 3 -0.002259 -0.003321 0.011038 0.000000 0.000000 0.000000
# 4 0.000000 0.000000 0.000000 0.035127 0.000000 0.000000
# 5 0.000000 0.000000 0.000000 0.000000 0.062874 0.000000
# 6 0.000000 0.000000 0.000000 0.000000 0.000000 0.143507
#
#
# Mechanical properties :
#
#
# Convention : Reuss Voigt Hill
#
# Bulk Modulus (GPa) = 51.77017 61.92417 56.84717
# Shear Modulus (GPa) = 16.51397 24.80042 20.65719
#
# Velocity S-wave (km/s) = 2.88220 3.53206 3.22355
# Velocity P-wave (km/s) = 6.09247 6.91259 6.51545
#
# Compressibility (1/GPa) = 0.01931614
#
# Stress axis : x y z
#
# Youngs Moduli (GPa) = 56.93815 118.05107 90.59772
#
# Poissons Ratio (x) = 0.38927 0.20465
# Poissons Ratio (y) = 0.18775 0.30091
# Poissons Ratio (z) = 0.12862 0.39209
#
# Static dielectric constant tensor:
#      x y z
#    x 3.557990 0.000000 0.000000 
#    y 0.000000 3.659960 0.000000 
#    z 0.000000 0.000000 3.783640 
# 
# 
# High freq. dielectric constant tensor:
#      x y z
#    x 1.748620 0.000000 0.000000 
#    y 0.000000 1.779420 0.000000 
#    z 0.000000 0.000000 1.781110 
# 
# From -- ./inp_files/20737.got.cif
#   From: 2010.03.12/outbox.cif.g09.slc.cpg/sg47_11_cif.got.tgz:20737.got - 2010.04.14 03:12:58.
