data_PCOD8197185
_publ_section_title
;
Structure prediction by ZEFSAII (Michael W. Deem and Ramdas Pophale) SiO2 
 PCOD8197185
Probable space group: P M M M
;
_chemical_formula_sum "Si O2"
_cell_formula_units_Z 48
_cell_length_a 9.317897
_cell_length_b 9.093641
_cell_length_c 31.423096
_cell_angle_alpha 90.000000
_cell_angle_beta 90.000000
_cell_angle_gamma 90.000000
_cell_volume 2662.592368
_symmetry_space_group_name_H-M "P M M M"
_symmetry_group_IT_number 47
_symmetry_cell_setting 'orthorhombic'
loop_
_space_group_symop_operation_xyz
x,y,z
-x,-y,z
x,-y,-z
-x,y,-z
-x,-y,-z
x,y,-z
-x,y,z
x,-y,z
loop_
_atom_site_type_symbol
_atom_site_label
_atom_site_fract_x
_atom_site_fract_y
_atom_site_fract_z
Si Si1 0.670300 0.167729 0.871187
Si Si2 0.669832 0.670897 0.637056
Si Si3 0.166143 0.828910 0.711179
Si Si4 0.669098 0.330224 0.544865
Si Si5 0.834191 0.327686 0.797091
Si Si6 0.329559 0.335070 0.953162
O O1 0.500000 0.183622 0.867732
O O2 0.739683 0.266112 0.835040
O O3 0.727575 0.225028 0.916924
O O4 0.720114 0.000000 0.865912
O O5 0.500000 0.689872 0.641494
O O6 0.712224 0.500000 0.643152
O O7 0.745229 0.770720 0.671575
O O8 0.724476 0.731407 0.590404
O O9 0.218542 0.746543 0.753520
O O10 0.000000 0.796128 0.702345
O O11 0.197330 0.000000 0.717557
O O12 0.729839 0.258648 0.500000
O O13 0.500000 0.310639 0.544680
O O14 0.710565 0.500000 0.544118
O O15 0.807421 0.500000 0.793018
O O16 0.000000 0.289804 0.806025
O O17 0.500000 0.335120 0.953085
O O18 0.273456 0.500000 0.943480
O O19 0.274591 0.283885 0.000000
#
# Coordination Sequence:
#
# PCOD8197185 Si02
#       6
#     8   8   8   8   8   8
#     4  10  20  32  49  76 106 133 161 195 238 286
#     4   9  17  29  48  75 101 124 155 196 240 283
#     4  10  21  36  52  69  92 125 162 197 237 287
#     4   7  10  19  38  65  95 123 151 187 231 276
#     4  10  21  37  56  74  92 121 162 203 244 290
#     4   8  14  26  45  69  98 132 167 201 237 277
#
# _framework density 18.027543000000001
#
# number of rings (size 3 to 8) (size 9 to 14) (size 15 to 20)
#    0.000    3.000    0.000    3.500    0.000    4.333 
#    0.000    1.667    0.000    1.500    0.000    9.333 
#    0.000    0.000    0.000    0.000    0.000    0.000 
#
# Total GULP energy -594707.189212 kJ/mol
# GULP energy per Si atom -12389.733109 kJ/mol
# Density = 1.798651 g / cm^3
# Si number density = 18.027543 Si / 1000 Ang^3
#
#
#
# Elastic Constant Matrix: (Units=GPa)
#
#
# Indices 1 2 3 4 5 6 
#
# 1 26.2992 25.8221 39.0690 0.0000 0.0000 0.0000
# 2 25.8221 81.8940 64.3743 0.0000 0.0000 0.0000
# 3 39.0690 64.3743 177.9879 0.0000 0.0000 0.0000
# 4 0.0000 0.0000 0.0000 2.3687 0.0000 0.0000
# 5 0.0000 0.0000 0.0000 0.0000 -24.2301 0.0000
# 6 0.0000 0.0000 0.0000 0.0000 0.0000 22.1646
#
#
#
# Elastic Compliance Matrix: (Units=1/GPa)
#
#
# Indices 1 2 3 4 5 6 
#
# 1 0.064972 -0.012961 -0.009574 0.000000 0.000000 0.000000
# 2 -0.012961 0.019647 -0.004261 0.000000 0.000000 0.000000
# 3 -0.009574 -0.004261 0.009261 0.000000 0.000000 0.000000
# 4 0.000000 0.000000 0.000000 0.422165 0.000000 0.000000
# 5 0.000000 0.000000 0.000000 0.000000 -0.041271 0.000000
# 6 0.000000 0.000000 0.000000 0.000000 0.000000 0.045117
#
#
# Mechanical properties :
#
#
# Convention : Reuss Voigt Hill
#
# Bulk Modulus (GPa) = 24.82066 60.52353 42.67209
# Shear Modulus (GPa) = 8.51916 10.52169 9.52043
#
# Velocity S-wave (km/s) = 2.17621 2.41850 2.30055
# Velocity P-wave (km/s) = 4.48471 6.43774 5.54784
#
# Compressibility (1/GPa) = 0.04028902
#
# Stress axis : x y z
#
# Youngs Moduli (GPa) = 15.39115 50.89856 107.97955
#
# Poissons Ratio (x) = 0.65967 1.03381
# Poissons Ratio (y) = 0.19948 0.46010
# Poissons Ratio (z) = 0.14736 0.21688
#
# Static dielectric constant tensor:
#      x y z
#    x 2.911370 0.000000 0.000000 
#    y 0.000000 3.249070 0.000000 
#    z 0.000000 0.000000 3.896940 
# 
# 
# High freq. dielectric constant tensor:
#      x y z
#    x 1.650260 0.000000 0.000000 
#    y 0.000000 1.682060 0.000000 
#    z 0.000000 0.000000 1.726590 
# 
# From -- ./inp_files/2471.got.cif
#   From: 2010.03.12/outbox.cif.g09.slc.cpg/sg47_2_cif.got.tgz:2471.got - 2010.04.14 03:12:58.
