data_PCOD8197574
_publ_section_title
;
Structure prediction by ZEFSAII (Michael W. Deem and Ramdas Pophale) SiO2 
 PCOD8197574
Probable space group: P M M M
;
_chemical_formula_sum "Si O2"
_cell_formula_units_Z 40
_cell_length_a 25.695761
_cell_length_b 9.680178
_cell_length_c 9.084496
_cell_angle_alpha 90.000000
_cell_angle_beta 90.000000
_cell_angle_gamma 90.000000
_cell_volume 2259.673359
_symmetry_space_group_name_H-M "P M M M"
_symmetry_group_IT_number 47
_symmetry_cell_setting 'orthorhombic'
loop_
_space_group_symop_operation_xyz
x,y,z
-x,-y,z
x,-y,-z
-x,y,-z
-x,-y,-z
x,y,-z
-x,y,z
x,-y,z
loop_
_atom_site_type_symbol
_atom_site_label
_atom_site_fract_x
_atom_site_fract_y
_atom_site_fract_z
Si Si1 0.000000 0.335672 0.166343
Si Si2 0.687927 0.161769 0.670007
Si Si3 0.897443 0.659286 0.326916
Si Si4 0.500000 0.335945 0.665848
Si Si5 0.195244 0.152480 0.325364
Si Si6 0.396990 0.659964 0.172535
O O1 0.948655 0.279933 0.248239
O O2 0.000000 0.500000 0.173173
O O3 0.000000 0.280282 0.000000
O O4 0.678744 0.202653 0.500000
O O5 0.746717 0.198219 0.720569
O O6 0.651444 0.251497 0.773391
O O7 0.676707 0.000000 0.693325
O O8 0.905077 0.680780 0.500000
O O9 0.888428 0.500000 0.286779
O O10 0.847374 0.740569 0.264272
O O11 0.500000 0.500000 0.667485
O O12 0.500000 0.277358 0.500000
O O13 0.448710 0.281924 0.748641
O O14 0.192862 0.147231 0.500000
O O15 0.182861 0.000000 0.261818
O O16 0.387050 0.500000 0.212752
O O17 0.404653 0.680332 0.000000
#
# Coordination Sequence:
#
# PCOD8197574 Si02
#       6
#     4   8   8   4   8   8
#     4   9  17  29  44  63  90 122 150 181 228 278
#     4   9  18  33  52  73  98 129 164 201 241 286
#     4   9  16  27  46  70  91 114 150 192 228 268
#     4   9  17  31  52  75  98 127 162 200 244 289
#     4   8  15  29  48  69  93 120 151 190 235 278
#     4  10  20  33  50  74 103 132 162 198 240 287
#
# _framework density 17.701674000000001
#
# number of rings (size 3 to 8) (size 9 to 14) (size 15 to 20)
#    0.000    3.000    0.000    2.400    0.000    4.800 
#    0.000    4.000    0.000   10.200    0.000    0.000 
#    0.000    0.000    0.000    0.000    0.000    0.000 
#
# Total GULP energy -495921.937119 kJ/mol
# GULP energy per Si atom -12398.048428 kJ/mol
# Density = 1.766138 g / cm^3
# Si number density = 17.701674 Si / 1000 Ang^3
#
#
#
# Elastic Constant Matrix: (Units=GPa)
#
#
# Indices 1 2 3 4 5 6 
#
# 1 172.5228 68.1862 58.5770 0.0000 0.0000 0.0000
# 2 68.1862 57.9273 34.4700 0.0000 0.0000 0.0000
# 3 58.5770 34.4700 71.3506 0.0000 0.0000 0.0000
# 4 0.0000 0.0000 0.0000 18.3836 0.0000 0.0000
# 5 0.0000 0.0000 0.0000 0.0000 8.7111 0.0000
# 6 0.0000 0.0000 0.0000 0.0000 0.0000 5.7532
#
#
#
# Elastic Compliance Matrix: (Units=1/GPa)
#
#
# Indices 1 2 3 4 5 6 
#
# 1 0.011643 -0.011252 -0.004123 0.000000 0.000000 0.000000
# 2 -0.011252 0.035102 -0.007720 0.000000 0.000000 0.000000
# 3 -0.004123 -0.007720 0.021130 0.000000 0.000000 0.000000
# 4 0.000000 0.000000 0.000000 0.054396 0.000000 0.000000
# 5 0.000000 0.000000 0.000000 0.000000 0.114796 0.000000
# 6 0.000000 0.000000 0.000000 0.000000 0.000000 0.173817
#
#
# Mechanical properties :
#
#
# Convention : Reuss Voigt Hill
#
# Bulk Modulus (GPa) = 46.11600 69.36299 57.73949
# Shear Modulus (GPa) = 10.76883 15.94073 13.35478
#
# Velocity S-wave (km/s) = 2.46915 3.00412 2.74968
# Velocity P-wave (km/s) = 5.85126 7.16258 6.53987
#
# Compressibility (1/GPa) = 0.02168445
#
# Stress axis : x y z
#
# Youngs Moduli (GPa) = 85.88616 28.48862 47.32626
#
# Poissons Ratio (x) = 0.32055 0.19512
# Poissons Ratio (y) = 0.96639 0.36537
# Poissons Ratio (z) = 0.35411 0.21994
#
# Static dielectric constant tensor:
#      x y z
#    x 3.546220 0.000000 0.000000 
#    y 0.000000 3.167280 0.000000 
#    z 0.000000 0.000000 3.095190 
# 
# 
# High freq. dielectric constant tensor:
#      x y z
#    x 1.698900 0.000000 0.000000 
#    y 0.000000 1.658190 0.000000 
#    z 0.000000 0.000000 1.665440 
# 
# From -- ./inp_files/1748.got.cif
#   From: 2010.03.12/outbox.cif.g09.slc.cpg/sg47_1_cif.got.tgz:1748.got - 2010.04.14 03:12:58.
