data_PCOD8197453
_publ_section_title
;
Structure prediction by ZEFSAII (Michael W. Deem and Ramdas Pophale) SiO2 
 PCOD8197453
Probable space group: P M M M
;
_chemical_formula_sum "Si O2"
_cell_formula_units_Z 48
_cell_length_a 15.970019
_cell_length_b 8.907257
_cell_length_c 18.600392
_cell_angle_alpha 90.000000
_cell_angle_beta 90.000000
_cell_angle_gamma 90.000000
_cell_volume 2645.888343
_symmetry_space_group_name_H-M "P M M M"
_symmetry_group_IT_number 47
_symmetry_cell_setting 'orthorhombic'
loop_
_space_group_symop_operation_xyz
x,y,z
-x,-y,z
x,-y,-z
-x,y,-z
-x,-y,-z
x,y,-z
-x,y,z
x,-y,z
loop_
_atom_site_type_symbol
_atom_site_label
_atom_site_fract_x
_atom_site_fract_y
_atom_site_fract_z
Si Si1 0.818004 0.678686 0.582140
Si Si2 0.656686 0.676836 0.161942
Si Si3 0.825688 0.675659 0.919888
Si Si4 0.000000 0.336571 0.584787
Si Si5 0.500000 0.821852 0.083704
Si Si6 0.091825 0.175121 0.795526
Si Si7 0.745394 0.822171 0.288048
O O1 0.796697 0.720474 0.500000
O O2 0.816408 0.500000 0.593211
O O3 0.746815 0.757867 0.630832
O O4 0.911338 0.744318 0.604015
O O5 0.640299 0.500000 0.169162
O O6 0.735840 0.716321 0.112969
O O7 0.579655 0.755273 0.123697
O O8 0.671373 0.746268 0.241574
O O9 0.840715 0.500000 0.920472
O O10 0.899135 0.748917 0.873327
O O11 0.829415 0.742555 0.000000
O O12 0.000000 0.500000 0.622283
O O13 0.000000 0.361429 0.500000
O O14 0.500000 0.000000 0.091123
O O15 0.500000 0.772551 0.000000
O O16 0.164832 0.231555 0.743200
O O17 0.000000 0.216994 0.763482
O O18 0.100712 0.000000 0.808031
O O19 0.732361 0.000000 0.288260
#
# Coordination Sequence:
#
# PCOD8197453 Si02
#       7
#     8   8   8   4   4   8   8
#     4   9  17  30  48  71  99 133 175 220 265 314
#     4  10  20  36  56  77 103 135 172 207 248 305
#     4   9  18  32  49  69  93 121 158 207 253 291
#     4   7  12  24  41  63  93 127 166 215 264 307
#     4  11  23  37  57  87 118 141 164 201 253 311
#     4   9  19  33  45  61  89 127 169 208 250 302
#     4  10  20  33  50  71 101 136 171 215 264 311
#
# _framework density 18.141354
#
# number of rings (size 3 to 8) (size 9 to 14) (size 15 to 20)
#    0.000    2.667    0.000    2.750    1.167    4.000 
#    0.000    1.667    0.000    1.500    0.000    0.583 
#    0.000    4.667    0.000    0.000    0.000    0.000 
#
# Total GULP energy -594918.526893 kJ/mol
# GULP energy per Si atom -12394.135977 kJ/mol
# Density = 1.810006 g / cm^3
# Si number density = 18.141354 Si / 1000 Ang^3
#
#
#
# Elastic Constant Matrix: (Units=GPa)
#
#
# Indices 1 2 3 4 5 6 
#
# 1 75.2511 33.8539 38.5514 0.0000 0.0000 0.0000
# 2 33.8539 54.5556 37.2148 0.0000 0.0000 0.0000
# 3 38.5514 37.2148 106.5394 0.0000 0.0000 0.0000
# 4 0.0000 0.0000 0.0000 28.5697 0.0000 0.0000
# 5 0.0000 0.0000 0.0000 0.0000 28.0142 0.0000
# 6 0.0000 0.0000 0.0000 0.0000 0.0000 25.7133
#
#
#
# Elastic Compliance Matrix: (Units=1/GPa)
#
#
# Indices 1 2 3 4 5 6 
#
# 1 0.019494 -0.009564 -0.003713 0.000000 0.000000 0.000000
# 2 -0.009564 0.028756 -0.006584 0.000000 0.000000 0.000000
# 3 -0.003713 -0.006584 0.013030 0.000000 0.000000 0.000000
# 4 0.000000 0.000000 0.000000 0.035002 0.000000 0.000000
# 5 0.000000 0.000000 0.000000 0.000000 0.035696 0.000000
# 6 0.000000 0.000000 0.000000 0.000000 0.000000 0.038890
#
#
# Mechanical properties :
#
#
# Convention : Reuss Voigt Hill
#
# Bulk Modulus (GPa) = 46.38756 50.62072 48.50414
# Shear Modulus (GPa) = 22.95947 24.90783 23.93365
#
# Velocity S-wave (km/s) = 3.56137 3.70940 3.63614
# Velocity P-wave (km/s) = 6.52202 6.80517 6.66510
#
# Compressibility (1/GPa) = 0.02155750
#
# Stress axis : x y z
#
# Youngs Moduli (GPa) = 51.29886 34.77564 76.74830
#
# Poissons Ratio (x) = 0.33258 0.28498
# Poissons Ratio (y) = 0.49061 0.50530
# Poissons Ratio (z) = 0.19048 0.22896
#
# Static dielectric constant tensor:
#      x y z
#    x 3.297690 0.000000 0.000000 
#    y 0.000000 3.198480 0.000000 
#    z 0.000000 0.000000 3.474770 
# 
# 
# High freq. dielectric constant tensor:
#      x y z
#    x 1.674390 0.000000 0.000000 
#    y 0.000000 1.695340 0.000000 
#    z 0.000000 0.000000 1.704210 
# 
# From -- ./inp_files/28017.got.cif
#   From: 2010.03.12/outbox.cif.g09.slc.cpg/sg47_15_cif.got.tgz:28017.got - 2010.04.14 03:12:58.
