data_PCOD8197130
_publ_section_title
;
Structure prediction by ZEFSAII (Michael W. Deem and Ramdas Pophale) SiO2 
 PCOD8197130
Probable space group: P M M M
;
_chemical_formula_sum "Si O2"
_cell_formula_units_Z 64
_cell_length_a 24.171300
_cell_length_b 9.100623
_cell_length_c 14.903278
_cell_angle_alpha 90.000000
_cell_angle_beta 90.000000
_cell_angle_gamma 90.000000
_cell_volume 3278.332016
_symmetry_space_group_name_H-M "P M M M"
_symmetry_group_IT_number 47
_symmetry_cell_setting 'orthorhombic'
loop_
_space_group_symop_operation_xyz
x,y,z
-x,-y,z
x,-y,-z
-x,y,-z
-x,-y,-z
x,y,-z
-x,y,z
x,-y,z
loop_
_atom_site_type_symbol
_atom_site_label
_atom_site_fract_x
_atom_site_fract_y
_atom_site_fract_z
Si Si1 0.387407 0.173017 0.602494
Si Si2 0.059905 0.329333 0.731935
Si Si3 0.821749 0.674043 0.267456
Si Si4 0.064293 0.159832 0.903383
Si Si5 0.724954 0.669581 0.602851
Si Si6 0.769836 0.826676 0.101806
Si Si7 0.356041 0.830321 0.895820
Si Si8 0.562769 0.330617 0.237294
O O1 0.402022 0.215746 0.500000
O O2 0.327096 0.231879 0.629522
O O3 0.431665 0.247200 0.667813
O O4 0.388224 0.000000 0.616853
O O5 0.050775 0.500000 0.720739
O O6 0.118226 0.281519 0.686206
O O7 0.074457 0.291415 0.834656
O O8 0.000000 0.255313 0.701243
O O9 0.820149 0.500000 0.251554
O O10 0.775826 0.726053 0.337638
O O11 0.812027 0.751022 0.171197
O O12 0.000000 0.140917 0.917780
O O13 0.087833 0.000000 0.869825
O O14 0.091890 0.198771 0.000000
O O15 0.742003 0.693368 0.500000
O O16 0.710391 0.500000 0.622238
O O17 0.706764 0.780977 0.125011
O O18 0.776156 0.000000 0.110468
O O19 0.783834 0.776786 0.000000
O O20 0.397028 0.732394 0.837973
O O21 0.364759 0.000000 0.869561
O O22 0.369822 0.805205 0.000000
O O23 0.500000 0.310503 0.203716
O O24 0.577653 0.500000 0.252937
#
# Coordination Sequence:
#
# PCOD8197130 Si02
#       8
#     8   8   8   8   8   8   8   8
#     4  10  21  37  58  83 109 137 171 213 261 314
#     4   9  18  31  44  60  88 126 163 199 241 290
#     4  10  20  32  49  74 100 129 167 208 251 302
#     4   8  14  25  40  57  78 107 147 193 234 274
#     4   9  18  34  56  80 105 131 161 204 260 317
#     4   9  19  35  53  75 103 133 166 207 257 308
#     4   9  19  37  59  80 104 138 180 225 271 315
#     4  11  24  38  53  78 112 148 184 220 258 304
#
# _framework density 19.522122
#
# number of rings (size 3 to 8) (size 9 to 14) (size 15 to 20)
#    0.000    2.625    0.000    2.625    0.000    7.000 
#    0.000    7.500    0.000    0.375    0.000    2.625 
#    0.000    0.000    0.000    7.375    0.000    7.750 
#
# Total GULP energy -792918.508884 kJ/mol
# GULP energy per Si atom -12389.351701 kJ/mol
# Density = 1.947769 g / cm^3
# Si number density = 19.522122 Si / 1000 Ang^3
#
#
#
# Elastic Constant Matrix: (Units=GPa)
#
#
# Indices 1 2 3 4 5 6 
#
# 1 118.8460 33.8078 33.1462 0.0000 0.0000 0.0000
# 2 33.8078 47.2671 18.7326 0.0000 0.0000 0.0000
# 3 33.1462 18.7326 51.7877 0.0000 0.0000 0.0000
# 4 0.0000 0.0000 0.0000 26.6458 0.0000 0.0000
# 5 0.0000 0.0000 0.0000 0.0000 9.5357 0.0000
# 6 0.0000 0.0000 0.0000 0.0000 0.0000 11.8141
#
#
#
# Elastic Compliance Matrix: (Units=1/GPa)
#
#
# Indices 1 2 3 4 5 6 
#
# 1 0.011645 -0.006275 -0.005184 0.000000 0.000000 0.000000
# 2 -0.006275 0.028078 -0.006140 0.000000 0.000000 0.000000
# 3 -0.005184 -0.006140 0.024848 0.000000 0.000000 0.000000
# 4 0.000000 0.000000 0.000000 0.037529 0.000000 0.000000
# 5 0.000000 0.000000 0.000000 0.000000 0.104869 0.000000
# 6 0.000000 0.000000 0.000000 0.000000 0.000000 0.084645
#
#
# Mechanical properties :
#
#
# Convention : Reuss Voigt Hill
#
# Bulk Modulus (GPa) = 34.04358 43.25268 38.64813
# Shear Modulus (GPa) = 14.85433 18.41340 16.63387
#
# Velocity S-wave (km/s) = 2.76143 3.07450 2.92216
# Velocity P-wave (km/s) = 5.25772 5.89976 5.58797
#
# Compressibility (1/GPa) = 0.02937411
#
# Stress axis : x y z
#
# Youngs Moduli (GPa) = 85.87465 35.61533 40.24424
#
# Poissons Ratio (x) = 0.22348 0.20861
# Poissons Ratio (y) = 0.53884 0.24711
# Poissons Ratio (z) = 0.44513 0.21869
#
# Static dielectric constant tensor:
#      x y z
#    x 3.834950 0.000000 0.000000 
#    y 0.000000 3.451000 0.000000 
#    z 0.000000 0.000000 3.490540 
# 
# 
# High freq. dielectric constant tensor:
#      x y z
#    x 1.774960 0.000000 0.000000 
#    y 0.000000 1.748260 0.000000 
#    z 0.000000 0.000000 1.737600 
# 
# From -- ./inp_files/25552.got.cif
#   From: 2010.03.12/outbox.cif.g09.slc.cpg/sg47_13_cif.got.tgz:25552.got - 2010.04.14 03:12:58.
