data_PCOD8197378
_publ_section_title
;
Structure prediction by ZEFSAII (Michael W. Deem and Ramdas Pophale) SiO2 
 PCOD8197378
Probable space group: P M M M
;
_chemical_formula_sum "Si O2"
_cell_formula_units_Z 48
_cell_length_a 20.600683
_cell_length_b 9.279725
_cell_length_c 14.415992
_cell_angle_alpha 90.000000
_cell_angle_beta 90.000000
_cell_angle_gamma 90.000000
_cell_volume 2755.886061
_symmetry_space_group_name_H-M "P M M M"
_symmetry_group_IT_number 47
_symmetry_cell_setting 'orthorhombic'
loop_
_space_group_symop_operation_xyz
x,y,z
-x,-y,z
x,-y,-z
-x,y,-z
-x,-y,-z
x,y,-z
-x,y,z
x,-y,z
loop_
_atom_site_type_symbol
_atom_site_label
_atom_site_fract_x
_atom_site_fract_y
_atom_site_fract_z
Si Si1 0.074988 0.334608 0.893301
Si Si2 0.429291 0.329268 0.788836
Si Si3 0.631473 0.330918 0.397835
Si Si4 0.815604 0.832405 0.794551
Si Si5 0.238093 0.835756 0.602369
Si Si6 0.301880 0.330833 0.891721
O O1 0.090029 0.500000 0.868056
O O2 0.116590 0.231030 0.828714
O O3 0.000000 0.298489 0.875591
O O4 0.093514 0.305917 0.000000
O O5 0.500000 0.267309 0.819905
O O6 0.430926 0.500000 0.796781
O O7 0.418406 0.281540 0.681729
O O8 0.371115 0.271749 0.853691
O O9 0.605143 0.285258 0.500000
O O10 0.642997 0.500000 0.392767
O O11 0.700511 0.262150 0.376506
O O12 0.814407 0.807904 0.683163
O O13 0.755631 0.753337 0.842421
O O14 0.812029 0.000000 0.820769
O O15 0.208348 0.800675 0.500000
O O16 0.262412 0.000000 0.606048
O O17 0.293479 0.500000 0.870475
O O18 0.299137 0.297915 0.000000
#
# Coordination Sequence:
#
# PCOD8197378 Si02
#       6
#     8   8   8   8   8   8
#     4   9  19  36  56  78 106 139 169 196 234 286
#     4   9  17  29  45  67  95 125 160 205 253 299
#     4   9  16  27  46  70  93 119 155 202 254 302
#     4  11  21  32  52  79 103 129 163 205 247 287
#     4   9  18  32  49  70  98 130 162 198 242 291
#     4  10  20  33  49  69  95 129 168 208 249 295
#
# _framework density 17.417266000000001
#
# number of rings (size 3 to 8) (size 9 to 14) (size 15 to 20)
#    0.000    2.500    1.667    1.500    0.000    4.333 
#    0.000    4.167    0.000    2.500    0.000    7.000 
#    0.000    0.000    0.000    0.000    0.000    0.000 
#
# Total GULP energy -594953.883761 kJ/mol
# GULP energy per Si atom -12394.872578 kJ/mol
# Density = 1.737762 g / cm^3
# Si number density = 17.417266 Si / 1000 Ang^3
#
#
#
# Elastic Constant Matrix: (Units=GPa)
#
#
# Indices 1 2 3 4 5 6 
#
# 1 100.7679 36.7368 61.6191 0.0000 0.0000 0.0000
# 2 36.7368 45.0849 42.1474 0.0000 0.0000 0.0000
# 3 61.6191 42.1474 106.5447 0.0000 0.0000 0.0000
# 4 0.0000 0.0000 0.0000 22.0859 0.0000 0.0000
# 5 0.0000 0.0000 0.0000 0.0000 26.7236 0.0000
# 6 0.0000 0.0000 0.0000 0.0000 0.0000 -6.5888
#
#
#
# Elastic Compliance Matrix: (Units=1/GPa)
#
#
# Indices 1 2 3 4 5 6 
#
# 1 0.016736 -0.007281 -0.006799 0.000000 0.000000 0.000000
# 2 -0.007281 0.038364 -0.010965 0.000000 0.000000 0.000000
# 3 -0.006799 -0.010965 0.017655 0.000000 0.000000 0.000000
# 4 0.000000 0.000000 0.000000 0.045278 0.000000 0.000000
# 5 0.000000 0.000000 0.000000 0.000000 0.037420 0.000000
# 6 0.000000 0.000000 0.000000 0.000000 0.000000 -0.151773
#
#
# Mechanical properties :
#
#
# Convention : Reuss Voigt Hill
#
# Bulk Modulus (GPa) = 44.12075 59.26712 51.69394
# Shear Modulus (GPa) = 81.53343 15.90377 48.71860
#
# Velocity S-wave (km/s) = 6.84934 3.02504 5.29454
# Velocity P-wave (km/s) = 9.37752 6.80462 8.19270
#
# Compressibility (1/GPa) = 0.02266507
#
# Stress axis : x y z
#
# Youngs Moduli (GPa) = 59.75318 26.06600 56.64027
#
# Poissons Ratio (x) = 0.18979 0.38507
# Poissons Ratio (y) = 0.43507 0.62108
# Poissons Ratio (z) = 0.40623 0.28582
#
# Static dielectric constant tensor:
#      x y z
#    x 3.213200 0.000000 0.000000 
#    y 0.000000 3.102130 0.000000 
#    z 0.000000 0.000000 3.568120 
# 
# 
# High freq. dielectric constant tensor:
#      x y z
#    x 1.656650 0.000000 0.000000 
#    y 0.000000 1.653470 0.000000 
#    z 0.000000 0.000000 1.683620 
# 
# From -- ./inp_files/6343.got.cif
#   From: 2010.03.12/outbox.cif.g09.slc.cpg/sg47_4_cif.got.tgz:6343.got - 2010.04.14 03:12:58.
