data_PCOD8197189
_publ_section_title
;
Structure prediction by ZEFSAII (Michael W. Deem and Ramdas Pophale) SiO2 
 PCOD8197189
Probable space group: P M M M
;
_chemical_formula_sum "Si O2"
_cell_formula_units_Z 36
_cell_length_a 9.238692
_cell_length_b 8.019323
_cell_length_c 24.709095
_cell_angle_alpha 90.000000
_cell_angle_beta 90.000000
_cell_angle_gamma 90.000000
_cell_volume 1830.648795
_symmetry_space_group_name_H-M "P M M M"
_symmetry_group_IT_number 47
_symmetry_cell_setting 'orthorhombic'
loop_
_space_group_symop_operation_xyz
x,y,z
-x,-y,z
x,-y,-z
-x,y,-z
-x,-y,-z
x,y,-z
-x,y,z
x,-y,z
loop_
_atom_site_type_symbol
_atom_site_label
_atom_site_fract_x
_atom_site_fract_y
_atom_site_fract_z
Si Si1 0.171505 0.689257 0.558380
Si Si2 0.828074 0.500000 0.060551
Si Si3 0.168117 0.187037 0.130529
Si Si4 0.834247 0.810077 0.328620
Si Si5 0.664682 0.309945 0.770085
O O1 0.230749 0.757632 0.500000
O O2 0.223435 0.500000 0.566108
O O3 0.227703 0.793339 0.610048
O O4 0.000000 0.699835 0.556635
O O5 0.773393 0.669771 0.089813
O O6 0.000000 0.500000 0.058271
O O7 0.763127 0.500000 0.000000
O O8 0.252234 0.195892 0.186962
O O9 0.000000 0.218653 0.143101
O O10 0.191559 0.000000 0.106070
O O11 0.737828 0.701047 0.288582
O O12 0.000000 0.745916 0.325741
O O13 0.823197 0.000000 0.310071
O O14 0.500000 0.247358 0.765835
O O15 0.672694 0.500000 0.790066
#
# Coordination Sequence:
#
# PCOD8197189 Si02
#       5
#     8   4   8   8   8
#     4   8  14  26  45  69  97 130 168 210 258 313
#     4   9  18  34  57  87 121 151 180 221 268 311
#     4  10  20  35  58  86 114 147 185 223 268 321
#     4  10  20  32  49  76 106 136 172 215 267 325
#     4  11  23  37  54  76 104 141 183 226 274 324
#
# _framework density 19.665158000000002
#
# number of rings (size 3 to 8) (size 9 to 14) (size 15 to 20)
#    0.000    2.333    1.111    2.667    0.000    6.667 
#    0.000    4.444    0.000    2.000    0.000    6.222 
#    0.000    0.000    0.000    0.000    0.000    0.000 
#
# Total GULP energy -446236.007378 kJ/mol
# GULP energy per Si atom -12395.444649 kJ/mol
# Density = 1.962040 g / cm^3
# Si number density = 19.665158 Si / 1000 Ang^3
#
#
#
# Elastic Constant Matrix: (Units=GPa)
#
#
# Indices 1 2 3 4 5 6 
#
# 1 58.9219 28.6314 41.1253 0.0000 0.0000 0.0000
# 2 28.6314 98.5575 49.6390 0.0000 0.0000 0.0000
# 3 41.1253 49.6390 143.7642 0.0000 0.0000 0.0000
# 4 0.0000 0.0000 0.0000 26.3136 0.0000 0.0000
# 5 0.0000 0.0000 0.0000 0.0000 0.7449 0.0000
# 6 0.0000 0.0000 0.0000 0.0000 0.0000 15.8246
#
#
#
# Elastic Compliance Matrix: (Units=1/GPa)
#
#
# Indices 1 2 3 4 5 6 
#
# 1 0.022422 -0.003974 -0.005042 0.000000 0.000000 0.000000
# 2 -0.003974 0.012987 -0.003347 0.000000 0.000000 0.000000
# 3 -0.005042 -0.003347 0.009554 0.000000 0.000000 0.000000
# 4 0.000000 0.000000 0.000000 0.038003 0.000000 0.000000
# 5 0.000000 0.000000 0.000000 0.000000 1.342423 0.000000
# 6 0.000000 0.000000 0.000000 0.000000 0.000000 0.063193
#
#
# Mechanical properties :
#
#
# Convention : Reuss Voigt Hill
#
# Bulk Modulus (GPa) = 49.41726 60.00390 54.71058
# Shear Modulus (GPa) = 3.28936 20.69980 11.99458
#
# Velocity S-wave (km/s) = 1.29473 3.24792 2.47238
# Velocity P-wave (km/s) = 5.23631 6.68164 6.00264
#
# Compressibility (1/GPa) = 0.02023584
#
# Stress axis : x y z
#
# Youngs Moduli (GPa) = 44.59944 77.00156 104.67043
#
# Poissons Ratio (x) = 0.30603 0.52772
# Poissons Ratio (y) = 0.17725 0.35035
# Poissons Ratio (z) = 0.22486 0.25774
#
# Static dielectric constant tensor:
#      x y z
#    x 3.136760 0.000000 0.000000 
#    y 0.000000 3.594960 0.000000 
#    z 0.000000 0.000000 4.035580 
# 
# 
# High freq. dielectric constant tensor:
#      x y z
#    x 1.711990 0.000000 0.000000 
#    y 0.000000 1.769280 0.000000 
#    z 0.000000 0.000000 1.771810 
# 
# From -- ./inp_files/31654.got.cif
#   From: 2010.03.12/outbox.cif.g09.slc.cpg/sg47_16_cif.got.tgz:31654.got - 2010.04.14 03:12:58.
