data_PCOD8197253
_publ_section_title
;
Structure prediction by ZEFSAII (Michael W. Deem and Ramdas Pophale) SiO2 
 PCOD8197253
Probable space group: P M M M
;
_chemical_formula_sum "Si O2"
_cell_formula_units_Z 44
_cell_length_a 9.241002
_cell_length_b 17.220692
_cell_length_c 15.321194
_cell_angle_alpha 90.000000
_cell_angle_beta 90.000000
_cell_angle_gamma 90.000000
_cell_volume 2438.160411
_symmetry_space_group_name_H-M "P M M M"
_symmetry_group_IT_number 47
_symmetry_cell_setting 'orthorhombic'
loop_
_space_group_symop_operation_xyz
x,y,z
-x,-y,z
x,-y,-z
-x,y,-z
-x,-y,-z
x,y,-z
-x,y,z
x,-y,z
loop_
_atom_site_type_symbol
_atom_site_label
_atom_site_fract_x
_atom_site_fract_y
_atom_site_fract_z
Si Si1 0.172082 0.413413 0.500000
Si Si2 0.833967 0.186759 0.257400
Si Si3 0.835070 0.360054 0.318488
Si Si4 0.669214 0.248638 0.901780
Si Si5 0.334514 0.908318 0.401514
Si Si6 0.668838 0.584909 0.839775
O O1 0.232666 0.500000 0.500000
O O2 0.231575 0.370454 0.585453
O O3 0.000000 0.411241 0.500000
O O4 0.819961 0.270320 0.299179
O O5 0.753772 0.190877 0.163518
O O6 0.763394 0.127585 0.325502
O O7 0.000000 0.162031 0.241677
O O8 0.745901 0.413562 0.253259
O O9 0.000000 0.388823 0.312964
O O10 0.500000 0.241589 0.880155
O O11 0.719478 0.339696 0.895357
O O12 0.703440 0.220985 0.000000
O O13 0.284489 0.883504 0.500000
O O14 0.500000 0.881899 0.386973
O O15 0.320608 0.000000 0.392409
O O16 0.500000 0.591458 0.822871
O O17 0.704518 0.500000 0.883923
#
# Coordination Sequence:
#
# PCOD8197253 Si02
#       6
#     4   8   8   8   8   8
#     4   9  16  26  41  59  82 119 166 208 239 277
#     4  10  20  32  51  77 105 135 166 209 256 300
#     4   9  18  30  44  63  89 126 168 205 244 297
#     4   9  18  33  52  72  97 133 175 215 258 311
#     4   9  19  36  57  81 109 140 171 201 237 290
#     4   9  17  29  45  66  93 122 159 213 267 307
#
# _framework density 18.046392000000001
#
# number of rings (size 3 to 8) (size 9 to 14) (size 15 to 20)
#    0.000    2.818    0.000    1.636    1.273    3.273 
#    0.000    3.182    0.000    2.182    0.000    8.909 
#    0.000    0.000    0.000    0.000    0.000    0.000 
#
# Total GULP energy -545259.905123 kJ/mol
# GULP energy per Si atom -12392.270571 kJ/mol
# Density = 1.800532 g / cm^3
# Si number density = 18.046392 Si / 1000 Ang^3
#
#
#
# Elastic Constant Matrix: (Units=GPa)
#
#
# Indices 1 2 3 4 5 6 
#
# 1 61.3824 30.2737 50.9007 0.0000 0.0000 0.0000
# 2 30.2737 44.4482 35.4676 0.0000 0.0000 0.0000
# 3 50.9007 35.4676 136.4056 0.0000 0.0000 0.0000
# 4 0.0000 0.0000 0.0000 20.9874 0.0000 0.0000
# 5 0.0000 0.0000 0.0000 0.0000 25.3879 0.0000
# 6 0.0000 0.0000 0.0000 0.0000 0.0000 21.3784
#
#
#
# Elastic Compliance Matrix: (Units=1/GPa)
#
#
# Indices 1 2 3 4 5 6 
#
# 1 0.029285 -0.014165 -0.007245 0.000000 0.000000 0.000000
# 2 -0.014165 0.035240 -0.003877 0.000000 0.000000 0.000000
# 3 -0.007245 -0.003877 0.011043 0.000000 0.000000 0.000000
# 4 0.000000 0.000000 0.000000 0.047648 0.000000 0.000000
# 5 0.000000 0.000000 0.000000 0.000000 0.039389 0.000000
# 6 0.000000 0.000000 0.000000 0.000000 0.000000 0.046776
#
#
# Mechanical properties :
#
#
# Convention : Reuss Voigt Hill
#
# Bulk Modulus (GPa) = 40.01041 52.83557 46.42299
# Shear Modulus (GPa) = 18.63687 21.92368 20.28027
#
# Velocity S-wave (km/s) = 3.21708 3.48925 3.35593
# Velocity P-wave (km/s) = 6.00154 6.75088 6.38721
#
# Compressibility (1/GPa) = 0.02499350
#
# Stress axis : x y z
#
# Youngs Moduli (GPa) = 34.14688 28.37714 90.55818
#
# Poissons Ratio (x) = 0.40197 0.65608
# Poissons Ratio (y) = 0.48370 0.35110
# Poissons Ratio (z) = 0.24739 0.11002
#
# Static dielectric constant tensor:
#      x y z
#    x 3.282030 0.000000 0.000000 
#    y 0.000000 3.209440 0.000000 
#    z 0.000000 0.000000 3.491940 
# 
# 
# High freq. dielectric constant tensor:
#      x y z
#    x 1.684570 0.000000 0.000000 
#    y 0.000000 1.681590 0.000000 
#    z 0.000000 0.000000 1.700460 
# 
# From -- ./inp_files/20906.got.cif
#   From: 2010.03.12/outbox.cif.g09.slc.cpg/sg47_11_cif.got.tgz:20906.got - 2010.04.14 03:12:58.
