data_PCOD8197297
_publ_section_title
;
Structure prediction by ZEFSAII (Michael W. Deem and Ramdas Pophale) SiO2 
 PCOD8197297
Probable space group: P M M M
;
_chemical_formula_sum "Si O2"
_cell_formula_units_Z 64
_cell_length_a 31.123933
_cell_length_b 8.996131
_cell_length_c 14.312346
_cell_angle_alpha 90.000000
_cell_angle_beta 90.000000
_cell_angle_gamma 90.000000
_cell_volume 4007.385011
_symmetry_space_group_name_H-M "P M M M"
_symmetry_group_IT_number 47
_symmetry_cell_setting 'orthorhombic'
loop_
_space_group_symop_operation_xyz
x,y,z
-x,-y,z
x,-y,-z
-x,y,-z
-x,-y,-z
x,y,-z
-x,y,z
x,-y,z
loop_
_atom_site_type_symbol
_atom_site_label
_atom_site_fract_x
_atom_site_fract_y
_atom_site_fract_z
Si Si1 0.214722 0.830011 0.389297
Si Si2 0.313984 0.173404 0.894680
Si Si3 0.129698 0.666162 0.388773
Si Si4 0.547199 0.176550 0.288222
Si Si5 0.291652 0.324040 0.714245
Si Si6 0.412149 0.176545 0.898760
Si Si7 0.631036 0.175129 0.392663
Si Si8 0.047211 0.167149 0.611097
O O1 0.219087 0.816758 0.500000
O O2 0.168852 0.768693 0.354392
O O3 0.251601 0.730904 0.345205
O O4 0.219310 0.000000 0.356357
O O5 0.286257 0.267583 0.820763
O O6 0.363114 0.226325 0.884262
O O7 0.309251 0.000000 0.870832
O O8 0.297471 0.205817 0.000000
O O9 0.127928 0.665317 0.500000
O O10 0.136170 0.500000 0.349777
O O11 0.084912 0.729674 0.347430
O O12 0.500000 0.238198 0.317028
O O13 0.559144 0.241145 0.185491
O O14 0.582911 0.225628 0.363489
O O15 0.545810 0.000000 0.283113
O O16 0.293057 0.500000 0.711634
O O17 0.335302 0.260784 0.670722
O O18 0.413766 0.000000 0.898466
O O19 0.428961 0.235163 0.000000
O O20 0.638187 0.218539 0.500000
O O21 0.637546 0.000000 0.375966
O O22 0.049743 0.166846 0.500000
O O23 0.000000 0.226094 0.642813
O O24 0.054172 0.000000 0.648334
#
# Coordination Sequence:
#
# PCOD8197297 Si02
#       8
#     8   8   8   8   8   8   8   8
#     4  10  20  33  48  64  85 117 155 192 231 275
#     4   9  17  32  54  74  93 118 145 173 208 256
#     4   9  16  25  37  55  81 110 143 188 238 281
#     4   9  16  26  43  68  94 115 140 179 222 261
#     4  12  23  33  49  71  94 116 143 183 224 267
#     4   8  13  23  42  67  92 114 135 166 209 254
#     4  10  20  34  50  66  88 118 152 188 223 262
#     4   8  13  21  33  49  71 104 148 193 233 274
#
# _framework density 15.970514
#
# number of rings (size 3 to 8) (size 9 to 14) (size 15 to 20)
#    0.000    2.625    1.250    3.375    0.000    5.000 
#    0.000    3.750    0.000    0.375    0.000    0.875 
#    0.000    2.000    0.000    0.000    0.000    0.625 
#
# Total GULP energy -793255.612529 kJ/mol
# GULP energy per Si atom -12394.618946 kJ/mol
# Density = 1.593416 g / cm^3
# Si number density = 15.970514 Si / 1000 Ang^3
#
#
#
# Elastic Constant Matrix: (Units=GPa)
#
#
# Indices 1 2 3 4 5 6 
#
# 1 96.1245 38.5557 25.7806 0.0000 0.0000 0.0000
# 2 38.5557 70.5412 32.8742 0.0000 0.0000 0.0000
# 3 25.7806 32.8742 57.8184 0.0000 0.0000 0.0000
# 4 0.0000 0.0000 0.0000 11.6900 0.0000 0.0000
# 5 0.0000 0.0000 0.0000 0.0000 2.8800 0.0000
# 6 0.0000 0.0000 0.0000 0.0000 0.0000 6.1161
#
#
#
# Elastic Compliance Matrix: (Units=1/GPa)
#
#
# Indices 1 2 3 4 5 6 
#
# 1 0.013584 -0.006261 -0.002497 0.000000 0.000000 0.000000
# 2 -0.006261 0.022172 -0.009815 0.000000 0.000000 0.000000
# 3 -0.002497 -0.009815 0.023990 0.000000 0.000000 0.000000
# 4 0.000000 0.000000 0.000000 0.085543 0.000000 0.000000
# 5 0.000000 0.000000 0.000000 0.000000 0.347227 0.000000
# 6 0.000000 0.000000 0.000000 0.000000 0.000000 0.163503
#
#
# Mechanical properties :
#
#
# Convention : Reuss Voigt Hill
#
# Bulk Modulus (GPa) = 44.24820 46.54501 45.39660
# Shear Modulus (GPa) = 7.13574 12.62212 9.87893
#
# Velocity S-wave (km/s) = 2.11607 2.81435 2.48981
# Velocity P-wave (km/s) = 5.80833 6.30621 6.06239
#
# Compressibility (1/GPa) = 0.02259979
#
# Stress axis : x y z
#
# Youngs Moduli (GPa) = 73.61488 45.10150 41.68484
#
# Poissons Ratio (x) = 0.28238 0.10410
# Poissons Ratio (y) = 0.46090 0.40913
# Poissons Ratio (z) = 0.18383 0.44267
#
# Static dielectric constant tensor:
#      x y z
#    x 3.197100 0.000000 0.000000 
#    y 0.000000 2.882080 0.000000 
#    z 0.000000 0.000000 2.937020 
# 
# 
# High freq. dielectric constant tensor:
#      x y z
#    x 1.609300 0.000000 0.000000 
#    y 0.000000 1.591810 0.000000 
#    z 0.000000 0.000000 1.577290 
# 
# From -- ./inp_files/8219.got.cif
#   From: 2010.03.12/outbox.cif.g09.slc.cpg/sg47_5_cif.got.tgz:8219.got - 2010.04.14 03:12:58.
