data_PCOD8197811
_publ_section_title
;
Structure prediction by ZEFSAII (Michael W. Deem and Ramdas Pophale) SiO2 
 PCOD8197811
Probable space group: P M M M
;
_chemical_formula_sum "Si O2"
_cell_formula_units_Z 56
_cell_length_a 14.664112
_cell_length_b 8.999694
_cell_length_c 22.775509
_cell_angle_alpha 90.000000
_cell_angle_beta 90.000000
_cell_angle_gamma 90.000000
_cell_volume 3005.741335
_symmetry_space_group_name_H-M "P M M M"
_symmetry_group_IT_number 47
_symmetry_cell_setting 'orthorhombic'
loop_
_space_group_symop_operation_xyz
x,y,z
-x,-y,z
x,-y,-z
-x,y,-z
-x,-y,-z
x,y,-z
-x,y,z
x,-y,z
loop_
_atom_site_type_symbol
_atom_site_label
_atom_site_fract_x
_atom_site_fract_y
_atom_site_fract_z
Si Si1 0.106367 0.674765 0.719650
Si Si2 0.598785 0.825540 0.375098
Si Si3 0.892100 0.331130 0.500000
Si Si4 0.819420 0.174751 0.066070
Si Si5 0.000000 0.663248 0.069045
Si Si6 0.235641 0.328726 0.174840
Si Si7 0.200485 0.822392 0.608385
Si Si8 0.600324 0.666082 0.256059
O O1 0.116564 0.500000 0.706545
O O2 0.150407 0.714449 0.782954
O O3 0.162933 0.761913 0.670138
O O4 0.000000 0.722776 0.719739
O O5 0.500000 0.760952 0.399872
O O6 0.693704 0.771717 0.404800
O O7 0.607818 0.784435 0.307444
O O8 0.593757 0.000000 0.381224
O O9 0.854952 0.500000 0.500000
O O10 0.859790 0.245404 0.557320
O O11 0.000000 0.330760 0.500000
O O12 0.912940 0.245747 0.089158
O O13 0.750971 0.231906 0.115634
O O14 0.829190 0.000000 0.066673
O O15 0.792782 0.228453 0.000000
O O16 0.000000 0.500000 0.099199
O O17 0.000000 0.645133 0.000000
O O18 0.228251 0.500000 0.156364
O O19 0.328866 0.289549 0.206833
O O20 0.192107 0.000000 0.608692
O O21 0.500000 0.671019 0.227503
O O22 0.621764 0.500000 0.280685
#
# Coordination Sequence:
#
# PCOD8197811 Si02
#       8
#     8   8   4   8   4   8   8   8
#     4  10  21  36  53  77 112 148 179 218 269 321
#     4   9  18  33  54  81 112 144 176 214 268 329
#     4  11  25  43  62  81 106 148 193 229 268 317
#     4  10  21  35  50  71 102 139 180 226 271 318
#     4   9  17  31  51  71  93 129 175 216 259 314
#     4  10  20  33  52  78 106 139 180 222 270 329
#     4  11  22  37  59  85 112 143 183 228 269 315
#     4   9  17  31  53  80 107 136 175 224 272 319
#
# _framework density 18.631011000000001
#
# number of rings (size 3 to 8) (size 9 to 14) (size 15 to 20)
#    0.000    2.143    1.429    1.714    1.000    6.000 
#    0.000    0.357    0.000    2.571    0.000    3.000 
#    0.000    0.000    0.000    0.000    0.000    0.000 
#
# Total GULP energy -693894.491305 kJ/mol
# GULP energy per Si atom -12390.973059 kJ/mol
# Density = 1.858861 g / cm^3
# Si number density = 18.631011 Si / 1000 Ang^3
#
#
#
# Elastic Constant Matrix: (Units=GPa)
#
#
# Indices 1 2 3 4 5 6 
#
# 1 110.1934 24.8762 23.7478 0.0000 0.0000 0.0000
# 2 24.8762 48.1165 28.0289 0.0000 0.0000 0.0000
# 3 23.7478 28.0289 77.3834 0.0000 0.0000 0.0000
# 4 0.0000 0.0000 0.0000 23.4546 0.0000 0.0000
# 5 0.0000 0.0000 0.0000 0.0000 17.4424 0.0000
# 6 0.0000 0.0000 0.0000 0.0000 0.0000 23.0814
#
#
#
# Elastic Compliance Matrix: (Units=1/GPa)
#
#
# Indices 1 2 3 4 5 6 
#
# 1 0.010424 -0.004469 -0.001580 0.000000 0.000000 0.000000
# 2 -0.004469 0.028256 -0.008863 0.000000 0.000000 0.000000
# 3 -0.001580 -0.008863 0.016618 0.000000 0.000000 0.000000
# 4 0.000000 0.000000 0.000000 0.042636 0.000000 0.000000
# 5 0.000000 0.000000 0.000000 0.000000 0.057332 0.000000
# 6 0.000000 0.000000 0.000000 0.000000 0.000000 0.043325
#
#
# Mechanical properties :
#
#
# Convention : Reuss Voigt Hill
#
# Bulk Modulus (GPa) = 39.25612 43.22213 41.23912
# Shear Modulus (GPa) = 21.10532 23.39837 22.25185
#
# Velocity S-wave (km/s) = 3.36937 3.54769 3.45968
# Velocity P-wave (km/s) = 6.02104 6.32699 6.17591
#
# Compressibility (1/GPa) = 0.02547374
#
# Stress axis : x y z
#
# Youngs Moduli (GPa) = 95.92898 35.39033 60.17551
#
# Poissons Ratio (x) = 0.15815 0.09511
# Poissons Ratio (y) = 0.42868 0.53335
# Poissons Ratio (z) = 0.15161 0.31367
#
# Static dielectric constant tensor:
#      x y z
#    x 3.915810 0.000000 0.000000 
#    y 0.000000 3.429310 0.000000 
#    z 0.000000 0.000000 3.303370 
# 
# 
# High freq. dielectric constant tensor:
#      x y z
#    x 1.731260 0.000000 0.000000 
#    y 0.000000 1.720310 0.000000 
#    z 0.000000 0.000000 1.706160 
# 
# From -- ./inp_files/31027.got.cif
#   From: 2010.03.12/outbox.cif.g09.slc.cpg/sg47_16_cif.got.tgz:31027.got - 2010.04.14 03:12:58.
