data_PCOD8197507
_publ_section_title
;
Structure prediction by ZEFSAII (Michael W. Deem and Ramdas Pophale) SiO2 
 PCOD8197507
Probable space group: P M M M
;
_chemical_formula_sum "Si O2"
_cell_formula_units_Z 52
_cell_length_a 8.801956
_cell_length_b 21.489317
_cell_length_c 14.699462
_cell_angle_alpha 90.000000
_cell_angle_beta 90.000000
_cell_angle_gamma 90.000000
_cell_volume 2780.374172
_symmetry_space_group_name_H-M "P M M M"
_symmetry_group_IT_number 47
_symmetry_cell_setting 'orthorhombic'
loop_
_space_group_symop_operation_xyz
x,y,z
-x,-y,z
x,-y,-z
-x,y,-z
-x,-y,-z
x,y,-z
-x,y,z
x,-y,z
loop_
_atom_site_type_symbol
_atom_site_label
_atom_site_fract_x
_atom_site_fract_y
_atom_site_fract_z
Si Si1 0.823927 0.731749 0.730340
Si Si2 0.169474 0.500000 0.392551
Si Si3 0.669651 0.816463 0.598831
Si Si4 0.325581 0.931552 0.168738
Si Si5 0.827923 0.068880 0.641709
Si Si6 0.676449 0.203140 0.897859
Si Si7 0.679838 0.372776 0.395468
O O1 0.795689 0.791612 0.667729
O O2 0.766042 0.750061 0.830738
O O3 0.735205 0.676691 0.679064
O O4 0.000000 0.714327 0.735562
O O5 0.160789 0.500000 0.500000
O O6 0.258248 0.561184 0.360036
O O7 0.000000 0.500000 0.350390
O O8 0.676967 0.783278 0.500000
O O9 0.500000 0.807841 0.639367
O O10 0.710930 0.888561 0.585775
O O11 0.500000 0.925672 0.202117
O O12 0.212033 0.929407 0.252415
O O13 0.283822 0.870876 0.108590
O O14 0.304834 0.000000 0.119289
O O15 0.000000 0.092460 0.628706
O O16 0.809755 0.000000 0.601805
O O17 0.500000 0.213388 0.877286
O O18 0.719003 0.223894 0.000000
O O19 0.735478 0.358563 0.500000
O O20 0.500000 0.374237 0.393728
#
# Coordination Sequence:
#
# PCOD8197507 Si02
#       7
#     8   4   8   8   8   8   8
#     4  12  24  37  55  79 109 145 182 226 276 325
#     4   9  17  31  53  85 124 159 192 229 265 307
#     4  11  23  37  53  73  99 134 177 221 266 322
#     4   9  17  31  53  77 101 131 168 215 273 337
#     4  10  20  33  50  72  98 129 166 212 268 325
#     4  10  21  37  57  80 107 140 179 225 278 338
#     4  10  20  35  57  85 119 158 195 229 267 314
#
# _framework density 18.702518999999999
#
# number of rings (size 3 to 8) (size 9 to 14) (size 15 to 20)
#    0.000    1.769    1.538    3.462    0.000    6.769 
#    0.000    3.077    0.000    0.000    0.000    3.769 
#    0.000    4.308    0.000    0.000    0.000    0.000 
#
# Total GULP energy -644314.820305 kJ/mol
# GULP energy per Si atom -12390.669621 kJ/mol
# Density = 1.865995 g / cm^3
# Si number density = 18.702519 Si / 1000 Ang^3
#
#
#
# Elastic Constant Matrix: (Units=GPa)
#
#
# Indices 1 2 3 4 5 6 
#
# 1 83.0111 37.8602 32.6720 0.0000 0.0000 0.0000
# 2 37.8602 108.4791 41.1373 0.0000 0.0000 0.0000
# 3 32.6720 41.1373 93.6461 0.0000 0.0000 0.0000
# 4 0.0000 0.0000 0.0000 19.9348 0.0000 0.0000
# 5 0.0000 0.0000 0.0000 0.0000 1.2364 0.0000
# 6 0.0000 0.0000 0.0000 0.0000 0.0000 30.6631
#
#
#
# Elastic Compliance Matrix: (Units=1/GPa)
#
#
# Indices 1 2 3 4 5 6 
#
# 1 0.015267 -0.003970 -0.003583 0.000000 0.000000 0.000000
# 2 -0.003970 0.012093 -0.003927 0.000000 0.000000 0.000000
# 3 -0.003583 -0.003927 0.013654 0.000000 0.000000 0.000000
# 4 0.000000 0.000000 0.000000 0.050163 0.000000 0.000000
# 5 0.000000 0.000000 0.000000 0.000000 0.808801 0.000000
# 6 0.000000 0.000000 0.000000 0.000000 0.000000 0.032612
#
#
# Mechanical properties :
#
#
# Convention : Reuss Voigt Hill
#
# Bulk Modulus (GPa) = 55.38793 56.49724 55.94258
# Shear Modulus (GPa) = 5.19984 21.93133 13.56559
#
# Velocity S-wave (km/s) = 1.66923 3.42810 2.69613
# Velocity P-wave (km/s) = 5.77881 6.77813 6.29832
#
# Compressibility (1/GPa) = 0.01805448
#
# Stress axis : x y z
#
# Youngs Moduli (GPa) = 65.49978 82.69129 73.24038
#
# Poissons Ratio (x) = 0.32827 0.26240
# Poissons Ratio (y) = 0.26002 0.28764
# Poissons Ratio (z) = 0.23466 0.32476
#
# Static dielectric constant tensor:
#      x y z
#    x 3.425940 0.000000 0.000000 
#    y 0.000000 3.619590 0.000000 
#    z 0.000000 0.000000 3.204580 
# 
# 
# High freq. dielectric constant tensor:
#      x y z
#    x 1.729260 0.000000 0.000000 
#    y 0.000000 1.718370 0.000000 
#    z 0.000000 0.000000 1.695900 
# 
# From -- ./inp_files/21466.got.cif
#   From: 2010.03.12/outbox.cif.g09.slc.cpg/sg47_11_cif.got.tgz:21466.got - 2010.04.14 03:12:58.
