data_PCOD8197215
_publ_section_title
;
Structure prediction by ZEFSAII (Michael W. Deem and Ramdas Pophale) SiO2 
 PCOD8197215
Probable space group: P M M M
;
_chemical_formula_sum "Si O2"
_cell_formula_units_Z 52
_cell_length_a 19.532251
_cell_length_b 15.738722
_cell_length_c 9.051259
_cell_angle_alpha 90.000000
_cell_angle_beta 90.000000
_cell_angle_gamma 90.000000
_cell_volume 2782.471683
_symmetry_space_group_name_H-M "P M M M"
_symmetry_group_IT_number 47
_symmetry_cell_setting 'orthorhombic'
loop_
_space_group_symop_operation_xyz
x,y,z
-x,-y,z
x,-y,-z
-x,y,-z
-x,-y,-z
x,y,-z
-x,y,z
x,-y,z
loop_
_atom_site_type_symbol
_atom_site_label
_atom_site_fract_x
_atom_site_fract_y
_atom_site_fract_z
Si Si1 0.918115 0.000000 0.666251
Si Si2 0.081011 0.162690 0.835030
Si Si3 0.418670 0.905944 0.332756
Si Si4 0.418733 0.739096 0.831599
Si Si5 0.199777 0.403051 0.162110
Si Si6 0.078272 0.667357 0.325659
Si Si7 0.333479 0.599416 0.673883
O O1 0.888588 0.080924 0.752885
O O2 0.889252 0.000000 0.500000
O O3 0.000000 0.000000 0.663134
O O4 0.102476 0.242292 0.736532
O O5 0.000000 0.154964 0.844680
O O6 0.111966 0.169991 0.000000
O O7 0.392879 0.891513 0.500000
O O8 0.500000 0.904055 0.328031
O O9 0.389651 0.828593 0.233183
O O10 0.393878 0.000000 0.276746
O O11 0.500000 0.737819 0.820531
O O12 0.393200 0.657269 0.741111
O O13 0.393418 0.731765 0.000000
O O14 0.217236 0.500000 0.136690
O O15 0.128146 0.399960 0.250207
O O16 0.262205 0.365335 0.257569
O O17 0.194316 0.358474 0.000000
O O18 0.087378 0.666264 0.500000
O O19 0.000000 0.646215 0.281225
O O20 0.329774 0.613689 0.500000
O O21 0.347666 0.500000 0.710676
#
# Coordination Sequence:
#
# PCOD8197215 Si02
#       7
#     4   8   8   8   8   8   8
#     4   9  15  23  37  59  89 123 157 193 236 287
#     4   9  16  26  41  63  92 124 158 196 239 287
#     4   8  14  26  45  70 102 139 177 217 259 303
#     4  10  20  32  49  77 111 144 178 218 264 311
#     4  10  21  37  56  76  99 129 166 208 255 309
#     4  10  20  33  50  74 103 132 164 205 252 301
#     4  10  21  37  56  76 100 134 177 221 263 312
#
# _framework density 18.688420000000001
#
# number of rings (size 3 to 8) (size 9 to 14) (size 15 to 20)
#    0.000    2.538    0.000    3.000    0.000    7.385 
#    0.000    4.615    0.000    0.000    2.000    0.000 
#    0.000    0.000    0.000    0.000    0.000    0.000 
#
# Total GULP energy -644537.962267 kJ/mol
# GULP energy per Si atom -12394.960813 kJ/mol
# Density = 1.864588 g / cm^3
# Si number density = 18.688420 Si / 1000 Ang^3
#
#
#
# Elastic Constant Matrix: (Units=GPa)
#
#
# Indices 1 2 3 4 5 6 
#
# 1 39.0040 26.2884 33.4295 0.0000 0.0000 0.0000
# 2 26.2884 89.4111 53.0931 0.0000 0.0000 0.0000
# 3 33.4295 53.0931 137.2548 0.0000 0.0000 0.0000
# 4 0.0000 0.0000 0.0000 32.7689 0.0000 0.0000
# 5 0.0000 0.0000 0.0000 0.0000 24.8430 0.0000
# 6 0.0000 0.0000 0.0000 0.0000 0.0000 6.1207
#
#
#
# Elastic Compliance Matrix: (Units=1/GPa)
#
#
# Indices 1 2 3 4 5 6 
#
# 1 0.035371 -0.006860 -0.005961 0.000000 0.000000 0.000000
# 2 -0.006860 0.015850 -0.004460 0.000000 0.000000 0.000000
# 3 -0.005961 -0.004460 0.010463 0.000000 0.000000 0.000000
# 4 0.000000 0.000000 0.000000 0.030517 0.000000 0.000000
# 5 0.000000 0.000000 0.000000 0.000000 0.040253 0.000000
# 6 0.000000 0.000000 0.000000 0.000000 0.000000 0.163381
#
#
# Mechanical properties :
#
#
# Convention : Reuss Voigt Hill
#
# Bulk Modulus (GPa) = 36.87182 54.58798 45.72990
# Shear Modulus (GPa) = 14.73025 22.93712 18.83368
#
# Velocity S-wave (km/s) = 2.81054 3.50715 3.17799
# Velocity P-wave (km/s) = 5.50498 6.75818 6.16351
#
# Compressibility (1/GPa) = 0.02712098
#
# Stress axis : x y z
#
# Youngs Moduli (GPa) = 28.27157 63.09256 95.57500
#
# Poissons Ratio (x) = 0.43280 0.56976
# Poissons Ratio (y) = 0.19394 0.42629
# Poissons Ratio (z) = 0.16854 0.28141
#
# Static dielectric constant tensor:
#      x y z
#    x 2.980680 0.000000 0.000000 
#    y 0.000000 3.569530 0.000000 
#    z 0.000000 0.000000 3.728540 
# 
# 
# High freq. dielectric constant tensor:
#      x y z
#    x 1.673100 0.000000 0.000000 
#    y 0.000000 1.727210 0.000000 
#    z 0.000000 0.000000 1.742570 
# 
# From -- ./inp_files/10952.got.cif
#   From: 2010.03.12/outbox.cif.g09.slc.cpg/sg47_6_cif.got.tgz:10952.got - 2010.04.14 03:12:58.
