data_PCOD8197419
_publ_section_title
;
Structure prediction by ZEFSAII (Michael W. Deem and Ramdas Pophale) SiO2 
 PCOD8197419
Probable space group: P M M M
;
_chemical_formula_sum "Si O2"
_cell_formula_units_Z 48
_cell_length_a 9.074946
_cell_length_b 9.082280
_cell_length_c 31.167924
_cell_angle_alpha 90.000000
_cell_angle_beta 90.000000
_cell_angle_gamma 90.000000
_cell_volume 2568.897715
_symmetry_space_group_name_H-M "P M M M"
_symmetry_group_IT_number 47
_symmetry_cell_setting 'orthorhombic'
loop_
_space_group_symop_operation_xyz
x,y,z
-x,-y,z
x,-y,-z
-x,y,-z
-x,-y,-z
x,y,-z
-x,y,z
x,-y,z
loop_
_atom_site_type_symbol
_atom_site_label
_atom_site_fract_x
_atom_site_fract_y
_atom_site_fract_z
Si Si1 0.824869 0.665841 0.668549
Si Si2 0.673092 0.670171 0.830763
Si Si3 0.666314 0.175189 0.500000
Si Si4 0.166086 0.324961 0.916448
Si Si5 0.170168 0.826800 0.246239
Si Si6 0.827672 0.171097 0.584428
Si Si7 0.333371 0.675784 0.000000
O O1 0.763513 0.500000 0.670747
O O2 0.769335 0.753612 0.710178
O O3 0.764142 0.743298 0.625663
O O4 0.000000 0.668758 0.667332
O O5 0.500000 0.692361 0.836203
O O6 0.713343 0.500000 0.821904
O O7 0.749951 0.728599 0.873973
O O8 0.731092 0.768193 0.792155
O O9 0.500000 0.233906 0.500000
O O10 0.747024 0.235131 0.542447
O O11 0.674135 0.000000 0.500000
O O12 0.164732 0.500000 0.918385
O O13 0.250308 0.262310 0.958049
O O14 0.000000 0.262380 0.915906
O O15 0.000000 0.783994 0.237807
O O16 0.190273 0.000000 0.250764
O O17 0.000000 0.198865 0.577881
O O18 0.792876 0.000000 0.591602
O O19 0.332859 0.500000 0.000000
O O20 0.500000 0.735826 0.000000
#
# Coordination Sequence:
#
# PCOD8197419 Si02
#       7
#     8   8   4   8   8   8   4
#     4   9  17  30  50  75 100 126 159 201 247 293
#     4  10  20  33  49  71 100 133 168 207 253 302
#     4   9  17  29  46  69  96 126 160 197 238 284
#     4   9  16  26  42  65  94 129 168 208 250 296
#     4  10  20  34  53  76 100 128 164 205 249 299
#     4   9  16  28  48  72  96 124 161 202 240 282
#     4   9  15  23  37  61  96 133 166 203 248 297
#
# _framework density 18.685058999999999
#
# number of rings (size 3 to 8) (size 9 to 14) (size 15 to 20)
#    0.000    2.667    0.000    2.500    0.000    8.000 
#    0.000    1.250    0.000    6.000    0.000    0.583 
#    0.000    4.667    0.000    0.000    0.000    0.000 
#
# Total GULP energy -595237.809198 kJ/mol
# GULP energy per Si atom -12400.787692 kJ/mol
# Density = 1.864253 g / cm^3
# Si number density = 18.685059 Si / 1000 Ang^3
#
#
#
# Elastic Constant Matrix: (Units=GPa)
#
#
# Indices 1 2 3 4 5 6 
#
# 1 95.0684 31.7771 71.2846 0.0000 0.0000 0.0000
# 2 31.7771 59.3697 53.5212 0.0000 0.0000 0.0000
# 3 71.2846 53.5212 196.8077 0.0000 0.0000 0.0000
# 4 0.0000 0.0000 0.0000 11.1918 0.0000 0.0000
# 5 0.0000 0.0000 0.0000 0.0000 9.8935 0.0000
# 6 0.0000 0.0000 0.0000 0.0000 0.0000 14.5934
#
#
#
# Elastic Compliance Matrix: (Units=1/GPa)
#
#
# Indices 1 2 3 4 5 6 
#
# 1 0.015192 -0.004201 -0.004360 0.000000 0.000000 0.000000
# 2 -0.004201 0.023476 -0.004863 0.000000 0.000000 0.000000
# 3 -0.004360 -0.004863 0.007983 0.000000 0.000000 0.000000
# 4 0.000000 0.000000 0.000000 0.089351 0.000000 0.000000
# 5 0.000000 0.000000 0.000000 0.000000 0.101076 0.000000
# 6 0.000000 0.000000 0.000000 0.000000 0.000000 0.068524
#
#
# Mechanical properties :
#
#
# Convention : Reuss Voigt Hill
#
# Bulk Modulus (GPa) = 50.49645 73.82351 62.15998
# Shear Modulus (GPa) = 14.74705 20.11327 17.43016
#
# Velocity S-wave (km/s) = 2.81239 3.28447 3.05756
# Velocity P-wave (km/s) = 6.13431 7.34703 6.76789
#
# Compressibility (1/GPa) = 0.01980337
#
# Stress axis : x y z
#
# Youngs Moduli (GPa) = 65.82255 42.59741 125.26928
#
# Poissons Ratio (x) = 0.17894 0.54622
# Poissons Ratio (y) = 0.27651 0.60913
# Poissons Ratio (z) = 0.28701 0.20713
#
# Static dielectric constant tensor:
#      x y z
#    x 3.321570 0.000000 0.000000 
#    y 0.000000 3.088390 0.000000 
#    z 0.000000 0.000000 3.688960 
# 
# 
# High freq. dielectric constant tensor:
#      x y z
#    x 1.710000 0.000000 0.000000 
#    y 0.000000 1.684340 0.000000 
#    z 0.000000 0.000000 1.745290 
# 
# From -- ./inp_files/34203.got.cif
#   From: 2010.03.12/outbox.cif.g09.slc.cpg/sg47_18_cif.got.tgz:34203.got - 2010.04.14 03:12:58.
