data_PCOD8197583
_publ_section_title
;
Structure prediction by ZEFSAII (Michael W. Deem and Ramdas Pophale) SiO2 
 PCOD8197583
Probable space group: P M M M
;
_chemical_formula_sum "Si O2"
_cell_formula_units_Z 48
_cell_length_a 30.789136
_cell_length_b 8.974245
_cell_length_c 9.513182
_cell_angle_alpha 90.000000
_cell_angle_beta 90.000000
_cell_angle_gamma 90.000000
_cell_volume 2628.580182
_symmetry_space_group_name_H-M "P M M M"
_symmetry_group_IT_number 47
_symmetry_cell_setting 'orthorhombic'
loop_
_space_group_symop_operation_xyz
x,y,z
-x,-y,z
x,-y,-z
-x,y,-z
-x,-y,-z
x,y,-z
-x,y,z
x,-y,z
loop_
_atom_site_type_symbol
_atom_site_label
_atom_site_fract_x
_atom_site_fract_y
_atom_site_fract_z
Si Si1 0.159592 0.671026 0.165637
Si Si2 0.575465 0.824865 0.337608
Si Si3 0.500000 0.675877 0.163824
Si Si4 0.000000 0.668002 0.667085
Si Si5 0.664408 0.671234 0.662797
Si Si6 0.913704 0.174552 0.338679
Si Si7 0.743724 0.323012 0.844681
O O1 0.151791 0.500000 0.210792
O O2 0.127332 0.776815 0.248536
O O3 0.208289 0.724395 0.207007
O O4 0.152297 0.689701 0.000000
O O5 0.565270 0.784170 0.500000
O O6 0.542307 0.742207 0.236727
O O7 0.623250 0.770333 0.295008
O O8 0.571783 0.000000 0.312360
O O9 0.500000 0.500000 0.185047
O O10 0.500000 0.719925 0.000000
O O11 0.043144 0.748486 0.724132
O O12 0.000000 0.500000 0.724014
O O13 0.000000 0.675701 0.500000
O O14 0.675259 0.685339 0.500000
O O15 0.654797 0.500000 0.704953
O O16 0.706305 0.737838 0.742313
O O17 0.905834 0.222315 0.500000
O O18 0.920553 0.000000 0.324702
O O19 0.742508 0.500000 0.849727
O O20 0.734716 0.258119 0.000000
#
# Coordination Sequence:
#
# PCOD8197583 Si02
#       7
#     8   8   4   4   8   8   8
#     4   9  18  33  52  74 101 134 172 212 253 298
#     4  10  21  37  56  78 106 140 173 206 251 305
#     4  11  24  39  56  80 106 133 170 215 258 300
#     4   9  17  31  52  75  98 127 164 206 252 301
#     4   9  17  30  50  76 103 132 169 211 252 296
#     4  10  20  33  50  74 103 133 165 204 252 304
#     4   8  15  29  49  72  98 129 166 209 254 296
#
# _framework density 18.260808999999998
#
# number of rings (size 3 to 8) (size 9 to 14) (size 15 to 20)
#    0.000    2.667    0.000    2.750    0.000    6.333 
#    0.000    4.583    0.000    5.500    0.000    0.000 
#    0.000    0.000    0.000    0.000    0.000    0.000 
#
# Total GULP energy -595179.305051 kJ/mol
# GULP energy per Si atom -12399.568855 kJ/mol
# Density = 1.821925 g / cm^3
# Si number density = 18.260809 Si / 1000 Ang^3
#
#
#
# Elastic Constant Matrix: (Units=GPa)
#
#
# Indices 1 2 3 4 5 6 
#
# 1 166.7758 56.1037 77.2143 0.0000 0.0000 0.0000
# 2 56.1037 71.9173 41.2551 0.0000 0.0000 0.0000
# 3 77.2143 41.2551 72.1505 0.0000 0.0000 0.0000
# 4 0.0000 0.0000 0.0000 22.5349 0.0000 0.0000
# 5 0.0000 0.0000 0.0000 0.0000 -14.9477 0.0000
# 6 0.0000 0.0000 0.0000 0.0000 0.0000 -0.1421
#
#
#
# Elastic Compliance Matrix: (Units=1/GPa)
#
#
# Indices 1 2 3 4 5 6 
#
# 1 0.012317 -0.003047 -0.011440 0.000000 0.000000 0.000000
# 2 -0.003047 0.021445 -0.009002 0.000000 0.000000 0.000000
# 3 -0.011440 -0.009002 0.031250 0.000000 0.000000 0.000000
# 4 0.000000 0.000000 0.000000 0.044376 0.000000 0.000000
# 5 0.000000 0.000000 0.000000 0.000000 -0.066900 0.000000
# 6 0.000000 0.000000 0.000000 0.000000 0.000000 -7.038685
#
#
# Mechanical properties :
#
#
# Convention : Reuss Voigt Hill
#
# Bulk Modulus (GPa) = 55.44470 73.33221 64.38845
# Shear Modulus (GPa) = -0.72013 10.57371 4.92679
#
# Velocity S-wave (km/s) = -0.62866 2.40893 1.64435
# Velocity P-wave (km/s) = 5.46824 6.92695 6.24037
#
# Compressibility (1/GPa) = 0.01803599
#
# Stress axis : x y z
#
# Youngs Moduli (GPa) = 81.18582 46.62990 31.99995
#
# Poissons Ratio (x) = 0.14206 0.36608
# Poissons Ratio (y) = 0.24733 0.28806
# Poissons Ratio (z) = 0.92876 0.41976
#
# Static dielectric constant tensor:
#      x y z
#    x 3.596280 0.000000 0.000000 
#    y 0.000000 3.213740 0.000000 
#    z 0.000000 0.000000 3.337590 
# 
# 
# High freq. dielectric constant tensor:
#      x y z
#    x 1.722730 0.000000 0.000000 
#    y 0.000000 1.693130 0.000000 
#    z 0.000000 0.000000 1.692980 
# 
# From -- ./inp_files/2748.got.cif
#   From: 2010.03.12/outbox.cif.g09.slc.cpg/sg47_2_cif.got.tgz:2748.got - 2010.04.14 03:12:58.
