data_PCOD8197362
_publ_section_title
;
Structure prediction by ZEFSAII (Michael W. Deem and Ramdas Pophale) SiO2 
 PCOD8197362
Probable space group: P M M M
;
_chemical_formula_sum "Si O2"
_cell_formula_units_Z 40
_cell_length_a 19.850970
_cell_length_b 7.970281
_cell_length_c 16.867908
_cell_angle_alpha 90.000000
_cell_angle_beta 90.000000
_cell_angle_gamma 90.000000
_cell_volume 2668.803447
_symmetry_space_group_name_H-M "P M M M"
_symmetry_group_IT_number 47
_symmetry_cell_setting 'orthorhombic'
loop_
_space_group_symop_operation_xyz
x,y,z
-x,-y,z
x,-y,-z
-x,y,-z
-x,-y,-z
x,y,-z
-x,y,z
x,-y,z
loop_
_atom_site_type_symbol
_atom_site_label
_atom_site_fract_x
_atom_site_fract_y
_atom_site_fract_z
Si Si1 0.079427 0.693578 0.000000
Si Si2 0.427889 0.303053 0.908596
Si Si3 0.849320 0.194004 0.156038
Si Si4 0.920053 0.000000 0.588562
Si Si5 0.712311 0.194322 0.911788
Si Si6 0.078105 0.688186 0.692806
O O1 0.107962 0.786306 0.076591
O O2 0.101634 0.500000 0.000000
O O3 0.000000 0.713748 0.000000
O O4 0.500000 0.240624 0.871204
O O5 0.423117 0.500000 0.898780
O O6 0.360506 0.224775 0.869297
O O7 0.428272 0.248412 0.000000
O O8 0.773304 0.264956 0.141583
O O9 0.881160 0.303559 0.225596
O O10 0.849790 0.000000 0.182138
O O11 0.894900 0.170011 0.632089
O O12 0.889366 0.000000 0.500000
O O13 0.000000 0.000000 0.584295
O O14 0.726117 0.000000 0.921925
O O15 0.713514 0.278531 0.000000
O O16 0.087860 0.500000 0.657000
O O17 0.000000 0.721985 0.712398
#
# Coordination Sequence:
#
# PCOD8197362 Si02
#       6
#     4   8   8   4   8   8
#     4  11  23  33  41  57  78 107 152 194 225 262
#     4   8  14  24  37  53  72  95 128 172 219 261
#     4  11  20  32  45  59  84 116 149 186 225 261
#     4   9  18  34  54  73  91 111 136 172 221 271
#     4   9  17  28  39  54  76 103 142 184 218 254
#     4  10  20  33  49  69  91 115 145 181 221 267
#
# _framework density 14.98799
#
# number of rings (size 3 to 8) (size 9 to 14) (size 15 to 20)
#    0.000    2.400    2.000    2.100    0.000    5.600 
#    0.000    4.000    0.000    0.000    0.000    0.000 
#    0.000    0.000    0.000    0.000    0.000    2.000 
#
# Total GULP energy -495664.459075 kJ/mol
# GULP energy per Si atom -12391.611477 kJ/mol
# Density = 1.495388 g / cm^3
# Si number density = 14.987990 Si / 1000 Ang^3
#
#
#
# Elastic Constant Matrix: (Units=GPa)
#
#
# Indices 1 2 3 4 5 6 
#
# 1 101.8303 26.3692 27.8672 0.0000 0.0000 0.0000
# 2 26.3692 64.1984 26.5734 0.0000 0.0000 0.0000
# 3 27.8672 26.5734 69.7514 0.0000 0.0000 0.0000
# 4 0.0000 0.0000 0.0000 12.5001 0.0000 0.0000
# 5 0.0000 0.0000 0.0000 0.0000 -0.8533 0.0000
# 6 0.0000 0.0000 0.0000 0.0000 0.0000 19.5554
#
#
#
# Elastic Compliance Matrix: (Units=1/GPa)
#
#
# Indices 1 2 3 4 5 6 
#
# 1 0.011613 -0.003383 -0.003351 0.000000 0.000000 0.000000
# 2 -0.003383 0.019478 -0.006069 0.000000 0.000000 0.000000
# 3 -0.003351 -0.006069 0.017988 0.000000 0.000000 0.000000
# 4 0.000000 0.000000 0.000000 0.080000 0.000000 0.000000
# 5 0.000000 0.000000 0.000000 0.000000 -1.171894 0.000000
# 6 0.000000 0.000000 0.000000 0.000000 0.000000 0.051137
#
#
# Mechanical properties :
#
#
# Convention : Reuss Voigt Hill
#
# Bulk Modulus (GPa) = 42.60202 44.15553 43.37877
# Shear Modulus (GPa) = -5.21786 16.57177 5.67696
#
# Velocity S-wave (km/s) = -1.86787 3.32877 1.94830
# Velocity P-wave (km/s) = 4.88200 6.65574 5.83664
#
# Compressibility (1/GPa) = 0.02347306
#
# Stress axis : x y z
#
# Youngs Moduli (GPa) = 86.10787 51.33867 55.59389
#
# Poissons Ratio (x) = 0.17368 0.18629
# Poissons Ratio (y) = 0.29131 0.33741
# Poissons Ratio (z) = 0.28854 0.31158
#
# Static dielectric constant tensor:
#      x y z
#    x 3.160050 0.000000 0.000000 
#    y 0.000000 2.944380 0.000000 
#    z 0.000000 0.000000 2.583070 
# 
# 
# High freq. dielectric constant tensor:
#      x y z
#    x 1.571520 0.000000 0.000000 
#    y 0.000000 1.583480 0.000000 
#    z 0.000000 0.000000 1.508910 
# 
# From -- ./inp_files/28388.got.cif
#   From: 2010.03.12/outbox.cif.g09.slc.cpg/sg47_15_cif.got.tgz:28388.got - 2010.04.14 03:12:58.
