data_PCOD8197113
_publ_section_title
;
Structure prediction by ZEFSAII (Michael W. Deem and Ramdas Pophale) SiO2 
 PCOD8197113
Probable space group: P M M M
;
_chemical_formula_sum "Si O2"
_cell_formula_units_Z 48
_cell_length_a 29.097189
_cell_length_b 9.874100
_cell_length_c 8.976481
_cell_angle_alpha 90.000000
_cell_angle_beta 90.000000
_cell_angle_gamma 90.000000
_cell_volume 2579.019775
_symmetry_space_group_name_H-M "P M M M"
_symmetry_group_IT_number 47
_symmetry_cell_setting 'orthorhombic'
loop_
_space_group_symop_operation_xyz
x,y,z
-x,-y,z
x,-y,-z
-x,y,-z
-x,-y,-z
x,y,-z
-x,y,z
x,-y,z
loop_
_atom_site_type_symbol
_atom_site_label
_atom_site_fract_x
_atom_site_fract_y
_atom_site_fract_z
Si Si1 0.552402 0.000000 0.323769
Si Si2 0.605746 0.239638 0.824471
Si Si3 0.948716 0.348461 0.822978
Si Si4 0.203844 0.345244 0.326273
Si Si5 0.690522 0.344492 0.328078
Si Si6 0.131224 0.844610 0.822836
Si Si7 0.449070 0.500000 0.824120
O O1 0.579314 0.874008 0.262012
O O2 0.500000 0.000000 0.264786
O O3 0.553699 0.000000 0.500000
O O4 0.658828 0.248884 0.773993
O O5 0.579390 0.372243 0.769898
O O6 0.603740 0.213520 0.000000
O O7 0.934527 0.500000 0.768062
O O8 0.913633 0.235373 0.760939
O O9 0.000000 0.313370 0.764786
O O10 0.948302 0.346359 0.000000
O O11 0.192439 0.330649 0.500000
O O12 0.193056 0.500000 0.274725
O O13 0.256722 0.309401 0.294387
O O14 0.175481 0.235276 0.234570
O O15 0.678970 0.317004 0.500000
O O16 0.680999 0.500000 0.286299
O O17 0.130590 0.000000 0.763845
O O18 0.132196 0.843534 0.000000
O O19 0.500000 0.500000 0.751692
O O20 0.453781 0.500000 0.000000
#
# Coordination Sequence:
#
# PCOD8197113 Si02
#       7
#     4   8   8   8   8   8   4
#     4  11  25  43  59  79 111 151 191 225 262 315
#     4  11  21  36  59  86 114 144 179 222 273 324
#     4   8  14  26  46  72 102 138 180 223 269 322
#     4   9  19  36  57  78 101 138 183 222 266 321
#     4   9  18  35  58  82 109 139 176 223 272 326
#     4  10  20  32  48  76 111 143 177 221 271 321
#     4   9  18  32  53  83 115 141 169 211 264 321
#
# _framework density 18.611722
#
# number of rings (size 3 to 8) (size 9 to 14) (size 15 to 20)
#    0.000    2.500    0.833    3.250    0.000    3.667 
#    1.500    3.333    0.000    2.500    0.000    3.500 
#    0.000    0.000    0.000    0.000    0.000    0.000 
#
# Total GULP energy -595051.835538 kJ/mol
# GULP energy per Si atom -12396.913240 kJ/mol
# Density = 1.856936 g / cm^3
# Si number density = 18.611722 Si / 1000 Ang^3
#
#
#
# Elastic Constant Matrix: (Units=GPa)
#
#
# Indices 1 2 3 4 5 6 
#
# 1 132.7685 76.3643 33.0738 0.0000 0.0000 0.0000
# 2 76.3643 142.2455 31.9396 0.0000 0.0000 0.0000
# 3 33.0738 31.9396 35.7336 0.0000 0.0000 0.0000
# 4 0.0000 0.0000 0.0000 26.6164 0.0000 0.0000
# 5 0.0000 0.0000 0.0000 0.0000 20.4141 0.0000
# 6 0.0000 0.0000 0.0000 0.0000 0.0000 37.9412
#
#
#
# Elastic Compliance Matrix: (Units=1/GPa)
#
#
# Indices 1 2 3 4 5 6 
#
# 1 0.012064 -0.004966 -0.006727 0.000000 0.000000 0.000000
# 2 -0.004966 0.010839 -0.005092 0.000000 0.000000 0.000000
# 3 -0.006727 -0.005092 0.038763 0.000000 0.000000 0.000000
# 4 0.000000 0.000000 0.000000 0.037571 0.000000 0.000000
# 5 0.000000 0.000000 0.000000 0.000000 0.048986 0.000000
# 6 0.000000 0.000000 0.000000 0.000000 0.000000 0.026357
#
#
# Mechanical properties :
#
#
# Convention : Reuss Voigt Hill
#
# Bulk Modulus (GPa) = 35.59297 65.94476 50.76887
# Shear Modulus (GPa) = 22.98682 28.28567 25.63625
#
# Velocity S-wave (km/s) = 3.51817 3.90266 3.71539
# Velocity P-wave (km/s) = 5.97234 7.47104 6.76333
#
# Compressibility (1/GPa) = 0.02809543
#
# Stress axis : x y z
#
# Youngs Moduli (GPa) = 82.89095 92.25520 25.79776
#
# Poissons Ratio (x) = 0.45814 0.17355
# Poissons Ratio (y) = 0.41164 0.13137
# Poissons Ratio (z) = 0.55763 0.46979
#
# Static dielectric constant tensor:
#      x y z
#    x 3.633820 0.000000 0.000000 
#    y 0.000000 3.418440 0.000000 
#    z 0.000000 0.000000 3.084260 
# 
# 
# High freq. dielectric constant tensor:
#      x y z
#    x 1.736470 0.000000 0.000000 
#    y 0.000000 1.719830 0.000000 
#    z 0.000000 0.000000 1.693170 
# 
# From -- ./inp_files/13825.got.cif
#   From: 2010.03.12/outbox.cif.g09.slc.cpg/sg47_7_cif.got.tgz:13825.got - 2010.04.14 03:12:58.
