data_PCOD8197132
_publ_section_title
;
Structure prediction by ZEFSAII (Michael W. Deem and Ramdas Pophale) SiO2 
 PCOD8197132
Probable space group: P M M M
;
_chemical_formula_sum "Si O2"
_cell_formula_units_Z 64
_cell_length_a 18.598767
_cell_length_b 9.413101
_cell_length_c 20.273540
_cell_angle_alpha 90.000000
_cell_angle_beta 90.000000
_cell_angle_gamma 90.000000
_cell_volume 3549.330660
_symmetry_space_group_name_H-M "P M M M"
_symmetry_group_IT_number 47
_symmetry_cell_setting 'orthorhombic'
loop_
_space_group_symop_operation_xyz
x,y,z
-x,-y,z
x,-y,-z
-x,y,-z
-x,-y,-z
x,y,-z
-x,y,z
x,-y,z
loop_
_atom_site_type_symbol
_atom_site_label
_atom_site_fract_x
_atom_site_fract_y
_atom_site_fract_z
Si Si1 0.186832 0.166287 0.575205
Si Si2 0.326982 0.337357 0.574127
Si Si3 0.580479 0.831314 0.927252
Si Si4 0.670513 0.832121 0.195350
Si Si5 0.080375 0.831188 0.686876
Si Si6 0.835930 0.167495 0.815515
Si Si7 0.582096 0.335336 0.697743
Si Si8 0.082207 0.664282 0.076168
O O1 0.165284 0.202504 0.500000
O O2 0.259831 0.242732 0.596585
O O3 0.123014 0.221751 0.622224
O O4 0.200209 0.000000 0.585402
O O5 0.351818 0.297248 0.500000
O O6 0.301471 0.500000 0.577900
O O7 0.393790 0.308883 0.622332
O O8 0.500000 0.777331 0.910122
O O9 0.635598 0.773881 0.872579
O O10 0.581326 0.000000 0.927810
O O11 0.603358 0.775009 0.000000
O O12 0.753575 0.789088 0.195428
O O13 0.632158 0.757629 0.255995
O O14 0.659715 0.000000 0.203094
O O15 0.119543 0.775933 0.752714
O O16 0.000000 0.767218 0.684392
O O17 0.077603 0.000000 0.687687
O O18 0.864585 0.240727 0.881206
O O19 0.844380 0.000000 0.825002
O O20 0.500000 0.284625 0.704551
O O21 0.590347 0.500000 0.717164
O O22 0.095279 0.500000 0.092970
O O23 0.000000 0.706270 0.091990
O O24 0.099591 0.694925 0.000000
#
# Coordination Sequence:
#
# PCOD8197132 Si02
#       8
#     8   8   8   8   8   8   8   8
#     4   9  17  30  50  74  97 123 158 199 240 285
#     4   9  18  33  52  72  96 128 162 197 242 293
#     4   8  14  26  45  68  93 122 157 195 233 277
#     4  10  20  33  51  75 101 130 164 202 247 297
#     4   9  17  29  45  67  97 129 160 198 243 288
#     4  10  20  32  49  74 101 130 166 208 250 293
#     4  10  21  35  51  73 100 130 166 207 247 289
#     4   9  19  36  55  74  99 132 168 206 250 300
#
# _framework density 18.031566999999999
#
# number of rings (size 3 to 8) (size 9 to 14) (size 15 to 20)
#    0.000    2.750    0.000    2.250    0.000    4.750 
#    0.000    5.000    0.000    1.500    0.000    6.125 
#    0.000    0.000    0.000    0.000    0.000    0.000 
#
# Total GULP energy -793567.181714 kJ/mol
# GULP energy per Si atom -12399.487214 kJ/mol
# Density = 1.799053 g / cm^3
# Si number density = 18.031567 Si / 1000 Ang^3
#
#
#
# Elastic Constant Matrix: (Units=GPa)
#
#
# Indices 1 2 3 4 5 6 
#
# 1 140.9530 43.5508 77.4180 0.0000 0.0000 0.0000
# 2 43.5508 33.7742 36.7757 0.0000 0.0000 0.0000
# 3 77.4180 36.7757 116.8835 0.0000 0.0000 0.0000
# 4 0.0000 0.0000 0.0000 25.7847 0.0000 0.0000
# 5 0.0000 0.0000 0.0000 0.0000 39.9175 0.0000
# 6 0.0000 0.0000 0.0000 0.0000 0.0000 16.9476
#
#
#
# Elastic Compliance Matrix: (Units=1/GPa)
#
#
# Indices 1 2 3 4 5 6 
#
# 1 0.013683 -0.011827 -0.005341 0.000000 0.000000 0.000000
# 2 -0.011827 0.055262 -0.009554 0.000000 0.000000 0.000000
# 3 -0.005341 -0.009554 0.015099 0.000000 0.000000 0.000000
# 4 0.000000 0.000000 0.000000 0.038783 0.000000 0.000000
# 5 0.000000 0.000000 0.000000 0.000000 0.025052 0.000000
# 6 0.000000 0.000000 0.000000 0.000000 0.000000 0.059006
#
#
# Mechanical properties :
#
#
# Convention : Reuss Voigt Hill
#
# Bulk Modulus (GPa) = 32.68046 67.45553 50.06800
# Shear Modulus (GPa) = 18.48237 25.45435 21.96836
#
# Velocity S-wave (km/s) = 3.20504 3.76128 3.49424
# Velocity P-wave (km/s) = 5.64444 7.50692 6.64129
#
# Compressibility (1/GPa) = 0.03059932
#
# Stress axis : x y z
#
# Youngs Moduli (GPa) = 73.08523 18.09569 66.22806
#
# Poissons Ratio (x) = 0.21402 0.35376
# Poissons Ratio (y) = 0.86439 0.63271
# Poissons Ratio (z) = 0.39038 0.17288
#
# Static dielectric constant tensor:
#      x y z
#    x 3.444450 0.000000 0.000000 
#    y 0.000000 3.007680 0.000000 
#    z 0.000000 0.000000 3.543450 
# 
# 
# High freq. dielectric constant tensor:
#      x y z
#    x 1.700090 0.000000 0.000000 
#    y 0.000000 1.663750 0.000000 
#    z 0.000000 0.000000 1.712280 
# 
# From -- ./inp_files/29958.got.cif
#   From: 2010.03.12/outbox.cif.g09.slc.cpg/sg47_15_cif.got.tgz:29958.got - 2010.04.14 03:12:58.
