data_PCOD8197543
_publ_section_title
;
Structure prediction by ZEFSAII (Michael W. Deem and Ramdas Pophale) SiO2 
 PCOD8197543
Probable space group: P M M M
;
_chemical_formula_sum "Si O2"
_cell_formula_units_Z 32
_cell_length_a 22.086105
_cell_length_b 9.274764
_cell_length_c 9.162638
_cell_angle_alpha 90.000000
_cell_angle_beta 90.000000
_cell_angle_gamma 90.000000
_cell_volume 1876.906027
_symmetry_space_group_name_H-M "P M M M"
_symmetry_group_IT_number 47
_symmetry_cell_setting 'orthorhombic'
loop_
_space_group_symop_operation_xyz
x,y,z
-x,-y,z
x,-y,-z
-x,y,-z
-x,-y,-z
x,y,-z
-x,y,z
x,-y,z
loop_
_atom_site_type_symbol
_atom_site_label
_atom_site_fract_x
_atom_site_fract_y
_atom_site_fract_z
Si Si1 0.737140 0.831269 0.331700
Si Si2 0.500000 0.671519 0.164639
Si Si3 0.929801 0.500000 0.327942
Si Si4 0.617931 0.667232 0.330127
Si Si5 0.835690 0.341274 0.834528
O O1 0.749185 0.791488 0.500000
O O2 0.676317 0.754515 0.275588
O O3 0.793606 0.777685 0.238228
O O4 0.729314 0.000000 0.307621
O O5 0.500000 0.500000 0.171524
O O6 0.559958 0.729531 0.244736
O O7 0.500000 0.729695 0.000000
O O8 0.918349 0.500000 0.500000
O O9 0.898707 0.642994 0.256515
O O10 0.000000 0.500000 0.287805
O O11 0.605450 0.692800 0.500000
O O12 0.629267 0.500000 0.294822
O O13 0.803518 0.500000 0.832339
O O14 0.850204 0.293317 0.000000
#
# Coordination Sequence:
#
# PCOD8197543 Si02
#       5
#     8   4   4   8   8
#     4  10  20  33  50  73 101 135 173 212 254 299
#     4   9  17  29  46  69  92 118 156 207 258 307
#     4   9  17  31  55  83 107 132 165 206 247 287
#     4   9  17  30  49  70  93 124 163 208 256 305
#     4   9  19  32  50  77 105 135 167 202 248 297
#
# _framework density 17.049334999999999
#
# number of rings (size 3 to 8) (size 9 to 14) (size 15 to 20)
#    0.750    2.000    0.000    1.875    0.000    5.000 
#    0.000    3.125    0.000    4.500    0.000    5.250 
#    0.000    0.000    0.000    0.000    0.000    0.000 
#
# Total GULP energy -396664.934067 kJ/mol
# GULP energy per Si atom -12395.779190 kJ/mol
# Density = 1.701053 g / cm^3
# Si number density = 17.049335 Si / 1000 Ang^3
#
#
#
# Elastic Constant Matrix: (Units=GPa)
#
#
# Indices 1 2 3 4 5 6 
#
# 1 154.2812 46.0923 80.4443 0.0000 0.0000 0.0000
# 2 46.0923 50.4148 34.5320 0.0000 0.0000 0.0000
# 3 80.4443 34.5320 105.2385 0.0000 0.0000 0.0000
# 4 0.0000 0.0000 0.0000 18.2979 0.0000 0.0000
# 5 0.0000 0.0000 0.0000 0.0000 12.0330 0.0000
# 6 0.0000 0.0000 0.0000 0.0000 0.0000 4.9007
#
#
#
# Elastic Compliance Matrix: (Units=1/GPa)
#
#
# Indices 1 2 3 4 5 6 
#
# 1 0.012068 -0.006082 -0.007229 0.000000 0.000000 0.000000
# 2 -0.006082 0.028651 -0.004752 0.000000 0.000000 0.000000
# 3 -0.007229 -0.004752 0.016588 0.000000 0.000000 0.000000
# 4 0.000000 0.000000 0.000000 0.054651 0.000000 0.000000
# 5 0.000000 0.000000 0.000000 0.000000 0.083104 0.000000
# 6 0.000000 0.000000 0.000000 0.000000 0.000000 0.204053
#
#
# Mechanical properties :
#
#
# Convention : Reuss Voigt Hill
#
# Bulk Modulus (GPa) = 47.21438 70.23017 58.72228
# Shear Modulus (GPa) = 11.30451 16.97073 14.13762
#
# Velocity S-wave (km/s) = 2.57776 3.15840 2.88274
# Velocity P-wave (km/s) = 6.05085 7.38799 6.75260
#
# Compressibility (1/GPa) = 0.02117999
#
# Stress axis : x y z
#
# Youngs Moduli (GPa) = 82.86390 34.90297 60.28585
#
# Poissons Ratio (x) = 0.21227 0.43582
# Poissons Ratio (y) = 0.50394 0.28651
# Poissons Ratio (z) = 0.59904 0.16587
#
# Static dielectric constant tensor:
#      x y z
#    x 3.126330 0.000000 0.000000 
#    y 0.000000 2.858430 0.000000 
#    z 0.000000 0.000000 3.222350 
# 
# 
# High freq. dielectric constant tensor:
#      x y z
#    x 1.653270 0.000000 0.000000 
#    y 0.000000 1.622460 0.000000 
#    z 0.000000 0.000000 1.664420 
# 
# From -- ./inp_files/12022.got.cif
#   From: 2010.03.12/outbox.cif.g09.slc.cpg/sg47_7_cif.got.tgz:12022.got - 2010.04.14 03:12:58.
