data_PCOD8197157
_publ_section_title
;
Structure prediction by ZEFSAII (Michael W. Deem and Ramdas Pophale) SiO2 
 PCOD8197157
Probable space group: P M M M
;
_chemical_formula_sum "Si O2"
_cell_formula_units_Z 44
_cell_length_a 9.219007
_cell_length_b 28.320192
_cell_length_c 9.378231
_cell_angle_alpha 90.000000
_cell_angle_beta 90.000000
_cell_angle_gamma 90.000000
_cell_volume 2448.506515
_symmetry_space_group_name_H-M "P M M M"
_symmetry_group_IT_number 47
_symmetry_cell_setting 'orthorhombic'
loop_
_space_group_symop_operation_xyz
x,y,z
-x,-y,z
x,-y,-z
-x,y,-z
-x,-y,-z
x,y,-z
-x,y,z
x,-y,z
loop_
_atom_site_type_symbol
_atom_site_label
_atom_site_fract_x
_atom_site_fract_y
_atom_site_fract_z
Si Si1 0.663791 0.000000 0.330303
Si Si2 0.168296 0.908695 0.334115
Si Si3 0.166353 0.357985 0.330897
Si Si4 0.662564 0.552050 0.669312
Si Si5 0.669778 0.276998 0.834528
Si Si6 0.833114 0.817063 0.834661
O O1 0.743833 0.046676 0.272639
O O2 0.500000 0.000000 0.272876
O O3 0.670442 0.000000 0.500000
O O4 0.199861 0.900591 0.500000
O O5 0.222224 0.862209 0.252618
O O6 0.000000 0.918720 0.304608
O O7 0.183717 0.353421 0.500000
O O8 0.227137 0.408229 0.274257
O O9 0.257950 0.317106 0.259231
O O10 0.000000 0.354027 0.283127
O O11 0.662776 0.551894 0.500000
O O12 0.500000 0.563478 0.724616
O O13 0.711179 0.500000 0.724627
O O14 0.500000 0.275921 0.802482
O O15 0.736630 0.227136 0.787006
O O16 0.703323 0.287004 0.000000
O O17 0.000000 0.805253 0.798369
O O18 0.812090 0.828771 0.000000
#
# Coordination Sequence:
#
# PCOD8197157 Si02
#       6
#     4   8   8   8   8   8
#     4   9  17  29  46  69  96 124 154 189 230 276
#     4   9  17  30  49  71  94 122 156 192 230 276
#     4  10  20  32  49  75 103 130 163 204 246 288
#     4   8  14  26  45  69  98 131 163 196 239 290
#     4  10  21  36  53  72  96 130 168 203 245 297
#     4   9  18  33  51  70  94 124 157 195 240 288
#
# _framework density 17.970137000000001
#
# number of rings (size 3 to 8) (size 9 to 14) (size 15 to 20)
#    0.000    2.818    0.000    1.909    0.000    5.091 
#    0.000    4.091    0.000    3.273    0.000    3.818 
#    0.000    0.000    0.000    0.000    0.000    0.000 
#
# Total GULP energy -545578.729075 kJ/mol
# GULP energy per Si atom -12399.516570 kJ/mol
# Density = 1.792924 g / cm^3
# Si number density = 17.970137 Si / 1000 Ang^3
#
#
#
# Elastic Constant Matrix: (Units=GPa)
#
#
# Indices 1 2 3 4 5 6 
#
# 1 110.5112 90.9883 32.2094 0.0000 0.0000 0.0000
# 2 90.9883 179.7200 47.4358 0.0000 0.0000 0.0000
# 3 32.2094 47.4358 29.8809 0.0000 0.0000 0.0000
# 4 0.0000 0.0000 0.0000 -8.8958 0.0000 0.0000
# 5 0.0000 0.0000 0.0000 0.0000 19.7823 0.0000
# 6 0.0000 0.0000 0.0000 0.0000 0.0000 30.7836
#
#
#
# Elastic Compliance Matrix: (Units=1/GPa)
#
#
# Indices 1 2 3 4 5 6 
#
# 1 0.016507 -0.006301 -0.007791 0.000000 0.000000 0.000000
# 2 -0.006301 0.011982 -0.012230 0.000000 0.000000 0.000000
# 3 -0.007791 -0.012230 0.061279 0.000000 0.000000 0.000000
# 4 0.000000 0.000000 0.000000 -0.112413 0.000000 0.000000
# 5 0.000000 0.000000 0.000000 0.000000 0.050550 0.000000
# 6 0.000000 0.000000 0.000000 0.000000 0.000000 0.032485
#
#
# Mechanical properties :
#
#
# Convention : Reuss Voigt Hill
#
# Bulk Modulus (GPa) = 26.93589 73.48656 50.21122
# Shear Modulus (GPa) = 39.86951 18.29927 29.08439
#
# Velocity S-wave (km/s) = 4.71537 3.19457 4.02740
# Velocity P-wave (km/s) = 6.68342 7.38847 7.04477
#
# Compressibility (1/GPa) = 0.03712519
#
# Stress axis : x y z
#
# Youngs Moduli (GPa) = 60.57860 83.45711 16.31881
#
# Poissons Ratio (x) = 0.52586 0.12714
# Poissons Ratio (y) = 0.38170 0.19957
# Poissons Ratio (z) = 0.47197 1.02066
#
# Static dielectric constant tensor:
#      x y z
#    x 3.427540 0.000000 0.000000 
#    y 0.000000 3.617240 0.000000 
#    z 0.000000 0.000000 2.990810 
# 
# 
# High freq. dielectric constant tensor:
#      x y z
#    x 1.698500 0.000000 0.000000 
#    y 0.000000 1.710930 0.000000 
#    z 0.000000 0.000000 1.657020 
# 
# From -- ./inp_files/2075.got.cif
#   From: 2010.03.12/outbox.cif.g09.slc.cpg/sg47_2_cif.got.tgz:2075.got - 2010.04.14 03:12:58.
