data_PCOD8197631
_publ_section_title
;
Structure prediction by ZEFSAII (Michael W. Deem and Ramdas Pophale) SiO2 
 PCOD8197631
Probable space group: P M M M
;
_chemical_formula_sum "Si O2"
_cell_formula_units_Z 44
_cell_length_a 15.561448
_cell_length_b 9.048103
_cell_length_c 17.193491
_cell_angle_alpha 90.000000
_cell_angle_beta 90.000000
_cell_angle_gamma 90.000000
_cell_volume 2420.870773
_symmetry_space_group_name_H-M "P M M M"
_symmetry_group_IT_number 47
_symmetry_cell_setting 'orthorhombic'
loop_
_space_group_symop_operation_xyz
x,y,z
-x,-y,z
x,-y,-z
-x,y,-z
-x,-y,-z
x,y,-z
-x,y,z
x,-y,z
loop_
_atom_site_type_symbol
_atom_site_label
_atom_site_fract_x
_atom_site_fract_y
_atom_site_fract_z
Si Si1 0.152882 0.174692 0.500000
Si Si2 0.350731 0.825500 0.500000
Si Si3 0.249210 0.674429 0.759165
Si Si4 0.595908 0.328604 0.346293
Si Si5 0.500000 0.164253 0.091900
Si Si6 0.671422 0.674309 0.087152
Si Si7 0.903501 0.328332 0.345695
O O1 0.251644 0.224759 0.500000
O O2 0.106330 0.238640 0.575304
O O3 0.142161 0.000000 0.500000
O O4 0.397911 0.762125 0.425236
O O5 0.359999 0.000000 0.500000
O O6 0.247825 0.500000 0.754042
O O7 0.333555 0.733839 0.714129
O O8 0.254953 0.721039 0.850490
O O9 0.162252 0.736093 0.719451
O O10 0.500000 0.305926 0.311276
O O11 0.613204 0.500000 0.365160
O O12 0.415652 0.251858 0.118235
O O13 0.500000 0.000000 0.128821
O O14 0.500000 0.153383 0.000000
O O15 0.655295 0.500000 0.087745
O O16 0.697888 0.727328 0.000000
O O17 0.884418 0.500000 0.363344
O O18 0.000000 0.306481 0.313467
#
# Coordination Sequence:
#
# PCOD8197631 Si02
#       7
#     4   4   8   8   4   8   8
#     4  11  22  35  52  75 103 132 161 200 253 303
#     4  11  22  35  50  69  99 134 165 202 245 291
#     4   9  18  32  51  74 100 126 160 209 246 282
#     4  10  20  33  51  71  93 131 175 206 237 284
#     4   9  17  29  45  69 101 132 163 202 245 287
#     4   9  17  30  50  73  98 132 170 204 243 291
#     4  10  20  35  56  77  96 126 166 204 248 300
#
# _framework density 18.175277999999999
#
# number of rings (size 3 to 8) (size 9 to 14) (size 15 to 20)
#    0.000    2.273    1.818    1.364    1.273    4.727 
#    0.000    1.818    0.000    0.545    0.000    3.818 
#    0.000    0.000    0.000    6.182    0.000    6.545 
#
# Total GULP energy -545443.978848 kJ/mol
# GULP energy per Si atom -12396.454065 kJ/mol
# Density = 1.813391 g / cm^3
# Si number density = 18.175278 Si / 1000 Ang^3
#
#
#
# Elastic Constant Matrix: (Units=GPa)
#
#
# Indices 1 2 3 4 5 6 
#
# 1 131.1821 24.8201 67.5599 0.0000 0.0000 0.0000
# 2 24.8201 38.5794 22.7717 0.0000 0.0000 0.0000
# 3 67.5599 22.7717 130.1390 0.0000 0.0000 0.0000
# 4 0.0000 0.0000 0.0000 3.2319 0.0000 0.0000
# 5 0.0000 0.0000 0.0000 0.0000 10.0395 0.0000
# 6 0.0000 0.0000 0.0000 0.0000 0.0000 15.1479
#
#
#
# Elastic Compliance Matrix: (Units=1/GPa)
#
#
# Indices 1 2 3 4 5 6 
#
# 1 0.010962 -0.004119 -0.004970 0.000000 0.000000 0.000000
# 2 -0.004119 0.030454 -0.003191 0.000000 0.000000 0.000000
# 3 -0.004970 -0.003191 0.010822 0.000000 0.000000 0.000000
# 4 0.000000 0.000000 0.000000 0.309413 0.000000 0.000000
# 5 0.000000 0.000000 0.000000 0.000000 0.099606 0.000000
# 6 0.000000 0.000000 0.000000 0.000000 0.000000 0.066016
#
#
# Mechanical properties :
#
#
# Convention : Reuss Voigt Hill
#
# Bulk Modulus (GPa) = 36.12805 58.91153 47.51979
# Shear Modulus (GPa) = 8.91173 18.00045 13.45609
#
# Velocity S-wave (km/s) = 2.21672 3.15045 2.72389
# Velocity P-wave (km/s) = 5.14515 6.76144 6.00790
#
# Compressibility (1/GPa) = 0.02767932
#
# Stress axis : x y z
#
# Youngs Moduli (GPa) = 91.22539 32.83680 92.40020
#
# Poissons Ratio (x) = 0.13525 0.45923
# Poissons Ratio (y) = 0.37574 0.29481
# Poissons Ratio (z) = 0.45339 0.10477
#
# Static dielectric constant tensor:
#      x y z
#    x 3.567170 0.000000 0.000000 
#    y 0.000000 3.188260 0.000000 
#    z 0.000000 0.000000 3.488400 
# 
# 
# High freq. dielectric constant tensor:
#      x y z
#    x 1.696080 0.000000 0.000000 
#    y 0.000000 1.680680 0.000000 
#    z 0.000000 0.000000 1.698780 
# 
# From -- ./inp_files/24393.got.cif
#   From: 2010.03.12/outbox.cif.g09.slc.cpg/sg47_13_cif.got.tgz:24393.got - 2010.04.14 03:12:58.
