data_PCOD8197843
_publ_section_title
;
Structure prediction by ZEFSAII (Michael W. Deem and Ramdas Pophale) SiO2 
 PCOD8197843
Probable space group: P M M M
;
_chemical_formula_sum "Si O2"
_cell_formula_units_Z 64
_cell_length_a 14.812464
_cell_length_b 8.744671
_cell_length_c 25.300038
_cell_angle_alpha 90.000000
_cell_angle_beta 90.000000
_cell_angle_gamma 90.000000
_cell_volume 3277.117069
_symmetry_space_group_name_H-M "P M M M"
_symmetry_group_IT_number 47
_symmetry_cell_setting 'orthorhombic'
loop_
_space_group_symop_operation_xyz
x,y,z
-x,-y,z
x,-y,-z
-x,y,-z
-x,-y,-z
x,y,-z
-x,y,z
x,-y,z
loop_
_atom_site_type_symbol
_atom_site_label
_atom_site_fract_x
_atom_site_fract_y
_atom_site_fract_z
Si Si1 0.399220 0.322952 0.579819
Si Si2 0.753868 0.182773 0.136403
Si Si3 0.598437 0.171368 0.312393
Si Si4 0.601160 0.818086 0.940907
Si Si5 0.785169 0.824137 0.441390
Si Si6 0.895959 0.319211 0.654527
Si Si7 0.777858 0.177468 0.253740
Si Si8 0.900690 0.818110 0.057982
O O1 0.500000 0.272745 0.559664
O O2 0.383676 0.500000 0.567132
O O3 0.392926 0.296723 0.642222
O O4 0.318834 0.229031 0.553048
O O5 0.663907 0.245177 0.106827
O O6 0.774829 0.247673 0.194800
O O7 0.835232 0.249204 0.101778
O O8 0.750108 0.000000 0.139392
O O9 0.500000 0.185418 0.284717
O O10 0.675127 0.205079 0.270547
O O11 0.610406 0.000000 0.336442
O O12 0.500000 0.759404 0.929521
O O13 0.604903 0.000000 0.940549
O O14 0.631992 0.763014 0.000000
O O15 0.828530 0.802172 0.500000
O O16 0.842517 0.734377 0.397696
O O17 0.786371 0.000000 0.423965
O O18 0.892784 0.500000 0.655115
O O19 0.848875 0.260891 0.708119
O O20 0.000000 0.260872 0.652491
O O21 0.805106 0.000000 0.254176
O O22 0.000000 0.753087 0.069471
O O23 0.901139 0.000000 0.060695
O O24 0.867627 0.765939 0.000000
#
# Coordination Sequence:
#
# PCOD8197843 Si02
#       8
#     8   8   8   8   8   8   8   8
#     4  10  20  34  56  86 118 153 189 222 259 306
#     4   9  16  24  37  61  93 128 169 215 263 318
#     4   9  17  30  49  73 104 142 181 219 262 315
#     4   8  13  21  34  55  90 139 186 222 261 313
#     4  11  24  41  63  91 120 148 180 222 272 325
#     4  11  25  44  64  83 106 141 183 227 278 336
#     4  10  20  33  52  79 108 141 179 223 278 332
#     4   8  13  21  33  50  77 116 158 201 255 316
#
# _framework density 19.52936
#
# number of rings (size 3 to 8) (size 9 to 14) (size 15 to 20)
#    0.000    2.500    1.250    2.250    0.000    5.750 
#    0.000    6.250    0.000    0.000    0.000    0.000 
#    0.000    2.000    0.000    8.250    0.000    6.500 
#
# Total GULP energy -792958.401442 kJ/mol
# GULP energy per Si atom -12389.975023 kJ/mol
# Density = 1.948491 g / cm^3
# Si number density = 19.529360 Si / 1000 Ang^3
#
#
#
# Elastic Constant Matrix: (Units=GPa)
#
#
# Indices 1 2 3 4 5 6 
#
# 1 136.6287 27.7458 82.8765 0.0000 0.0000 0.0000
# 2 27.7458 38.8553 25.8913 0.0000 0.0000 0.0000
# 3 82.8765 25.8913 156.4431 0.0000 0.0000 0.0000
# 4 0.0000 0.0000 0.0000 -1.6804 0.0000 0.0000
# 5 0.0000 0.0000 0.0000 0.0000 9.4527 0.0000
# 6 0.0000 0.0000 0.0000 0.0000 0.0000 20.2681
#
#
#
# Elastic Compliance Matrix: (Units=1/GPa)
#
#
# Indices 1 2 3 4 5 6 
#
# 1 0.011490 -0.004663 -0.005315 0.000000 0.000000 0.000000
# 2 -0.004663 0.030819 -0.002630 0.000000 0.000000 0.000000
# 3 -0.005315 -0.002630 0.009643 0.000000 0.000000 0.000000
# 4 0.000000 0.000000 0.000000 -0.595105 0.000000 0.000000
# 5 0.000000 0.000000 0.000000 0.000000 0.105790 0.000000
# 6 0.000000 0.000000 0.000000 0.000000 0.000000 0.049339
#
#
# Mechanical properties :
#
#
# Convention : Reuss Voigt Hill
#
# Bulk Modulus (GPa) = 37.40386 67.21713 52.31049
# Shear Modulus (GPa) = -14.12846 18.63567 2.25360
#
# Velocity S-wave (km/s) = -2.69262 3.09243 1.07539
# Velocity P-wave (km/s) = 3.08663 6.87343 5.32782
#
# Compressibility (1/GPa) = 0.02673521
#
# Stress axis : x y z
#
# Youngs Moduli (GPa) = 87.03082 32.44756 103.70031
#
# Poissons Ratio (x) = 0.15131 0.55119
# Poissons Ratio (y) = 0.40583 0.27276
# Poissons Ratio (z) = 0.46259 0.08534
#
# Static dielectric constant tensor:
#      x y z
#    x 3.925220 0.000000 0.000000 
#    y 0.000000 3.122180 0.000000 
#    z 0.000000 0.000000 3.684480 
# 
# 
# High freq. dielectric constant tensor:
#      x y z
#    x 1.770560 0.000000 0.000000 
#    y 0.000000 1.711190 0.000000 
#    z 0.000000 0.000000 1.762050 
# 
# From -- ./inp_files/32798.got.cif
#   From: 2010.03.12/outbox.cif.g09.slc.cpg/sg47_17_cif.got.tgz:32798.got - 2010.04.14 03:12:58.
