data_PCOD8197472
_publ_section_title
;
Structure prediction by ZEFSAII (Michael W. Deem and Ramdas Pophale) SiO2 
 PCOD8197472
Probable space group: P M M M
;
_chemical_formula_sum "Si O2"
_cell_formula_units_Z 40
_cell_length_a 26.091535
_cell_length_b 9.247910
_cell_length_c 8.931974
_cell_angle_alpha 90.000000
_cell_angle_beta 90.000000
_cell_angle_gamma 90.000000
_cell_volume 2155.215366
_symmetry_space_group_name_H-M "P M M M"
_symmetry_group_IT_number 47
_symmetry_cell_setting 'orthorhombic'
loop_
_space_group_symop_operation_xyz
x,y,z
-x,-y,z
x,-y,-z
-x,y,-z
-x,-y,-z
x,y,-z
-x,y,z
x,-y,z
loop_
_atom_site_type_symbol
_atom_site_label
_atom_site_fract_x
_atom_site_fract_y
_atom_site_fract_z
Si Si1 0.559237 0.333868 0.327545
Si Si2 0.836067 0.162981 0.320815
Si Si3 0.738717 0.336212 0.677862
Si Si4 0.945744 0.828162 0.667756
Si Si5 0.353396 0.832598 0.825222
O O1 0.571238 0.297444 0.500000
O O2 0.500000 0.305308 0.291095
O O3 0.573654 0.500000 0.294371
O O4 0.591697 0.230410 0.221189
O O5 0.838384 0.164670 0.500000
O O6 0.791126 0.265545 0.259668
O O7 0.891588 0.221703 0.257461
O O8 0.824937 0.000000 0.264046
O O9 0.737569 0.330000 0.500000
O O10 0.736018 0.500000 0.736734
O O11 0.690596 0.249186 0.736826
O O12 0.948060 0.765743 0.500000
O O13 0.000000 0.780672 0.748948
O O14 0.943046 0.000000 0.661365
O O15 0.351556 0.000000 0.780846
O O16 0.345053 0.808553 0.000000
#
# Coordination Sequence:
#
# PCOD8197472 Si02
#       5
#     8   8   8   8   8
#     4   9  19  37  60  84 108 134 165 198 232 277
#     4   8  13  22  38  60  86 118 156 197 240 284
#     4  10  20  33  50  71  95 126 165 206 246 292
#     4   7   9  14  27  50  80 113 149 188 230 278
#     4  11  24  38  52  74 103 132 164 204 247 289
#
# _framework density 18.559631
#
# number of rings (size 3 to 8) (size 9 to 14) (size 15 to 20)
#    0.000    3.000    0.000    4.200    0.000    6.400 
#    0.000    3.000    0.000    0.600    0.000    4.200 
#    0.000    0.800    0.000    9.200    0.000   10.600 
#
# Total GULP energy -495566.325418 kJ/mol
# GULP energy per Si atom -12389.158135 kJ/mol
# Density = 1.851739 g / cm^3
# Si number density = 18.559631 Si / 1000 Ang^3
#
#
#
# Elastic Constant Matrix: (Units=GPa)
#
#
# Indices 1 2 3 4 5 6 
#
# 1 141.2915 60.5931 15.1417 0.0000 0.0000 0.0000
# 2 60.5931 95.6612 18.7770 0.0000 0.0000 0.0000
# 3 15.1417 18.7770 11.9974 0.0000 0.0000 0.0000
# 4 0.0000 0.0000 0.0000 18.0438 0.0000 0.0000
# 5 0.0000 0.0000 0.0000 0.0000 -1.6856 0.0000
# 6 0.0000 0.0000 0.0000 0.0000 0.0000 7.0857
#
#
#
# Elastic Compliance Matrix: (Units=1/GPa)
#
#
# Indices 1 2 3 4 5 6 
#
# 1 0.009838 -0.005477 -0.003845 0.000000 0.000000 0.000000
# 2 -0.005477 0.018138 -0.021475 0.000000 0.000000 0.000000
# 3 -0.003845 -0.021475 0.121814 0.000000 0.000000 0.000000
# 4 0.000000 0.000000 0.000000 0.055421 0.000000 0.000000
# 5 0.000000 0.000000 0.000000 0.000000 -0.593273 0.000000
# 6 0.000000 0.000000 0.000000 0.000000 0.000000 0.141130
#
#
# Mechanical properties :
#
#
# Convention : Reuss Voigt Hill
#
# Bulk Modulus (GPa) = 11.33830 48.66375 30.00102
# Shear Modulus (GPa) = -32.06380 14.98467 -8.53957
#
# Velocity S-wave (km/s) = -4.16096 2.84453 -2.14736
# Velocity P-wave (km/s) = 4.11855 6.08815 3.17042
#
# Compressibility (1/GPa) = 0.08819664
#
# Stress axis : x y z
#
# Youngs Moduli (GPa) = 101.64169 55.13244 8.20923
#
# Poissons Ratio (x) = 0.30197 0.03156
# Poissons Ratio (y) = 0.55671 0.17629
# Poissons Ratio (z) = 0.39078 1.18398
#
# Static dielectric constant tensor:
#      x y z
#    x 3.979360 0.000000 0.000000 
#    y 0.000000 3.329280 0.000000 
#    z 0.000000 0.000000 2.894210 
# 
# 
# High freq. dielectric constant tensor:
#      x y z
#    x 1.752060 0.000000 0.000000 
#    y 0.000000 1.697340 0.000000 
#    z 0.000000 0.000000 1.661050 
# 
# From -- ./inp_files/1653.got.cif
#   From: 2010.03.12/outbox.cif.g09.slc.cpg/sg47_1_cif.got.tgz:1653.got - 2010.04.14 03:12:58.
