data_PCOD8197518
_publ_section_title
;
Structure prediction by ZEFSAII (Michael W. Deem and Ramdas Pophale) SiO2 
 PCOD8197518
Probable space group: P M M M
;
_chemical_formula_sum "Si O2"
_cell_formula_units_Z 40
_cell_length_a 9.115936
_cell_length_b 19.497094
_cell_length_c 12.755333
_cell_angle_alpha 90.000000
_cell_angle_beta 90.000000
_cell_angle_gamma 90.000000
_cell_volume 2267.059686
_symmetry_space_group_name_H-M "P M M M"
_symmetry_group_IT_number 47
_symmetry_cell_setting 'orthorhombic'
loop_
_space_group_symop_operation_xyz
x,y,z
-x,-y,z
x,-y,-z
-x,y,-z
-x,-y,-z
x,y,-z
-x,y,z
x,-y,z
loop_
_atom_site_type_symbol
_atom_site_label
_atom_site_fract_x
_atom_site_fract_y
_atom_site_fract_z
Si Si1 0.670374 0.580345 0.206833
Si Si2 0.335327 0.918534 0.000000
Si Si3 0.173860 0.178829 0.384796
Si Si4 0.172695 0.079002 0.793916
Si Si5 0.169650 0.666356 0.622114
Si Si6 0.833772 0.418420 0.000000
O O1 0.500000 0.597032 0.193283
O O2 0.699344 0.500000 0.220336
O O3 0.730490 0.616132 0.310640
O O4 0.752651 0.609340 0.103835
O O5 0.251008 0.892103 0.897484
O O6 0.500000 0.889053 0.000000
O O7 0.334942 0.000000 0.000000
O O8 0.238832 0.161480 0.500000
O O9 0.235333 0.123777 0.302221
O O10 0.218030 0.255783 0.351804
O O11 0.000000 0.173744 0.390403
O O12 0.000000 0.088538 0.809877
O O13 0.212827 0.000000 0.771381
O O14 0.196256 0.650287 0.500000
O O15 0.000000 0.654396 0.651414
O O16 0.828538 0.500000 0.000000
O O17 0.000000 0.390746 0.000000
#
# Coordination Sequence:
#
# PCOD8197518 Si02
#       6
#     8   4   8   8   8   4
#     4  10  20  33  50  73 100 126 154 194 242 286
#     4   9  17  29  44  63  92 127 157 189 232 277
#     4   8  15  29  48  70  96 124 154 191 235 278
#     4   9  16  27  47  73  96 119 152 193 233 276
#     4   9  18  33  51  69  93 128 166 199 232 277
#     4   9  17  31  52  75  98 125 157 191 230 281
#
# _framework density 17.643999000000001
#
# number of rings (size 3 to 8) (size 9 to 14) (size 15 to 20)
#    0.000    3.000    0.000    2.400    0.000    4.800 
#    0.000    6.000    0.000    4.200    0.000    2.800 
#    0.000    0.000    0.000    0.000    0.000    0.000 
#
# Total GULP energy -495929.636209 kJ/mol
# GULP energy per Si atom -12398.240905 kJ/mol
# Density = 1.760384 g / cm^3
# Si number density = 17.643999 Si / 1000 Ang^3
#
#
#
# Elastic Constant Matrix: (Units=GPa)
#
#
# Indices 1 2 3 4 5 6 
#
# 1 80.0554 43.5292 64.2516 0.0000 0.0000 0.0000
# 2 43.5292 62.5270 66.7495 0.0000 0.0000 0.0000
# 3 64.2516 66.7495 144.5022 0.0000 0.0000 0.0000
# 4 0.0000 0.0000 0.0000 11.3482 0.0000 0.0000
# 5 0.0000 0.0000 0.0000 0.0000 16.6472 0.0000
# 6 0.0000 0.0000 0.0000 0.0000 0.0000 13.3952
#
#
#
# Elastic Compliance Matrix: (Units=1/GPa)
#
#
# Indices 1 2 3 4 5 6 
#
# 1 0.022010 -0.009618 -0.005344 0.000000 0.000000 0.000000
# 2 -0.009618 0.035755 -0.012240 0.000000 0.000000 0.000000
# 3 -0.005344 -0.012240 0.014950 0.000000 0.000000 0.000000
# 4 0.000000 0.000000 0.000000 0.088120 0.000000 0.000000
# 5 0.000000 0.000000 0.000000 0.000000 0.060070 0.000000
# 6 0.000000 0.000000 0.000000 0.000000 0.000000 0.074653
#
#
# Mechanical properties :
#
#
# Convention : Reuss Voigt Hill
#
# Bulk Modulus (GPa) = 54.60788 70.68280 62.64534
# Shear Modulus (GPa) = 14.04238 15.78174 14.91206
#
# Velocity S-wave (km/s) = 2.82418 2.99399 2.91032
# Velocity P-wave (km/s) = 6.45381 7.21799 6.84657
#
# Compressibility (1/GPa) = 0.01831238
#
# Stress axis : x y z
#
# Youngs Moduli (GPa) = 45.43448 27.96817 66.88891
#
# Poissons Ratio (x) = 0.26899 0.35743
# Poissons Ratio (y) = 0.43698 0.81870
# Poissons Ratio (z) = 0.24279 0.34232
#
# Static dielectric constant tensor:
#      x y z
#    x 3.120250 0.000000 0.000000 
#    y 0.000000 3.111080 0.000000 
#    z 0.000000 0.000000 3.607210 
# 
# 
# High freq. dielectric constant tensor:
#      x y z
#    x 1.663650 0.000000 0.000000 
#    y 0.000000 1.657080 0.000000 
#    z 0.000000 0.000000 1.694450 
# 
# From -- ./inp_files/4032.got.cif
#   From: 2010.03.12/outbox.cif.g09.slc.cpg/sg47_3_cif.got.tgz:4032.got - 2010.04.14 03:12:58.
