data_PCOD8197575
_publ_section_title
;
Structure prediction by ZEFSAII (Michael W. Deem and Ramdas Pophale) SiO2 
 PCOD8197575
Probable space group: P M M M
;
_chemical_formula_sum "Si O2"
_cell_formula_units_Z 52
_cell_length_a 27.890627
_cell_length_b 9.398576
_cell_length_c 11.597358
_cell_angle_alpha 90.000000
_cell_angle_beta 90.000000
_cell_angle_gamma 90.000000
_cell_volume 3040.040706
_symmetry_space_group_name_H-M "P M M M"
_symmetry_group_IT_number 47
_symmetry_cell_setting 'orthorhombic'
loop_
_space_group_symop_operation_xyz
x,y,z
-x,-y,z
x,-y,-z
-x,y,-z
-x,-y,-z
x,y,-z
-x,y,z
x,-y,z
loop_
_atom_site_type_symbol
_atom_site_label
_atom_site_fract_x
_atom_site_fract_y
_atom_site_fract_z
Si Si1 0.724303 0.838185 0.500000
Si Si2 0.500000 0.332292 0.125449
Si Si3 0.055217 0.165234 0.869489
Si Si4 0.770379 0.661929 0.134965
Si Si5 0.133136 0.334950 0.739361
Si Si6 0.603937 0.335329 0.136994
Si Si7 0.178070 0.332340 0.500000
Si Si8 0.687962 0.165299 0.746990
O O1 0.769979 0.737320 0.500000
O O2 0.690800 0.809029 0.389787
O O3 0.743435 0.000000 0.500000
O O4 0.500000 0.500000 0.107341
O O5 0.550629 0.291434 0.185657
O O6 0.500000 0.258947 0.000000
O O7 0.086447 0.250152 0.777620
O O8 0.000000 0.194116 0.839162
O O9 0.067579 0.000000 0.857885
O O10 0.066145 0.216745 0.000000
O O11 0.757609 0.500000 0.171143
O O12 0.824183 0.699125 0.172069
O O13 0.735026 0.769496 0.196328
O O14 0.765345 0.683690 0.000000
O O15 0.119661 0.500000 0.739814
O O16 0.148324 0.284189 0.611903
O O17 0.615324 0.500000 0.163408
O O18 0.640626 0.238750 0.205421
O O19 0.607680 0.307794 0.000000
O O20 0.187421 0.500000 0.500000
O O21 0.685919 0.000000 0.779292
#
# Coordination Sequence:
#
# PCOD8197575 Si02
#       8
#     4   4   8   8   8   8   4   8
#     4  10  22  38  52  68  96 136 179 215 247 292
#     4   7  12  26  49  74  99 130 166 201 244 301
#     4   9  19  36  56  78 105 137 172 208 248 299
#     4  10  20  33  50  74 103 132 163 202 250 305
#     4  10  20  34  54  79 103 131 168 211 256 300
#     4   9  17  31  52  77 104 133 165 204 252 304
#     4  10  20  36  57  77  99 130 172 216 252 294
#     4  11  22  34  49  71 100 133 171 211 251 297
#
# _framework density 17.105034
#
# number of rings (size 3 to 8) (size 9 to 14) (size 15 to 20)
#    0.000    2.385    1.538    2.769    0.000    5.538 
#    0.000    1.538    0.000    4.154    0.000    3.231 
#    0.000    0.000    0.000    0.000    0.000    0.000 
#
# Total GULP energy -644659.279188 kJ/mol
# GULP energy per Si atom -12397.293831 kJ/mol
# Density = 1.706610 g / cm^3
# Si number density = 17.105034 Si / 1000 Ang^3
#
#
#
# Elastic Constant Matrix: (Units=GPa)
#
#
# Indices 1 2 3 4 5 6 
#
# 1 98.1799 59.6762 46.6890 0.0000 0.0000 0.0000
# 2 59.6762 77.3632 49.0246 0.0000 0.0000 0.0000
# 3 46.6890 49.0246 85.4098 0.0000 0.0000 0.0000
# 4 0.0000 0.0000 0.0000 24.7917 0.0000 0.0000
# 5 0.0000 0.0000 0.0000 0.0000 -21.6514 0.0000
# 6 0.0000 0.0000 0.0000 0.0000 0.0000 -42.1652
#
#
#
# Elastic Compliance Matrix: (Units=1/GPa)
#
#
# Indices 1 2 3 4 5 6 
#
# 1 0.019724 -0.013174 -0.003220 0.000000 0.000000 0.000000
# 2 -0.013174 0.029115 -0.009510 0.000000 0.000000 0.000000
# 3 -0.003220 -0.009510 0.018927 0.000000 0.000000 0.000000
# 4 0.000000 0.000000 0.000000 0.040336 0.000000 0.000000
# 5 0.000000 0.000000 0.000000 0.000000 -0.046186 0.000000
# 6 0.000000 0.000000 0.000000 0.000000 0.000000 -0.023716
#
#
# Mechanical properties :
#
#
# Convention : Reuss Voigt Hill
#
# Bulk Modulus (GPa) = 62.66729 63.52585 63.09657
# Shear Modulus (GPa) = 52.45011 -0.76745 25.84133
#
# Velocity S-wave (km/s) = 5.54348 -0.67055 3.89105
# Velocity P-wave (km/s) = 8.81418 6.05143 7.56008
#
# Compressibility (1/GPa) = 0.01595729
#
# Stress axis : x y z
#
# Youngs Moduli (GPa) = 50.69843 34.34676 52.83355
#
# Poissons Ratio (x) = 0.45249 0.17014
# Poissons Ratio (y) = 0.66791 0.50245
# Poissons Ratio (z) = 0.16327 0.32664
#
# Static dielectric constant tensor:
#      x y z
#    x 3.260930 0.000000 0.000000 
#    y 0.000000 3.111500 0.000000 
#    z 0.000000 0.000000 3.251350 
# 
# 
# High freq. dielectric constant tensor:
#      x y z
#    x 1.664410 0.000000 0.000000 
#    y 0.000000 1.652330 0.000000 
#    z 0.000000 0.000000 1.650880 
# 
# From -- ./inp_files/19916.got.cif
#   From: 2010.03.12/outbox.cif.g09.slc.cpg/sg47_10_cif.got.tgz:19916.got - 2010.04.14 03:12:58.
