data_PCOD8197417
_publ_section_title
;
Structure prediction by ZEFSAII (Michael W. Deem and Ramdas Pophale) SiO2 
 PCOD8197417
Probable space group: P M M M
;
_chemical_formula_sum "Si O2"
_cell_formula_units_Z 48
_cell_length_a 8.031419
_cell_length_b 32.862982
_cell_length_c 9.195034
_cell_angle_alpha 90.000000
_cell_angle_beta 90.000000
_cell_angle_gamma 90.000000
_cell_volume 2426.903970
_symmetry_space_group_name_H-M "P M M M"
_symmetry_group_IT_number 47
_symmetry_cell_setting 'orthorhombic'
loop_
_space_group_symop_operation_xyz
x,y,z
-x,-y,z
x,-y,-z
-x,y,-z
-x,-y,-z
x,y,-z
-x,y,z
x,-y,z
loop_
_atom_site_type_symbol
_atom_site_label
_atom_site_fract_x
_atom_site_fract_y
_atom_site_fract_z
Si Si1 0.809663 0.254562 0.662994
Si Si2 0.199018 0.500000 0.839387
Si Si3 0.692100 0.179539 0.840215
Si Si4 0.813630 0.586528 0.173105
Si Si5 0.310484 0.328471 0.834224
Si Si6 0.692774 0.899517 0.328608
Si Si7 0.000000 0.954535 0.327645
O O1 0.734563 0.255451 0.500000
O O2 0.713268 0.222090 0.759299
O O3 0.796725 0.299165 0.732903
O O4 0.000000 0.241156 0.658323
O O5 0.253482 0.542860 0.761721
O O6 0.000000 0.500000 0.849835
O O7 0.278111 0.500000 0.000000
O O8 0.500000 0.171996 0.863913
O O9 0.758677 0.141944 0.745311
O O10 0.779362 0.180792 0.000000
O O11 0.703030 0.624939 0.222664
O O12 0.000000 0.595169 0.229092
O O13 0.811812 0.581915 0.000000
O O14 0.500000 0.314167 0.825136
O O15 0.243716 0.325511 0.000000
O O16 0.703458 0.892485 0.500000
O O17 0.500000 0.911263 0.286042
O O18 0.827009 0.933247 0.276071
O O19 0.000000 0.955965 0.500000
O O20 0.000000 0.000000 0.261786
#
# Coordination Sequence:
#
# PCOD8197417 Si02
#       7
#     8   4   8   8   8   8   4
#     4  11  24  38  53  75 101 131 170 214 258 308
#     4   7  10  18  35  61  90 121 158 197 240 290
#     4  10  21  37  57  81 108 138 173 215 264 318
#     4   8  13  23  41  64  92 126 162 201 244 292
#     4  10  20  33  49  71 100 133 168 206 251 304
#     4   9  18  33  54  80 112 149 186 228 277 323
#     4   9  18  32  53  83 115 147 189 237 277 320
#
# _framework density 19.778285
#
# number of rings (size 3 to 8) (size 9 to 14) (size 15 to 20)
#    0.000    2.667    0.000    3.000    1.167    5.667 
#    0.000    2.083    0.000    3.500    0.000    2.917 
#    0.000    4.667    0.000    0.000    0.000    0.000 
#
# Total GULP energy -594720.223612 kJ/mol
# GULP energy per Si atom -12390.004659 kJ/mol
# Density = 1.973327 g / cm^3
# Si number density = 19.778285 Si / 1000 Ang^3
#
#
#
# Elastic Constant Matrix: (Units=GPa)
#
#
# Indices 1 2 3 4 5 6 
#
# 1 58.3967 35.0342 19.9027 0.0000 0.0000 0.0000
# 2 35.0342 167.4888 49.1133 0.0000 0.0000 0.0000
# 3 19.9027 49.1133 72.7606 0.0000 0.0000 0.0000
# 4 0.0000 0.0000 0.0000 15.2478 0.0000 0.0000
# 5 0.0000 0.0000 0.0000 0.0000 13.6220 0.0000
# 6 0.0000 0.0000 0.0000 0.0000 0.0000 31.4592
#
#
#
# Elastic Compliance Matrix: (Units=1/GPa)
#
#
# Indices 1 2 3 4 5 6 
#
# 1 0.020210 -0.003250 -0.003335 0.000000 0.000000 0.000000
# 2 -0.003250 0.007966 -0.004488 0.000000 0.000000 0.000000
# 3 -0.003335 -0.004488 0.017686 0.000000 0.000000 0.000000
# 4 0.000000 0.000000 0.000000 0.065583 0.000000 0.000000
# 5 0.000000 0.000000 0.000000 0.000000 0.073411 0.000000
# 6 0.000000 0.000000 0.000000 0.000000 0.000000 0.031787
#
#
# Mechanical properties :
#
#
# Convention : Reuss Voigt Hill
#
# Bulk Modulus (GPa) = 42.16439 56.30516 49.23477
# Shear Modulus (GPa) = 20.26797 25.03887 22.65342
#
# Velocity S-wave (km/s) = 3.20466 3.56192 3.38800
# Velocity P-wave (km/s) = 5.92097 6.74139 6.34446
#
# Compressibility (1/GPa) = 0.02371670
#
# Stress axis : x y z
#
# Youngs Moduli (GPa) = 49.47955 125.52664 56.54321
#
# Poissons Ratio (x) = 0.40791 0.18856
# Poissons Ratio (y) = 0.16079 0.25379
# Poissons Ratio (z) = 0.16500 0.56342
#
# Static dielectric constant tensor:
#      x y z
#    x 3.475420 0.000000 0.000000 
#    y 0.000000 3.893750 0.000000 
#    z 0.000000 0.000000 3.394880 
# 
# 
# High freq. dielectric constant tensor:
#      x y z
#    x 1.758260 0.000000 0.000000 
#    y 0.000000 1.784520 0.000000 
#    z 0.000000 0.000000 1.722420 
# 
# From -- ./inp_files/2635.got.cif
#   From: 2010.03.12/outbox.cif.g09.slc.cpg/sg47_2_cif.got.tgz:2635.got - 2010.04.14 03:12:58.
