data_PCOD8197163
_publ_section_title
;
Structure prediction by ZEFSAII (Michael W. Deem and Ramdas Pophale) SiO2 
 PCOD8197163
Probable space group: P M M M
;
_chemical_formula_sum "Si O2"
_cell_formula_units_Z 64
_cell_length_a 8.935618
_cell_length_b 18.618774
_cell_length_c 20.372642
_cell_angle_alpha 90.000000
_cell_angle_beta 90.000000
_cell_angle_gamma 90.000000
_cell_volume 3389.401585
_symmetry_space_group_name_H-M "P M M M"
_symmetry_group_IT_number 47
_symmetry_cell_setting 'orthorhombic'
loop_
_space_group_symop_operation_xyz
x,y,z
-x,-y,z
x,-y,-z
-x,y,-z
-x,-y,-z
x,y,-z
-x,y,z
x,-y,z
loop_
_atom_site_type_symbol
_atom_site_label
_atom_site_fract_x
_atom_site_fract_y
_atom_site_fract_z
Si Si1 0.822157 0.580656 0.927402
Si Si2 0.177965 0.080509 0.072394
Si Si3 0.825610 0.666935 0.423850
Si Si4 0.325555 0.583475 0.686904
Si Si5 0.327470 0.186704 0.425525
Si Si6 0.178196 0.669034 0.195733
Si Si7 0.674291 0.917789 0.310685
Si Si8 0.822283 0.831723 0.805336
O O1 0.764101 0.500000 0.912628
O O2 0.759520 0.634079 0.871781
O O3 0.000000 0.581224 0.926109
O O4 0.766620 0.605292 0.000000
O O5 0.242235 0.134178 0.127313
O O6 0.000000 0.080999 0.073944
O O7 0.236072 0.000000 0.087451
O O8 0.233569 0.105131 0.000000
O O9 0.789884 0.653256 0.500000
O O10 0.737526 0.606639 0.383680
O O11 0.771674 0.746008 0.402379
O O12 0.000000 0.660857 0.407956
O O13 0.500000 0.601121 0.690059
O O14 0.292299 0.500000 0.697150
O O15 0.241699 0.626714 0.742977
O O16 0.288622 0.164392 0.500000
O O17 0.500000 0.209838 0.418636
O O18 0.289418 0.118555 0.380535
O O19 0.237116 0.750487 0.199161
O O20 0.000000 0.665306 0.198521
O O21 0.500000 0.912175 0.293531
O O22 0.766002 0.877575 0.255283
O O23 0.727602 0.000000 0.314830
O O24 0.000000 0.833540 0.805155
#
# Coordination Sequence:
#
# PCOD8197163 Si02
#       8
#     8   8   8   8   8   8   8   8
#     4   8  14  26  46  73 104 136 169 207 254 307
#     4   8  14  26  45  69  98 132 168 206 249 297
#     4  10  21  37  58  83 109 136 167 206 253 306
#     4  11  24  39  55  76 103 137 176 216 257 303
#     4   9  18  34  56  79 104 136 171 207 249 298
#     4  10  20  33  52  78 106 137 173 214 260 309
#     4  10  21  35  51  73 101 134 172 213 256 300
#     4  10  20  32  49  75 103 132 168 209 254 304
#
# _framework density 18.882387999999999
#
# number of rings (size 3 to 8) (size 9 to 14) (size 15 to 20)
#    0.000    2.500    0.000    3.000    0.000    7.000 
#    0.000    5.000    0.000    0.750    0.000    7.875 
#    0.000    0.000    0.000    0.000    0.000    0.000 
#
# Total GULP energy -793585.260333 kJ/mol
# GULP energy per Si atom -12399.769693 kJ/mol
# Density = 1.883941 g / cm^3
# Si number density = 18.882388 Si / 1000 Ang^3
#
#
#
# Elastic Constant Matrix: (Units=GPa)
#
#
# Indices 1 2 3 4 5 6 
#
# 1 22.0700 28.3357 22.6908 0.0000 0.0000 0.0000
# 2 28.3357 124.6514 71.5629 0.0000 0.0000 0.0000
# 3 22.6908 71.5629 122.6694 0.0000 0.0000 0.0000
# 4 0.0000 0.0000 0.0000 42.4060 0.0000 0.0000
# 5 0.0000 0.0000 0.0000 0.0000 10.8538 0.0000
# 6 0.0000 0.0000 0.0000 0.0000 0.0000 24.3084
#
#
#
# Elastic Compliance Matrix: (Units=1/GPa)
#
#
# Indices 1 2 3 4 5 6 
#
# 1 0.066124 -0.012043 -0.005206 0.000000 0.000000 0.000000
# 2 -0.012043 0.014255 -0.006089 0.000000 0.000000 0.000000
# 3 -0.005206 -0.006089 0.012667 0.000000 0.000000 0.000000
# 4 0.000000 0.000000 0.000000 0.023582 0.000000 0.000000
# 5 0.000000 0.000000 0.000000 0.000000 0.092133 0.000000
# 6 0.000000 0.000000 0.000000 0.000000 0.000000 0.041138
#
#
# Mechanical properties :
#
#
# Convention : Reuss Voigt Hill
#
# Bulk Modulus (GPa) = 21.56467 57.17438 39.36952
# Shear Modulus (GPa) = 16.02402 25.30042 20.66222
#
# Velocity S-wave (km/s) = 2.91627 3.66443 3.31155
# Velocity P-wave (km/s) = 4.77335 6.94615 5.95961
#
# Compressibility (1/GPa) = 0.04637214
#
# Stress axis : x y z
#
# Youngs Moduli (GPa) = 15.12305 70.14844 78.94504
#
# Poissons Ratio (x) = 0.84477 0.41098
# Poissons Ratio (y) = 0.18212 0.48068
# Poissons Ratio (z) = 0.07873 0.42712
#
# Static dielectric constant tensor:
#      x y z
#    x 3.162860 0.000000 0.000000 
#    y 0.000000 3.641340 0.000000 
#    z 0.000000 0.000000 3.770440 
# 
# 
# High freq. dielectric constant tensor:
#      x y z
#    x 1.699760 0.000000 0.000000 
#    y 0.000000 1.736650 0.000000 
#    z 0.000000 0.000000 1.749830 
# 
# From -- ./inp_files/29956.got.cif
#   From: 2010.03.12/outbox.cif.g09.slc.cpg/sg47_15_cif.got.tgz:29956.got - 2010.04.14 03:12:58.
