data_PCOD8197237
_publ_section_title
;
Structure prediction by ZEFSAII (Michael W. Deem and Ramdas Pophale) SiO2 
 PCOD8197237
Probable space group: P M M M
;
_chemical_formula_sum "Si O2"
_cell_formula_units_Z 64
_cell_length_a 15.011257
_cell_length_b 9.285918
_cell_length_c 23.767876
_cell_angle_alpha 90.000000
_cell_angle_beta 90.000000
_cell_angle_gamma 90.000000
_cell_volume 3313.082707
_symmetry_space_group_name_H-M "P M M M"
_symmetry_group_IT_number 47
_symmetry_cell_setting 'orthorhombic'
loop_
_space_group_symop_operation_xyz
x,y,z
-x,-y,z
x,-y,-z
-x,y,-z
-x,-y,-z
x,y,-z
-x,y,z
x,-y,z
loop_
_atom_site_type_symbol
_atom_site_label
_atom_site_fract_x
_atom_site_fract_y
_atom_site_fract_z
Si Si1 0.778376 0.832136 0.181797
Si Si2 0.763671 0.169154 0.938772
Si Si3 0.596034 0.656289 0.065568
Si Si4 0.266236 0.165017 0.435474
Si Si5 0.102339 0.334475 0.396193
Si Si6 0.603056 0.331975 0.646237
Si Si7 0.600364 0.166461 0.239817
Si Si8 0.900099 0.664944 0.266257
O O1 0.814103 0.784078 0.118842
O O2 0.672935 0.797065 0.191263
O O3 0.834202 0.754654 0.228662
O O4 0.795404 0.000000 0.189068
O O5 0.663871 0.215164 0.923660
O O6 0.765478 0.000000 0.944921
O O7 0.797057 0.234729 0.000000
O O8 0.500000 0.696377 0.092694
O O9 0.629220 0.500000 0.089697
O O10 0.583453 0.637318 0.000000
O O11 0.296511 0.172435 0.500000
O O12 0.167227 0.231480 0.430931
O O13 0.337131 0.255746 0.400373
O O14 0.264134 0.000000 0.414159
O O15 0.116601 0.500000 0.414525
O O16 0.127024 0.315804 0.330847
O O17 0.000000 0.289214 0.407635
O O18 0.500000 0.308899 0.629793
O O19 0.628274 0.500000 0.648616
O O20 0.623804 0.264023 0.706679
O O21 0.500000 0.200808 0.217815
O O22 0.607749 0.000000 0.258383
O O23 0.893041 0.500000 0.247966
O O24 0.000000 0.721963 0.256524
#
# Coordination Sequence:
#
# PCOD8197237 Si02
#       8
#     8   8   8   8   8   8   8   8
#     4  10  20  32  50  77 104 133 171 212 254 304
#     4   9  18  31  45  64  94 131 168 205 247 298
#     4   8  14  25  40  58  82 114 155 201 242 281
#     4  11  24  38  53  78 112 148 184 220 258 304
#     4   9  19  37  60  84 110 140 172 209 258 314
#     4  10  21  37  57  79 103 135 179 229 274 315
#     4   9  18  33  52  75 106 140 171 209 261 317
#     4   9  19  36  57  81 106 130 161 207 263 316
#
# _framework density 19.317357000000001
#
# number of rings (size 3 to 8) (size 9 to 14) (size 15 to 20)
#    0.000    2.625    0.000    2.625    0.000    7.000 
#    0.000    6.250    0.000    1.875    0.000    2.625 
#    0.000    0.000    0.000    0.000    0.000    0.000 
#
# Total GULP energy -792910.239632 kJ/mol
# GULP energy per Si atom -12389.222494 kJ/mol
# Density = 1.927339 g / cm^3
# Si number density = 19.317357 Si / 1000 Ang^3
#
#
#
# Elastic Constant Matrix: (Units=GPa)
#
#
# Indices 1 2 3 4 5 6 
#
# 1 56.5639 28.9111 29.2985 0.0000 0.0000 0.0000
# 2 28.9111 56.0911 42.7750 0.0000 0.0000 0.0000
# 3 29.2985 42.7750 84.0453 0.0000 0.0000 0.0000
# 4 0.0000 0.0000 0.0000 11.8582 0.0000 0.0000
# 5 0.0000 0.0000 0.0000 0.0000 10.2580 0.0000
# 6 0.0000 0.0000 0.0000 0.0000 0.0000 28.8748
#
#
#
# Elastic Compliance Matrix: (Units=1/GPa)
#
#
# Indices 1 2 3 4 5 6 
#
# 1 0.024606 -0.010037 -0.003469 0.000000 0.000000 0.000000
# 2 -0.010037 0.033231 -0.013414 0.000000 0.000000 0.000000
# 3 -0.003469 -0.013414 0.019935 0.000000 0.000000 0.000000
# 4 0.000000 0.000000 0.000000 0.084330 0.000000 0.000000
# 5 0.000000 0.000000 0.000000 0.000000 0.097485 0.000000
# 6 0.000000 0.000000 0.000000 0.000000 0.000000 0.034632
#
#
# Mechanical properties :
#
#
# Convention : Reuss Voigt Hill
#
# Bulk Modulus (GPa) = 41.78650 44.29661 43.04156
# Shear Modulus (GPa) = 14.04345 16.57926 15.31135
#
# Velocity S-wave (km/s) = 2.69919 2.93278 2.81841
# Velocity P-wave (km/s) = 5.60292 5.86933 5.73767
#
# Compressibility (1/GPa) = 0.02393117
#
# Stress axis : x y z
#
# Youngs Moduli (GPa) = 40.63987 30.09230 50.16323
#
# Poissons Ratio (x) = 0.30204 0.17404
# Poissons Ratio (y) = 0.40790 0.67289
# Poissons Ratio (z) = 0.14100 0.40366
#
# Static dielectric constant tensor:
#      x y z
#    x 3.512590 0.000000 0.000000 
#    y 0.000000 3.556240 0.000000 
#    z 0.000000 0.000000 3.620010 
# 
# 
# High freq. dielectric constant tensor:
#      x y z
#    x 1.733930 0.000000 0.000000 
#    y 0.000000 1.748620 0.000000 
#    z 0.000000 0.000000 1.752160 
# 
# From -- ./inp_files/21896.got.cif
#   From: 2010.03.12/outbox.cif.g09.slc.cpg/sg47_11_cif.got.tgz:21896.got - 2010.04.14 03:12:58.
