data_PCOD8197256
_publ_section_title
;
Structure prediction by ZEFSAII (Michael W. Deem and Ramdas Pophale) SiO2 
 PCOD8197256
Probable space group: P M M M
;
_chemical_formula_sum "Si O2"
_cell_formula_units_Z 64
_cell_length_a 8.897453
_cell_length_b 14.891542
_cell_length_c 25.220607
_cell_angle_alpha 90.000000
_cell_angle_beta 90.000000
_cell_angle_gamma 90.000000
_cell_volume 3341.649597
_symmetry_space_group_name_H-M "P M M M"
_symmetry_group_IT_number 47
_symmetry_cell_setting 'orthorhombic'
loop_
_space_group_symop_operation_xyz
x,y,z
-x,-y,z
x,-y,-z
-x,y,-z
-x,-y,-z
x,y,-z
-x,y,z
x,-y,z
loop_
_atom_site_type_symbol
_atom_site_label
_atom_site_fract_x
_atom_site_fract_y
_atom_site_fract_z
Si Si1 0.321066 0.752801 0.367869
Si Si2 0.821396 0.603420 0.839322
Si Si3 0.674376 0.724129 0.750286
Si Si4 0.824317 0.104059 0.559676
Si Si5 0.175943 0.097093 0.916873
Si Si6 0.678505 0.598073 0.558759
Si Si7 0.331764 0.097966 0.809575
Si Si8 0.178216 0.709559 0.942307
O O1 0.500000 0.759012 0.367088
O O2 0.261999 0.727013 0.309369
O O3 0.260575 0.844527 0.393120
O O4 0.253686 0.672918 0.403322
O O5 0.766426 0.500000 0.839243
O O6 0.761181 0.653235 0.787090
O O7 0.756826 0.651176 0.893159
O O8 0.000000 0.608315 0.838495
O O9 0.500000 0.696788 0.752387
O O10 0.703314 0.825969 0.767527
O O11 0.772045 0.133636 0.500000
O O12 0.000000 0.122133 0.565683
O O13 0.786166 0.000000 0.567694
O O14 0.208223 0.105682 0.854923
O O15 0.242742 0.187660 0.943233
O O16 0.000000 0.095117 0.926823
O O17 0.242135 0.000000 0.937959
O O18 0.743250 0.613835 0.500000
O O19 0.500000 0.605135 0.557614
O O20 0.727583 0.500000 0.579764
O O21 0.500000 0.110561 0.833559
O O22 0.318945 0.000000 0.781768
O O23 0.000000 0.712909 0.935567
O O24 0.221307 0.666935 0.000000
#
# Coordination Sequence:
#
# PCOD8197256 Si02
#       8
#     8   8   8   8   8   8   8   8
#     4  10  20  32  51  80 106 132 174 224 267 309
#     4  10  21  37  56  76 100 134 177 222 265 314
#     4  10  21  35  52  76 105 137 171 212 264 316
#     4   9  19  36  55  76 108 150 188 220 262 315
#     4   9  16  27  47  74 100 127 160 199 246 301
#     4   8  14  26  45  69  97 126 156 198 253 306
#     4   9  17  30  48  68  94 130 166 199 241 296
#     4   9  17  30  50  77 106 132 163 212 268 315
#
# _framework density 19.152217
#
# number of rings (size 3 to 8) (size 9 to 14) (size 15 to 20)
#    0.000    2.750    1.250    1.125    0.000    3.250 
#    0.000    5.625    0.000    3.375    0.000    4.375 
#    0.000    0.000    0.000    0.000    0.000    0.000 
#
# Total GULP energy -792868.056904 kJ/mol
# GULP energy per Si atom -12388.563389 kJ/mol
# Density = 1.910863 g / cm^3
# Si number density = 19.152217 Si / 1000 Ang^3
#
#
#
# Elastic Constant Matrix: (Units=GPa)
#
#
# Indices 1 2 3 4 5 6 
#
# 1 14.1912 22.7361 20.0195 0.0000 0.0000 0.0000
# 2 22.7361 139.8109 78.8883 0.0000 0.0000 0.0000
# 3 20.0195 78.8883 144.0871 0.0000 0.0000 0.0000
# 4 0.0000 0.0000 0.0000 13.0890 0.0000 0.0000
# 5 0.0000 0.0000 0.0000 0.0000 18.3913 0.0000
# 6 0.0000 0.0000 0.0000 0.0000 0.0000 20.5388
#
#
#
# Elastic Compliance Matrix: (Units=1/GPa)
#
#
# Indices 1 2 3 4 5 6 
#
# 1 0.100255 -0.012218 -0.007240 0.000000 0.000000 0.000000
# 2 -0.012218 0.011839 -0.004784 0.000000 0.000000 0.000000
# 3 -0.007240 -0.004784 0.010566 0.000000 0.000000 0.000000
# 4 0.000000 0.000000 0.000000 0.076400 0.000000 0.000000
# 5 0.000000 0.000000 0.000000 0.000000 0.054373 0.000000
# 6 0.000000 0.000000 0.000000 0.000000 0.000000 0.048688
#
#
# Mechanical properties :
#
#
# Convention : Reuss Voigt Hill
#
# Bulk Modulus (GPa) = 13.48178 60.15300 36.81739
# Shear Modulus (GPa) = 13.32160 22.16686 17.74423
#
# Velocity S-wave (km/s) = 2.64022 3.40576 3.04712
# Velocity P-wave (km/s) = 4.04338 6.85139 5.62541
#
# Compressibility (1/GPa) = 0.07417417
#
# Stress axis : x y z
#
# Youngs Moduli (GPa) = 9.97461 84.46664 94.64713
#
# Poissons Ratio (x) = 1.03204 0.68523
# Poissons Ratio (y) = 0.12187 0.45282
# Poissons Ratio (z) = 0.07221 0.40411
#
# Static dielectric constant tensor:
#      x y z
#    x 3.090590 0.000000 0.000000 
#    y 0.000000 3.853350 0.000000 
#    z 0.000000 0.000000 3.596090 
# 
# 
# High freq. dielectric constant tensor:
#      x y z
#    x 1.698720 0.000000 0.000000 
#    y 0.000000 1.757830 0.000000 
#    z 0.000000 0.000000 1.741590 
# 
# From -- ./inp_files/32114.got.cif
#   From: 2010.03.12/outbox.cif.g09.slc.cpg/sg47_17_cif.got.tgz:32114.got - 2010.04.14 03:12:58.
