data_PCOD8197737
_publ_section_title
;
Structure prediction by ZEFSAII (Michael W. Deem and Ramdas Pophale) SiO2 
 PCOD8197737
Probable space group: P M M M
;
_chemical_formula_sum "Si O2"
_cell_formula_units_Z 48
_cell_length_a 30.533895
_cell_length_b 9.344149
_cell_length_c 9.218979
_cell_angle_alpha 90.000000
_cell_angle_beta 90.000000
_cell_angle_gamma 90.000000
_cell_volume 2630.296993
_symmetry_space_group_name_H-M "P M M M"
_symmetry_group_IT_number 47
_symmetry_cell_setting 'orthorhombic'
loop_
_space_group_symop_operation_xyz
x,y,z
-x,-y,z
x,-y,-z
-x,y,-z
-x,-y,-z
x,y,-z
-x,y,z
x,-y,z
loop_
_atom_site_type_symbol
_atom_site_label
_atom_site_fract_x
_atom_site_fract_y
_atom_site_fract_z
Si Si1 0.745501 0.668076 0.332507
Si Si2 0.500000 0.334539 0.670163
Si Si3 0.572599 0.835762 0.167274
Si Si4 0.673517 0.166162 0.834888
Si Si5 0.915835 0.666331 0.330377
Si Si6 0.830257 0.329823 0.836234
Si Si7 0.000000 0.838275 0.327580
O O1 0.752332 0.706238 0.500000
O O2 0.740103 0.500000 0.307910
O O3 0.701870 0.742123 0.275448
O O4 0.787425 0.728946 0.245866
O O5 0.500000 0.500000 0.712531
O O6 0.500000 0.309444 0.500000
O O7 0.543676 0.265199 0.733471
O O8 0.623062 0.800180 0.198991
O O9 0.562286 0.000000 0.205912
O O10 0.561207 0.806414 0.000000
O O11 0.683610 0.000000 0.810264
O O12 0.684763 0.209849 0.000000
O O13 0.907451 0.691721 0.500000
O O14 0.925028 0.500000 0.297914
O O15 0.873534 0.724978 0.245611
O O16 0.957085 0.755773 0.271202
O O17 0.829748 0.500000 0.833510
O O18 0.830203 0.270340 0.000000
O O19 0.000000 0.836965 0.500000
O O20 0.000000 0.000000 0.266853
#
# Coordination Sequence:
#
# PCOD8197737 Si02
#       7
#     8   4   8   8   8   8   4
#     4  10  20  33  51  77 107 137 169 207 252 301
#     4  11  24  37  50  76 112 141 168 209 258 304
#     4   9  19  37  59  79 100 132 175 216 253 300
#     4   9  19  36  56  78 104 134 170 212 255 300
#     4   9  16  28  48  71  93 120 158 201 241 285
#     4   9  17  30  49  72  97 127 165 207 248 291
#     4   9  17  29  46  69  96 124 154 191 238 292
#
# _framework density 18.248888000000001
#
# number of rings (size 3 to 8) (size 9 to 14) (size 15 to 20)
#    0.000    2.667    0.000    2.750    0.000    7.667 
#    0.000    6.250    0.000    6.000    0.000    0.000 
#    0.000    0.000    0.000    0.000    0.000    0.000 
#
# Total GULP energy -595269.310648 kJ/mol
# GULP energy per Si atom -12401.443972 kJ/mol
# Density = 1.820735 g / cm^3
# Si number density = 18.248888 Si / 1000 Ang^3
#
#
#
# Elastic Constant Matrix: (Units=GPa)
#
#
# Indices 1 2 3 4 5 6 
#
# 1 147.1515 65.7397 76.9581 0.0000 0.0000 0.0000
# 2 65.7397 73.4424 54.5497 0.0000 0.0000 0.0000
# 3 76.9581 54.5497 101.5872 0.0000 0.0000 0.0000
# 4 0.0000 0.0000 0.0000 23.7642 0.0000 0.0000
# 5 0.0000 0.0000 0.0000 0.0000 34.1397 0.0000
# 6 0.0000 0.0000 0.0000 0.0000 0.0000 5.7967
#
#
#
# Elastic Compliance Matrix: (Units=1/GPa)
#
#
# Indices 1 2 3 4 5 6 
#
# 1 0.013271 -0.007339 -0.006113 0.000000 0.000000 0.000000
# 2 -0.007339 0.026708 -0.008782 0.000000 0.000000 0.000000
# 3 -0.006113 -0.008782 0.019190 0.000000 0.000000 0.000000
# 4 0.000000 0.000000 0.000000 0.042080 0.000000 0.000000
# 5 0.000000 0.000000 0.000000 0.000000 0.029291 0.000000
# 6 0.000000 0.000000 0.000000 0.000000 0.000000 0.172513
#
#
# Mechanical properties :
#
#
# Convention : Reuss Voigt Hill
#
# Bulk Modulus (GPa) = 68.01719 79.63066 73.82392
# Shear Modulus (GPa) = 14.18751 21.06903 17.62827
#
# Velocity S-wave (km/s) = 2.79130 3.40153 3.11141
# Velocity P-wave (km/s) = 6.90951 7.69142 7.31092
#
# Compressibility (1/GPa) = 0.01470217
#
# Stress axis : x y z
#
# Youngs Moduli (GPa) = 75.34980 37.44166 52.10955
#
# Poissons Ratio (x) = 0.27479 0.31855
# Poissons Ratio (y) = 0.55300 0.45762
# Poissons Ratio (z) = 0.46061 0.32881
#
# Static dielectric constant tensor:
#      x y z
#    x 3.474680 0.000000 0.000000 
#    y 0.000000 3.150460 0.000000 
#    z 0.000000 0.000000 3.300260 
# 
# 
# High freq. dielectric constant tensor:
#      x y z
#    x 1.721950 0.000000 0.000000 
#    y 0.000000 1.683430 0.000000 
#    z 0.000000 0.000000 1.700010 
# 
# From -- ./inp_files/2750.got.cif
#   From: 2010.03.12/outbox.cif.g09.slc.cpg/sg47_2_cif.got.tgz:2750.got - 2010.04.14 03:12:58.
