data_PCOD8197841
_publ_section_title
;
Structure prediction by ZEFSAII (Michael W. Deem and Ramdas Pophale) SiO2 
 PCOD8197841
Probable space group: P M M M
;
_chemical_formula_sum "Si O2"
_cell_formula_units_Z 48
_cell_length_a 32.326426
_cell_length_b 7.767054
_cell_length_c 9.398438
_cell_angle_alpha 90.000000
_cell_angle_beta 90.000000
_cell_angle_gamma 90.000000
_cell_volume 2359.770117
_symmetry_space_group_name_H-M "P M M M"
_symmetry_group_IT_number 47
_symmetry_cell_setting 'orthorhombic'
loop_
_space_group_symop_operation_xyz
x,y,z
-x,-y,z
x,-y,-z
-x,y,-z
-x,-y,-z
x,y,-z
-x,y,z
x,-y,z
loop_
_atom_site_type_symbol
_atom_site_label
_atom_site_fract_x
_atom_site_fract_y
_atom_site_fract_z
Si Si1 0.048906 0.000000 0.836428
Si Si2 0.577093 0.295948 0.660585
Si Si3 0.814499 0.296612 0.343431
Si Si4 0.907825 0.699313 0.667925
Si Si5 0.332963 0.801795 0.660545
Si Si6 0.500000 0.705400 0.160408
Si Si7 0.741783 0.302772 0.844613
O O1 0.063682 0.173448 0.758041
O O2 0.000000 0.000000 0.829942
O O3 0.064503 0.000000 0.000000
O O4 0.569501 0.228912 0.500000
O O5 0.577713 0.500000 0.664389
O O6 0.620702 0.225903 0.719526
O O7 0.540640 0.222888 0.759927
O O8 0.807693 0.215914 0.500000
O O9 0.808711 0.500000 0.354239
O O10 0.860633 0.254731 0.289399
O O11 0.779873 0.213560 0.239927
O O12 0.914826 0.729580 0.500000
O O13 0.918065 0.500000 0.706236
O O14 0.330008 0.726756 0.500000
O O15 0.301128 0.704059 0.760538
O O16 0.320983 0.000000 0.662921
O O17 0.500000 0.500000 0.162781
O O18 0.500000 0.776553 0.000000
O O19 0.753483 0.500000 0.866206
O O20 0.737168 0.214084 0.000000
#
# Coordination Sequence:
#
# PCOD8197841 Si02
#       7
#     4   8   8   8   8   4   8
#     4  11  25  41  57  85 125 165 203 243 295 362
#     4   9  17  31  52  74  95 123 161 206 255 305
#     4   8  15  31  56  83 109 138 177 226 277 328
#     4   9  19  38  64  91 117 151 199 253 304 351
#     4  10  21  36  52  72 100 136 177 217 259 308
#     4   9  17  29  48  75 100 120 152 201 252 305
#     4  10  20  33  52  79 108 139 176 217 264 320
#
# _framework density 20.340965000000001
#
# number of rings (size 3 to 8) (size 9 to 14) (size 15 to 20)
#    0.000    2.667    0.000    2.500    0.000    5.667 
#    1.500    5.417    0.000    2.500    0.000    0.000 
#    0.000    0.000    0.000    0.000    0.000    0.000 
#
# Total GULP energy -595046.522810 kJ/mol
# GULP energy per Si atom -12396.802559 kJ/mol
# Density = 2.029467 g / cm^3
# Si number density = 20.340965 Si / 1000 Ang^3
#
#
#
# Elastic Constant Matrix: (Units=GPa)
#
#
# Indices 1 2 3 4 5 6 
#
# 1 135.8592 30.4183 83.3580 0.0000 0.0000 0.0000
# 2 30.4183 51.8099 33.5868 0.0000 0.0000 0.0000
# 3 83.3580 33.5868 131.0348 0.0000 0.0000 0.0000
# 4 0.0000 0.0000 0.0000 13.6440 0.0000 0.0000
# 5 0.0000 0.0000 0.0000 0.0000 20.3939 0.0000
# 6 0.0000 0.0000 0.0000 0.0000 0.0000 -7.8866
#
#
#
# Elastic Compliance Matrix: (Units=1/GPa)
#
#
# Indices 1 2 3 4 5 6 
#
# 1 0.012356 -0.002589 -0.007197 0.000000 0.000000 0.000000
# 2 -0.002589 0.023690 -0.004425 0.000000 0.000000 0.000000
# 3 -0.007197 -0.004425 0.013344 0.000000 0.000000 0.000000
# 4 0.000000 0.000000 0.000000 0.073292 0.000000 0.000000
# 5 0.000000 0.000000 0.000000 0.000000 0.049034 0.000000
# 6 0.000000 0.000000 0.000000 0.000000 0.000000 -0.126798
#
#
# Mechanical properties :
#
#
# Convention : Reuss Voigt Hill
#
# Bulk Modulus (GPa) = 47.69106 68.15890 57.92498
# Shear Modulus (GPa) = 62.24393 16.65300 39.44846
#
# Velocity S-wave (km/s) = 5.53775 2.86438 4.40859
# Velocity P-wave (km/s) = 8.02407 6.67237 7.37923
#
# Compressibility (1/GPa) = 0.02096829
#
# Stress axis : x y z
#
# Youngs Moduli (GPa) = 80.93426 42.21166 74.94048
#
# Poissons Ratio (x) = 0.10928 0.53931
# Poissons Ratio (y) = 0.20953 0.33164
# Poissons Ratio (z) = 0.58244 0.18680
#
# Static dielectric constant tensor:
#      x y z
#    x 3.737940 0.000000 0.000000 
#    y 0.000000 3.335300 0.000000 
#    z 0.000000 0.000000 3.987920 
# 
# 
# High freq. dielectric constant tensor:
#      x y z
#    x 1.799400 0.000000 0.000000 
#    y 0.000000 1.771790 0.000000 
#    z 0.000000 0.000000 1.788290 
# 
# From -- ./inp_files/13968.got.cif
#   From: 2010.03.12/outbox.cif.g09.slc.cpg/sg47_7_cif.got.tgz:13968.got - 2010.04.14 03:12:58.
