data_PCOD8197749
_publ_section_title
;
Structure prediction by ZEFSAII (Michael W. Deem and Ramdas Pophale) SiO2 
 PCOD8197749
Probable space group: P M M M
;
_chemical_formula_sum "Si O2"
_cell_formula_units_Z 64
_cell_length_a 24.976873
_cell_length_b 9.164462
_cell_length_c 14.707497
_cell_angle_alpha 90.000000
_cell_angle_beta 90.000000
_cell_angle_gamma 90.000000
_cell_volume 3366.540232
_symmetry_space_group_name_H-M "P M M M"
_symmetry_group_IT_number 47
_symmetry_cell_setting 'orthorhombic'
loop_
_space_group_symop_operation_xyz
x,y,z
-x,-y,z
x,-y,-z
-x,y,-z
-x,-y,-z
x,y,-z
-x,y,z
x,-y,z
loop_
_atom_site_type_symbol
_atom_site_label
_atom_site_fract_x
_atom_site_fract_y
_atom_site_fract_z
Si Si1 0.743916 0.169572 0.222354
Si Si2 0.196243 0.164465 0.399963
Si Si3 0.841907 0.825779 0.103351
Si Si4 0.941104 0.168007 0.776426
Si Si5 0.562883 0.337786 0.898553
Si Si6 0.625920 0.172192 0.244624
Si Si7 0.560843 0.670444 0.395109
Si Si8 0.911471 0.328929 0.601888
O O1 0.759063 0.201092 0.326508
O O2 0.788339 0.236926 0.153249
O O3 0.684248 0.235404 0.214440
O O4 0.741686 0.000000 0.199698
O O5 0.222432 0.177844 0.500000
O O6 0.149580 0.280376 0.388093
O O7 0.173545 0.000000 0.384190
O O8 0.894840 0.768616 0.157061
O O9 0.842034 0.000000 0.103446
O O10 0.843256 0.765983 0.000000
O O11 0.944979 0.249552 0.679808
O O12 0.000000 0.185501 0.822660
O O13 0.928238 0.000000 0.755848
O O14 0.500000 0.317209 0.899171
O O15 0.577541 0.500000 0.861533
O O16 0.586642 0.211635 0.836789
O O17 0.585793 0.318760 0.000000
O O18 0.604485 0.241974 0.337524
O O19 0.628333 0.000000 0.259536
O O20 0.570165 0.710524 0.500000
O O21 0.500000 0.713084 0.366353
O O22 0.569619 0.500000 0.377996
O O23 0.932685 0.289086 0.500000
O O24 0.915593 0.500000 0.618512
#
# Coordination Sequence:
#
# PCOD8197749 Si02
#       8
#     8   8   8   8   8   8   8   8
#     4   9  18  32  49  75 108 141 174 207 258 321
#     4   9  16  30  54  76  97 132 176 216 250 294
#     4   9  17  32  55  79 104 135 172 217 266 312
#     4  10  20  34  55  82 107 134 175 222 263 310
#     4   9  19  37  58  76  99 138 183 221 263 320
#     4  11  22  32  50  83 115 140 173 221 274 324
#     4   9  19  37  58  77 103 146 193 228 264 317
#     4  10  20  33  51  77 108 140 171 206 256 312
#
# _framework density 19.010615000000001
#
# number of rings (size 3 to 8) (size 9 to 14) (size 15 to 20)
#    0.000    2.500    1.250    1.875    0.000    5.000 
#    0.000    7.500    0.000    1.875    0.000    0.875 
#    0.000    0.000    0.000    0.000    0.000    0.000 
#
# Total GULP energy -793213.939363 kJ/mol
# GULP energy per Si atom -12393.967803 kJ/mol
# Density = 1.896735 g / cm^3
# Si number density = 19.010615 Si / 1000 Ang^3
#
#
#
# Elastic Constant Matrix: (Units=GPa)
#
#
# Indices 1 2 3 4 5 6 
#
# 1 109.9509 33.8132 64.4011 0.0000 0.0000 0.0000
# 2 33.8132 43.5320 32.8976 0.0000 0.0000 0.0000
# 3 64.4011 32.8976 127.9278 0.0000 0.0000 0.0000
# 4 0.0000 0.0000 0.0000 20.7428 0.0000 0.0000
# 5 0.0000 0.0000 0.0000 0.0000 10.0264 0.0000
# 6 0.0000 0.0000 0.0000 0.0000 0.0000 6.1532
#
#
#
# Elastic Compliance Matrix: (Units=1/GPa)
#
#
# Indices 1 2 3 4 5 6 
#
# 1 0.014484 -0.007124 -0.005459 0.000000 0.000000 0.000000
# 2 -0.007124 0.032017 -0.004647 0.000000 0.000000 0.000000
# 3 -0.005459 -0.004647 0.011760 0.000000 0.000000 0.000000
# 4 0.000000 0.000000 0.000000 0.048210 0.000000 0.000000
# 5 0.000000 0.000000 0.000000 0.000000 0.099737 0.000000
# 6 0.000000 0.000000 0.000000 0.000000 0.000000 0.162516
#
#
# Mechanical properties :
#
#
# Convention : Reuss Voigt Hill
#
# Bulk Modulus (GPa) = 42.01709 60.40383 51.21046
# Shear Modulus (GPa) = 12.16197 17.40440 14.78318
#
# Velocity S-wave (km/s) = 2.53206 3.02902 2.79162
# Velocity P-wave (km/s) = 5.54061 6.63898 6.11451
#
# Compressibility (1/GPa) = 0.02379984
#
# Stress axis : x y z
#
# Youngs Moduli (GPa) = 69.04395 31.23325 85.03318
#
# Poissons Ratio (x) = 0.22252 0.46421
# Poissons Ratio (y) = 0.49190 0.39514
# Poissons Ratio (z) = 0.37692 0.14514
#
# Static dielectric constant tensor:
#      x y z
#    x 3.539530 0.000000 0.000000 
#    y 0.000000 3.163470 0.000000 
#    z 0.000000 0.000000 3.688460 
# 
# 
# High freq. dielectric constant tensor:
#      x y z
#    x 1.736040 0.000000 0.000000 
#    y 0.000000 1.702070 0.000000 
#    z 0.000000 0.000000 1.746270 
# 
# From -- ./inp_files/25548.got.cif
#   From: 2010.03.12/outbox.cif.g09.slc.cpg/sg47_13_cif.got.tgz:25548.got - 2010.04.14 03:12:58.
