data_PCOD8197066
_publ_section_title
;
Structure prediction by ZEFSAII (Michael W. Deem and Ramdas Pophale) SiO2 
 PCOD8197066
Probable space group: P M M M
;
_chemical_formula_sum "Si O2"
_cell_formula_units_Z 44
_cell_length_a 9.620935
_cell_length_b 28.185942
_cell_length_c 9.339362
_cell_angle_alpha 90.000000
_cell_angle_beta 90.000000
_cell_angle_gamma 90.000000
_cell_volume 2532.602573
_symmetry_space_group_name_H-M "P M M M"
_symmetry_group_IT_number 47
_symmetry_cell_setting 'orthorhombic'
loop_
_space_group_symop_operation_xyz
x,y,z
-x,-y,z
x,-y,-z
-x,y,-z
-x,-y,-z
x,y,-z
-x,y,z
x,-y,z
loop_
_atom_site_type_symbol
_atom_site_label
_atom_site_fract_x
_atom_site_fract_y
_atom_site_fract_z
Si Si1 0.845175 0.821868 0.170375
Si Si2 0.334765 0.000000 0.337977
Si Si3 0.661919 0.908685 0.166980
Si Si4 0.659249 0.555143 0.164018
Si Si5 0.165277 0.718133 0.840676
Si Si6 0.163121 0.628421 0.666050
O O1 0.742038 0.862551 0.226127
O O2 0.788741 0.769958 0.219491
O O3 0.000000 0.831588 0.231728
O O4 0.850644 0.821674 0.000000
O O5 0.280496 0.046415 0.255032
O O6 0.500000 0.000000 0.336427
O O7 0.276924 0.000000 0.500000
O O8 0.500000 0.899947 0.195230
O O9 0.691805 0.918157 0.000000
O O10 0.500000 0.568792 0.196360
O O11 0.684242 0.500000 0.195024
O O12 0.759896 0.583652 0.267543
O O13 0.696241 0.567173 0.000000
O O14 0.220455 0.676873 0.737004
O O15 0.000000 0.717910 0.847804
O O16 0.226247 0.709145 0.000000
O O17 0.198742 0.631165 0.500000
O O18 0.000000 0.621984 0.694593
#
# Coordination Sequence:
#
# PCOD8197066 Si02
#       6
#     8   4   8   8   8   8
#     4   8  14  26  45  67  89 115 148 184 223 267
#     4   9  17  29  44  61  84 116 148 175 212 266
#     4   9  16  27  45  67  87 108 141 185 225 260
#     4   9  19  36  55  73  94 123 160 199 239 284
#     4   8  14  27  47  67  89 121 157 189 224 269
#     4  10  20  32  48  73 102 129 159 195 233 276
#
# _framework density 17.373432999999999
#
# number of rings (size 3 to 8) (size 9 to 14) (size 15 to 20)
#    0.000    3.182    0.000    2.455    0.000    3.273 
#    0.000    5.000    0.000    7.636    0.000    0.000 
#    0.000    0.000    0.000    0.000    0.000    0.000 
#
# Total GULP energy -545439.596842 kJ/mol
# GULP energy per Si atom -12396.354474 kJ/mol
# Density = 1.733389 g / cm^3
# Si number density = 17.373433 Si / 1000 Ang^3
#
#
#
# Elastic Constant Matrix: (Units=GPa)
#
#
# Indices 1 2 3 4 5 6 
#
# 1 47.1033 54.5351 39.7316 0.0000 0.0000 0.0000
# 2 54.5351 149.4432 74.4397 0.0000 0.0000 0.0000
# 3 39.7316 74.4397 92.0147 0.0000 0.0000 0.0000
# 4 0.0000 0.0000 0.0000 7.3890 0.0000 0.0000
# 5 0.0000 0.0000 0.0000 0.0000 17.3365 0.0000
# 6 0.0000 0.0000 0.0000 0.0000 0.0000 20.1027
#
#
#
# Elastic Compliance Matrix: (Units=1/GPa)
#
#
# Indices 1 2 3 4 5 6 
#
# 1 0.041106 -0.010316 -0.009403 0.000000 0.000000 0.000000
# 2 -0.010316 0.013797 -0.006707 0.000000 0.000000 0.000000
# 3 -0.009403 -0.006707 0.020354 0.000000 0.000000 0.000000
# 4 0.000000 0.000000 0.000000 0.135337 0.000000 0.000000
# 5 0.000000 0.000000 0.000000 0.000000 0.057682 0.000000
# 6 0.000000 0.000000 0.000000 0.000000 0.000000 0.049745
#
#
# Mechanical properties :
#
#
# Convention : Reuss Voigt Hill
#
# Bulk Modulus (GPa) = 44.63659 69.55265 57.09462
# Shear Modulus (GPa) = 13.21555 16.95595 15.08575
#
# Velocity S-wave (km/s) = 2.76103 3.12744 2.94993
# Velocity P-wave (km/s) = 5.99271 7.29123 6.67363
#
# Compressibility (1/GPa) = 0.02240315
#
# Stress axis : x y z
#
# Youngs Moduli (GPa) = 24.32748 72.47842 49.12953
#
# Poissons Ratio (x) = 0.74772 0.46198
# Poissons Ratio (y) = 0.25097 0.32953
# Poissons Ratio (z) = 0.22876 0.48613
#
# Static dielectric constant tensor:
#      x y z
#    x 2.988170 0.000000 0.000000 
#    y 0.000000 3.557230 0.000000 
#    z 0.000000 0.000000 3.103430 
# 
# 
# High freq. dielectric constant tensor:
#      x y z
#    x 1.637540 0.000000 0.000000 
#    y 0.000000 1.686290 0.000000 
#    z 0.000000 0.000000 1.649740 
# 
# From -- ./inp_files/2197.got.cif
#   From: 2010.03.12/outbox.cif.g09.slc.cpg/sg47_2_cif.got.tgz:2197.got - 2010.04.14 03:12:58.
