data_PCOD8197566
_publ_section_title
;
Structure prediction by ZEFSAII (Michael W. Deem and Ramdas Pophale) SiO2 
 PCOD8197566
Probable space group: P M M M
;
_chemical_formula_sum "Si O2"
_cell_formula_units_Z 44
_cell_length_a 28.406518
_cell_length_b 9.633725
_cell_length_c 9.224570
_cell_angle_alpha 90.000000
_cell_angle_beta 90.000000
_cell_angle_gamma 90.000000
_cell_volume 2524.401201
_symmetry_space_group_name_H-M "P M M M"
_symmetry_group_IT_number 47
_symmetry_cell_setting 'orthorhombic'
loop_
_space_group_symop_operation_xyz
x,y,z
-x,-y,z
x,-y,-z
-x,y,-z
-x,-y,-z
x,y,-z
-x,y,z
x,-y,z
loop_
_atom_site_type_symbol
_atom_site_label
_atom_site_fract_x
_atom_site_fract_y
_atom_site_fract_z
Si Si1 0.000000 0.164729 0.163820
Si Si2 0.725592 0.664685 0.840096
Si Si3 0.363662 0.340659 0.329487
Si Si4 0.551992 0.844037 0.327585
Si Si5 0.169244 0.338334 0.169637
Si Si6 0.092333 0.162393 0.330442
O O1 0.954041 0.218021 0.248422
O O2 0.000000 0.000000 0.161448
O O3 0.000000 0.224617 0.000000
O O4 0.724177 0.500000 0.845548
O O5 0.684895 0.721412 0.734424
O O6 0.777682 0.708296 0.787788
O O7 0.715900 0.725475 0.000000
O O8 0.360211 0.322116 0.500000
O O9 0.370889 0.500000 0.284285
O O10 0.408074 0.257285 0.263733
O O11 0.553071 0.838774 0.500000
O O12 0.500000 0.796604 0.273577
O O13 0.562401 0.000000 0.273501
O O14 0.160795 0.500000 0.204679
O O15 0.136261 0.246090 0.269440
O O16 0.159749 0.309291 0.000000
O O17 0.086063 0.192484 0.500000
O O18 0.100650 0.000000 0.300423
#
# Coordination Sequence:
#
# PCOD8197566 Si02
#       6
#     4   8   8   8   8   8
#     4   9  17  31  52  73  94 127 166 198 232 277
#     4   8  15  29  47  65  88 119 150 180 220 271
#     4   9  16  25  41  66  88 106 138 184 223 255
#     4   8  14  25  40  58  83 115 145 173 214 267
#     4   9  18  33  52  72  94 124 162 198 233 278
#     4  10  20  33  50  74 102 128 156 194 239 283
#
# _framework density 17.429876
#
# number of rings (size 3 to 8) (size 9 to 14) (size 15 to 20)
#    0.000    3.182    0.000    2.455    0.000    3.636 
#    0.000    5.000    0.000    7.091    0.000    3.818 
#    0.000    0.000    0.000    0.000    0.000    0.000 
#
# Total GULP energy -545367.160875 kJ/mol
# GULP energy per Si atom -12394.708202 kJ/mol
# Density = 1.739021 g / cm^3
# Si number density = 17.429876 Si / 1000 Ang^3
#
#
#
# Elastic Constant Matrix: (Units=GPa)
#
#
# Indices 1 2 3 4 5 6 
#
# 1 177.7859 61.8485 67.1305 0.0000 0.0000 0.0000
# 2 61.8485 51.3391 36.3981 0.0000 0.0000 0.0000
# 3 67.1305 36.3981 69.7201 0.0000 0.0000 0.0000
# 4 0.0000 0.0000 0.0000 18.0844 0.0000 0.0000
# 5 0.0000 0.0000 0.0000 0.0000 20.4911 0.0000
# 6 0.0000 0.0000 0.0000 0.0000 0.0000 21.6879
#
#
#
# Elastic Compliance Matrix: (Units=1/GPa)
#
#
# Indices 1 2 3 4 5 6 
#
# 1 0.010997 -0.009115 -0.005830 0.000000 0.000000 0.000000
# 2 -0.009115 0.038479 -0.011312 0.000000 0.000000 0.000000
# 3 -0.005830 -0.011312 0.025862 0.000000 0.000000 0.000000
# 4 0.000000 0.000000 0.000000 0.055296 0.000000 0.000000
# 5 0.000000 0.000000 0.000000 0.000000 0.048802 0.000000
# 6 0.000000 0.000000 0.000000 0.000000 0.000000 0.046109
#
#
# Mechanical properties :
#
#
# Convention : Reuss Voigt Hill
#
# Bulk Modulus (GPa) = 43.81305 69.95546 56.88426
# Shear Modulus (GPa) = 17.50292 20.95055 19.22674
#
# Velocity S-wave (km/s) = 3.17233 3.47074 3.32488
# Velocity P-wave (km/s) = 6.21366 7.50226 6.88816
#
# Compressibility (1/GPa) = 0.02282425
#
# Stress axis : x y z
#
# Youngs Moduli (GPa) = 90.93384 25.98824 38.66648
#
# Poissons Ratio (x) = 0.23688 0.22543
# Poissons Ratio (y) = 0.82884 0.43740
# Poissons Ratio (z) = 0.53015 0.29398
#
# Static dielectric constant tensor:
#      x y z
#    x 3.639140 0.000000 0.000000 
#    y 0.000000 3.014870 0.000000 
#    z 0.000000 0.000000 3.140760 
# 
# 
# High freq. dielectric constant tensor:
#      x y z
#    x 1.690250 0.000000 0.000000 
#    y 0.000000 1.639660 0.000000 
#    z 0.000000 0.000000 1.653500 
# 
# From -- ./inp_files/2000.got.cif
#   From: 2010.03.12/outbox.cif.g09.slc.cpg/sg47_1_cif.got.tgz:2000.got - 2010.04.14 03:12:58.
