data_PCOD8197813
_publ_section_title
;
Structure prediction by ZEFSAII (Michael W. Deem and Ramdas Pophale) SiO2 
 PCOD8197813
Probable space group: P M M M
;
_chemical_formula_sum "Si O2"
_cell_formula_units_Z 44
_cell_length_a 9.235035
_cell_length_b 7.795663
_cell_length_c 31.778521
_cell_angle_alpha 90.000000
_cell_angle_beta 90.000000
_cell_angle_gamma 90.000000
_cell_volume 2287.838074
_symmetry_space_group_name_H-M "P M M M"
_symmetry_group_IT_number 47
_symmetry_cell_setting 'orthorhombic'
loop_
_space_group_symop_operation_xyz
x,y,z
-x,-y,z
x,-y,-z
-x,y,-z
-x,-y,-z
x,y,-z
-x,y,z
x,-y,z
loop_
_atom_site_type_symbol
_atom_site_label
_atom_site_fract_x
_atom_site_fract_y
_atom_site_fract_z
Si Si1 0.168602 0.698125 0.547099
Si Si2 0.839037 0.200631 0.081629
Si Si3 0.666554 0.190081 0.625543
Si Si4 0.672671 0.500000 0.681854
Si Si5 0.338579 0.299552 0.000000
Si Si6 0.330029 0.198110 0.163801
Si Si7 0.671161 0.500000 0.224306
O O1 0.211991 0.757167 0.500000
O O2 0.208760 0.500000 0.553465
O O3 0.254744 0.808943 0.580757
O O4 0.000000 0.729329 0.554497
O O5 0.748551 0.243487 0.040658
O O6 0.753537 0.265409 0.122596
O O7 0.000000 0.284935 0.079548
O O8 0.856744 0.000000 0.084929
O O9 0.500000 0.233019 0.616852
O O10 0.730887 0.330488 0.657830
O O11 0.685666 0.000000 0.645347
O O12 0.500000 0.500000 0.684159
O O13 0.738883 0.500000 0.728867
O O14 0.355317 0.500000 0.000000
O O15 0.500000 0.215933 0.000000
O O16 0.500000 0.217233 0.154522
O O17 0.278897 0.325043 0.201057
O O18 0.292317 0.000000 0.175571
O O19 0.500000 0.500000 0.227436
#
# Coordination Sequence:
#
# PCOD8197813 Si02
#       7
#     8   8   8   4   4   8   4
#     4   9  18  33  53  76 103 138 179 220 263 313
#     4  10  21  37  56  78 107 142 177 215 261 313
#     4  10  20  33  52  78 107 141 179 217 262 317
#     4   9  18  34  52  76 108 137 170 220 272 314
#     4  11  24  37  52  78 110 143 180 221 258 302
#     4   9  18  33  54  80 107 136 174 220 265 310
#     4   9  18  32  55  81 105 135 174 218 265 320
#
# _framework density 19.232130000000002
#
# number of rings (size 3 to 8) (size 9 to 14) (size 15 to 20)
#    0.000    2.455    0.909    1.636    1.273    4.727 
#    0.000    6.364    0.000    2.182    0.000    2.545 
#    0.000    0.000    0.000    0.000    0.000    0.000 
#
# Total GULP energy -545476.337465 kJ/mol
# GULP energy per Si atom -12397.189488 kJ/mol
# Density = 1.918836 g / cm^3
# Si number density = 19.232130 Si / 1000 Ang^3
#
#
#
# Elastic Constant Matrix: (Units=GPa)
#
#
# Indices 1 2 3 4 5 6 
#
# 1 69.0032 28.2031 50.3576 0.0000 0.0000 0.0000
# 2 28.2031 95.1480 66.9014 0.0000 0.0000 0.0000
# 3 50.3576 66.9014 168.5113 0.0000 0.0000 0.0000
# 4 0.0000 0.0000 0.0000 23.4401 0.0000 0.0000
# 5 0.0000 0.0000 0.0000 0.0000 -7.7611 0.0000
# 6 0.0000 0.0000 0.0000 0.0000 0.0000 15.1380
#
#
#
# Elastic Compliance Matrix: (Units=1/GPa)
#
#
# Indices 1 2 3 4 5 6 
#
# 1 0.018878 -0.002260 -0.004744 0.000000 0.000000 0.000000
# 2 -0.002260 0.014851 -0.005221 0.000000 0.000000 0.000000
# 3 -0.004744 -0.005221 0.009425 0.000000 0.000000 0.000000
# 4 0.000000 0.000000 0.000000 0.042662 0.000000 0.000000
# 5 0.000000 0.000000 0.000000 0.000000 -0.128847 0.000000
# 6 0.000000 0.000000 0.000000 0.000000 0.000000 0.066059
#
#
# Mechanical properties :
#
#
# Convention : Reuss Voigt Hill
#
# Bulk Modulus (GPa) = 53.46466 69.28741 61.37604
# Shear Modulus (GPa) = 93.09077 18.64342 55.86709
#
# Velocity S-wave (km/s) = 6.96483 3.11688 5.39554
# Velocity P-wave (km/s) = 9.61969 7.00417 8.41418
#
# Compressibility (1/GPa) = 0.01870394
#
# Stress axis : x y z
#
# Youngs Moduli (GPa) = 52.97155 67.33775 106.10386
#
# Poissons Ratio (x) = 0.15217 0.50339
# Poissons Ratio (y) = 0.11971 0.55392
# Poissons Ratio (z) = 0.25131 0.35154
#
# Static dielectric constant tensor:
#      x y z
#    x 3.689640 0.000000 0.000000 
#    y 0.000000 3.597060 0.000000 
#    z 0.000000 0.000000 3.662490 
# 
# 
# High freq. dielectric constant tensor:
#      x y z
#    x 1.725140 0.000000 0.000000 
#    y 0.000000 1.753250 0.000000 
#    z 0.000000 0.000000 1.745360 
# 
# From -- ./inp_files/33986.got.cif
#   From: 2010.03.12/outbox.cif.g09.slc.cpg/sg47_17_cif.got.tgz:33986.got - 2010.04.14 03:12:58.
