data_PCOD8197592
_publ_section_title
;
Structure prediction by ZEFSAII (Michael W. Deem and Ramdas Pophale) SiO2 
 PCOD8197592
Probable space group: P M M M
;
_chemical_formula_sum "Si O2"
_cell_formula_units_Z 52
_cell_length_a 9.179763
_cell_length_b 10.280254
_cell_length_c 30.068716
_cell_angle_alpha 90.000000
_cell_angle_beta 90.000000
_cell_angle_gamma 90.000000
_cell_volume 2837.593608
_symmetry_space_group_name_H-M "P M M M"
_symmetry_group_IT_number 47
_symmetry_cell_setting 'orthorhombic'
loop_
_space_group_symop_operation_xyz
x,y,z
-x,-y,z
x,-y,-z
-x,y,-z
-x,-y,-z
x,y,-z
-x,y,z
x,-y,z
loop_
_atom_site_type_symbol
_atom_site_label
_atom_site_fract_x
_atom_site_fract_y
_atom_site_fract_z
Si Si1 0.171660 0.148541 0.787293
Si Si2 0.656530 0.353314 0.625754
Si Si3 0.170713 0.748058 0.550484
Si Si4 0.330612 0.148043 0.120853
Si Si5 0.661101 0.000000 0.552615
Si Si6 0.672842 0.354734 0.950427
Si Si7 0.328162 0.349348 0.722943
O O1 0.238289 0.175327 0.835393
O O2 0.239922 0.253364 0.754333
O O3 0.000000 0.171347 0.789500
O O4 0.207511 0.000000 0.772088
O O5 0.500000 0.290907 0.610331
O O6 0.624247 0.500000 0.638497
O O7 0.775109 0.356674 0.585946
O O8 0.710381 0.295767 0.672905
O O9 0.217027 0.710221 0.500000
O O10 0.000000 0.768725 0.552804
O O11 0.249330 0.876349 0.568752
O O12 0.500000 0.175855 0.131413
O O13 0.267853 0.245630 0.083364
O O14 0.309192 0.000000 0.104049
O O15 0.500000 0.000000 0.573672
O O16 0.652737 0.000000 0.500000
O O17 0.500000 0.347462 0.951631
O O18 0.721994 0.500000 0.935213
O O19 0.733798 0.325782 0.000000
O O20 0.500000 0.335062 0.731880
O O21 0.279338 0.500000 0.730713
#
# Coordination Sequence:
#
# PCOD8197592 Si02
#       7
#     8   8   8   8   4   8   8
#     4  10  21  36  53  76 107 139 172 213 261 314
#     4   9  19  36  55  75 100 130 166 206 247 296
#     4  10  20  33  50  74 104 135 166 203 248 296
#     4   9  17  29  47  71  98 130 168 211 258 305
#     4   9  17  31  51  71  93 125 165 205 243 285
#     4   8  14  25  42  67  99 131 165 210 260 305
#     4   9  19  37  59  80 102 131 170 215 261 311
#
# _framework density 18.325386999999999
#
# number of rings (size 3 to 8) (size 9 to 14) (size 15 to 20)
#    0.000    2.846    0.000    2.538    0.000    5.231 
#    1.385    6.154    0.000    0.462    0.000    3.231 
#    0.000    0.000    0.000    0.000    0.000    0.000 
#
# Total GULP energy -644313.493927 kJ/mol
# GULP energy per Si atom -12390.644114 kJ/mol
# Density = 1.828368 g / cm^3
# Si number density = 18.325387 Si / 1000 Ang^3
#
#
#
# Elastic Constant Matrix: (Units=GPa)
#
#
# Indices 1 2 3 4 5 6 
#
# 1 75.9210 44.6576 58.6409 0.0000 0.0000 0.0000
# 2 44.6576 98.6606 76.4546 0.0000 0.0000 0.0000
# 3 58.6409 76.4546 128.6742 0.0000 0.0000 0.0000
# 4 0.0000 0.0000 0.0000 24.9729 0.0000 0.0000
# 5 0.0000 0.0000 0.0000 0.0000 8.5263 0.0000
# 6 0.0000 0.0000 0.0000 0.0000 0.0000 20.7873
#
#
#
# Elastic Compliance Matrix: (Units=1/GPa)
#
#
# Indices 1 2 3 4 5 6 
#
# 1 0.021103 -0.003891 -0.007305 0.000000 0.000000 0.000000
# 2 -0.003891 0.019503 -0.009815 0.000000 0.000000 0.000000
# 3 -0.007305 -0.009815 0.016933 0.000000 0.000000 0.000000
# 4 0.000000 0.000000 0.000000 0.040043 0.000000 0.000000
# 5 0.000000 0.000000 0.000000 0.000000 0.117284 0.000000
# 6 0.000000 0.000000 0.000000 0.000000 0.000000 0.048106
#
#
# Mechanical properties :
#
#
# Convention : Reuss Voigt Hill
#
# Bulk Modulus (GPa) = 64.44945 73.64022 69.04484
# Shear Modulus (GPa) = 16.12040 19.09082 17.60561
#
# Velocity S-wave (km/s) = 2.96915 3.23115 3.10292
# Velocity P-wave (km/s) = 6.85568 7.36155 7.11311
#
# Compressibility (1/GPa) = 0.01551604
#
# Stress axis : x y z
#
# Youngs Moduli (GPa) = 47.38692 51.27533 59.05800
#
# Poissons Ratio (x) = 0.19950 0.43144
# Poissons Ratio (y) = 0.18437 0.57964
# Poissons Ratio (z) = 0.34618 0.50325
#
# Static dielectric constant tensor:
#      x y z
#    x 3.186360 0.000000 0.000000 
#    y 0.000000 3.492980 0.000000 
#    z 0.000000 0.000000 3.396360 
# 
# 
# High freq. dielectric constant tensor:
#      x y z
#    x 1.692120 0.000000 0.000000 
#    y 0.000000 1.708730 0.000000 
#    z 0.000000 0.000000 1.706430 
# 
# From -- ./inp_files/19796.got.cif
#   From: 2010.03.12/outbox.cif.g09.slc.cpg/sg47_10_cif.got.tgz:19796.got - 2010.04.14 03:12:58.
