data_PCOD8197391
_publ_section_title
;
Structure prediction by ZEFSAII (Michael W. Deem and Ramdas Pophale) SiO2 
 PCOD8197391
Probable space group: P M M M
;
_chemical_formula_sum "Si O2"
_cell_formula_units_Z 44
_cell_length_a 8.948623
_cell_length_b 28.599155
_cell_length_c 9.175429
_cell_angle_alpha 90.000000
_cell_angle_beta 90.000000
_cell_angle_gamma 90.000000
_cell_volume 2348.203832
_symmetry_space_group_name_H-M "P M M M"
_symmetry_group_IT_number 47
_symmetry_cell_setting 'orthorhombic'
loop_
_space_group_symop_operation_xyz
x,y,z
-x,-y,z
x,-y,-z
-x,y,-z
-x,-y,-z
x,y,-z
-x,y,z
x,-y,z
loop_
_atom_site_type_symbol
_atom_site_label
_atom_site_fract_x
_atom_site_fract_y
_atom_site_fract_z
Si Si1 0.821495 0.139971 0.836119
Si Si2 0.324062 0.406266 0.667388
Si Si3 0.173692 0.677919 0.170791
Si Si4 0.831997 0.500000 0.326962
Si Si5 0.822299 0.948474 0.663744
Si Si6 0.822333 0.770283 0.664221
O O1 0.757466 0.091782 0.768371
O O2 0.758960 0.183545 0.743306
O O3 0.000000 0.139959 0.834347
O O4 0.760616 0.144372 0.000000
O O5 0.275600 0.396907 0.500000
O O6 0.500000 0.411507 0.680831
O O7 0.268831 0.364552 0.767870
O O8 0.251681 0.453803 0.729502
O O9 0.232343 0.724875 0.248213
O O10 0.000000 0.668915 0.205599
O O11 0.202486 0.683381 0.000000
O O12 0.830367 0.500000 0.500000
O O13 0.000000 0.500000 0.264805
O O14 0.763612 0.939496 0.500000
O O15 0.000000 0.946311 0.664096
O O16 0.769690 0.000000 0.718018
O O17 0.758723 0.768290 0.500000
O O18 0.000000 0.772171 0.662588
#
# Coordination Sequence:
#
# PCOD8197391 Si02
#       6
#     8   8   8   4   8   8
#     4   9  15  21  30  46  69  96 129 174 227 279
#     4  10  20  34  53  77 104 133 165 200 239 285
#     4  10  20  33  49  70  96 125 159 200 244 289
#     4   9  17  31  54  81 106 133 166 204 242 279
#     4   8  13  20  28  38  56  87 129 175 221 271
#     4   9  16  26  41  59  79 106 142 185 232 281
#
# _framework density 18.737725999999999
#
# number of rings (size 3 to 8) (size 9 to 14) (size 15 to 20)
#    0.000    2.818    0.000    3.000    0.000    8.000 
#    0.000    2.273    0.000    2.727    0.000    0.000 
#    0.000    0.000    0.000    0.000    0.000    0.909 
#
# Total GULP energy -545516.459694 kJ/mol
# GULP energy per Si atom -12398.101357 kJ/mol
# Density = 1.869508 g / cm^3
# Si number density = 18.737726 Si / 1000 Ang^3
#
#
#
# Elastic Constant Matrix: (Units=GPa)
#
#
# Indices 1 2 3 4 5 6 
#
# 1 34.6404 32.7780 24.2260 0.0000 0.0000 0.0000
# 2 32.7780 189.5233 85.9566 0.0000 0.0000 0.0000
# 3 24.2260 85.9566 124.5439 0.0000 0.0000 0.0000
# 4 0.0000 0.0000 0.0000 18.2524 0.0000 0.0000
# 5 0.0000 0.0000 0.0000 0.0000 12.2135 0.0000
# 6 0.0000 0.0000 0.0000 0.0000 0.0000 -1.0041
#
#
#
# Elastic Compliance Matrix: (Units=1/GPa)
#
#
# Indices 1 2 3 4 5 6 
#
# 1 0.035781 -0.004413 -0.003914 0.000000 0.000000 0.000000
# 2 -0.004413 0.008225 -0.004818 0.000000 0.000000 0.000000
# 3 -0.003914 -0.004818 0.012116 0.000000 0.000000 0.000000
# 4 0.000000 0.000000 0.000000 0.054787 0.000000 0.000000
# 5 0.000000 0.000000 0.000000 0.000000 0.081877 0.000000
# 6 0.000000 0.000000 0.000000 0.000000 0.000000 -0.995949
#
#
# Mechanical properties :
#
#
# Convention : Reuss Voigt Hill
#
# Bulk Modulus (GPa) = 33.52202 70.51432 52.01817
# Shear Modulus (GPa) = -6.51952 19.60882 6.54465
#
# Velocity S-wave (km/s) = -1.86733 3.23846 1.87092
# Velocity P-wave (km/s) = 3.64414 7.19009 5.69988
#
# Compressibility (1/GPa) = 0.02983114
#
# Stress axis : x y z
#
# Youngs Moduli (GPa) = 27.94757 121.58257 82.53517
#
# Poissons Ratio (x) = 0.53655 0.32307
# Poissons Ratio (y) = 0.12333 0.39767
# Poissons Ratio (z) = 0.10940 0.58580
#
# Static dielectric constant tensor:
#      x y z
#    x 2.819690 0.000000 0.000000 
#    y 0.000000 3.753920 0.000000 
#    z 0.000000 0.000000 3.480630 
# 
# 
# High freq. dielectric constant tensor:
#      x y z
#    x 1.660530 0.000000 0.000000 
#    y 0.000000 1.748630 0.000000 
#    z 0.000000 0.000000 1.722680 
# 
# From -- ./inp_files/2209.got.cif
#   From: 2010.03.12/outbox.cif.g09.slc.cpg/sg47_2_cif.got.tgz:2209.got - 2010.04.14 03:12:58.
