data_PCOD8197993
_publ_section_title
;
Structure prediction by ZEFSAII (Michael W. Deem and Ramdas Pophale) SiO2 
 PCOD8197993
Probable space group: P M M M
;
_chemical_formula_sum "Si O2"
_cell_formula_units_Z 52
_cell_length_a 14.729875
_cell_length_b 21.501603
_cell_length_c 8.777145
_cell_angle_alpha 90.000000
_cell_angle_beta 90.000000
_cell_angle_gamma 90.000000
_cell_volume 2779.861593
_symmetry_space_group_name_H-M "P M M M"
_symmetry_group_IT_number 47
_symmetry_cell_setting 'orthorhombic'
loop_
_space_group_symop_operation_xyz
x,y,z
-x,-y,z
x,-y,-z
-x,y,-z
-x,-y,-z
x,y,-z
-x,y,z
x,-y,z
loop_
_atom_site_type_symbol
_atom_site_label
_atom_site_fract_x
_atom_site_fract_y
_atom_site_fract_z
Si Si1 0.401277 0.316660 0.830530
Si Si2 0.396073 0.127055 0.820264
Si Si3 0.644064 0.431001 0.326713
Si Si4 0.727545 0.768928 0.324814
Si Si5 0.101220 0.308069 0.675880
Si Si6 0.392724 0.000000 0.330380
Si Si7 0.836481 0.569152 0.823126
O O1 0.500000 0.283898 0.827066
O O2 0.413871 0.388701 0.788038
O O3 0.336305 0.290387 0.700288
O O4 0.359499 0.308245 0.000000
O O5 0.500000 0.141908 0.761659
O O6 0.319393 0.176602 0.772438
O O7 0.360015 0.061454 0.756988
O O8 0.397773 0.123659 0.000000
O O9 0.633503 0.407951 0.500000
O O10 0.605081 0.500000 0.308776
O O11 0.748629 0.427765 0.280977
O O12 0.728994 0.789742 0.500000
O O13 0.827727 0.745947 0.269132
O O14 0.122998 0.323689 0.500000
O O15 0.102233 0.372684 0.770509
O O16 0.000000 0.280096 0.695233
O O17 0.500000 0.000000 0.337568
O O18 0.350736 0.000000 0.500000
O O19 0.882444 0.500000 0.801029
O O20 0.811187 0.578434 0.000000
#
# Coordination Sequence:
#
# PCOD8197993 Si02
#       7
#     8   8   8   8   8   4   8
#     4  11  23  36  51  73 102 135 171 214 264 316
#     4  10  20  34  54  82 118 156 188 220 261 307
#     4  10  20  34  52  72  95 127 168 213 262 316
#     4  11  22  36  55  78 105 141 181 222 264 314
#     4  10  22  39  57  78 104 136 176 223 277 333
#     4   9  17  31  53  83 118 153 190 227 257 296
#     4  10  20  34  54  78 102 129 165 215 276 338
#
# _framework density 18.705967000000001
#
# number of rings (size 3 to 8) (size 9 to 14) (size 15 to 20)
#    0.000    1.769    1.538    3.000    0.000    8.308 
#    0.000    3.077    0.000    0.000    0.000    0.538 
#    0.000    4.308    0.000    0.000    0.000    0.000 
#
# Total GULP energy -644314.245476 kJ/mol
# GULP energy per Si atom -12390.658567 kJ/mol
# Density = 1.866339 g / cm^3
# Si number density = 18.705967 Si / 1000 Ang^3
#
#
#
# Elastic Constant Matrix: (Units=GPa)
#
#
# Indices 1 2 3 4 5 6 
#
# 1 95.6617 46.2020 24.4003 0.0000 0.0000 0.0000
# 2 46.2020 113.3143 37.9986 0.0000 0.0000 0.0000
# 3 24.4003 37.9986 67.3003 0.0000 0.0000 0.0000
# 4 0.0000 0.0000 0.0000 32.6598 0.0000 0.0000
# 5 0.0000 0.0000 0.0000 0.0000 17.6968 0.0000
# 6 0.0000 0.0000 0.0000 0.0000 0.0000 18.1316
#
#
#
# Elastic Compliance Matrix: (Units=1/GPa)
#
#
# Indices 1 2 3 4 5 6 
#
# 1 0.013268 -0.004683 -0.002166 0.000000 0.000000 0.000000
# 2 -0.004683 0.012539 -0.005382 0.000000 0.000000 0.000000
# 3 -0.002166 -0.005382 0.018683 0.000000 0.000000 0.000000
# 4 0.000000 0.000000 0.000000 0.030619 0.000000 0.000000
# 5 0.000000 0.000000 0.000000 0.000000 0.056507 0.000000
# 6 0.000000 0.000000 0.000000 0.000000 0.000000 0.055152
#
#
# Mechanical properties :
#
#
# Convention : Reuss Voigt Hill
#
# Bulk Modulus (GPa) = 49.93177 54.83093 52.38135
# Shear Modulus (GPa) = 22.94556 24.87599 23.91078
#
# Velocity S-wave (km/s) = 3.50615 3.65066 3.57913
# Velocity P-wave (km/s) = 6.56823 6.86625 6.71889
#
# Compressibility (1/GPa) = 0.02002733
#
# Stress axis : x y z
#
# Youngs Moduli (GPa) = 75.36940 79.74899 53.52524
#
# Poissons Ratio (x) = 0.37350 0.11594
# Poissons Ratio (y) = 0.35299 0.28807
# Poissons Ratio (z) = 0.16326 0.42920
#
# Static dielectric constant tensor:
#      x y z
#    x 3.266500 0.000000 0.000000 
#    y 0.000000 3.569390 0.000000 
#    z 0.000000 0.000000 3.457410 
# 
# 
# High freq. dielectric constant tensor:
#      x y z
#    x 1.698090 0.000000 0.000000 
#    y 0.000000 1.713650 0.000000 
#    z 0.000000 0.000000 1.734910 
# 
# From -- ./inp_files/6977.got.cif
#   From: 2010.03.12/outbox.cif.g09.slc.cpg/sg47_4_cif.got.tgz:6977.got - 2010.04.14 03:12:58.
