data_PCOD8197729
_publ_section_title
;
Structure prediction by ZEFSAII (Michael W. Deem and Ramdas Pophale) SiO2 
 PCOD8197729
Probable space group: P M M M
;
_chemical_formula_sum "Si O2"
_cell_formula_units_Z 48
_cell_length_a 30.365887
_cell_length_b 9.456200
_cell_length_c 9.214505
_cell_angle_alpha 90.000000
_cell_angle_beta 90.000000
_cell_angle_gamma 90.000000
_cell_volume 2645.907337
_symmetry_space_group_name_H-M "P M M M"
_symmetry_group_IT_number 47
_symmetry_cell_setting 'orthorhombic'
loop_
_space_group_symop_operation_xyz
x,y,z
-x,-y,z
x,-y,-z
-x,y,-z
-x,-y,-z
x,y,-z
-x,y,z
x,-y,z
loop_
_atom_site_type_symbol
_atom_site_label
_atom_site_fract_x
_atom_site_fract_y
_atom_site_fract_z
Si Si1 0.000000 0.168203 0.835927
Si Si2 0.583198 0.163180 0.829867
Si Si3 0.843175 0.336482 0.165692
Si Si4 0.914332 0.834400 0.668269
Si Si5 0.329355 0.835892 0.668227
Si Si6 0.500000 0.660208 0.172645
Si Si7 0.741474 0.663736 0.164868
O O1 0.043257 0.224910 0.754036
O O2 0.000000 0.000000 0.833114
O O3 0.000000 0.226798 0.000000
O O4 0.626993 0.216717 0.750223
O O5 0.543080 0.257889 0.770359
O O6 0.572642 0.000000 0.793194
O O7 0.590555 0.185220 0.000000
O O8 0.854452 0.500000 0.191741
O O9 0.871021 0.242713 0.275333
O O10 0.792308 0.306519 0.200134
O O11 0.854077 0.294094 0.000000
O O12 0.921393 0.800228 0.500000
O O13 0.907923 0.000000 0.695851
O O14 0.335835 0.803298 0.500000
O O15 0.287062 0.753616 0.724555
O O16 0.321128 0.000000 0.699484
O O17 0.500000 0.500000 0.232839
O O18 0.500000 0.661644 0.000000
O O19 0.730276 0.500000 0.187429
O O20 0.730740 0.709106 0.000000
#
# Coordination Sequence:
#
# PCOD8197729 Si02
#       7
#     4   8   8   8   8   4   8
#     4   9  17  31  52  75 100 133 172 212 254 299
#     4   9  17  31  51  72  96 129 166 202 245 297
#     4   9  19  36  55  75 101 133 170 211 253 299
#     4  10  20  33  51  77 107 136 167 206 253 304
#     4  10  21  35  51  75 106 136 168 208 253 301
#     4   9  17  29  48  75 100 122 158 209 254 291
#     4   9  19  36  56  76  99 131 171 212 254 300
#
# _framework density 18.141224999999999
#
# number of rings (size 3 to 8) (size 9 to 14) (size 15 to 20)
#    0.000    2.667    0.000    2.500    0.000    6.667 
#    0.000    7.500    0.000    5.000    0.000    0.000 
#    0.000    0.000    0.000    0.000    0.000    0.000 
#
# Total GULP energy -595300.790171 kJ/mol
# GULP energy per Si atom -12402.099795 kJ/mol
# Density = 1.809993 g / cm^3
# Si number density = 18.141225 Si / 1000 Ang^3
#
#
#
# Elastic Constant Matrix: (Units=GPa)
#
#
# Indices 1 2 3 4 5 6 
#
# 1 126.7896 59.8607 67.3897 0.0000 0.0000 0.0000
# 2 59.8607 64.1652 46.5770 0.0000 0.0000 0.0000
# 3 67.3897 46.5770 92.5713 0.0000 0.0000 0.0000
# 4 0.0000 0.0000 0.0000 25.5082 0.0000 0.0000
# 5 0.0000 0.0000 0.0000 0.0000 12.4886 0.0000
# 6 0.0000 0.0000 0.0000 0.0000 0.0000 6.4245
#
#
#
# Elastic Compliance Matrix: (Units=1/GPa)
#
#
# Indices 1 2 3 4 5 6 
#
# 1 0.016342 -0.010413 -0.006657 0.000000 0.000000 0.000000
# 2 -0.010413 0.031187 -0.008111 0.000000 0.000000 0.000000
# 3 -0.006657 -0.008111 0.019730 0.000000 0.000000 0.000000
# 4 0.000000 0.000000 0.000000 0.039203 0.000000 0.000000
# 5 0.000000 0.000000 0.000000 0.000000 0.080073 0.000000
# 6 0.000000 0.000000 0.000000 0.000000 0.000000 0.155655
#
#
# Mechanical properties :
#
#
# Convention : Reuss Voigt Hill
#
# Bulk Modulus (GPa) = 59.18602 70.13121 64.65862
# Shear Modulus (GPa) = 12.55700 16.19749 14.37724
#
# Velocity S-wave (km/s) = 2.63379 2.99131 2.81822
# Velocity P-wave (km/s) = 6.47650 7.11850 6.80507
#
# Compressibility (1/GPa) = 0.01689588
#
# Stress axis : x y z
#
# Youngs Moduli (GPa) = 61.19355 32.06448 50.68471
#
# Poissons Ratio (x) = 0.33389 0.33741
# Poissons Ratio (y) = 0.63721 0.41112
# Poissons Ratio (z) = 0.40737 0.26008
#
# Static dielectric constant tensor:
#      x y z
#    x 3.406420 0.000000 0.000000 
#    y 0.000000 3.200210 0.000000 
#    z 0.000000 0.000000 3.256990 
# 
# 
# High freq. dielectric constant tensor:
#      x y z
#    x 1.713130 0.000000 0.000000 
#    y 0.000000 1.688210 0.000000 
#    z 0.000000 0.000000 1.695410 
# 
# From -- ./inp_files/2786.got.cif
#   From: 2010.03.12/outbox.cif.g09.slc.cpg/sg47_2_cif.got.tgz:2786.got - 2010.04.14 03:12:58.
