data_PCOD8197241
_publ_section_title
;
Structure prediction by ZEFSAII (Michael W. Deem and Ramdas Pophale) SiO2 
 PCOD8197241
Probable space group: P M M M
;
_chemical_formula_sum "Si O2"
_cell_formula_units_Z 64
_cell_length_a 25.012373
_cell_length_b 9.019788
_cell_length_c 14.877237
_cell_angle_alpha 90.000000
_cell_angle_beta 90.000000
_cell_angle_gamma 90.000000
_cell_volume 3356.398421
_symmetry_space_group_name_H-M "P M M M"
_symmetry_group_IT_number 47
_symmetry_cell_setting 'orthorhombic'
loop_
_space_group_symop_operation_xyz
x,y,z
-x,-y,z
x,-y,-z
-x,y,-z
-x,-y,-z
x,y,-z
-x,y,z
x,-y,z
loop_
_atom_site_type_symbol
_atom_site_label
_atom_site_fract_x
_atom_site_fract_y
_atom_site_fract_z
Si Si1 0.366994 0.323112 0.245953
Si Si2 0.844547 0.675948 0.396067
Si Si3 0.247771 0.673600 0.264894
Si Si4 0.940158 0.826354 0.709059
Si Si5 0.207281 0.835603 0.900697
Si Si6 0.560341 0.827586 0.104661
Si Si7 0.918805 0.166880 0.903918
Si Si8 0.559279 0.676165 0.598383
O O1 0.366886 0.500000 0.239978
O O2 0.307741 0.260829 0.267525
O O3 0.393183 0.262468 0.154895
O O4 0.401590 0.257695 0.327643
O O5 0.838813 0.724332 0.500000
O O6 0.849159 0.500000 0.386720
O O7 0.792238 0.737000 0.342016
O O8 0.898468 0.744490 0.355221
O O9 0.250377 0.500000 0.278123
O O10 0.226307 0.709936 0.166503
O O11 0.939145 0.757901 0.811181
O O12 0.000000 0.802715 0.670236
O O13 0.924663 0.000000 0.711638
O O14 0.144279 0.832177 0.902432
O O15 0.226652 0.000000 0.870250
O O16 0.230159 0.799815 0.000000
O O17 0.500000 0.776960 0.132987
O O18 0.567541 0.000000 0.126191
O O19 0.568681 0.795562 0.000000
O O20 0.940993 0.000000 0.904276
O O21 0.937727 0.241796 0.000000
O O22 0.579327 0.726830 0.500000
O O23 0.500000 0.738556 0.616507
O O24 0.558542 0.500000 0.603979
#
# Coordination Sequence:
#
# PCOD8197241 Si02
#       8
#     8   8   8   8   8   8   8   8
#     4  10  20  32  50  78 107 133 168 217 266 308
#     4  10  22  40  58  74  99 140 183 218 261 319
#     4  10  21  35  51  75 105 136 172 216 263 307
#     4  10  20  34  56  85 111 134 167 217 269 312
#     4   9  17  31  53  76  98 131 172 207 243 297
#     4   9  19  36  55  75 104 144 185 220 257 305
#     4   8  14  27  49  77 106 133 162 198 244 300
#     4   8  14  26  46  72  99 125 155 196 249 305
#
# _framework density 19.068058000000001
#
# number of rings (size 3 to 8) (size 9 to 14) (size 15 to 20)
#    0.000    2.750    1.250    1.875    0.000    3.750 
#    0.000    8.125    0.000    0.750    0.000    4.375 
#    0.000    0.000    0.000    0.000    0.000    0.000 
#
# Total GULP energy -792940.276361 kJ/mol
# GULP energy per Si atom -12389.691818 kJ/mol
# Density = 1.902466 g / cm^3
# Si number density = 19.068058 Si / 1000 Ang^3
#
#
#
# Elastic Constant Matrix: (Units=GPa)
#
#
# Indices 1 2 3 4 5 6 
#
# 1 129.8144 26.2616 76.0142 0.0000 0.0000 0.0000
# 2 26.2616 17.8481 24.3028 0.0000 0.0000 0.0000
# 3 76.0142 24.3028 137.0687 0.0000 0.0000 0.0000
# 4 0.0000 0.0000 0.0000 17.2406 0.0000 0.0000
# 5 0.0000 0.0000 0.0000 0.0000 9.8577 0.0000
# 6 0.0000 0.0000 0.0000 0.0000 0.0000 19.3506
#
#
#
# Elastic Compliance Matrix: (Units=1/GPa)
#
#
# Indices 1 2 3 4 5 6 
#
# 1 0.013230 -0.012492 -0.005122 0.000000 0.000000 0.000000
# 2 -0.012492 0.085655 -0.008259 0.000000 0.000000 0.000000
# 3 -0.005122 -0.008259 0.011600 0.000000 0.000000 0.000000
# 4 0.000000 0.000000 0.000000 0.058003 0.000000 0.000000
# 5 0.000000 0.000000 0.000000 0.000000 0.101443 0.000000
# 6 0.000000 0.000000 0.000000 0.000000 0.000000 0.051678
#
#
# Mechanical properties :
#
#
# Convention : Reuss Voigt Hill
#
# Bulk Modulus (GPa) = 17.02445 59.76538 38.39492
# Shear Modulus (GPa) = 12.72475 19.83329 16.27902
#
# Velocity S-wave (km/s) = 2.58608 3.22861 2.92504
# Velocity P-wave (km/s) = 4.22667 6.73125 5.62025
#
# Compressibility (1/GPa) = 0.05873904
#
# Stress axis : x y z
#
# Youngs Moduli (GPa) = 75.58822 11.67473 86.20330
#
# Poissons Ratio (x) = 0.14584 0.44152
# Poissons Ratio (y) = 0.94423 0.71199
# Poissons Ratio (z) = 0.38715 0.09643
#
# Static dielectric constant tensor:
#      x y z
#    x 3.678630 0.000000 0.000000 
#    y 0.000000 3.069020 0.000000 
#    z 0.000000 0.000000 2.931230 
# 
# 
# High freq. dielectric constant tensor:
#      x y z
#    x 1.745780 0.000000 0.000000 
#    y 0.000000 1.692410 0.000000 
#    z 0.000000 0.000000 1.751140 
# 
# From -- ./inp_files/21911.got.cif
#   From: 2010.03.12/outbox.cif.g09.slc.cpg/sg47_11_cif.got.tgz:21911.got - 2010.04.14 03:12:58.
