data_PCOD8197394
_publ_section_title
;
Structure prediction by ZEFSAII (Michael W. Deem and Ramdas Pophale) SiO2 
 PCOD8197394
Probable space group: P M M M
;
_chemical_formula_sum "Si O2"
_cell_formula_units_Z 52
_cell_length_a 20.078457
_cell_length_b 15.098597
_cell_length_c 9.440123
_cell_angle_alpha 90.000000
_cell_angle_beta 90.000000
_cell_angle_gamma 90.000000
_cell_volume 2861.834937
_symmetry_space_group_name_H-M "P M M M"
_symmetry_group_IT_number 47
_symmetry_cell_setting 'orthorhombic'
loop_
_space_group_symop_operation_xyz
x,y,z
-x,-y,z
x,-y,-z
-x,y,-z
-x,-y,-z
x,y,-z
-x,y,z
x,-y,z
loop_
_atom_site_type_symbol
_atom_site_label
_atom_site_fract_x
_atom_site_fract_y
_atom_site_fract_z
Si Si1 0.692406 0.782856 0.833712
Si Si2 0.251506 0.400465 0.836668
Si Si3 0.000000 0.599180 0.847557
Si Si4 0.573999 0.099654 0.168508
Si Si5 0.876376 0.647533 0.660404
Si Si6 0.188701 0.098442 0.839891
Si Si7 0.076035 0.841913 0.658182
O O1 0.694624 0.677025 0.800486
O O2 0.626148 0.828291 0.767714
O O3 0.758052 0.832639 0.772494
O O4 0.691305 0.800982 0.000000
O O5 0.281552 0.500000 0.814050
O O6 0.190358 0.387449 0.732104
O O7 0.227892 0.389284 0.000000
O O8 0.936341 0.614249 0.753103
O O9 0.000000 0.500000 0.896142
O O10 0.000000 0.652766 0.000000
O O11 0.500000 0.123375 0.225463
O O12 0.593750 0.000000 0.217239
O O13 0.573690 0.103791 0.000000
O O14 0.880159 0.610042 0.500000
O O15 0.881274 0.752628 0.658468
O O16 0.118163 0.093864 0.758168
O O17 0.220164 0.000000 0.834356
O O18 0.172145 0.127142 0.000000
O O19 0.073219 0.881607 0.500000
O O20 0.000000 0.828123 0.714205
#
# Coordination Sequence:
#
# PCOD8197394 Si02
#       7
#     8   8   4   8   8   8   8
#     4   9  16  28  46  68  98 133 163 201 247 288
#     4  10  20  33  49  70  96 128 165 201 246 302
#     4  11  23  35  49  71  96 123 158 203 261 322
#     4   8  13  22  40  69 103 136 168 201 241 291
#     4  11  21  35  52  70  93 123 162 208 255 301
#     4  10  20  33  51  74  95 121 162 205 245 292
#     4  10  21  37  52  67  91 124 160 199 249 304
#
# _framework density 18.170162000000001
#
# number of rings (size 3 to 8) (size 9 to 14) (size 15 to 20)
#    0.000    2.231    2.308    2.077    0.000    6.154 
#    0.000    1.538    0.000    0.462    0.000    3.231 
#    0.000    2.462    0.000    9.846    0.000    9.231 
#
# Total GULP energy -644260.542568 kJ/mol
# GULP energy per Si atom -12389.625819 kJ/mol
# Density = 1.812881 g / cm^3
# Si number density = 18.170162 Si / 1000 Ang^3
#
#
#
# Elastic Constant Matrix: (Units=GPa)
#
#
# Indices 1 2 3 4 5 6 
#
# 1 118.5099 61.8210 35.6010 0.0000 0.0000 0.0000
# 2 61.8210 117.7643 28.2001 0.0000 0.0000 0.0000
# 3 35.6010 28.2001 67.5947 0.0000 0.0000 0.0000
# 4 0.0000 0.0000 0.0000 13.2822 0.0000 0.0000
# 5 0.0000 0.0000 0.0000 0.0000 33.3758 0.0000
# 6 0.0000 0.0000 0.0000 0.0000 0.0000 37.7134
#
#
#
# Elastic Compliance Matrix: (Units=1/GPa)
#
#
# Indices 1 2 3 4 5 6 
#
# 1 0.012667 -0.005613 -0.004330 0.000000 0.000000 0.000000
# 2 -0.005613 0.011921 -0.002017 0.000000 0.000000 0.000000
# 3 -0.004330 -0.002017 0.017916 0.000000 0.000000 0.000000
# 4 0.000000 0.000000 0.000000 0.075289 0.000000 0.000000
# 5 0.000000 0.000000 0.000000 0.000000 0.029962 0.000000
# 6 0.000000 0.000000 0.000000 0.000000 0.000000 0.026516
#
#
# Mechanical properties :
#
#
# Convention : Reuss Voigt Hill
#
# Bulk Modulus (GPa) = 53.80866 61.67922 57.74394
# Shear Modulus (GPa) = 24.46372 28.75737 26.61055
#
# Velocity S-wave (km/s) = 3.67327 3.98259 3.83106
# Velocity P-wave (km/s) = 6.90424 7.42746 7.17062
#
# Compressibility (1/GPa) = 0.01858437
#
# Stress axis : x y z
#
# Youngs Moduli (GPa) = 78.94763 83.88581 55.81574
#
# Poissons Ratio (x) = 0.47082 0.24167
# Poissons Ratio (y) = 0.44310 0.11260
# Poissons Ratio (z) = 0.34182 0.16922
#
# Static dielectric constant tensor:
#      x y z
#    x 3.468550 0.000000 0.000000 
#    y 0.000000 3.527800 0.000000 
#    z 0.000000 0.000000 3.152300 
# 
# 
# High freq. dielectric constant tensor:
#      x y z
#    x 1.680290 0.000000 0.000000 
#    y 0.000000 1.707820 0.000000 
#    z 0.000000 0.000000 1.671520 
# 
# From -- ./inp_files/6967.got.cif
#   From: 2010.03.12/outbox.cif.g09.slc.cpg/sg47_4_cif.got.tgz:6967.got - 2010.04.14 03:12:58.
