data_PCOD8197598
_publ_section_title
;
Structure prediction by ZEFSAII (Michael W. Deem and Ramdas Pophale) SiO2 
 PCOD8197598
Probable space group: P M M M
;
_chemical_formula_sum "Si O2"
_cell_formula_units_Z 48
_cell_length_a 8.993815
_cell_length_b 31.004102
_cell_length_c 9.067464
_cell_angle_alpha 90.000000
_cell_angle_beta 90.000000
_cell_angle_gamma 90.000000
_cell_volume 2528.418428
_symmetry_space_group_name_H-M "P M M M"
_symmetry_group_IT_number 47
_symmetry_cell_setting 'orthorhombic'
loop_
_space_group_symop_operation_xyz
x,y,z
-x,-y,z
x,-y,-z
-x,y,-z
-x,-y,-z
x,y,-z
-x,y,z
x,-y,z
loop_
_atom_site_type_symbol
_atom_site_label
_atom_site_fract_x
_atom_site_fract_y
_atom_site_fract_z
Si Si1 0.176667 0.500000 0.666259
Si Si2 0.332015 0.000000 0.175914
Si Si3 0.325608 0.337007 0.669174
Si Si4 0.826480 0.751463 0.670588
Si Si5 0.832136 0.915058 0.824285
Si Si6 0.828225 0.585420 0.827011
Si Si7 0.668668 0.170262 0.824900
O O1 0.239106 0.500000 0.500000
O O2 0.235150 0.457479 0.749000
O O3 0.000000 0.500000 0.668879
O O4 0.248431 0.957761 0.237074
O O5 0.500000 0.000000 0.236230
O O6 0.331475 0.000000 0.000000
O O7 0.284283 0.347830 0.500000
O O8 0.500000 0.331210 0.690913
O O9 0.247942 0.293084 0.720773
O O10 0.268330 0.374704 0.773204
O O11 0.792913 0.760948 0.500000
O O12 0.758772 0.789317 0.766498
O O13 0.000000 0.748109 0.703863
O O14 0.744671 0.873348 0.764751
O O15 0.000000 0.913790 0.763080
O O16 0.832163 0.915632 0.000000
O O17 0.000000 0.593543 0.784881
O O18 0.807660 0.579247 0.000000
O O19 0.500000 0.171770 0.766275
O O20 0.673275 0.171356 0.000000
#
# Coordination Sequence:
#
# PCOD8197598 Si02
#       7
#     4   4   8   8   8   8   8
#     4   9  17  31  54  81 108 141 180 220 260 303
#     4   9  15  23  37  59  90 127 166 209 258 311
#     4  10  21  37  56  77 102 134 172 213 257 306
#     4  10  21  37  57  79 102 132 172 215 258 307
#     4   9  16  26  41  63  93 129 168 210 256 306
#     4  10  20  34  54  81 111 141 174 214 260 309
#     4  10  20  33  50  74 104 136 169 208 257 310
#
# _framework density 18.984199
#
# number of rings (size 3 to 8) (size 9 to 14) (size 15 to 20)
#    0.000    2.333    0.000    3.000    0.000    8.667 
#    0.000    0.417    0.000    2.500    0.000    0.583 
#    0.000    4.667    0.000    0.000    0.000    0.000 
#
# Total GULP energy -595338.486089 kJ/mol
# GULP energy per Si atom -12402.885127 kJ/mol
# Density = 1.894099 g / cm^3
# Si number density = 18.984199 Si / 1000 Ang^3
#
#
#
# Elastic Constant Matrix: (Units=GPa)
#
#
# Indices 1 2 3 4 5 6 
#
# 1 110.0655 68.5524 28.7159 0.0000 0.0000 0.0000
# 2 68.5524 170.0406 40.9346 0.0000 0.0000 0.0000
# 3 28.7159 40.9346 43.3460 0.0000 0.0000 0.0000
# 4 0.0000 0.0000 0.0000 -16.7671 0.0000 0.0000
# 5 0.0000 0.0000 0.0000 0.0000 21.3521 0.0000
# 6 0.0000 0.0000 0.0000 0.0000 0.0000 0.0791
#
#
#
# Elastic Compliance Matrix: (Units=1/GPa)
#
#
# Indices 1 2 3 4 5 6 
#
# 1 0.012825 -0.004044 -0.004677 0.000000 0.000000 0.000000
# 2 -0.004044 0.008887 -0.005713 0.000000 0.000000 0.000000
# 3 -0.004677 -0.005713 0.031564 0.000000 0.000000 0.000000
# 4 0.000000 0.000000 0.000000 -0.059641 0.000000 0.000000
# 5 0.000000 0.000000 0.000000 0.000000 0.046834 0.000000
# 6 0.000000 0.000000 0.000000 0.000000 0.000000 12.635678
#
#
# Mechanical properties :
#
#
# Convention : Reuss Voigt Hill
#
# Bulk Modulus (GPa) = 40.97220 66.65088 53.81154
# Shear Modulus (GPa) = 0.39329 13.28279 6.83804
#
# Velocity S-wave (km/s) = 0.45565 2.64801 1.89994
# Velocity P-wave (km/s) = 4.68038 6.67339 5.76368
#
# Compressibility (1/GPa) = 0.02440679
#
# Stress axis : x y z
#
# Youngs Moduli (GPa) = 77.97486 112.52623 31.68208
#
# Poissons Ratio (x) = 0.45511 0.14816
# Poissons Ratio (y) = 0.31537 0.18100
# Poissons Ratio (z) = 0.36466 0.64287
#
# Static dielectric constant tensor:
#      x y z
#    x 3.555940 0.000000 0.000000 
#    y 0.000000 3.658140 0.000000 
#    z 0.000000 0.000000 3.157540 
# 
# 
# High freq. dielectric constant tensor:
#      x y z
#    x 1.741540 0.000000 0.000000 
#    y 0.000000 1.755500 0.000000 
#    z 0.000000 0.000000 1.702820 
# 
# From -- ./inp_files/2625.got.cif
#   From: 2010.03.12/outbox.cif.g09.slc.cpg/sg47_2_cif.got.tgz:2625.got - 2010.04.14 03:12:58.
