data_PCOD8197936
_publ_section_title
;
Structure prediction by ZEFSAII (Michael W. Deem and Ramdas Pophale) SiO2 
 PCOD8197936
Probable space group: P M M M
;
_chemical_formula_sum "Si O2"
_cell_formula_units_Z 44
_cell_length_a 32.044299
_cell_length_b 7.767957
_cell_length_c 9.164486
_cell_angle_alpha 90.000000
_cell_angle_beta 90.000000
_cell_angle_gamma 90.000000
_cell_volume 2281.212278
_symmetry_space_group_name_H-M "P M M M"
_symmetry_group_IT_number 47
_symmetry_cell_setting 'orthorhombic'
loop_
_space_group_symop_operation_xyz
x,y,z
-x,-y,z
x,-y,-z
-x,y,-z
-x,-y,-z
x,y,-z
-x,y,z
x,-y,z
loop_
_atom_site_type_symbol
_atom_site_label
_atom_site_fract_x
_atom_site_fract_y
_atom_site_fract_z
Si Si1 0.080064 0.795850 0.663733
Si Si2 0.544937 0.302800 0.672796
Si Si3 0.837326 0.197165 0.169469
Si Si4 0.687927 0.500000 0.673853
Si Si5 0.000000 0.794409 0.164796
Si Si6 0.632466 0.811826 0.672921
Si Si7 0.774987 0.500000 0.830687
O O1 0.079240 0.720362 0.500000
O O2 0.122669 0.738694 0.741006
O O3 0.040787 0.721414 0.752992
O O4 0.077144 0.000000 0.660237
O O5 0.544778 0.284127 0.500000
O O6 0.500000 0.230866 0.732046
O O7 0.549604 0.500000 0.719018
O O8 0.585346 0.205117 0.737556
O O9 0.800033 0.326355 0.209561
O O10 0.824586 0.000000 0.209790
O O11 0.849171 0.210624 0.000000
O O12 0.690216 0.500000 0.500000
O O13 0.663597 0.667516 0.735207
O O14 0.734115 0.500000 0.734191
O O15 0.000000 0.000000 0.164940
O O16 0.000000 0.723567 0.000000
O O17 0.630064 0.789083 0.500000
O O18 0.649808 0.000000 0.716944
O O19 0.762768 0.500000 0.000000
#
# Coordination Sequence:
#
# PCOD8197936 Si02
#       7
#     8   8   8   4   4   8   4
#     4   9  16  26  43  70 103 135 168 207 247 289
#     4   8  12  19  33  54  85 126 165 198 234 279
#     4   9  18  34  54  74  97 125 158 198 245 295
#     4  10  20  34  49  68  95 123 154 196 244 293
#     4   9  15  23  39  66 101 142 182 211 241 286
#     4   9  16  26  41  62  91 127 162 196 239 290
#     4  10  22  38  56  76  96 123 160 202 247 299
#
# _framework density 19.287990000000001
#
# number of rings (size 3 to 8) (size 9 to 14) (size 15 to 20)
#    0.000    3.000    0.909    1.364    0.000    5.091 
#    0.000    1.818    0.000    0.545    0.000    3.818 
#    0.000    1.455    0.000    1.636    0.000    1.818 
#
# Total GULP energy -545288.836596 kJ/mol
# GULP energy per Si atom -12392.928104 kJ/mol
# Density = 1.924409 g / cm^3
# Si number density = 19.287990 Si / 1000 Ang^3
#
#
#
# Elastic Constant Matrix: (Units=GPa)
#
#
# Indices 1 2 3 4 5 6 
#
# 1 167.6341 72.8357 54.8339 0.0000 0.0000 0.0000
# 2 72.8357 97.8201 26.8860 0.0000 0.0000 0.0000
# 3 54.8339 26.8860 63.1941 0.0000 0.0000 0.0000
# 4 0.0000 0.0000 0.0000 6.9288 0.0000 0.0000
# 5 0.0000 0.0000 0.0000 0.0000 2.9884 0.0000
# 6 0.0000 0.0000 0.0000 0.0000 0.0000 5.3794
#
#
#
# Elastic Compliance Matrix: (Units=1/GPa)
#
#
# Indices 1 2 3 4 5 6 
#
# 1 0.010907 -0.006251 -0.006805 0.000000 0.000000 0.000000
# 2 -0.006251 0.015159 -0.001025 0.000000 0.000000 0.000000
# 3 -0.006805 -0.001025 0.022165 0.000000 0.000000 0.000000
# 4 0.000000 0.000000 0.000000 0.144324 0.000000 0.000000
# 5 0.000000 0.000000 0.000000 0.000000 0.334623 0.000000
# 6 0.000000 0.000000 0.000000 0.000000 0.000000 0.185894
#
#
# Mechanical properties :
#
#
# Convention : Reuss Voigt Hill
#
# Bulk Modulus (GPa) = 49.82805 70.86216 60.34510
# Shear Modulus (GPa) = 6.68517 14.66552 10.67534
#
# Velocity S-wave (km/s) = 1.86373 2.76043 2.35515
# Velocity P-wave (km/s) = 5.52459 6.85410 6.22494
#
# Compressibility (1/GPa) = 0.02006902
#
# Stress axis : x y z
#
# Youngs Moduli (GPa) = 91.68145 65.96659 45.11604
#
# Poissons Ratio (x) = 0.41237 0.30701
# Poissons Ratio (y) = 0.57311 0.04626
# Poissons Ratio (z) = 0.62387 0.06764
#
# Static dielectric constant tensor:
#      x y z
#    x 6.830460 0.000000 0.000000 
#    y 0.000000 3.464750 0.000000 
#    z 0.000000 0.000000 3.142760 
# 
# 
# High freq. dielectric constant tensor:
#      x y z
#    x 1.756140 0.000000 0.000000 
#    y 0.000000 1.739900 0.000000 
#    z 0.000000 0.000000 1.699250 
# 
# From -- ./inp_files/13739.got.cif
#   From: 2010.03.12/outbox.cif.g09.slc.cpg/sg47_7_cif.got.tgz:13739.got - 2010.04.14 03:12:58.
