data_PCOD8197560
_publ_section_title
;
Structure prediction by ZEFSAII (Michael W. Deem and Ramdas Pophale) SiO2 
 PCOD8197560
Probable space group: P M M M
;
_chemical_formula_sum "Si O2"
_cell_formula_units_Z 36
_cell_length_a 23.027075
_cell_length_b 9.885998
_cell_length_c 8.995012
_cell_angle_alpha 90.000000
_cell_angle_beta 90.000000
_cell_angle_gamma 90.000000
_cell_volume 2047.675060
_symmetry_space_group_name_H-M "P M M M"
_symmetry_group_IT_number 47
_symmetry_cell_setting 'orthorhombic'
loop_
_space_group_symop_operation_xyz
x,y,z
-x,-y,z
x,-y,-z
-x,y,-z
-x,-y,-z
x,y,-z
-x,y,z
x,-y,z
loop_
_atom_site_type_symbol
_atom_site_label
_atom_site_fract_x
_atom_site_fract_y
_atom_site_fract_z
Si Si1 0.935560 0.151156 0.323145
Si Si2 0.500000 0.839454 0.667069
Si Si3 0.160683 0.649211 0.323637
Si Si4 0.708195 0.657599 0.672557
Si Si5 0.384057 0.844310 0.174731
O O1 0.931314 0.151500 0.500000
O O2 0.886541 0.248690 0.253308
O O3 0.000000 0.200134 0.274334
O O4 0.924147 0.000000 0.263002
O O5 0.500000 0.781458 0.500000
O O6 0.557404 0.787039 0.750115
O O7 0.500000 0.000000 0.668419
O O8 0.154849 0.644901 0.500000
O O9 0.147964 0.500000 0.258840
O O10 0.225814 0.694244 0.282042
O O11 0.696765 0.690454 0.500000
O O12 0.695411 0.500000 0.704801
O O13 0.668731 0.751991 0.773369
O O14 0.372067 0.000000 0.221207
O O15 0.392071 0.831230 0.000000
#
# Coordination Sequence:
#
# PCOD8197560 Si02
#       5
#     8   4   8   8   8
#     4   8  13  20  30  48  77 111 145 182 225 272
#     4   9  17  31  52  75  98 125 156 190 230 275
#     4   8  14  24  37  54  78 110 148 188 228 270
#     4   9  18  32  48  67  93 124 159 199 239 279
#     4  10  20  33  50  73  99 125 155 192 233 278
#
# _framework density 17.580914
#
# number of rings (size 3 to 8) (size 9 to 14) (size 15 to 20)
#    0.000    3.222    0.000    3.000    0.000    4.444 
#    0.000    5.000    0.000    3.333    0.000    0.000 
#    0.000    0.889    0.000    9.778    0.000   16.000 
#
# Total GULP energy -446223.406617 kJ/mol
# GULP energy per Si atom -12395.094628 kJ/mol
# Density = 1.754090 g / cm^3
# Si number density = 17.580914 Si / 1000 Ang^3
#
#
#
# Elastic Constant Matrix: (Units=GPa)
#
#
# Indices 1 2 3 4 5 6 
#
# 1 158.0785 81.6817 39.2742 0.0000 0.0000 0.0000
# 2 81.6817 81.3061 29.4643 0.0000 0.0000 0.0000
# 3 39.2742 29.4643 47.8976 0.0000 0.0000 0.0000
# 4 0.0000 0.0000 0.0000 17.0790 0.0000 0.0000
# 5 0.0000 0.0000 0.0000 0.0000 1.8471 0.0000
# 6 0.0000 0.0000 0.0000 0.0000 0.0000 20.0355
#
#
#
# Elastic Compliance Matrix: (Units=1/GPa)
#
#
# Indices 1 2 3 4 5 6 
#
# 1 0.013604 -0.012386 -0.003536 0.000000 0.000000 0.000000
# 2 -0.012386 0.027104 -0.006517 0.000000 0.000000 0.000000
# 3 -0.003536 -0.006517 0.027786 0.000000 0.000000 0.000000
# 4 0.000000 0.000000 0.000000 0.058551 0.000000 0.000000
# 5 0.000000 0.000000 0.000000 0.000000 0.541393 0.000000
# 6 0.000000 0.000000 0.000000 0.000000 0.000000 0.049911
#
#
# Mechanical properties :
#
#
# Convention : Reuss Voigt Hill
#
# Bulk Modulus (GPa) = 42.34270 65.34693 53.84481
# Shear Modulus (GPa) = 6.48424 16.91646 11.70035
#
# Velocity S-wave (km/s) = 1.92256 3.10531 2.58255
# Velocity P-wave (km/s) = 5.39120 7.07864 6.29175
#
# Compressibility (1/GPa) = 0.02361682
#
# Stress axis : x y z
#
# Youngs Moduli (GPa) = 73.50526 36.89483 35.98906
#
# Poissons Ratio (x) = 0.45698 0.12725
# Poissons Ratio (y) = 0.91043 0.23454
# Poissons Ratio (z) = 0.25991 0.24045
#
# Static dielectric constant tensor:
#      x y z
#    x 3.506820 0.000000 0.000000 
#    y 0.000000 3.386910 0.000000 
#    z 0.000000 0.000000 2.811430 
# 
# 
# High freq. dielectric constant tensor:
#      x y z
#    x 1.692390 0.000000 0.000000 
#    y 0.000000 1.667980 0.000000 
#    z 0.000000 0.000000 1.632850 
# 
# From -- ./inp_files/1418.got.cif
#   From: 2010.03.12/outbox.cif.g09.slc.cpg/sg47_1_cif.got.tgz:1418.got - 2010.04.14 03:12:58.
