data_PCOD8197873
_publ_section_title
;
Structure prediction by ZEFSAII (Michael W. Deem and Ramdas Pophale) SiO2 
 PCOD8197873
Probable space group: P M M M
;
_chemical_formula_sum "Si O2"
_cell_formula_units_Z 48
_cell_length_a 14.918807
_cell_length_b 20.206152
_cell_length_c 9.021998
_cell_angle_alpha 90.000000
_cell_angle_beta 90.000000
_cell_angle_gamma 90.000000
_cell_volume 2719.696471
_symmetry_space_group_name_H-M "P M M M"
_symmetry_group_IT_number 47
_symmetry_cell_setting 'orthorhombic'
loop_
_space_group_symop_operation_xyz
x,y,z
-x,-y,z
x,-y,-z
-x,y,-z
-x,-y,-z
x,y,-z
-x,y,z
x,-y,z
loop_
_atom_site_type_symbol
_atom_site_label
_atom_site_fract_x
_atom_site_fract_y
_atom_site_fract_z
Si Si1 0.104015 0.633609 0.175527
Si Si2 0.105752 0.500000 0.665988
Si Si3 0.163077 0.120195 0.662014
Si Si4 0.399097 0.205872 0.829666
Si Si5 0.000000 0.072450 0.172446
Si Si6 0.353516 0.073752 0.672250
Si Si7 0.763091 0.734041 0.667384
O O1 0.137088 0.564489 0.244628
O O2 0.170794 0.688226 0.239032
O O3 0.000000 0.649311 0.218326
O O4 0.114687 0.629744 0.000000
O O5 0.147501 0.500000 0.500000
O O6 0.000000 0.500000 0.654559
O O7 0.125212 0.100829 0.500000
O O8 0.247131 0.074121 0.702250
O O9 0.191608 0.195444 0.662428
O O10 0.087499 0.112463 0.783586
O O11 0.500000 0.233722 0.814995
O O12 0.399988 0.130738 0.767864
O O13 0.334355 0.256869 0.743169
O O14 0.367837 0.203041 0.000000
O O15 0.000000 0.000000 0.248212
O O16 0.000000 0.064924 0.000000
O O17 0.373321 0.089273 0.500000
O O18 0.389225 0.000000 0.714580
O O19 0.750609 0.706205 0.500000
#
# Coordination Sequence:
#
# PCOD8197873 Si02
#       7
#     8   4   8   8   4   8   8
#     4  10  20  33  52  80 114 148 179 213 255 299
#     4   9  17  31  51  77 110 149 186 217 247 287
#     4   9  19  34  49  65  88 122 163 207 251 298
#     4  10  21  36  53  74 101 131 165 210 265 321
#     4  11  23  33  43  63  89 120 161 206 253 303
#     4   9  18  33  52  72  93 121 160 206 258 315
#     4  10  21  36  54  76 101 133 174 215 256 305
#
# _framework density 17.649028999999999
#
# number of rings (size 3 to 8) (size 9 to 14) (size 15 to 20)
#    0.000    2.333    0.000    3.500    1.167    8.667 
#    0.000    1.667    0.000    0.000    0.000    0.583 
#    0.000    4.667    0.000    0.000    0.000    0.000 
#
# Total GULP energy -595042.452418 kJ/mol
# GULP energy per Si atom -12396.717759 kJ/mol
# Density = 1.760886 g / cm^3
# Si number density = 17.649029 Si / 1000 Ang^3
#
#
#
# Elastic Constant Matrix: (Units=GPa)
#
#
# Indices 1 2 3 4 5 6 
#
# 1 89.3965 32.9299 47.5694 0.0000 0.0000 0.0000
# 2 32.9299 66.7843 33.3297 0.0000 0.0000 0.0000
# 3 47.5694 33.3297 107.8437 0.0000 0.0000 0.0000
# 4 0.0000 0.0000 0.0000 26.0877 0.0000 0.0000
# 5 0.0000 0.0000 0.0000 0.0000 25.8643 0.0000
# 6 0.0000 0.0000 0.0000 0.0000 0.0000 18.9006
#
#
#
# Elastic Compliance Matrix: (Units=1/GPa)
#
#
# Indices 1 2 3 4 5 6 
#
# 1 0.015992 -0.005161 -0.005459 0.000000 0.000000 0.000000
# 2 -0.005161 0.019370 -0.003710 0.000000 0.000000 0.000000
# 3 -0.005459 -0.003710 0.012827 0.000000 0.000000 0.000000
# 4 0.000000 0.000000 0.000000 0.038332 0.000000 0.000000
# 5 0.000000 0.000000 0.000000 0.000000 0.038663 0.000000
# 6 0.000000 0.000000 0.000000 0.000000 0.000000 0.052908
#
#
# Mechanical properties :
#
#
# Convention : Reuss Voigt Hill
#
# Bulk Modulus (GPa) = 51.20491 54.63139 52.91815
# Shear Modulus (GPa) = 23.44530 24.18355 23.81442
#
# Velocity S-wave (km/s) = 3.64870 3.70570 3.67731
# Velocity P-wave (km/s) = 6.84299 7.02362 6.93389
#
# Compressibility (1/GPa) = 0.01952938
#
# Stress axis : x y z
#
# Youngs Moduli (GPa) = 62.53116 51.62678 77.95948
#
# Poissons Ratio (x) = 0.26644 0.42558
# Poissons Ratio (y) = 0.32272 0.28922
# Poissons Ratio (z) = 0.34136 0.19153
#
# Static dielectric constant tensor:
#      x y z
#    x 3.198660 0.000000 0.000000 
#    y 0.000000 3.284810 0.000000 
#    z 0.000000 0.000000 3.449400 
# 
# 
# High freq. dielectric constant tensor:
#      x y z
#    x 1.668950 0.000000 0.000000 
#    y 0.000000 1.663870 0.000000 
#    z 0.000000 0.000000 1.693950 
# 
# From -- ./inp_files/6515.got.cif
#   From: 2010.03.12/outbox.cif.g09.slc.cpg/sg47_4_cif.got.tgz:6515.got - 2010.04.14 03:12:58.
