data_PCOD8197997
_publ_section_title
;
Structure prediction by ZEFSAII (Michael W. Deem and Ramdas Pophale) SiO2 
 PCOD8197997
Probable space group: P M M M
;
_chemical_formula_sum "Si O2"
_cell_formula_units_Z 44
_cell_length_a 30.304776
_cell_length_b 9.755212
_cell_length_c 7.853313
_cell_angle_alpha 90.000000
_cell_angle_beta 90.000000
_cell_angle_gamma 90.000000
_cell_volume 2321.671109
_symmetry_space_group_name_H-M "P M M M"
_symmetry_group_IT_number 47
_symmetry_cell_setting 'orthorhombic'
loop_
_space_group_symop_operation_xyz
x,y,z
-x,-y,z
x,-y,-z
-x,y,-z
-x,-y,-z
x,y,-z
-x,y,z
x,-y,z
loop_
_atom_site_type_symbol
_atom_site_label
_atom_site_fract_x
_atom_site_fract_y
_atom_site_fract_z
Si Si1 0.453314 0.837124 0.309356
Si Si2 0.950832 0.162562 0.000000
Si Si3 0.815103 0.656437 0.195499
Si Si4 0.358812 0.154495 0.703956
Si Si5 0.280990 0.655498 0.298761
Si Si6 0.108987 0.157646 0.309662
O O1 0.455220 0.777612 0.500000
O O2 0.500000 0.792230 0.216842
O O3 0.406698 0.790652 0.224059
O O4 0.451117 0.000000 0.316987
O O5 0.925981 0.213402 0.829146
O O6 0.000000 0.226463 0.000000
O O7 0.953960 0.000000 0.000000
O O8 0.819817 0.500000 0.261518
O O9 0.764867 0.706274 0.218076
O O10 0.846570 0.753845 0.304335
O O11 0.829126 0.668520 0.000000
O O12 0.360477 0.158709 0.500000
O O13 0.320298 0.251350 0.775926
O O14 0.349260 0.000000 0.767294
O O15 0.277264 0.670342 0.500000
O O16 0.291011 0.500000 0.243589
O O17 0.088664 0.171199 0.500000
O O18 0.121263 0.000000 0.269400
#
# Coordination Sequence:
#
# PCOD8197997 Si02
#       6
#     8   4   8   8   8   8
#     4   7   9  14  26  45  69  98 133 173 217 267
#     4   9  18  34  55  81 115 147 175 213 256 299
#     4  10  20  34  52  72  96 130 170 210 254 303
#     4   8  13  21  34  53  77 106 142 182 223 274
#     4   9  17  28  41  59  85 116 148 184 232 290
#     4  10  20  34  55  82 109 139 175 214 257 302
#
# _framework density 18.951867
#
# number of rings (size 3 to 8) (size 9 to 14) (size 15 to 20)
#    0.000    3.182    0.909    2.182    0.000    2.182 
#    0.000    3.636    0.000    1.636    0.000    5.091 
#    0.000    0.727    0.000    9.091    0.000    8.364 
#
# Total GULP energy -545089.124554 kJ/mol
# GULP energy per Si atom -12388.389194 kJ/mol
# Density = 1.890873 g / cm^3
# Si number density = 18.951867 Si / 1000 Ang^3
#
#
#
# Elastic Constant Matrix: (Units=GPa)
#
#
# Indices 1 2 3 4 5 6 
#
# 1 169.4694 63.2748 41.8868 0.0000 0.0000 0.0000
# 2 63.2748 55.7202 18.8287 0.0000 0.0000 0.0000
# 3 41.8868 18.8287 60.4009 0.0000 0.0000 0.0000
# 4 0.0000 0.0000 0.0000 10.9163 0.0000 0.0000
# 5 0.0000 0.0000 0.0000 0.0000 9.1855 0.0000
# 6 0.0000 0.0000 0.0000 0.0000 0.0000 7.5818
#
#
#
# Elastic Compliance Matrix: (Units=1/GPa)
#
#
# Indices 1 2 3 4 5 6 
#
# 1 0.011132 -0.011213 -0.004224 0.000000 0.000000 0.000000
# 2 -0.011213 0.031356 -0.001998 0.000000 0.000000 0.000000
# 3 -0.004224 -0.001998 0.020108 0.000000 0.000000 0.000000
# 4 0.000000 0.000000 0.000000 0.091606 0.000000 0.000000
# 5 0.000000 0.000000 0.000000 0.000000 0.108867 0.000000
# 6 0.000000 0.000000 0.000000 0.000000 0.000000 0.131894
#
#
# Mechanical properties :
#
#
# Convention : Reuss Voigt Hill
#
# Bulk Modulus (GPa) = 36.06945 59.28568 47.67756
# Shear Modulus (GPa) = 11.38759 16.31009 13.84884
#
# Velocity S-wave (km/s) = 2.45392 2.93679 2.70615
# Velocity P-wave (km/s) = 5.20600 6.54598 5.91406
#
# Compressibility (1/GPa) = 0.02772430
#
# Stress axis : x y z
#
# Youngs Moduli (GPa) = 89.83491 31.89204 49.73101
#
# Poissons Ratio (x) = 0.35762 0.21006
# Poissons Ratio (y) = 1.00736 0.09937
# Poissons Ratio (z) = 0.37946 0.06373
#
# Static dielectric constant tensor:
#      x y z
#    x 3.876900 0.000000 0.000000 
#    y 0.000000 3.203460 0.000000 
#    z 0.000000 0.000000 3.175300 
# 
# 
# High freq. dielectric constant tensor:
#      x y z
#    x 1.748470 0.000000 0.000000 
#    y 0.000000 1.690800 0.000000 
#    z 0.000000 0.000000 1.709840 
# 
# From -- ./inp_files/13659.got.cif
#   From: 2010.03.12/outbox.cif.g09.slc.cpg/sg47_7_cif.got.tgz:13659.got - 2010.04.14 03:12:58.
