data_PCOD8197009
_publ_section_title
;
Structure prediction by ZEFSAII (Michael W. Deem and Ramdas Pophale) SiO2 
 PCOD8197009
Probable space group: P M M M
;
_chemical_formula_sum "Si O2"
_cell_formula_units_Z 52
_cell_length_a 9.714225
_cell_length_b 35.179800
_cell_length_c 8.298959
_cell_angle_alpha 90.000000
_cell_angle_beta 90.000000
_cell_angle_gamma 90.000000
_cell_volume 2836.123533
_symmetry_space_group_name_H-M "P M M M"
_symmetry_group_IT_number 47
_symmetry_cell_setting 'orthorhombic'
loop_
_space_group_symop_operation_xyz
x,y,z
-x,-y,z
x,-y,-z
-x,y,-z
-x,-y,-z
x,y,-z
-x,y,z
x,-y,z
loop_
_atom_site_type_symbol
_atom_site_label
_atom_site_fract_x
_atom_site_fract_y
_atom_site_fract_z
Si Si1 0.162887 0.683666 0.678571
Si Si2 0.163262 0.239732 0.822246
Si Si3 0.337166 0.042475 0.000000
Si Si4 0.348444 0.541648 0.310894
Si Si5 0.159996 0.844342 0.809796
Si Si6 0.338896 0.089613 0.684390
Si Si7 0.154408 0.393884 0.185508
O O1 0.211246 0.673779 0.500000
O O2 0.227560 0.724667 0.725098
O O3 0.215769 0.648569 0.787498
O O4 0.000000 0.687533 0.694556
O O5 0.199850 0.198287 0.750072
O O6 0.000000 0.242930 0.830303
O O7 0.226164 0.242695 0.000000
O O8 0.288248 0.062043 0.168880
O O9 0.500000 0.040919 0.000000
O O10 0.274740 0.000000 0.000000
O O11 0.359806 0.539337 0.500000
O O12 0.500000 0.551236 0.239080
O O13 0.300288 0.500000 0.245306
O O14 0.242554 0.574235 0.269755
O O15 0.254146 0.871740 0.703592
O O16 0.000000 0.853197 0.774940
O O17 0.190552 0.849073 0.000000
O O18 0.312733 0.073609 0.500000
O O19 0.500000 0.098366 0.706368
O O20 0.000000 0.395609 0.258115
O O21 0.153405 0.403424 0.000000
#
# Coordination Sequence:
#
# PCOD8197009 Si02
#       7
#     8   8   4   8   8   8   8
#     4   9  16  26  42  65  94 127 162 200 242 286
#     4   8  14  25  42  66  96 128 163 204 246 288
#     4   9  18  34  55  77 103 135 171 215 263 309
#     4   9  19  36  55  73  94 122 156 193 236 288
#     4   9  17  30  50  75 103 137 174 210 252 302
#     4  10  20  33  52  78 105 135 171 211 259 312
#     4  10  20  32  48  72 100 128 158 195 239 285
#
# _framework density 18.334886000000001
#
# number of rings (size 3 to 8) (size 9 to 14) (size 15 to 20)
#    0.000    2.846    0.769    2.308    0.000    4.923 
#    0.000    5.385    0.000    1.846    0.000    5.385 
#    0.000    0.000    0.000    0.000    0.000    0.000 
#
# Total GULP energy -644188.115695 kJ/mol
# GULP energy per Si atom -12388.232994 kJ/mol
# Density = 1.829316 g / cm^3
# Si number density = 18.334886 Si / 1000 Ang^3
#
#
#
# Elastic Constant Matrix: (Units=GPa)
#
#
# Indices 1 2 3 4 5 6 
#
# 1 39.1986 43.3183 22.0356 0.0000 0.0000 0.0000
# 2 43.3183 146.2888 48.9392 0.0000 0.0000 0.0000
# 3 22.0356 48.9392 79.7266 0.0000 0.0000 0.0000
# 4 0.0000 0.0000 0.0000 28.7273 0.0000 0.0000
# 5 0.0000 0.0000 0.0000 0.0000 13.4680 0.0000
# 6 0.0000 0.0000 0.0000 0.0000 0.0000 53.8883
#
#
#
# Elastic Compliance Matrix: (Units=1/GPa)
#
#
# Indices 1 2 3 4 5 6 
#
# 1 0.039257 -0.010061 -0.004675 0.000000 0.000000 0.000000
# 2 -0.010061 0.011181 -0.004082 0.000000 0.000000 0.000000
# 3 -0.004675 -0.004082 0.016341 0.000000 0.000000 0.000000
# 4 0.000000 0.000000 0.000000 0.034810 0.000000 0.000000
# 5 0.000000 0.000000 0.000000 0.000000 0.074250 0.000000
# 6 0.000000 0.000000 0.000000 0.000000 0.000000 0.018557
#
#
# Mechanical properties :
#
#
# Convention : Reuss Voigt Hill
#
# Bulk Modulus (GPa) = 34.31352 54.86668 44.59010
# Shear Modulus (GPa) = 20.68288 29.27810 24.98049
#
# Velocity S-wave (km/s) = 3.36231 4.00040 3.69515
# Velocity P-wave (km/s) = 5.81627 7.16431 6.52519
#
# Compressibility (1/GPa) = 0.02914303
#
# Stress axis : x y z
#
# Youngs Moduli (GPa) = 25.47312 89.44005 61.19652
#
# Poissons Ratio (x) = 0.89984 0.28607
# Poissons Ratio (y) = 0.25628 0.24983
# Poissons Ratio (z) = 0.11908 0.36513
#
# Static dielectric constant tensor:
#      x y z
#    x 3.038470 0.000000 0.000000 
#    y 0.000000 3.725130 0.000000 
#    z 0.000000 0.000000 3.437820 
# 
# 
# High freq. dielectric constant tensor:
#      x y z
#    x 1.655690 0.000000 0.000000 
#    y 0.000000 1.721880 0.000000 
#    z 0.000000 0.000000 1.710270 
# 
# From -- ./inp_files/4801.got.cif
#   From: 2010.03.12/outbox.cif.g09.slc.cpg/sg47_3_cif.got.tgz:4801.got - 2010.04.14 03:12:58.
