data_PCOD8197522
_publ_section_title
;
Structure prediction by ZEFSAII (Michael W. Deem and Ramdas Pophale) SiO2 
 PCOD8197522
Probable space group: P M M M
;
_chemical_formula_sum "Si O2"
_cell_formula_units_Z 52
_cell_length_a 9.138798
_cell_length_b 33.843403
_cell_length_c 9.508737
_cell_angle_alpha 90.000000
_cell_angle_beta 90.000000
_cell_angle_gamma 90.000000
_cell_volume 2940.938474
_symmetry_space_group_name_H-M "P M M M"
_symmetry_group_IT_number 47
_symmetry_cell_setting 'orthorhombic'
loop_
_space_group_symop_operation_xyz
x,y,z
-x,-y,z
x,-y,-z
-x,y,-z
-x,-y,-z
x,y,-z
-x,y,z
x,-y,z
loop_
_atom_site_type_symbol
_atom_site_label
_atom_site_fract_x
_atom_site_fract_y
_atom_site_fract_z
Si Si1 0.665316 0.456825 0.832889
Si Si2 0.172505 0.380775 0.839085
Si Si3 0.330884 0.145724 0.665875
Si Si4 0.828439 0.078244 0.835748
Si Si5 0.162671 0.222387 0.333099
Si Si6 0.174233 0.308737 0.656643
Si Si7 0.665017 0.000000 0.166808
O O1 0.500000 0.449861 0.781704
O O2 0.720680 0.500000 0.778580
O O3 0.763955 0.421281 0.772643
O O4 0.673802 0.456624 0.000000
O O5 0.237388 0.343217 0.755690
O O6 0.000000 0.383235 0.823961
O O7 0.221768 0.375577 0.000000
O O8 0.306798 0.139789 0.500000
O O9 0.500000 0.141276 0.707805
O O10 0.235044 0.114132 0.747604
O O11 0.275809 0.188823 0.715843
O O12 0.000000 0.074055 0.806818
O O13 0.750239 0.038625 0.779705
O O14 0.795868 0.085449 0.000000
O O15 0.152374 0.224120 0.500000
O O16 0.219587 0.265535 0.281827
O O17 0.000000 0.213083 0.272282
O O18 0.238311 0.315067 0.500000
O O19 0.000000 0.310445 0.651819
O O20 0.500000 0.000000 0.228133
O O21 0.661883 0.000000 0.000000
#
# Coordination Sequence:
#
# PCOD8197522 Si02
#       7
#     8   8   8   8   8   8   4
#     4   8  14  25  40  57  79 109 141 169 203 254
#     4   9  16  25  40  64  88 106 132 177 223 254
#     4  10  20  33  50  73 100 128 158 196 242 285
#     4  10  20  34  53  76 100 128 164 201 235 277
#     4   8  14  27  47  66  85 116 156 189 218 263
#     4   8  14  26  44  63  84 114 148 177 211 261
#     4   9  17  31  52  75 100 131 162 194 236 283
#
# _framework density 17.681432000000001
#
# number of rings (size 3 to 8) (size 9 to 14) (size 15 to 20)
#    0.000    3.154    0.000    2.538    0.000    3.077 
#    0.000    3.462    0.000    6.923    0.000    3.231 
#    0.000    0.000    0.000    0.000    0.000    0.000 
#
# Total GULP energy -644488.922517 kJ/mol
# GULP energy per Si atom -12394.017741 kJ/mol
# Density = 1.764119 g / cm^3
# Si number density = 17.681432 Si / 1000 Ang^3
#
#
#
# Elastic Constant Matrix: (Units=GPa)
#
#
# Indices 1 2 3 4 5 6 
#
# 1 75.0847 60.1340 26.4423 0.0000 0.0000 0.0000
# 2 60.1340 180.1550 46.7526 0.0000 0.0000 0.0000
# 3 26.4423 46.7526 35.8420 0.0000 0.0000 0.0000
# 4 0.0000 0.0000 0.0000 -5.7774 0.0000 0.0000
# 5 0.0000 0.0000 0.0000 0.0000 15.4798 0.0000
# 6 0.0000 0.0000 0.0000 0.0000 0.0000 17.5227
#
#
#
# Elastic Compliance Matrix: (Units=1/GPa)
#
#
# Indices 1 2 3 4 5 6 
#
# 1 0.019976 -0.004298 -0.009131 0.000000 0.000000 0.000000
# 2 -0.004298 0.009316 -0.008981 0.000000 0.000000 0.000000
# 3 -0.009131 -0.008981 0.046351 0.000000 0.000000 0.000000
# 4 0.000000 0.000000 0.000000 -0.173089 0.000000 0.000000
# 5 0.000000 0.000000 0.000000 0.000000 0.064600 0.000000
# 6 0.000000 0.000000 0.000000 0.000000 0.000000 0.057069
#
#
# Mechanical properties :
#
#
# Convention : Reuss Voigt Hill
#
# Bulk Modulus (GPa) = 32.44256 61.97105 47.20681
# Shear Modulus (GPa) = 63.03728 15.96189 39.49958
#
# Velocity S-wave (km/s) = 5.97738 3.00784 4.73160
# Velocity P-wave (km/s) = 8.12570 6.86932 7.52378
#
# Compressibility (1/GPa) = 0.03082371
#
# Stress axis : x y z
#
# Youngs Moduli (GPa) = 50.05944 107.33945 21.57439
#
# Poissons Ratio (x) = 0.46138 0.19699
# Poissons Ratio (y) = 0.21517 0.19376
# Poissons Ratio (z) = 0.45707 0.96402
#
# Static dielectric constant tensor:
#      x y z
#    x 3.209000 0.000000 0.000000 
#    y 0.000000 3.835760 0.000000 
#    z 0.000000 0.000000 2.950880 
# 
# 
# High freq. dielectric constant tensor:
#      x y z
#    x 1.668930 0.000000 0.000000 
#    y 0.000000 1.704940 0.000000 
#    z 0.000000 0.000000 1.634140 
# 
# From -- ./inp_files/15449.got.cif
#   From: 2010.03.12/outbox.cif.g09.slc.cpg/sg47_8_cif.got.tgz:15449.got - 2010.04.14 03:12:58.
