data_PCOD8197483
_publ_section_title
;
Structure prediction by ZEFSAII (Michael W. Deem and Ramdas Pophale) SiO2 
 PCOD8197483
Probable space group: P M M M
;
_chemical_formula_sum "Si O2"
_cell_formula_units_Z 64
_cell_length_a 28.521190
_cell_length_b 8.818112
_cell_length_c 14.308715
_cell_angle_alpha 90.000000
_cell_angle_beta 90.000000
_cell_angle_gamma 90.000000
_cell_volume 3598.685433
_symmetry_space_group_name_H-M "P M M M"
_symmetry_group_IT_number 47
_symmetry_cell_setting 'orthorhombic'
loop_
_space_group_symop_operation_xyz
x,y,z
-x,-y,z
x,-y,-z
-x,y,-z
-x,-y,-z
x,y,-z
-x,y,z
x,-y,z
loop_
_atom_site_type_symbol
_atom_site_label
_atom_site_fract_x
_atom_site_fract_y
_atom_site_fract_z
Si Si1 0.126852 0.820260 0.396457
Si Si2 0.874108 0.179702 0.103519
Si Si3 0.947619 0.181006 0.250889
Si Si4 0.696617 0.678553 0.744690
Si Si5 0.373988 0.821176 0.607673
Si Si6 0.376096 0.678989 0.103562
Si Si7 0.203155 0.178024 0.750900
Si Si8 0.446715 0.679654 0.258593
O O1 0.128169 0.747660 0.500000
O O2 0.080649 0.760782 0.342109
O O3 0.173915 0.775067 0.341186
O O4 0.124042 0.000000 0.402385
O O5 0.920048 0.239063 0.158774
O O6 0.826850 0.224855 0.158077
O O7 0.876937 0.000000 0.097473
O O8 0.873256 0.252519 0.000000
O O9 0.000000 0.249872 0.251624
O O10 0.949310 0.000000 0.250973
O O11 0.691949 0.500000 0.730440
O O12 0.672891 0.757398 0.655664
O O13 0.670167 0.730552 0.839629
O O14 0.750160 0.725054 0.752673
O O15 0.373099 0.771862 0.500000
O O16 0.420896 0.753835 0.653443
O O17 0.374583 0.000000 0.619754
O O18 0.376439 0.500000 0.092347
O O19 0.421884 0.731052 0.161885
O O20 0.376367 0.754419 0.000000
O O21 0.215063 0.000000 0.750761
O O22 0.500000 0.737418 0.255834
O O23 0.443464 0.500000 0.270675
#
# Coordination Sequence:
#
# PCOD8197483 Si02
#       8
#     8   8   8   8   8   8   8   8
#     4   8  14  24  37  54  78 109 144 181 221 267
#     4   8  14  24  37  55  82 116 151 186 225 269
#     4   8  13  20  31  51  80 113 148 183 220 267
#     4  10  20  33  50  72  96 121 152 194 241 281
#     4  10  21  36  53  72  95 126 162 196 232 278
#     4   8  15  29  48  70  96 124 154 188 226 271
#     4   9  17  29  44  62  86 117 152 185 220 272
#     4   9  18  32  51  76 103 130 160 195 235 274
#
# _framework density 17.784271
#
# number of rings (size 3 to 8) (size 9 to 14) (size 15 to 20)
#    0.000    3.250    0.000    3.000    0.000    3.250 
#    0.000    6.250    0.000    9.000    0.000    3.500 
#    0.000    8.000    0.000    9.000    0.000   10.000 
#
# Total GULP energy -793269.933044 kJ/mol
# GULP energy per Si atom -12394.842704 kJ/mol
# Density = 1.774379 g / cm^3
# Si number density = 17.784271 Si / 1000 Ang^3
#
#
#
# Elastic Constant Matrix: (Units=GPa)
#
#
# Indices 1 2 3 4 5 6 
#
# 1 158.6243 18.6152 81.9482 0.0000 0.0000 0.0000
# 2 18.6152 21.0034 23.2534 0.0000 0.0000 0.0000
# 3 81.9482 23.2534 180.4056 0.0000 0.0000 0.0000
# 4 0.0000 0.0000 0.0000 10.9883 0.0000 0.0000
# 5 0.0000 0.0000 0.0000 0.0000 13.6980 0.0000
# 6 0.0000 0.0000 0.0000 0.0000 0.0000 14.8652
#
#
#
# Elastic Compliance Matrix: (Units=1/GPa)
#
#
# Indices 1 2 3 4 5 6 
#
# 1 0.008489 -0.003796 -0.003367 0.000000 0.000000 0.000000
# 2 -0.003796 0.057234 -0.005653 0.000000 0.000000 0.000000
# 3 -0.003367 -0.005653 0.007801 0.000000 0.000000 0.000000
# 4 0.000000 0.000000 0.000000 0.091006 0.000000 0.000000
# 5 0.000000 0.000000 0.000000 0.000000 0.073003 0.000000
# 6 0.000000 0.000000 0.000000 0.000000 0.000000 0.067271
#
#
# Mechanical properties :
#
#
# Convention : Reuss Voigt Hill
#
# Bulk Modulus (GPa) = 20.88003 67.51855 44.19929
# Shear Modulus (GPa) = 14.43415 23.65807 19.04611
#
# Velocity S-wave (km/s) = 2.85199 3.65126 3.27609
# Velocity P-wave (km/s) = 4.75514 7.47150 6.26238
#
# Compressibility (1/GPa) = 0.04789264
#
# Stress axis : x y z
#
# Youngs Moduli (GPa) = 117.79871 17.47202 128.18835
#
# Poissons Ratio (x) = 0.06633 0.43158
# Poissons Ratio (y) = 0.44720 0.72462
# Poissons Ratio (z) = 0.39660 0.09877
#
# Static dielectric constant tensor:
#      x y z
#    x 3.408050 0.000000 0.000000 
#    y 0.000000 2.781620 0.000000 
#    z 0.000000 0.000000 3.839830 
# 
# 
# High freq. dielectric constant tensor:
#      x y z
#    x 1.693350 0.000000 0.000000 
#    y 0.000000 1.636810 0.000000 
#    z 0.000000 0.000000 1.695940 
# 
# From -- ./inp_files/25891.got.cif
#   From: 2010.03.12/outbox.cif.g09.slc.cpg/sg47_13_cif.got.tgz:25891.got - 2010.04.14 03:12:58.
