data_PCOD8197486
_publ_section_title
;
Structure prediction by ZEFSAII (Michael W. Deem and Ramdas Pophale) SiO2 
 PCOD8197486
Probable space group: P M M M
;
_chemical_formula_sum "Si O2"
_cell_formula_units_Z 48
_cell_length_a 9.108029
_cell_length_b 31.097142
_cell_length_c 9.081329
_cell_angle_alpha 90.000000
_cell_angle_beta 90.000000
_cell_angle_gamma 90.000000
_cell_volume 2572.138152
_symmetry_space_group_name_H-M "P M M M"
_symmetry_group_IT_number 47
_symmetry_cell_setting 'orthorhombic'
loop_
_space_group_symop_operation_xyz
x,y,z
-x,-y,z
x,-y,-z
-x,y,-z
-x,-y,-z
x,y,-z
-x,y,z
x,-y,z
loop_
_atom_site_type_symbol
_atom_site_label
_atom_site_fract_x
_atom_site_fract_y
_atom_site_fract_z
Si Si1 0.668274 0.670723 0.173450
Si Si2 0.670949 0.583949 0.330312
Si Si3 0.166105 0.083967 0.324332
Si Si4 0.834296 0.500000 0.675196
Si Si5 0.828191 0.252792 0.670676
Si Si6 0.334246 0.167486 0.675208
Si Si7 0.333937 0.000000 0.675529
O O1 0.500000 0.680210 0.219815
O O2 0.721033 0.625389 0.238837
O O3 0.772856 0.707113 0.236706
O O4 0.686710 0.668899 0.000000
O O5 0.712283 0.592381 0.500000
O O6 0.500000 0.574399 0.310990
O O7 0.755439 0.542773 0.264628
O O8 0.165962 0.084223 0.500000
O O9 0.248564 0.126057 0.262353
O O10 0.000000 0.083572 0.263976
O O11 0.250354 0.042028 0.264343
O O12 0.824348 0.500000 0.500000
O O13 0.000000 0.500000 0.733121
O O14 0.791026 0.260971 0.500000
O O15 0.747030 0.210313 0.730480
O O16 0.000000 0.246220 0.696073
O O17 0.334374 0.165908 0.500000
O O18 0.500000 0.167264 0.736969
O O19 0.500000 0.000000 0.736270
O O20 0.334611 0.000000 0.500000
#
# Coordination Sequence:
#
# PCOD8197486 Si02
#       7
#     8   8   8   4   8   8   4
#     4  10  21  36  53  74 100 130 164 202 245 292
#     4   9  17  31  52  75  99 129 164 200 239 284
#     4   9  15  22  32  48  73 105 142 185 232 281
#     4   9  17  29  48  75 102 126 158 201 242 279
#     4  10  20  33  50  72  96 124 160 201 245 293
#     4   9  16  26  41  60  82 110 147 192 238 283
#     4   9  15  21  29  43  67 103 146 185 224 277
#
# _framework density 18.661518000000001
#
# number of rings (size 3 to 8) (size 9 to 14) (size 15 to 20)
#    0.000    2.667    0.000    2.500    0.000    8.667 
#    0.000    2.083    0.000    2.500    0.000    0.000 
#    0.000    0.000    0.000    0.750    0.000   14.667 
#
# Total GULP energy -595251.648407 kJ/mol
# GULP energy per Si atom -12401.076008 kJ/mol
# Density = 1.861904 g / cm^3
# Si number density = 18.661518 Si / 1000 Ang^3
#
#
#
# Elastic Constant Matrix: (Units=GPa)
#
#
# Indices 1 2 3 4 5 6 
#
# 1 140.4897 95.3385 25.9538 0.0000 0.0000 0.0000
# 2 95.3385 189.1004 34.0688 0.0000 0.0000 0.0000
# 3 25.9538 34.0688 28.8677 0.0000 0.0000 0.0000
# 4 0.0000 0.0000 0.0000 -2.2990 0.0000 0.0000
# 5 0.0000 0.0000 0.0000 0.0000 12.7744 0.0000
# 6 0.0000 0.0000 0.0000 0.0000 0.0000 34.1438
#
#
#
# Elastic Compliance Matrix: (Units=1/GPa)
#
#
# Indices 1 2 3 4 5 6 
#
# 1 0.011232 -0.004881 -0.004337 0.000000 0.000000 0.000000
# 2 -0.004881 0.008838 -0.006041 0.000000 0.000000 0.000000
# 3 -0.004337 -0.006041 0.045670 0.000000 0.000000 0.000000
# 4 0.000000 0.000000 0.000000 -0.434967 0.000000 0.000000
# 5 0.000000 0.000000 0.000000 0.000000 0.078282 0.000000
# 6 0.000000 0.000000 0.000000 0.000000 0.000000 0.029288
#
#
# Mechanical properties :
#
#
# Convention : Reuss Voigt Hill
#
# Bulk Modulus (GPa) = 28.39324 74.35331 51.37328
# Shear Modulus (GPa) = -22.78957 22.46361 -0.16298
#
# Velocity S-wave (km/s) = -3.49837 3.47326 -0.29584
# Velocity P-wave (km/s) = 1.03451 7.48427 5.24138
#
# Compressibility (1/GPa) = 0.03521965
#
# Stress axis : x y z
#
# Youngs Moduli (GPa) = 89.03359 113.15294 21.89622
#
# Poissons Ratio (x) = 0.55233 0.09497
# Poissons Ratio (y) = 0.43460 0.13228
# Poissons Ratio (z) = 0.38616 0.68359
#
# Static dielectric constant tensor:
#      x y z
#    x 3.557330 0.000000 0.000000 
#    y 0.000000 3.644910 0.000000 
#    z 0.000000 0.000000 2.805180 
# 
# 
# High freq. dielectric constant tensor:
#      x y z
#    x 1.734060 0.000000 0.000000 
#    y 0.000000 1.743340 0.000000 
#    z 0.000000 0.000000 1.656360 
# 
# From -- ./inp_files/2751.got.cif
#   From: 2010.03.12/outbox.cif.g09.slc.cpg/sg47_2_cif.got.tgz:2751.got - 2010.04.14 03:12:58.
