data_PCOD8197766
_publ_section_title
;
Structure prediction by ZEFSAII (Michael W. Deem and Ramdas Pophale) SiO2 
 PCOD8197766
Probable space group: P M M M
;
_chemical_formula_sum "Si O2"
_cell_formula_units_Z 40
_cell_length_a 9.107006
_cell_length_b 27.285734
_cell_length_c 8.133158
_cell_angle_alpha 90.000000
_cell_angle_beta 90.000000
_cell_angle_gamma 90.000000
_cell_volume 2021.019356
_symmetry_space_group_name_H-M "P M M M"
_symmetry_group_IT_number 47
_symmetry_cell_setting 'orthorhombic'
loop_
_space_group_symop_operation_xyz
x,y,z
-x,-y,z
x,-y,-z
-x,y,-z
-x,-y,-z
x,y,-z
-x,y,z
x,-y,z
loop_
_atom_site_type_symbol
_atom_site_label
_atom_site_fract_x
_atom_site_fract_y
_atom_site_fract_z
Si Si1 0.669832 0.602478 0.688332
Si Si2 0.826961 0.793377 0.683069
Si Si3 0.326100 0.500000 0.812488
Si Si4 0.668681 0.057898 0.500000
Si Si5 0.173834 0.104939 0.186470
Si Si6 0.837663 0.306772 0.811782
O O1 0.696586 0.615364 0.500000
O O2 0.500000 0.602075 0.736971
O O3 0.738435 0.548977 0.727670
O O4 0.744373 0.644239 0.794995
O O5 0.777454 0.808159 0.500000
O O6 0.778261 0.837896 0.800842
O O7 0.757665 0.740463 0.728977
O O8 0.000000 0.786135 0.697284
O O9 0.500000 0.500000 0.790623
O O10 0.276040 0.500000 0.000000
O O11 0.500000 0.076032 0.500000
O O12 0.745128 0.075255 0.669538
O O13 0.678574 0.000000 0.500000
O O14 0.000000 0.099024 0.216475
O O15 0.215241 0.087084 0.000000
O O16 0.000000 0.316223 0.736110
O O17 0.851708 0.292858 0.000000
#
# Coordination Sequence:
#
# PCOD8197766 Si02
#       6
#     8   8   4   4   8   8
#     4  10  20  34  52  74 100 132 173 220 268 321
#     4   9  16  30  55  84 113 145 181 226 280 335
#     4   9  17  31  52  73  94 127 170 216 268 323
#     4  11  25  43  61  85 123 167 203 240 293 356
#     4  10  20  37  64  94 120 151 199 254 299 343
#     4  10  20  33  51  78 110 142 177 218 268 328
#
# _framework density 19.791992
#
# number of rings (size 3 to 8) (size 9 to 14) (size 15 to 20)
#    0.000    2.200    1.000    2.400    0.000    7.600 
#    0.000    3.500    0.000    5.400    0.000    0.000 
#    0.000    0.000    0.000    0.000    0.000    0.000 
#
# Total GULP energy -495763.544496 kJ/mol
# GULP energy per Si atom -12394.088612 kJ/mol
# Density = 1.974694 g / cm^3
# Si number density = 19.791992 Si / 1000 Ang^3
#
#
#
# Elastic Constant Matrix: (Units=GPa)
#
#
# Indices 1 2 3 4 5 6 
#
# 1 46.6478 33.6283 40.2952 0.0000 0.0000 0.0000
# 2 33.6283 113.1659 47.9172 0.0000 0.0000 0.0000
# 3 40.2952 47.9172 108.1724 0.0000 0.0000 0.0000
# 4 0.0000 0.0000 0.0000 32.8322 0.0000 0.0000
# 5 0.0000 0.0000 0.0000 0.0000 19.9524 0.0000
# 6 0.0000 0.0000 0.0000 0.0000 0.0000 34.7667
#
#
#
# Elastic Compliance Matrix: (Units=1/GPa)
#
#
# Indices 1 2 3 4 5 6 
#
# 1 0.034567 -0.005932 -0.010249 0.000000 0.000000 0.000000
# 2 -0.005932 0.011895 -0.003059 0.000000 0.000000 0.000000
# 3 -0.010249 -0.003059 0.014417 0.000000 0.000000 0.000000
# 4 0.000000 0.000000 0.000000 0.030458 0.000000 0.000000
# 5 0.000000 0.000000 0.000000 0.000000 0.050119 0.000000
# 6 0.000000 0.000000 0.000000 0.000000 0.000000 0.028763
#
#
# Mechanical properties :
#
#
# Convention : Reuss Voigt Hill
#
# Bulk Modulus (GPa) = 44.64553 56.85193 50.74873
# Shear Modulus (GPa) = 23.13041 27.25329 25.19185
#
# Velocity S-wave (km/s) = 3.42230 3.71480 3.57155
# Velocity P-wave (km/s) = 6.18244 6.86926 6.53488
#
# Compressibility (1/GPa) = 0.02239866
#
# Stress axis : x y z
#
# Youngs Moduli (GPa) = 28.92950 84.07059 69.36098
#
# Poissons Ratio (x) = 0.49873 0.71085
# Poissons Ratio (y) = 0.17162 0.21219
# Poissons Ratio (z) = 0.29649 0.25719
#
# Static dielectric constant tensor:
#      x y z
#    x 3.217570 0.000000 0.000000 
#    y 0.000000 3.742160 0.000000 
#    z 0.000000 0.000000 3.680830 
# 
# 
# High freq. dielectric constant tensor:
#      x y z
#    x 1.719040 0.000000 0.000000 
#    y 0.000000 1.785730 0.000000 
#    z 0.000000 0.000000 1.783830 
# 
# From -- ./inp_files/1811.got.cif
#   From: 2010.03.12/outbox.cif.g09.slc.cpg/sg47_1_cif.got.tgz:1811.got - 2010.04.14 03:12:58.
