data_PCOD8197186
_publ_section_title
;
Structure prediction by ZEFSAII (Michael W. Deem and Ramdas Pophale) SiO2 
 PCOD8197186
Probable space group: P M M M
;
_chemical_formula_sum "Si O2"
_cell_formula_units_Z 44
_cell_length_a 28.592956
_cell_length_b 9.314480
_cell_length_c 9.095626
_cell_angle_alpha 90.000000
_cell_angle_beta 90.000000
_cell_angle_gamma 90.000000
_cell_volume 2422.424582
_symmetry_space_group_name_H-M "P M M M"
_symmetry_group_IT_number 47
_symmetry_cell_setting 'orthorhombic'
loop_
_space_group_symop_operation_xyz
x,y,z
-x,-y,z
x,-y,-z
-x,y,-z
-x,-y,-z
x,y,-z
-x,y,z
x,-y,z
loop_
_atom_site_type_symbol
_atom_site_label
_atom_site_fract_x
_atom_site_fract_y
_atom_site_fract_z
Si Si1 0.277021 0.665883 0.672246
Si Si2 0.551477 0.170506 0.335106
Si Si3 0.358461 0.170376 0.167664
Si Si4 0.101077 0.829811 0.329204
Si Si5 0.817423 0.666124 0.828881
Si Si6 0.000000 0.832015 0.669203
O O1 0.272523 0.692935 0.500000
O O2 0.286895 0.500000 0.709836
O O3 0.318703 0.760436 0.733942
O O4 0.229136 0.718370 0.746606
O O5 0.562118 0.226627 0.500000
O O6 0.500000 0.225473 0.283946
O O7 0.591293 0.227703 0.225080
O O8 0.551574 0.000000 0.335150
O O9 0.354701 0.000000 0.183344
O O10 0.352680 0.220360 0.000000
O O11 0.107880 0.786874 0.500000
O O12 0.139165 0.755504 0.229039
O O13 0.049836 0.774702 0.268353
O O14 0.105552 0.000000 0.311307
O O15 0.827281 0.500000 0.795790
O O16 0.810372 0.696852 0.000000
O O17 0.000000 0.792206 0.500000
O O18 0.000000 0.000000 0.692565
#
# Coordination Sequence:
#
# PCOD8197186 Si02
#       6
#     8   8   8   8   8   4
#     4  10  21  37  56  74  93 125 168 208 248 295
#     4   8  14  26  45  69  98 132 167 202 241 284
#     4  10  20  32  49  76 106 133 162 199 244 293
#     4   9  17  31  53  78 101 128 164 204 244 286
#     4  10  21  36  52  71  98 131 164 200 245 295
#     4   7  12  26  48  73 100 128 160 199 240 283
#
# _framework density 18.163620000000002
#
# number of rings (size 3 to 8) (size 9 to 14) (size 15 to 20)
#    0.000    2.818    0.000    3.273    0.000    4.727 
#    0.000    2.727    0.000    4.909    0.000    3.818 
#    0.000    0.000    0.000    0.000    0.000    0.000 
#
# Total GULP energy -545322.725647 kJ/mol
# GULP energy per Si atom -12393.698310 kJ/mol
# Density = 1.812228 g / cm^3
# Si number density = 18.163620 Si / 1000 Ang^3
#
#
#
# Elastic Constant Matrix: (Units=GPa)
#
#
# Indices 1 2 3 4 5 6 
#
# 1 169.3185 39.9286 67.2706 0.0000 0.0000 0.0000
# 2 39.9286 28.2746 28.4502 0.0000 0.0000 0.0000
# 3 67.2706 28.4502 91.4737 0.0000 0.0000 0.0000
# 4 0.0000 0.0000 0.0000 24.3526 0.0000 0.0000
# 5 0.0000 0.0000 0.0000 0.0000 5.0516 0.0000
# 6 0.0000 0.0000 0.0000 0.0000 0.0000 -64.4926
#
#
#
# Elastic Compliance Matrix: (Units=1/GPa)
#
#
# Indices 1 2 3 4 5 6 
#
# 1 0.009876 -0.009663 -0.004258 0.000000 0.000000 0.000000
# 2 -0.009663 0.060931 -0.011845 0.000000 0.000000 0.000000
# 3 -0.004258 -0.011845 0.017747 0.000000 0.000000 0.000000
# 4 0.000000 0.000000 0.000000 0.041063 0.000000 0.000000
# 5 0.000000 0.000000 0.000000 0.000000 0.197957 0.000000
# 6 0.000000 0.000000 0.000000 0.000000 0.000000 -0.015506
#
#
# Mechanical properties :
#
#
# Convention : Reuss Voigt Hill
#
# Bulk Modulus (GPa) = 27.00938 62.26286 44.63612
# Shear Modulus (GPa) = 13.29992 3.21014 8.25503
#
# Velocity S-wave (km/s) = 2.70891 1.33086 2.13417
# Velocity P-wave (km/s) = 4.96856 6.05928 5.54082
#
# Compressibility (1/GPa) = 0.03702418
#
# Stress axis : x y z
#
# Youngs Moduli (GPa) = 101.25182 16.41188 56.34650
#
# Poissons Ratio (x) = 0.15859 0.23991
# Poissons Ratio (y) = 0.97838 0.66741
# Poissons Ratio (z) = 0.43111 0.19440
#
# Static dielectric constant tensor:
#      x y z
#    x 3.794400 0.000000 0.000000 
#    y 0.000000 2.987450 0.000000 
#    z 0.000000 0.000000 3.357740 
# 
# 
# High freq. dielectric constant tensor:
#      x y z
#    x 1.726970 0.000000 0.000000 
#    y 0.000000 1.663330 0.000000 
#    z 0.000000 0.000000 1.698630 
# 
# From -- ./inp_files/13590.got.cif
#   From: 2010.03.12/outbox.cif.g09.slc.cpg/sg47_7_cif.got.tgz:13590.got - 2010.04.14 03:12:58.
