data_PCOD8197834
_publ_section_title
;
Structure prediction by ZEFSAII (Michael W. Deem and Ramdas Pophale) SiO2 
 PCOD8197834
Probable space group: P M M M
;
_chemical_formula_sum "Si O2"
_cell_formula_units_Z 44
_cell_length_a 9.295880
_cell_length_b 25.089608
_cell_length_c 10.357353
_cell_angle_alpha 90.000000
_cell_angle_beta 90.000000
_cell_angle_gamma 90.000000
_cell_volume 2415.645287
_symmetry_space_group_name_H-M "P M M M"
_symmetry_group_IT_number 47
_symmetry_cell_setting 'orthorhombic'
loop_
_space_group_symop_operation_xyz
x,y,z
-x,-y,z
x,-y,-z
-x,y,-z
-x,-y,-z
x,y,-z
-x,y,z
x,-y,z
loop_
_atom_site_type_symbol
_atom_site_label
_atom_site_fract_x
_atom_site_fract_y
_atom_site_fract_z
Si Si1 0.330019 0.367871 0.850332
Si Si2 0.667160 0.940659 0.253629
Si Si3 0.835380 0.562871 0.353601
Si Si4 0.841279 0.062828 0.500000
Si Si5 0.343102 0.832144 0.853089
Si Si6 0.159287 0.737167 0.847303
O O1 0.500000 0.363331 0.831058
O O2 0.268365 0.412211 0.754081
O O3 0.259392 0.312134 0.808394
O O4 0.292925 0.382162 0.000000
O O5 0.500000 0.943731 0.289516
O O6 0.753547 0.918996 0.375938
O O7 0.701345 0.894851 0.149036
O O8 0.717950 0.000000 0.206792
O O9 0.793479 0.580881 0.500000
O O10 0.817543 0.500000 0.341885
O O11 0.000000 0.579603 0.324629
O O12 0.000000 0.089046 0.500000
O O13 0.854750 0.000000 0.500000
O O14 0.500000 0.825287 0.785770
O O15 0.228773 0.791667 0.788704
O O16 0.356846 0.814531 0.000000
O O17 0.000000 0.730222 0.786559
O O18 0.145206 0.741375 0.000000
#
# Coordination Sequence:
#
# PCOD8197834 Si02
#       6
#     8   8   8   4   8   8
#     4  10  20  33  52  79 108 137 173 218 262 304
#     4   9  17  29  46  67  91 121 155 191 235 289
#     4   9  19  36  56  78 107 144 181 214 253 304
#     4   9  17  29  45  63  83 111 149 191 232 275
#     4   9  17  29  46  69  97 126 155 192 239 291
#     4   9  17  30  49  71  95 127 166 204 245 294
#
# _framework density 18.214593000000001
#
# number of rings (size 3 to 8) (size 9 to 14) (size 15 to 20)
#    0.000    2.818    0.000    1.909    0.000    6.545 
#    0.000    4.545    2.000    0.000    0.000    5.091 
#    0.000    0.000    0.000    0.000    0.000    0.000 
#
# Total GULP energy -545165.024819 kJ/mol
# GULP energy per Si atom -12390.114200 kJ/mol
# Density = 1.817314 g / cm^3
# Si number density = 18.214593 Si / 1000 Ang^3
#
#
#
# Elastic Constant Matrix: (Units=GPa)
#
#
# Indices 1 2 3 4 5 6 
#
# 1 108.2978 57.5031 41.8424 0.0000 0.0000 0.0000
# 2 57.5031 97.8977 36.5532 0.0000 0.0000 0.0000
# 3 41.8424 36.5532 55.0020 0.0000 0.0000 0.0000
# 4 0.0000 0.0000 0.0000 9.2493 0.0000 0.0000
# 5 0.0000 0.0000 0.0000 0.0000 20.5796 0.0000
# 6 0.0000 0.0000 0.0000 0.0000 0.0000 27.7817
#
#
#
# Elastic Compliance Matrix: (Units=1/GPa)
#
#
# Indices 1 2 3 4 5 6 
#
# 1 0.015507 -0.006256 -0.007639 0.000000 0.000000 0.000000
# 2 -0.006256 0.016110 -0.005947 0.000000 0.000000 0.000000
# 3 -0.007639 -0.005947 0.027945 0.000000 0.000000 0.000000
# 4 0.000000 0.000000 0.000000 0.108116 0.000000 0.000000
# 5 0.000000 0.000000 0.000000 0.000000 0.048592 0.000000
# 6 0.000000 0.000000 0.000000 0.000000 0.000000 0.035995
#
#
# Mechanical properties :
#
#
# Convention : Reuss Voigt Hill
#
# Bulk Modulus (GPa) = 50.30895 59.22167 54.76531
# Shear Modulus (GPa) = 16.74617 19.87538 18.31077
#
# Velocity S-wave (km/s) = 3.03542 3.30688 3.17406
# Velocity P-wave (km/s) = 6.32180 6.86764 6.60037
#
# Compressibility (1/GPa) = 0.01987718
#
# Stress axis : x y z
#
# Youngs Moduli (GPa) = 64.48605 62.07313 35.78474
#
# Poissons Ratio (x) = 0.38835 0.27337
# Poissons Ratio (y) = 0.40344 0.21281
# Poissons Ratio (z) = 0.49262 0.36915
#
# Static dielectric constant tensor:
#      x y z
#    x 3.647370 0.000000 0.000000 
#    y 0.000000 3.364110 0.000000 
#    z 0.000000 0.000000 3.136230 
# 
# 
# High freq. dielectric constant tensor:
#      x y z
#    x 1.711890 0.000000 0.000000 
#    y 0.000000 1.704530 0.000000 
#    z 0.000000 0.000000 1.665840 
# 
# From -- ./inp_files/15277.got.cif
#   From: 2010.03.12/outbox.cif.g09.slc.cpg/sg47_8_cif.got.tgz:15277.got - 2010.04.14 03:12:58.
