data_PCOD8197757
_publ_section_title
;
Structure prediction by ZEFSAII (Michael W. Deem and Ramdas Pophale) SiO2 
 PCOD8197757
Probable space group: P M M M
;
_chemical_formula_sum "Si O2"
_cell_formula_units_Z 52
_cell_length_a 21.195420
_cell_length_b 14.422322
_cell_length_c 8.890724
_cell_angle_alpha 90.000000
_cell_angle_beta 90.000000
_cell_angle_gamma 90.000000
_cell_volume 2717.780278
_symmetry_space_group_name_H-M "P M M M"
_symmetry_group_IT_number 47
_symmetry_cell_setting 'orthorhombic'
loop_
_space_group_symop_operation_xyz
x,y,z
-x,-y,z
x,-y,-z
-x,y,-z
-x,-y,-z
x,y,-z
-x,y,z
x,-y,z
loop_
_atom_site_type_symbol
_atom_site_label
_atom_site_fract_x
_atom_site_fract_y
_atom_site_fract_z
Si Si1 0.378385 0.603612 0.327259
Si Si2 0.430148 0.228017 0.173823
Si Si3 0.797183 0.783593 0.675273
Si Si4 0.000000 0.603358 0.176898
Si Si5 0.685741 0.895760 0.821815
Si Si6 0.245833 0.604863 0.824794
Si Si7 0.067572 0.245600 0.327964
O O1 0.359480 0.623406 0.500000
O O2 0.406672 0.500000 0.310860
O O3 0.429390 0.677602 0.270514
O O4 0.318270 0.616114 0.221226
O O5 0.500000 0.183696 0.194196
O O6 0.376986 0.157252 0.235209
O O7 0.417390 0.251963 0.000000
O O8 0.781702 0.794229 0.500000
O O9 0.749125 0.847184 0.765432
O O10 0.793808 0.676315 0.724939
O O11 0.869887 0.813566 0.715487
O O12 0.937489 0.658891 0.232335
O O13 0.000000 0.500000 0.244911
O O14 0.000000 0.599112 0.000000
O O15 0.683261 0.000000 0.757310
O O16 0.687651 0.896745 0.000000
O O17 0.222248 0.500000 0.792916
O O18 0.239555 0.630362 0.000000
O O19 0.075679 0.276327 0.500000
O O20 0.000000 0.190029 0.306135
#
# Coordination Sequence:
#
# PCOD8197757 Si02
#       7
#     8   8   8   4   8   8   8
#     4  10  20  34  53  79 112 149 189 229 272 325
#     4  10  21  37  58  83 111 147 188 227 273 330
#     4  11  21  35  59  85 111 147 189 233 279 330
#     4   9  17  29  47  75 110 147 190 233 271 316
#     4  10  22  40  61  85 113 144 181 229 285 343
#     4  10  20  33  51  77 111 149 187 229 277 328
#     4   8  18  35  51  72 105 146 185 220 265 321
#
# _framework density 19.133261000000001
#
# number of rings (size 3 to 8) (size 9 to 14) (size 15 to 20)
#    0.462    1.769    1.538    1.385    0.000    5.538 
#    0.000    6.154    0.000    0.462    0.000    5.385 
#    0.000    0.000    0.000    0.000    0.000    0.000 
#
# Total GULP energy -644343.993935 kJ/mol
# GULP energy per Si atom -12391.230653 kJ/mol
# Density = 1.908971 g / cm^3
# Si number density = 19.133261 Si / 1000 Ang^3
#
#
#
# Elastic Constant Matrix: (Units=GPa)
#
#
# Indices 1 2 3 4 5 6 
#
# 1 137.1479 56.0155 18.2144 0.0000 0.0000 0.0000
# 2 56.0155 96.6201 20.4865 0.0000 0.0000 0.0000
# 3 18.2144 20.4865 30.9516 0.0000 0.0000 0.0000
# 4 0.0000 0.0000 0.0000 15.6677 0.0000 0.0000
# 5 0.0000 0.0000 0.0000 0.0000 24.5540 0.0000
# 6 0.0000 0.0000 0.0000 0.0000 0.0000 10.9319
#
#
#
# Elastic Compliance Matrix: (Units=1/GPa)
#
#
# Indices 1 2 3 4 5 6 
#
# 1 0.009693 -0.005130 -0.002309 0.000000 0.000000 0.000000
# 2 -0.005130 0.014755 -0.006747 0.000000 0.000000 0.000000
# 3 -0.002309 -0.006747 0.038133 0.000000 0.000000 0.000000
# 4 0.000000 0.000000 0.000000 0.063826 0.000000 0.000000
# 5 0.000000 0.000000 0.000000 0.000000 0.040727 0.000000
# 6 0.000000 0.000000 0.000000 0.000000 0.000000 0.091475
#
#
# Mechanical properties :
#
#
# Convention : Reuss Voigt Hill
#
# Bulk Modulus (GPa) = 29.23193 50.46138 39.84666
# Shear Modulus (GPa) = 16.75699 21.56426 19.16062
#
# Velocity S-wave (km/s) = 2.96261 3.36081 3.16797
# Velocity P-wave (km/s) = 5.19750 6.44135 5.85256
#
# Compressibility (1/GPa) = 0.03420917
#
# Stress axis : x y z
#
# Youngs Moduli (GPa) = 103.16342 67.77541 26.22412
#
# Poissons Ratio (x) = 0.34770 0.06054
# Poissons Ratio (y) = 0.52925 0.17693
# Poissons Ratio (z) = 0.23818 0.45727
#
# Static dielectric constant tensor:
#      x y z
#    x 3.648470 0.000000 0.000000 
#    y 0.000000 3.429830 0.000000 
#    z 0.000000 0.000000 3.418180 
# 
# 
# High freq. dielectric constant tensor:
#      x y z
#    x 1.745580 0.000000 0.000000 
#    y 0.000000 1.714170 0.000000 
#    z 0.000000 0.000000 1.743410 
# 
# From -- ./inp_files/11080.got.cif
#   From: 2010.03.12/outbox.cif.g09.slc.cpg/sg47_6_cif.got.tgz:11080.got - 2010.04.14 03:12:58.
