data_PCOD8197894
_publ_section_title
;
Structure prediction by ZEFSAII (Michael W. Deem and Ramdas Pophale) SiO2 
 PCOD8197894
Probable space group: P M M M
;
_chemical_formula_sum "Si O2"
_cell_formula_units_Z 32
_cell_length_a 12.248948
_cell_length_b 15.531407
_cell_length_c 9.030683
_cell_angle_alpha 90.000000
_cell_angle_beta 90.000000
_cell_angle_gamma 90.000000
_cell_volume 1718.027809
_symmetry_space_group_name_H-M "P M M M"
_symmetry_group_IT_number 47
_symmetry_cell_setting 'orthorhombic'
loop_
_space_group_symop_operation_xyz
x,y,z
-x,-y,z
x,-y,-z
-x,y,-z
-x,-y,-z
x,y,-z
-x,y,z
x,-y,z
loop_
_atom_site_type_symbol
_atom_site_label
_atom_site_fract_x
_atom_site_fract_y
_atom_site_fract_z
Si Si1 0.500000 0.903744 0.176423
Si Si2 0.000000 0.600187 0.336879
Si Si3 0.623350 0.500000 0.175811
Si Si4 0.124188 0.000000 0.823453
Si Si5 0.270187 0.158327 0.823803
Si Si6 0.781909 0.349022 0.824069
O O1 0.391623 0.858265 0.238122
O O2 0.500000 0.000000 0.237117
O O3 0.500000 0.902397 0.000000
O O4 0.895762 0.625566 0.243796
O O5 0.000000 0.500000 0.360222
O O6 0.000000 0.644369 0.500000
O O7 0.500000 0.500000 0.241441
O O8 0.687001 0.585659 0.230772
O O9 0.617512 0.500000 0.000000
O O10 0.186019 0.914320 0.764077
O O11 0.000000 0.000000 0.762813
O O12 0.124333 0.000000 0.000000
O O13 0.240285 0.252820 0.766167
O O14 0.269739 0.154870 0.000000
O O15 0.791620 0.352929 0.000000
#
# Coordination Sequence:
#
# PCOD8197894 Si02
#       6
#     4   4   4   4   8   8
#     4   9  14  24  40  63 104 143 170 203 251 300
#     4  11  23  39  57  74  99 134 174 219 265 312
#     4   9  18  31  47  74 110 137 160 201 256 307
#     4   9  16  25  35  57  97 134 162 202 249 288
#     4   9  17  26  41  67  99 136 170 204 247 297
#     4  10  20  33  53  79 105 135 172 212 256 305
#
# _framework density 18.626007999999999
#
# number of rings (size 3 to 8) (size 9 to 14) (size 15 to 20)
#    0.000    2.500    2.500    0.375    3.500    0.500 
#    0.000    0.000    0.000    1.500    0.000    1.750 
#    0.000    1.000    0.000    0.000    0.000    0.000 
#
# Total GULP energy -396637.655690 kJ/mol
# GULP energy per Si atom -12394.926740 kJ/mol
# Density = 1.858361 g / cm^3
# Si number density = 18.626008 Si / 1000 Ang^3
#
#
#
# Elastic Constant Matrix: (Units=GPa)
#
#
# Indices 1 2 3 4 5 6 
#
# 1 198.5394 92.2877 16.4160 0.0000 0.0000 0.0000
# 2 92.2877 171.8871 15.6029 0.0000 0.0000 0.0000
# 3 16.4160 15.6029 11.9026 0.0000 0.0000 0.0000
# 4 0.0000 0.0000 0.0000 5.4217 0.0000 0.0000
# 5 0.0000 0.0000 0.0000 0.0000 -5.8905 0.0000
# 6 0.0000 0.0000 0.0000 0.0000 0.0000 25.4828
#
#
#
# Elastic Compliance Matrix: (Units=1/GPa)
#
#
# Indices 1 2 3 4 5 6 
#
# 1 0.007001 -0.003272 -0.005367 0.000000 0.000000 0.000000
# 2 -0.003272 0.008133 -0.006148 0.000000 0.000000 0.000000
# 3 -0.005367 -0.006148 0.099478 0.000000 0.000000 0.000000
# 4 0.000000 0.000000 0.000000 0.184445 0.000000 0.000000
# 5 0.000000 0.000000 0.000000 0.000000 -0.169764 0.000000
# 6 0.000000 0.000000 0.000000 0.000000 0.000000 0.039242
#
#
# Mechanical properties :
#
#
# Convention : Reuss Voigt Hill
#
# Bulk Modulus (GPa) = 11.75961 70.10470 40.93215
# Shear Modulus (GPa) = 22.07936 22.20429 22.14182
#
# Velocity S-wave (km/s) = 3.44671 3.45644 3.45158
# Velocity P-wave (km/s) = 4.70818 7.32456 6.15695
#
# Compressibility (1/GPa) = 0.08503682
#
# Stress axis : x y z
#
# Youngs Moduli (GPa) = 142.82701 122.96170 10.05251
#
# Poissons Ratio (x) = 0.40232 0.05395
# Poissons Ratio (y) = 0.46732 0.06181
# Poissons Ratio (z) = 0.76659 0.75600
#
# Static dielectric constant tensor:
#      x y z
#    x 3.756800 0.000000 0.000000 
#    y 0.000000 3.795140 0.000000 
#    z 0.000000 0.000000 2.724120 
# 
# 
# High freq. dielectric constant tensor:
#      x y z
#    x 1.741790 0.000000 0.000000 
#    y 0.000000 1.737130 0.000000 
#    z 0.000000 0.000000 1.643900 
# 
# From -- ./inp_files/3469.got.cif
#   From: 2010.03.12/outbox.cif.g09.slc.cpg/sg47_2_cif.got.tgz:3469.got - 2010.04.14 03:12:58.
