data_PCOD8197233
_publ_section_title
;
Structure prediction by ZEFSAII (Michael W. Deem and Ramdas Pophale) SiO2 
 PCOD8197233
Probable space group: P M M M
;
_chemical_formula_sum "Si O2"
_cell_formula_units_Z 44
_cell_length_a 9.083450
_cell_length_b 17.176895
_cell_length_c 14.664513
_cell_angle_alpha 90.000000
_cell_angle_beta 90.000000
_cell_angle_gamma 90.000000
_cell_volume 2288.037488
_symmetry_space_group_name_H-M "P M M M"
_symmetry_group_IT_number 47
_symmetry_cell_setting 'orthorhombic'
loop_
_space_group_symop_operation_xyz
x,y,z
-x,-y,z
x,-y,-z
-x,y,-z
-x,-y,-z
x,y,-z
-x,y,z
x,-y,z
loop_
_atom_site_type_symbol
_atom_site_label
_atom_site_fract_x
_atom_site_fract_y
_atom_site_fract_z
Si Si1 0.325435 0.500000 0.393546
Si Si2 0.838168 0.000000 0.893323
Si Si3 0.674510 0.912325 0.500000
Si Si4 0.169107 0.302360 0.099619
Si Si5 0.337559 0.847082 0.854350
Si Si6 0.826374 0.643585 0.296262
Si Si7 0.336047 0.794223 0.650954
O O1 0.500000 0.500000 0.382429
O O2 0.279670 0.500000 0.500000
O O3 0.260144 0.425782 0.342905
O O4 0.753068 0.924742 0.862076
O O5 0.000000 0.000000 0.847952
O O6 0.853732 0.000000 0.000000
O O7 0.500000 0.920863 0.500000
O O8 0.728017 0.862612 0.412857
O O9 0.743710 0.000000 0.500000
O O10 0.260219 0.223255 0.093291
O O11 0.216074 0.354372 0.187458
O O12 0.000000 0.278535 0.113686
O O13 0.190855 0.345014 0.000000
O O14 0.500000 0.858363 0.896842
O O15 0.350164 0.829997 0.749119
O O16 0.775931 0.721814 0.347911
O O17 0.000000 0.631837 0.309817
O O18 0.500000 0.767056 0.617834
#
# Coordination Sequence:
#
# PCOD8197233 Si02
#       7
#     4   4   4   8   8   8   8
#     4  11  25  43  64  87 116 152 191 231 280 341
#     4  11  23  35  47  66  97 138 182 229 283 343
#     4   9  18  32  55  80 105 144 193 233 272 331
#     4   9  18  35  58  82 112 151 187 219 268 337
#     4  10  20  32  50  76 105 137 181 235 283 327
#     4  10  21  38  61  89 119 149 187 233 281 332
#     4   9  19  35  56  81 111 147 187 230 278 335
#
# _framework density 19.230454000000002
#
# number of rings (size 3 to 8) (size 9 to 14) (size 15 to 20)
#    0.000    2.273    0.000    2.182    2.545    5.455 
#    0.000    0.455    0.000    3.273    0.000    0.000 
#    0.000    0.000    0.000    0.000    0.000    0.000 
#
# Total GULP energy -545341.407501 kJ/mol
# GULP energy per Si atom -12394.122898 kJ/mol
# Density = 1.918668 g / cm^3
# Si number density = 19.230454 Si / 1000 Ang^3
#
#
#
# Elastic Constant Matrix: (Units=GPa)
#
#
# Indices 1 2 3 4 5 6 
#
# 1 102.5924 57.9328 34.3915 0.0000 0.0000 0.0000
# 2 57.9328 128.7079 66.6750 0.0000 0.0000 0.0000
# 3 34.3915 66.6750 108.7271 0.0000 0.0000 0.0000
# 4 0.0000 0.0000 0.0000 23.1253 0.0000 0.0000
# 5 0.0000 0.0000 0.0000 0.0000 24.3491 0.0000
# 6 0.0000 0.0000 0.0000 0.0000 0.0000 39.3948
#
#
#
# Elastic Compliance Matrix: (Units=1/GPa)
#
#
# Indices 1 2 3 4 5 6 
#
# 1 0.013113 -0.005501 -0.000774 0.000000 0.000000 0.000000
# 2 -0.005501 0.013695 -0.006658 0.000000 0.000000 0.000000
# 3 -0.000774 -0.006658 0.013525 0.000000 0.000000 0.000000
# 4 0.000000 0.000000 0.000000 0.043243 0.000000 0.000000
# 5 0.000000 0.000000 0.000000 0.000000 0.041069 0.000000
# 6 0.000000 0.000000 0.000000 0.000000 0.000000 0.025384
#
#
# Mechanical properties :
#
#
# Convention : Reuss Voigt Hill
#
# Bulk Modulus (GPa) = 69.12706 73.11399 71.12053
# Shear Modulus (GPa) = 27.66731 29.44239 28.55485
#
# Velocity S-wave (km/s) = 3.79717 3.91708 3.85759
# Velocity P-wave (km/s) = 7.43299 7.65248 7.54353
#
# Compressibility (1/GPa) = 0.01446611
#
# Stress axis : x y z
#
# Youngs Moduli (GPa) = 76.25763 73.02036 73.93649
#
# Poissons Ratio (x) = 0.40171 0.05725
# Poissons Ratio (y) = 0.41952 0.49227
# Poissons Ratio (z) = 0.05904 0.48617
#
# Static dielectric constant tensor:
#      x y z
#    x 3.976160 0.000000 0.000000 
#    y 0.000000 3.686720 0.000000 
#    z 0.000000 0.000000 3.740920 
# 
# 
# High freq. dielectric constant tensor:
#      x y z
#    x 1.746370 0.000000 0.000000 
#    y 0.000000 1.732830 0.000000 
#    z 0.000000 0.000000 1.761450 
# 
# From -- ./inp_files/21000.got.cif
#   From: 2010.03.12/outbox.cif.g09.slc.cpg/sg47_11_cif.got.tgz:21000.got - 2010.04.14 03:12:58.
