data_PCOD8197037
_publ_section_title
;
Structure prediction by ZEFSAII (Michael W. Deem and Ramdas Pophale) SiO2 
 PCOD8197037
Probable space group: P M M M
;
_chemical_formula_sum "Si O2"
_cell_formula_units_Z 52
_cell_length_a 8.120541
_cell_length_b 9.896683
_cell_length_c 35.106246
_cell_angle_alpha 90.000000
_cell_angle_beta 90.000000
_cell_angle_gamma 90.000000
_cell_volume 2821.363313
_symmetry_space_group_name_H-M "P M M M"
_symmetry_group_IT_number 47
_symmetry_cell_setting 'orthorhombic'
loop_
_space_group_symop_operation_xyz
x,y,z
-x,-y,z
x,-y,-z
-x,y,-z
-x,-y,-z
x,y,-z
-x,y,z
x,-y,z
loop_
_atom_site_type_symbol
_atom_site_label
_atom_site_fract_x
_atom_site_fract_y
_atom_site_fract_z
Si Si1 0.191158 0.345861 0.750301
Si Si2 0.684898 0.339642 0.330722
Si Si3 0.804099 0.349218 0.957630
Si Si4 0.310414 0.848924 0.814420
Si Si5 0.183601 0.339139 0.589703
Si Si6 0.191657 0.149967 0.894752
Si Si7 0.500000 0.660981 0.543194
O O1 0.255100 0.500000 0.754666
O O2 0.225992 0.291215 0.707781
O O3 0.285538 0.251660 0.779579
O O4 0.000000 0.336775 0.759188
O O5 0.500000 0.280967 0.331801
O O6 0.680320 0.500000 0.332291
O O7 0.784860 0.285842 0.367346
O O8 0.736291 0.500000 0.949712
O O9 0.726323 0.248538 0.926161
O O10 0.000000 0.351188 0.954634
O O11 0.750528 0.301541 0.000000
O O12 0.500000 0.854364 0.824849
O O13 0.218683 0.793486 0.852064
O O14 0.245768 0.000000 0.803769
O O15 0.187327 0.500000 0.588596
O O16 0.332087 0.283427 0.563038
O O17 0.000000 0.289026 0.576664
O O18 0.000000 0.141516 0.903282
O O19 0.270965 0.000000 0.898200
O O20 0.500000 0.500000 0.545244
O O21 0.500000 0.713643 0.500000
#
# Coordination Sequence:
#
# PCOD8197037 Si02
#       7
#     8   8   8   8   8   8   4
#     4  10  20  32  48  72  96 118 152 198 241 283
#     4   9  15  25  41  60  84 112 143 184 234 283
#     4   8  14  25  42  66  94 119 144 180 228 277
#     4  10  21  36  51  67  92 127 162 194 235 288
#     4   9  15  23  35  50  71 103 143 187 237 289
#     4   9  17  29  46  67  89 115 149 188 227 270
#     4   9  16  24  32  46  70 102 145 193 239 289
#
# _framework density 18.430806
#
# number of rings (size 3 to 8) (size 9 to 14) (size 15 to 20)
#    0.000    2.846    0.769    1.846    0.000    4.923 
#    0.000    4.615    0.000    0.462    0.000    3.231 
#    0.000    0.000    0.000    0.000    0.000    1.538 
#
# Total GULP energy -644466.627612 kJ/mol
# GULP energy per Si atom -12393.588993 kJ/mol
# Density = 1.838886 g / cm^3
# Si number density = 18.430806 Si / 1000 Ang^3
#
#
#
# Elastic Constant Matrix: (Units=GPa)
#
#
# Indices 1 2 3 4 5 6 
#
# 1 74.7569 19.3752 34.4655 0.0000 0.0000 0.0000
# 2 19.3752 47.5360 54.2165 0.0000 0.0000 0.0000
# 3 34.4655 54.2165 153.5186 0.0000 0.0000 0.0000
# 4 0.0000 0.0000 0.0000 2.7575 0.0000 0.0000
# 5 0.0000 0.0000 0.0000 0.0000 8.8259 0.0000
# 6 0.0000 0.0000 0.0000 0.0000 0.0000 10.7532
#
#
#
# Elastic Compliance Matrix: (Units=1/GPa)
#
#
# Indices 1 2 3 4 5 6 
#
# 1 0.015339 -0.003892 -0.002069 0.000000 0.000000 0.000000
# 2 -0.003892 0.036213 -0.011915 0.000000 0.000000 0.000000
# 3 -0.002069 -0.011915 0.011186 0.000000 0.000000 0.000000
# 4 0.000000 0.000000 0.000000 0.362645 0.000000 0.000000
# 5 0.000000 0.000000 0.000000 0.000000 0.113303 0.000000
# 6 0.000000 0.000000 0.000000 0.000000 0.000000 0.092996
#
#
# Mechanical properties :
#
#
# Convention : Reuss Voigt Hill
#
# Bulk Modulus (GPa) = 37.05690 54.65843 45.85766
# Shear Modulus (GPa) = 7.39175 15.65095 11.52135
#
# Velocity S-wave (km/s) = 2.00481 2.91722 2.50294
# Velocity P-wave (km/s) = 5.05060 6.40838 5.76957
#
# Compressibility (1/GPa) = 0.02698553
#
# Stress axis : x y z
#
# Youngs Moduli (GPa) = 65.19152 27.61471 89.39516
#
# Poissons Ratio (x) = 0.10748 0.18497
# Poissons Ratio (y) = 0.25374 1.06514
# Poissons Ratio (z) = 0.13489 0.32903
#
# Static dielectric constant tensor:
#      x y z
#    x 3.347530 0.000000 0.000000 
#    y 0.000000 3.124560 0.000000 
#    z 0.000000 0.000000 3.546860 
# 
# 
# High freq. dielectric constant tensor:
#      x y z
#    x 1.709590 0.000000 0.000000 
#    y 0.000000 1.655120 0.000000 
#    z 0.000000 0.000000 1.721810 
# 
# From -- ./inp_files/34296.got.cif
#   From: 2010.03.12/outbox.cif.g09.slc.cpg/sg47_18_cif.got.tgz:34296.got - 2010.04.14 03:12:58.
