data_PCOD8197542
_publ_section_title
;
Structure prediction by ZEFSAII (Michael W. Deem and Ramdas Pophale) SiO2 
 PCOD8197542
Probable space group: P M M M
;
_chemical_formula_sum "Si O2"
_cell_formula_units_Z 44
_cell_length_a 8.954722
_cell_length_b 19.084716
_cell_length_c 13.439322
_cell_angle_alpha 90.000000
_cell_angle_beta 90.000000
_cell_angle_gamma 90.000000
_cell_volume 2296.757635
_symmetry_space_group_name_H-M "P M M M"
_symmetry_group_IT_number 47
_symmetry_cell_setting 'orthorhombic'
loop_
_space_group_symop_operation_xyz
x,y,z
-x,-y,z
x,-y,-z
-x,y,-z
-x,-y,-z
x,y,-z
-x,y,z
x,-y,z
loop_
_atom_site_type_symbol
_atom_site_label
_atom_site_fract_x
_atom_site_fract_y
_atom_site_fract_z
Si Si1 0.671368 0.290584 0.112634
Si Si2 0.177643 0.920603 0.000000
Si Si3 0.167648 0.671558 0.387232
Si Si4 0.329380 0.421211 0.238248
Si Si5 0.824155 0.838839 0.194764
Si Si6 0.675764 0.817095 0.388193
O O1 0.500000 0.266682 0.127138
O O2 0.693287 0.371332 0.142878
O O3 0.777549 0.241934 0.179307
O O4 0.724113 0.282675 0.000000
O O5 0.238450 0.883533 0.899245
O O6 0.000000 0.917150 0.000000
O O7 0.236503 0.000000 0.000000
O O8 0.168560 0.646065 0.500000
O O9 0.223688 0.604872 0.326227
O O10 0.277646 0.736837 0.371877
O O11 0.000000 0.693686 0.354452
O O12 0.500000 0.418333 0.275571
O O13 0.283715 0.500000 0.207549
O O14 0.753694 0.863757 0.300983
O O15 0.000000 0.846913 0.202978
O O16 0.724136 0.842102 0.500000
O O17 0.500000 0.823556 0.375199
#
# Coordination Sequence:
#
# PCOD8197542 Si02
#       6
#     8   4   8   8   8   8
#     4  10  20  34  53  76 104 140 181 227 275 329
#     4   9  20  38  59  89 126 157 182 216 268 322
#     4  10  20  33  50  73 101 134 176 227 280 330
#     4  10  21  35  50  70  99 140 185 227 277 333
#     4  11  20  33  58  87 114 147 186 228 271 323
#     4  10  20  34  54  81 113 147 184 229 280 332
#
# _framework density 19.157440999999999
#
# number of rings (size 3 to 8) (size 9 to 14) (size 15 to 20)
#    0.000    1.909    2.727    1.636    0.000    3.273 
#    0.000    3.636    0.000    4.909    0.000    6.364 
#    0.000    0.000    0.000    0.000    0.000    0.000 
#
# Total GULP energy -545501.097437 kJ/mol
# GULP energy per Si atom -12397.752214 kJ/mol
# Density = 1.911384 g / cm^3
# Si number density = 19.157441 Si / 1000 Ang^3
#
#
#
# Elastic Constant Matrix: (Units=GPa)
#
#
# Indices 1 2 3 4 5 6 
#
# 1 65.1113 17.7874 50.1169 0.0000 0.0000 0.0000
# 2 17.7874 70.0345 42.0096 0.0000 0.0000 0.0000
# 3 50.1169 42.0096 158.9888 0.0000 0.0000 0.0000
# 4 0.0000 0.0000 0.0000 21.2296 0.0000 0.0000
# 5 0.0000 0.0000 0.0000 0.0000 32.6624 0.0000
# 6 0.0000 0.0000 0.0000 0.0000 0.0000 13.7795
#
#
#
# Elastic Compliance Matrix: (Units=1/GPa)
#
#
# Indices 1 2 3 4 5 6 
#
# 1 0.020424 -0.001575 -0.006022 0.000000 0.000000 0.000000
# 2 -0.001575 0.017090 -0.004019 0.000000 0.000000 0.000000
# 3 -0.006022 -0.004019 0.009250 0.000000 0.000000 0.000000
# 4 0.000000 0.000000 0.000000 0.047104 0.000000 0.000000
# 5 0.000000 0.000000 0.000000 0.000000 0.030616 0.000000
# 6 0.000000 0.000000 0.000000 0.000000 0.000000 0.072572
#
#
# Mechanical properties :
#
#
# Convention : Reuss Voigt Hill
#
# Bulk Modulus (GPa) = 42.49680 57.10696 49.80188
# Shear Modulus (GPa) = 21.91726 25.81568 23.86647
#
# Velocity S-wave (km/s) = 3.38607 3.67489 3.53343
# Velocity P-wave (km/s) = 6.12522 6.91956 6.53447
#
# Compressibility (1/GPa) = 0.02353118
#
# Stress axis : x y z
#
# Youngs Moduli (GPa) = 48.96277 58.51539 108.10893
#
# Poissons Ratio (x) = 0.09217 0.65101
# Poissons Ratio (y) = 0.07712 0.43450
# Poissons Ratio (z) = 0.29485 0.23518
#
# Static dielectric constant tensor:
#      x y z
#    x 3.424010 0.000000 0.000000 
#    y 0.000000 3.217000 0.000000 
#    z 0.000000 0.000000 3.906210 
# 
# 
# High freq. dielectric constant tensor:
#      x y z
#    x 1.738170 0.000000 0.000000 
#    y 0.000000 1.703590 0.000000 
#    z 0.000000 0.000000 1.765210 
# 
# From -- ./inp_files/6144.got.cif
#   From: 2010.03.12/outbox.cif.g09.slc.cpg/sg47_4_cif.got.tgz:6144.got - 2010.04.14 03:12:58.
