data_PCOD8197260
_publ_section_title
;
Structure prediction by ZEFSAII (Michael W. Deem and Ramdas Pophale) SiO2 
 PCOD8197260
Probable space group: P M M M
;
_chemical_formula_sum "Si O2"
_cell_formula_units_Z 64
_cell_length_a 14.711555
_cell_length_b 8.947114
_cell_length_c 25.111902
_cell_angle_alpha 90.000000
_cell_angle_beta 90.000000
_cell_angle_gamma 90.000000
_cell_volume 3305.378201
_symmetry_space_group_name_H-M "P M M M"
_symmetry_group_IT_number 47
_symmetry_cell_setting 'orthorhombic'
loop_
_space_group_symop_operation_xyz
x,y,z
-x,-y,z
x,-y,-z
-x,y,-z
-x,-y,-z
x,y,-z
-x,y,z
x,-y,z
loop_
_atom_site_type_symbol
_atom_site_label
_atom_site_fract_x
_atom_site_fract_y
_atom_site_fract_z
Si Si1 0.898199 0.824966 0.083138
Si Si2 0.604456 0.175967 0.846526
Si Si3 0.742057 0.826800 0.753877
Si Si4 0.716567 0.327773 0.058975
Si Si5 0.104606 0.675375 0.440491
Si Si6 0.754105 0.174643 0.632067
Si Si7 0.100590 0.330670 0.192767
Si Si8 0.599060 0.177945 0.440968
O O1 0.818693 0.737026 0.053307
O O2 0.890407 0.784552 0.144720
O O3 0.000000 0.782145 0.061905
O O4 0.880969 0.000000 0.075520
O O5 0.500000 0.234003 0.842806
O O6 0.656816 0.218510 0.791680
O O7 0.654907 0.246393 0.897317
O O8 0.605747 0.000000 0.855411
O O9 0.723656 0.792672 0.692397
O O10 0.827715 0.721101 0.764026
O O11 0.767030 0.000000 0.763425
O O12 0.723184 0.500000 0.075763
O O13 0.672194 0.310135 0.000000
O O14 0.137643 0.728273 0.500000
O O15 0.118788 0.500000 0.435655
O O16 0.154897 0.750950 0.390475
O O17 0.000000 0.719517 0.433843
O O18 0.672172 0.246669 0.598663
O O19 0.766338 0.000000 0.622573
O O20 0.121180 0.500000 0.173535
O O21 0.000000 0.321342 0.218073
O O22 0.622573 0.234522 0.500000
O O23 0.500000 0.236684 0.423650
O O24 0.600409 0.000000 0.438896
#
# Coordination Sequence:
#
# PCOD8197260 Si02
#       8
#     8   8   8   8   8   8   8   8
#     4  10  20  35  58  87 118 151 185 223 271 328
#     4  10  22  41  63  84 109 147 194 239 287 345
#     4  10  21  36  54  80 113 147 182 226 280 333
#     4  11  24  40  60  88 120 152 189 235 283 335
#     4   9  19  36  55  75 105 148 193 234 281 336
#     4  10  20  32  51  81 112 141 180 229 277 326
#     4  10  20  34  55  81 108 143 185 224 266 321
#     4   8  14  26  46  73 104 136 170 212 265 322
#
# _framework density 19.362383999999999
#
# number of rings (size 3 to 8) (size 9 to 14) (size 15 to 20)
#    0.000    2.250    1.250    2.250    0.000    5.750 
#    0.000    8.125    0.000    0.375    0.000    3.500 
#    0.000    0.000    0.000    0.000    0.000    0.000 
#
# Total GULP energy -793161.006261 kJ/mol
# GULP energy per Si atom -12393.140723 kJ/mol
# Density = 1.931831 g / cm^3
# Si number density = 19.362384 Si / 1000 Ang^3
#
#
#
# Elastic Constant Matrix: (Units=GPa)
#
#
# Indices 1 2 3 4 5 6 
#
# 1 135.4813 41.6338 77.2481 0.0000 0.0000 0.0000
# 2 41.6338 45.1891 35.9624 0.0000 0.0000 0.0000
# 3 77.2481 35.9624 124.4756 0.0000 0.0000 0.0000
# 4 0.0000 0.0000 0.0000 22.9898 0.0000 0.0000
# 5 0.0000 0.0000 0.0000 0.0000 10.9314 0.0000
# 6 0.0000 0.0000 0.0000 0.0000 0.0000 7.7280
#
#
#
# Elastic Compliance Matrix: (Units=1/GPa)
#
#
# Indices 1 2 3 4 5 6 
#
# 1 0.013017 -0.007226 -0.005991 0.000000 0.000000 0.000000
# 2 -0.007226 0.032747 -0.004977 0.000000 0.000000 0.000000
# 3 -0.005991 -0.004977 0.013189 0.000000 0.000000 0.000000
# 4 0.000000 0.000000 0.000000 0.043497 0.000000 0.000000
# 5 0.000000 0.000000 0.000000 0.000000 0.091479 0.000000
# 6 0.000000 0.000000 0.000000 0.000000 0.000000 0.129399
#
#
# Mechanical properties :
#
#
# Convention : Reuss Voigt Hill
#
# Bulk Modulus (GPa) = 44.31212 68.31496 56.31354
# Shear Modulus (GPa) = 13.61512 18.34998 15.98255
#
# Velocity S-wave (km/s) = 2.65462 3.08183 2.87617
# Velocity P-wave (km/s) = 5.68607 6.92983 6.33853
#
# Compressibility (1/GPa) = 0.02256719
#
# Stress axis : x y z
#
# Youngs Moduli (GPa) = 76.82034 30.53716 75.81816
#
# Poissons Ratio (x) = 0.22065 0.45422
# Poissons Ratio (y) = 0.55507 0.37734
# Poissons Ratio (z) = 0.46022 0.15198
#
# Static dielectric constant tensor:
#      x y z
#    x 3.821190 0.000000 0.000000 
#    y 0.000000 3.326840 0.000000 
#    z 0.000000 0.000000 3.528480 
# 
# 
# High freq. dielectric constant tensor:
#      x y z
#    x 1.757710 0.000000 0.000000 
#    y 0.000000 1.735960 0.000000 
#    z 0.000000 0.000000 1.752450 
# 
# From -- ./inp_files/32766.got.cif
#   From: 2010.03.12/outbox.cif.g09.slc.cpg/sg47_17_cif.got.tgz:32766.got - 2010.04.14 03:12:58.
