data_PCOD8197657
_publ_section_title
;
Structure prediction by ZEFSAII (Michael W. Deem and Ramdas Pophale) SiO2 
 PCOD8197657
Probable space group: P M M M
;
_chemical_formula_sum "Si O2"
_cell_formula_units_Z 48
_cell_length_a 14.415573
_cell_length_b 20.604461
_cell_length_c 9.054952
_cell_angle_alpha 90.000000
_cell_angle_beta 90.000000
_cell_angle_gamma 90.000000
_cell_volume 2689.548129
_symmetry_space_group_name_H-M "P M M M"
_symmetry_group_IT_number 47
_symmetry_cell_setting 'orthorhombic'
loop_
_space_group_symop_operation_xyz
x,y,z
-x,-y,z
x,-y,-z
-x,y,-z
-x,-y,-z
x,y,-z
-x,y,z
x,-y,z
loop_
_atom_site_type_symbol
_atom_site_label
_atom_site_fract_x
_atom_site_fract_y
_atom_site_fract_z
Si Si1 0.892927 0.925220 0.168983
Si Si2 0.778997 0.181634 0.674351
Si Si3 0.213825 0.570939 0.673953
Si Si4 0.895453 0.305446 0.323979
Si Si5 0.395283 0.773234 0.172490
Si Si6 0.603219 0.639319 0.330999
O O1 0.831436 0.883176 0.278721
O O2 0.000000 0.912711 0.207274
O O3 0.867251 0.000000 0.195504
O O4 0.872476 0.905626 0.000000
O O5 0.769158 0.182875 0.500000
O O6 0.835471 0.244525 0.732983
O O7 0.676578 0.179955 0.744627
O O8 0.198520 0.568526 0.500000
O O9 0.188505 0.500000 0.741642
O O10 0.148600 0.627729 0.739810
O O11 0.321712 0.584905 0.710973
O O12 0.894997 0.306401 0.500000
O O13 0.000000 0.298998 0.262842
O O14 0.500000 0.796693 0.208361
O O15 0.380447 0.700165 0.226397
O O16 0.374644 0.775820 0.000000
O O17 0.618258 0.662856 0.500000
O O18 0.500000 0.609983 0.309344
#
# Coordination Sequence:
#
# PCOD8197657 Si02
#       6
#     8   8   8   8   8   8
#     4   9  19  36  56  80 113 149 180 210 248 298
#     4  11  20  32  53  79 107 137 171 215 262 306
#     4   9  16  26  41  64  95 130 167 207 256 311
#     4   9  17  28  42  66  99 130 164 209 256 298
#     4  10  20  33  51  75 101 131 169 211 258 315
#     4   9  16  28  46  68  95 124 159 209 266 316
#
# _framework density 17.846865000000001
#
# number of rings (size 3 to 8) (size 9 to 14) (size 15 to 20)
#    0.000    2.500    1.667    2.000    0.000    3.000 
#    0.000    4.167    0.000    1.000    0.000    5.833 
#    0.000    1.333    0.000    0.000    0.000    0.000 
#
# Total GULP energy -595086.917783 kJ/mol
# GULP energy per Si atom -12397.644120 kJ/mol
# Density = 1.780624 g / cm^3
# Si number density = 17.846865 Si / 1000 Ang^3
#
#
#
# Elastic Constant Matrix: (Units=GPa)
#
#
# Indices 1 2 3 4 5 6 
#
# 1 122.8602 57.8121 41.8910 0.0000 0.0000 0.0000
# 2 57.8121 97.5862 34.4432 0.0000 0.0000 0.0000
# 3 41.8910 34.4432 52.5712 0.0000 0.0000 0.0000
# 4 0.0000 0.0000 0.0000 14.6903 0.0000 0.0000
# 5 0.0000 0.0000 0.0000 0.0000 22.1923 0.0000
# 6 0.0000 0.0000 0.0000 0.0000 0.0000 28.5175
#
#
#
# Elastic Compliance Matrix: (Units=1/GPa)
#
#
# Indices 1 2 3 4 5 6 
#
# 1 0.012955 -0.005244 -0.006888 0.000000 0.000000 0.000000
# 2 -0.005244 0.015452 -0.005945 0.000000 0.000000 0.000000
# 3 -0.006888 -0.005945 0.028405 0.000000 0.000000 0.000000
# 4 0.000000 0.000000 0.000000 0.068072 0.000000 0.000000
# 5 0.000000 0.000000 0.000000 0.000000 0.045061 0.000000
# 6 0.000000 0.000000 0.000000 0.000000 0.000000 0.035066
#
#
# Mechanical properties :
#
#
# Convention : Reuss Voigt Hill
#
# Bulk Modulus (GPa) = 48.40460 60.14559 54.27509
# Shear Modulus (GPa) = 20.15698 22.33809 21.24754
#
# Velocity S-wave (km/s) = 3.36436 3.54171 3.45417
# Velocity P-wave (km/s) = 6.50177 7.10627 6.81073
#
# Compressibility (1/GPa) = 0.02065920
#
# Stress axis : x y z
#
# Youngs Moduli (GPa) = 77.18806 64.71475 35.20449
#
# Poissons Ratio (x) = 0.33937 0.24248
# Poissons Ratio (y) = 0.40478 0.20930
# Poissons Ratio (z) = 0.53165 0.38475
#
# Static dielectric constant tensor:
#      x y z
#    x 3.557770 0.000000 0.000000 
#    y 0.000000 3.238670 0.000000 
#    z 0.000000 0.000000 2.994020 
# 
# 
# High freq. dielectric constant tensor:
#      x y z
#    x 1.700880 0.000000 0.000000 
#    y 0.000000 1.674270 0.000000 
#    z 0.000000 0.000000 1.656430 
# 
# From -- ./inp_files/6356.got.cif
#   From: 2010.03.12/outbox.cif.g09.slc.cpg/sg47_4_cif.got.tgz:6356.got - 2010.04.14 03:12:58.
