data_PCOD8197141
_publ_section_title
;
Structure prediction by ZEFSAII (Michael W. Deem and Ramdas Pophale) SiO2 
 PCOD8197141
Probable space group: P M M M
;
_chemical_formula_sum "Si O2"
_cell_formula_units_Z 64
_cell_length_a 8.893359
_cell_length_b 14.463187
_cell_length_c 29.224977
_cell_angle_alpha 90.000000
_cell_angle_beta 90.000000
_cell_angle_gamma 90.000000
_cell_volume 3759.101076
_symmetry_space_group_name_H-M "P M M M"
_symmetry_group_IT_number 47
_symmetry_cell_setting 'orthorhombic'
loop_
_space_group_symop_operation_xyz
x,y,z
-x,-y,z
x,-y,-z
-x,y,-z
-x,-y,-z
x,y,-z
-x,y,z
x,-y,z
loop_
_atom_site_type_symbol
_atom_site_label
_atom_site_fract_x
_atom_site_fract_y
_atom_site_fract_z
Si Si1 0.328127 0.392850 0.196104
Si Si2 0.831946 0.390308 0.548409
Si Si3 0.822949 0.728416 0.729803
Si Si4 0.180064 0.395487 0.353316
Si Si5 0.677915 0.600003 0.092825
Si Si6 0.677190 0.213161 0.948441
Si Si7 0.829997 0.108955 0.132833
Si Si8 0.677524 0.894304 0.773690
O O1 0.500000 0.358612 0.202803
O O2 0.314695 0.500000 0.209404
O O3 0.216636 0.334365 0.227028
O O4 0.272088 0.376181 0.144393
O O5 0.750403 0.359528 0.500000
O O6 0.840374 0.500000 0.550080
O O7 0.755961 0.360266 0.596809
O O8 0.000000 0.349406 0.546809
O O9 0.760655 0.676370 0.684592
O O10 0.745690 0.829090 0.734106
O O11 0.000000 0.743087 0.727161
O O12 0.237286 0.500000 0.342120
O O13 0.000000 0.396497 0.354733
O O14 0.500000 0.591529 0.092209
O O15 0.745624 0.500000 0.077513
O O16 0.732542 0.681133 0.059273
O O17 0.500000 0.204891 0.939758
O O18 0.760304 0.146482 0.913749
O O19 0.719693 0.184110 0.000000
O O20 0.736797 0.141663 0.177152
O O21 0.000000 0.144874 0.138380
O O22 0.823428 0.000000 0.128669
O O23 0.500000 0.885535 0.773748
O O24 0.728972 0.000000 0.764381
#
# Coordination Sequence:
#
# PCOD8197141 Si02
#       8
#     8   8   8   8   8   8   8   8
#     4   9  17  29  45  64  88 122 162 196 222 256
#     4   7   9  15  29  48  74 115 163 200 225 254
#     4  11  20  28  43  67  96 126 151 182 228 278
#     4   8  14  23  34  55  91 129 160 189 224 266
#     4   8  15  29  47  65  86 114 149 186 217 244
#     4  10  20  32  49  74  99 123 151 181 215 258
#     4  10  21  37  56  75  93 114 142 178 223 273
#     4  10  21  37  55  71  88 113 146 185 227 272
#
# _framework density 17.025345999999999
#
# number of rings (size 3 to 8) (size 9 to 14) (size 15 to 20)
#    0.000    2.875    0.000    4.125    0.000    4.000 
#    0.000    2.500    0.000    1.125    0.000    0.875 
#    0.000    2.500    0.000   20.375    0.000   12.750 
#
# Total GULP energy -792998.375993 kJ/mol
# GULP energy per Si atom -12390.599625 kJ/mol
# Density = 1.698660 g / cm^3
# Si number density = 17.025346 Si / 1000 Ang^3
#
#
#
# Elastic Constant Matrix: (Units=GPa)
#
#
# Indices 1 2 3 4 5 6 
#
# 1 42.6214 24.4022 31.5275 0.0000 0.0000 0.0000
# 2 24.4022 61.8191 56.9948 0.0000 0.0000 0.0000
# 3 31.5275 56.9948 114.1918 0.0000 0.0000 0.0000
# 4 0.0000 0.0000 0.0000 20.6594 0.0000 0.0000
# 5 0.0000 0.0000 0.0000 0.0000 4.7043 0.0000
# 6 0.0000 0.0000 0.0000 0.0000 0.0000 20.4368
#
#
#
# Elastic Compliance Matrix: (Units=1/GPa)
#
#
# Indices 1 2 3 4 5 6 
#
# 1 0.031579 -0.008201 -0.004626 0.000000 0.000000 0.000000
# 2 -0.008201 0.032095 -0.013755 0.000000 0.000000 0.000000
# 3 -0.004626 -0.013755 0.016900 0.000000 0.000000 0.000000
# 4 0.000000 0.000000 0.000000 0.048404 0.000000 0.000000
# 5 0.000000 0.000000 0.000000 0.000000 0.212570 0.000000
# 6 0.000000 0.000000 0.000000 0.000000 0.000000 0.048931
#
#
# Mechanical properties :
#
#
# Convention : Reuss Voigt Hill
#
# Bulk Modulus (GPa) = 36.48159 49.38680 42.93420
# Shear Modulus (GPa) = 11.04293 16.20730 13.62512
#
# Velocity S-wave (km/s) = 2.54956 3.08872 2.83200
# Velocity P-wave (km/s) = 5.49011 6.46460 5.99718
#
# Compressibility (1/GPa) = 0.02741108
#
# Stress axis : x y z
#
# Youngs Moduli (GPa) = 31.66638 31.15778 59.17322
#
# Poissons Ratio (x) = 0.25552 0.27372
# Poissons Ratio (y) = 0.25969 0.81392
# Poissons Ratio (z) = 0.14648 0.42857
#
# Static dielectric constant tensor:
#      x y z
#    x 2.874260 0.000000 0.000000 
#    y 0.000000 3.614950 0.000000 
#    z 0.000000 0.000000 3.545270 
# 
# 
# High freq. dielectric constant tensor:
#      x y z
#    x 1.621740 0.000000 0.000000 
#    y 0.000000 1.640380 0.000000 
#    z 0.000000 0.000000 1.653510 
# 
# From -- ./inp_files/22152.got.cif
#   From: 2010.03.12/outbox.cif.g09.slc.cpg/sg47_12_cif.got.tgz:22152.got - 2010.04.14 03:12:58.
