data_PCOD8197105
_publ_section_title
;
Structure prediction by ZEFSAII (Michael W. Deem and Ramdas Pophale) SiO2 
 PCOD8197105
Probable space group: P M M M
;
_chemical_formula_sum "Si O2"
_cell_formula_units_Z 52
_cell_length_a 8.833364
_cell_length_b 26.701769
_cell_length_c 12.199381
_cell_angle_alpha 90.000000
_cell_angle_beta 90.000000
_cell_angle_gamma 90.000000
_cell_volume 2877.424628
_symmetry_space_group_name_H-M "P M M M"
_symmetry_group_IT_number 47
_symmetry_cell_setting 'orthorhombic'
loop_
_space_group_symop_operation_xyz
x,y,z
-x,-y,z
x,-y,-z
-x,y,-z
-x,-y,-z
x,y,-z
-x,y,z
x,-y,z
loop_
_atom_site_type_symbol
_atom_site_label
_atom_site_fract_x
_atom_site_fract_y
_atom_site_fract_z
Si Si1 0.173913 0.721470 0.875290
Si Si2 0.679839 0.555944 0.122463
Si Si3 0.325661 0.216771 0.500000
Si Si4 0.178837 0.675635 0.500000
Si Si5 0.177816 0.055966 0.500000
Si Si6 0.672501 0.824952 0.879162
Si Si7 0.321365 0.356495 0.277518
Si Si8 0.673668 0.870718 0.340476
O O1 0.212284 0.779645 0.863452
O O2 0.283518 0.691837 0.794689
O O3 0.000000 0.713116 0.840867
O O4 0.202710 0.703607 0.000000
O O5 0.500000 0.558451 0.120965
O O6 0.734300 0.500000 0.154627
O O7 0.742393 0.594869 0.212482
O O8 0.739993 0.569550 0.000000
O O9 0.500000 0.234262 0.500000
O O10 0.224498 0.266152 0.500000
O O11 0.286776 0.183286 0.393520
O O12 0.241375 0.646546 0.605495
O O13 0.000000 0.672358 0.500000
O O14 0.228607 0.084737 0.390631
O O15 0.000000 0.053366 0.500000
O O16 0.246856 0.000000 0.500000
O O17 0.500000 0.805393 0.863394
O O18 0.708478 0.867473 0.789075
O O19 0.693399 0.848925 0.000000
O O20 0.500000 0.359162 0.296337
O O21 0.500000 0.883579 0.366221
#
# Coordination Sequence:
#
# PCOD8197105 Si02
#       8
#     8   8   4   4   4   8   8   8
#     4  10  20  32  48  74 107 139 170 205 246 293
#     4   8  15  30  54  82 103 117 146 200 257 301
#     4   9  17  31  50  73 100 130 170 211 242 285
#     4  12  25  37  49  69 102 141 174 206 246 293
#     4  10  21  35  52  75  99 124 161 210 256 297
#     4   9  17  30  49  74 104 136 170 205 241 289
#     4  11  21  34  53  74  98 131 169 207 250 299
#     4   9  18  32  52  76 100 129 163 202 249 294
#
# _framework density 18.071715000000001
#
# number of rings (size 3 to 8) (size 9 to 14) (size 15 to 20)
#    0.000    2.385    0.000    4.154    0.000    5.231 
#    0.000    0.385    0.000    4.615    0.000    8.615 
#    0.000    0.000    0.000    0.000    0.000    0.000 
#
# Total GULP energy -644723.191167 kJ/mol
# GULP energy per Si atom -12398.522907 kJ/mol
# Density = 1.803058 g / cm^3
# Si number density = 18.071715 Si / 1000 Ang^3
#
#
#
# Elastic Constant Matrix: (Units=GPa)
#
#
# Indices 1 2 3 4 5 6 
#
# 1 66.9120 34.8612 43.2246 0.0000 0.0000 0.0000
# 2 34.8612 104.5521 72.4416 0.0000 0.0000 0.0000
# 3 43.2246 72.4416 151.5598 0.0000 0.0000 0.0000
# 4 0.0000 0.0000 0.0000 12.3711 0.0000 0.0000
# 5 0.0000 0.0000 0.0000 0.0000 21.7300 0.0000
# 6 0.0000 0.0000 0.0000 0.0000 0.0000 9.2655
#
#
#
# Elastic Compliance Matrix: (Units=1/GPa)
#
#
# Indices 1 2 3 4 5 6 
#
# 1 0.019342 -0.003928 -0.003639 0.000000 0.000000 0.000000
# 2 -0.003928 0.015098 -0.006096 0.000000 0.000000 0.000000
# 3 -0.003639 -0.006096 0.010550 0.000000 0.000000 0.000000
# 4 0.000000 0.000000 0.000000 0.080834 0.000000 0.000000
# 5 0.000000 0.000000 0.000000 0.000000 0.046019 0.000000
# 6 0.000000 0.000000 0.000000 0.000000 0.000000 0.107927
#
#
# Mechanical properties :
#
#
# Convention : Reuss Voigt Hill
#
# Bulk Modulus (GPa) = 56.61302 69.34208 62.97755
# Shear Modulus (GPa) = 15.97520 20.17308 18.07414
#
# Velocity S-wave (km/s) = 2.97642 3.34470 3.16592
# Velocity P-wave (km/s) = 6.57320 7.30547 6.94899
#
# Compressibility (1/GPa) = 0.01766378
#
# Stress axis : x y z
#
# Youngs Moduli (GPa) = 51.70042 66.23231 94.78909
#
# Poissons Ratio (x) = 0.26017 0.34492
# Poissons Ratio (y) = 0.20308 0.57787
# Poissons Ratio (z) = 0.18813 0.40377
#
# Static dielectric constant tensor:
#      x y z
#    x 3.168060 0.000000 0.000000 
#    y 0.000000 3.207020 0.000000 
#    z 0.000000 0.000000 3.638670 
# 
# 
# High freq. dielectric constant tensor:
#      x y z
#    x 1.686510 0.000000 0.000000 
#    y 0.000000 1.672880 0.000000 
#    z 0.000000 0.000000 1.709890 
# 
# From -- ./inp_files/15579.got.cif
#   From: 2010.03.12/outbox.cif.g09.slc.cpg/sg47_8_cif.got.tgz:15579.got - 2010.04.14 03:12:58.
