data_PCOD8197804
_publ_section_title
;
Structure prediction by ZEFSAII (Michael W. Deem and Ramdas Pophale) SiO2 
 PCOD8197804
Probable space group: P M M M
;
_chemical_formula_sum "Si O2"
_cell_formula_units_Z 64
_cell_length_a 18.388113
_cell_length_b 20.167698
_cell_length_c 9.323739
_cell_angle_alpha 90.000000
_cell_angle_beta 90.000000
_cell_angle_gamma 90.000000
_cell_volume 3457.670472
_symmetry_space_group_name_H-M "P M M M"
_symmetry_group_IT_number 47
_symmetry_cell_setting 'orthorhombic'
loop_
_space_group_symop_operation_xyz
x,y,z
-x,-y,z
x,-y,-z
-x,y,-z
-x,-y,-z
x,y,-z
-x,y,z
x,-y,z
loop_
_atom_site_type_symbol
_atom_site_label
_atom_site_fract_x
_atom_site_fract_y
_atom_site_fract_z
Si Si1 0.329709 0.684578 0.832170
Si Si2 0.915284 0.804510 0.668020
Si Si3 0.839013 0.686271 0.168315
Si Si4 0.583681 0.188124 0.165472
Si Si5 0.417260 0.576444 0.332950
Si Si6 0.916505 0.577123 0.663479
Si Si7 0.341378 0.076185 0.666091
Si Si8 0.177903 0.927152 0.670358
O O1 0.245471 0.693717 0.795064
O O2 0.370132 0.750113 0.774421
O O3 0.360634 0.620091 0.754673
O O4 0.343456 0.674645 0.000000
O O5 0.899778 0.793694 0.500000
O O6 0.883988 0.742940 0.753320
O O7 0.877257 0.871418 0.726943
O O8 0.000000 0.811534 0.700203
O O9 0.865439 0.615606 0.226477
O O10 0.854240 0.690540 0.000000
O O11 0.500000 0.205642 0.190783
O O12 0.602742 0.121295 0.248288
O O13 0.601827 0.175680 0.000000
O O14 0.406201 0.590977 0.500000
O O15 0.500000 0.593538 0.287582
O O16 0.400249 0.500000 0.298263
O O17 0.895204 0.594869 0.500000
O O18 0.904502 0.500000 0.693190
O O19 0.000000 0.597197 0.690687
O O20 0.347612 0.094723 0.500000
O O21 0.259490 0.089602 0.722605
O O22 0.363110 0.000000 0.692379
O O23 0.177451 0.929718 0.500000
O O24 0.154345 0.000000 0.729064
#
# Coordination Sequence:
#
# PCOD8197804 Si02
#       8
#     8   8   8   8   8   8   8   8
#     4  10  22  38  54  75 104 138 177 217 256 303
#     4  10  20  33  52  78 105 135 173 215 258 307
#     4  11  23  36  52  76 106 139 174 214 259 306
#     4  10  21  36  53  73  99 132 170 212 255 299
#     4   9  19  36  57  82 110 137 168 208 254 306
#     4   9  19  37  59  80 103 134 172 212 255 306
#     4   9  18  33  53  76 102 133 168 206 251 305
#     4   8  15  30  52  77 104 133 167 209 255 301
#
# _framework density 18.509571999999999
#
# number of rings (size 3 to 8) (size 9 to 14) (size 15 to 20)
#    0.000    2.500    0.000    3.375    0.000    6.250 
#    0.000    6.250    0.000    1.125    0.000    0.875 
#    0.000    0.000    0.000    0.000    0.000    0.000 
#
# Total GULP energy -793699.851658 kJ/mol
# GULP energy per Si atom -12401.560182 kJ/mol
# Density = 1.846744 g / cm^3
# Si number density = 18.509572 Si / 1000 Ang^3
#
#
#
# Elastic Constant Matrix: (Units=GPa)
#
#
# Indices 1 2 3 4 5 6 
#
# 1 88.6780 54.6647 44.3396 0.0000 0.0000 0.0000
# 2 54.6647 105.3937 45.9995 0.0000 0.0000 0.0000
# 3 44.3396 45.9995 54.1200 0.0000 0.0000 0.0000
# 4 0.0000 0.0000 0.0000 20.3262 0.0000 0.0000
# 5 0.0000 0.0000 0.0000 0.0000 29.0932 0.0000
# 6 0.0000 0.0000 0.0000 0.0000 0.0000 41.1937
#
#
#
# Elastic Compliance Matrix: (Units=1/GPa)
#
#
# Indices 1 2 3 4 5 6 
#
# 1 0.020832 -0.005335 -0.012533 0.000000 0.000000 0.000000
# 2 -0.005335 0.016450 -0.009611 0.000000 0.000000 0.000000
# 3 -0.012533 -0.009611 0.036914 0.000000 0.000000 0.000000
# 4 0.000000 0.000000 0.000000 0.049198 0.000000 0.000000
# 5 0.000000 0.000000 0.000000 0.000000 0.034372 0.000000
# 6 0.000000 0.000000 0.000000 0.000000 0.000000 0.024276
#
#
# Mechanical properties :
#
#
# Convention : Reuss Voigt Hill
#
# Bulk Modulus (GPa) = 51.97820 59.79993 55.88907
# Shear Modulus (GPa) = 20.54130 25.00180 22.77155
#
# Velocity S-wave (km/s) = 3.33493 3.67924 3.51131
# Velocity P-wave (km/s) = 6.55529 7.10118 6.83369
#
# Compressibility (1/GPa) = 0.01923883
#
# Stress axis : x y z
#
# Youngs Moduli (GPa) = 48.00329 60.79015 27.08979
#
# Poissons Ratio (x) = 0.32431 0.33951
# Poissons Ratio (y) = 0.25609 0.26036
# Poissons Ratio (z) = 0.60162 0.58425
#
# Static dielectric constant tensor:
#      x y z
#    x 3.453760 0.000000 0.000000 
#    y 0.000000 3.574680 0.000000 
#    z 0.000000 0.000000 3.195760 
# 
# 
# High freq. dielectric constant tensor:
#      x y z
#    x 1.722060 0.000000 0.000000 
#    y 0.000000 1.730040 0.000000 
#    z 0.000000 0.000000 1.697430 
# 
# From -- ./inp_files/9910.got.cif
#   From: 2010.03.12/outbox.cif.g09.slc.cpg/sg47_5_cif.got.tgz:9910.got - 2010.04.14 03:12:58.
