data_PCOD8197280
_publ_section_title
;
Structure prediction by ZEFSAII (Michael W. Deem and Ramdas Pophale) SiO2 
 PCOD8197280
Probable space group: P M M M
;
_chemical_formula_sum "Si O2"
_cell_formula_units_Z 44
_cell_length_a 31.817250
_cell_length_b 9.739619
_cell_length_c 7.865544
_cell_angle_alpha 90.000000
_cell_angle_beta 90.000000
_cell_angle_gamma 90.000000
_cell_volume 2437.436855
_symmetry_space_group_name_H-M "P M M M"
_symmetry_group_IT_number 47
_symmetry_cell_setting 'orthorhombic'
loop_
_space_group_symop_operation_xyz
x,y,z
-x,-y,z
x,-y,-z
-x,y,-z
-x,-y,-z
x,y,-z
-x,y,z
x,-y,z
loop_
_atom_site_type_symbol
_atom_site_label
_atom_site_fract_x
_atom_site_fract_y
_atom_site_fract_z
Si Si1 0.120080 0.649103 0.197137
Si Si2 0.730253 0.663873 0.500000
Si Si3 0.788605 0.663034 0.809273
Si Si4 0.411201 0.837368 0.812647
Si Si5 0.500000 0.163592 0.692163
Si Si6 0.354093 0.164014 0.500000
Si Si7 0.046522 0.846732 0.299442
O O1 0.111455 0.500000 0.284650
O O2 0.165045 0.712454 0.256314
O O3 0.081563 0.748162 0.228107
O O4 0.125231 0.624068 0.000000
O O5 0.721799 0.500000 0.500000
O O6 0.754890 0.711540 0.669968
O O7 0.688167 0.750414 0.500000
O O8 0.789842 0.500000 0.816931
O O9 0.777606 0.720413 0.000000
O O10 0.458150 0.778234 0.782804
O O11 0.379492 0.786860 0.667038
O O12 0.413598 0.000000 0.802660
O O13 0.395587 0.789068 0.000000
O O14 0.500000 0.216815 0.500000
O O15 0.500000 0.000000 0.697921
O O16 0.345620 0.000000 0.500000
O O17 0.049020 0.846930 0.500000
O O18 0.000000 0.797289 0.240682
O O19 0.054753 0.000000 0.229511
#
# Coordination Sequence:
#
# PCOD8197280 Si02
#       7
#     8   4   8   8   4   4   8
#     4   9  18  32  51  75  98 119 151 199 247 287
#     4  10  20  34  55  75  92 127 168 197 242 299
#     4   8  16  32  52  75  99 120 153 203 248 289
#     4   9  16  26  42  65  96 133 165 197 243 290
#     4   9  13  21  39  64  95 128 164 204 240 280
#     4  10  20  33  46  68 102 129 157 200 244 288
#     4   9  19  34  48  66  97 134 166 193 226 277
#
# _framework density 18.051749999999998
#
# number of rings (size 3 to 8) (size 9 to 14) (size 15 to 20)
#    0.000    3.000    0.909    1.909    1.273    3.273 
#    0.000    3.636    0.000    1.091    0.000    1.273 
#    0.000    1.455    0.000    0.000    0.000    0.000 
#
# Total GULP energy -545137.329823 kJ/mol
# GULP energy per Si atom -12389.484769 kJ/mol
# Density = 1.801066 g / cm^3
# Si number density = 18.051750 Si / 1000 Ang^3
#
#
#
# Elastic Constant Matrix: (Units=GPa)
#
#
# Indices 1 2 3 4 5 6 
#
# 1 168.2918 47.6294 69.8730 0.0000 0.0000 0.0000
# 2 47.6294 36.7881 20.4570 0.0000 0.0000 0.0000
# 3 69.8730 20.4570 110.8310 0.0000 0.0000 0.0000
# 4 0.0000 0.0000 0.0000 15.1954 0.0000 0.0000
# 5 0.0000 0.0000 0.0000 0.0000 26.6881 0.0000
# 6 0.0000 0.0000 0.0000 0.0000 0.0000 29.0144
#
#
#
# Elastic Compliance Matrix: (Units=1/GPa)
#
#
# Indices 1 2 3 4 5 6 
#
# 1 0.011403 -0.011997 -0.004974 0.000000 0.000000 0.000000
# 2 -0.011997 0.042914 -0.000358 0.000000 0.000000 0.000000
# 3 -0.004974 -0.000358 0.012225 0.000000 0.000000 0.000000
# 4 0.000000 0.000000 0.000000 0.065810 0.000000 0.000000
# 5 0.000000 0.000000 0.000000 0.000000 0.037470 0.000000
# 6 0.000000 0.000000 0.000000 0.000000 0.000000 0.034466
#
#
# Mechanical properties :
#
#
# Convention : Reuss Voigt Hill
#
# Bulk Modulus (GPa) = 31.36409 65.75888 48.56148
# Shear Modulus (GPa) = 20.03429 26.04300 23.03864
#
# Velocity S-wave (km/s) = 3.33502 3.80239 3.57635
# Velocity P-wave (km/s) = 5.67821 7.46891 6.63426
#
# Compressibility (1/GPa) = 0.03188360
#
# Stress axis : x y z
#
# Youngs Moduli (GPa) = 87.69845 23.30253 81.80056
#
# Poissons Ratio (x) = 0.27956 0.40691
# Poissons Ratio (y) = 1.05211 0.02925
# Poissons Ratio (z) = 0.43625 0.00833
#
# Static dielectric constant tensor:
#      x y z
#    x 1.496730 0.000000 0.000000 
#    y 0.000000 2.631370 0.000000 
#    z 0.000000 0.000000 3.642410 
# 
# 
# High freq. dielectric constant tensor:
#      x y z
#    x 1.705600 0.000000 0.000000 
#    y 0.000000 1.637260 0.000000 
#    z 0.000000 0.000000 1.709000 
# 
# From -- ./inp_files/13754.got.cif
#   From: 2010.03.12/outbox.cif.g09.slc.cpg/sg47_7_cif.got.tgz:13754.got - 2010.04.14 03:12:58.
