data_PCOD8197084
_publ_section_title
;
Structure prediction by ZEFSAII (Michael W. Deem and Ramdas Pophale) SiO2 
 PCOD8197084
Probable space group: P M M M
;
_chemical_formula_sum "Si O2"
_cell_formula_units_Z 44
_cell_length_a 28.542777
_cell_length_b 9.283624
_cell_length_c 9.058629
_cell_angle_alpha 90.000000
_cell_angle_beta 90.000000
_cell_angle_gamma 90.000000
_cell_volume 2400.359223
_symmetry_space_group_name_H-M "P M M M"
_symmetry_group_IT_number 47
_symmetry_cell_setting 'orthorhombic'
loop_
_space_group_symop_operation_xyz
x,y,z
-x,-y,z
x,-y,-z
-x,y,-z
-x,-y,-z
x,y,-z
-x,y,z
x,-y,z
loop_
_atom_site_type_symbol
_atom_site_label
_atom_site_fract_x
_atom_site_fract_y
_atom_site_fract_z
Si Si1 0.051550 0.661455 0.175210
Si Si2 0.409634 0.332828 0.672895
Si Si3 0.776018 0.667019 0.326633
Si Si4 0.500000 0.837262 0.324378
Si Si5 0.859224 0.831834 0.172652
Si Si6 0.682967 0.328832 0.833647
O O1 0.062992 0.500000 0.231674
O O2 0.091351 0.769906 0.232694
O O3 0.000000 0.709537 0.233880
O O4 0.050767 0.663018 0.000000
O O5 0.401757 0.308468 0.500000
O O6 0.418619 0.500000 0.708697
O O7 0.453978 0.244479 0.734191
O O8 0.363887 0.271242 0.755058
O O9 0.771920 0.690957 0.500000
O O10 0.784185 0.500000 0.286552
O O11 0.818467 0.758003 0.263776
O O12 0.728409 0.726939 0.253640
O O13 0.500000 0.833985 0.500000
O O14 0.500000 0.000000 0.263563
O O15 0.858773 0.000000 0.205306
O O16 0.852161 0.797466 0.000000
O O17 0.682242 0.500000 0.830666
O O18 0.684896 0.268820 0.000000
#
# Coordination Sequence:
#
# PCOD8197084 Si02
#       6
#     8   8   8   4   8   8
#     4   8  14  26  46  72 100 130 165 204 245 290
#     4   9  16  28  48  72  96 123 158 198 237 280
#     4  10  20  34  53  75  98 128 167 208 250 297
#     4   9  17  29  46  69  96 126 160 195 232 278
#     4  10  20  32  48  73 104 136 168 203 246 295
#     4   9  17  30  50  75  99 123 156 201 249 293
#
# _framework density 18.330589
#
# number of rings (size 3 to 8) (size 9 to 14) (size 15 to 20)
#    0.000    2.818    0.000    2.455    0.000    5.818 
#    0.000    3.182    0.000    7.091    0.000    3.818 
#    0.000    0.000    0.000    0.000    0.000    0.000 
#
# Total GULP energy -545533.021063 kJ/mol
# GULP energy per Si atom -12398.477751 kJ/mol
# Density = 1.828887 g / cm^3
# Si number density = 18.330589 Si / 1000 Ang^3
#
#
#
# Elastic Constant Matrix: (Units=GPa)
#
#
# Indices 1 2 3 4 5 6 
#
# 1 197.0304 74.8158 62.0466 0.0000 0.0000 0.0000
# 2 74.8158 78.7798 38.9765 0.0000 0.0000 0.0000
# 3 62.0466 38.9765 64.5787 0.0000 0.0000 0.0000
# 4 0.0000 0.0000 0.0000 15.8732 0.0000 0.0000
# 5 0.0000 0.0000 0.0000 0.0000 18.0774 0.0000
# 6 0.0000 0.0000 0.0000 0.0000 0.0000 2.5155
#
#
#
# Elastic Compliance Matrix: (Units=1/GPa)
#
#
# Indices 1 2 3 4 5 6 
#
# 1 0.008917 -0.006030 -0.004928 0.000000 0.000000 0.000000
# 2 -0.006030 0.022176 -0.007590 0.000000 0.000000 0.000000
# 3 -0.004928 -0.007590 0.024801 0.000000 0.000000 0.000000
# 4 0.000000 0.000000 0.000000 0.062999 0.000000 0.000000
# 5 0.000000 0.000000 0.000000 0.000000 0.055318 0.000000
# 6 0.000000 0.000000 0.000000 0.000000 0.000000 0.397538
#
#
# Mechanical properties :
#
#
# Convention : Reuss Voigt Hill
#
# Bulk Modulus (GPa) = 53.20104 76.89630 65.04867
# Shear Modulus (GPa) = 8.12862 18.26323 13.19593
#
# Velocity S-wave (km/s) = 2.10810 3.15989 2.68598
# Velocity P-wave (km/s) = 5.91706 7.44002 6.72181
#
# Compressibility (1/GPa) = 0.01879663
#
# Stress axis : x y z
#
# Youngs Moduli (GPa) = 112.14626 45.09424 40.32145
#
# Poissons Ratio (x) = 0.27193 0.19869
# Poissons Ratio (y) = 0.67627 0.30606
# Poissons Ratio (z) = 0.55263 0.34228
#
# Static dielectric constant tensor:
#      x y z
#    x 3.755010 0.000000 0.000000 
#    y 0.000000 3.214910 0.000000 
#    z 0.000000 0.000000 3.129840 
# 
# 
# High freq. dielectric constant tensor:
#      x y z
#    x 1.730900 0.000000 0.000000 
#    y 0.000000 1.684770 0.000000 
#    z 0.000000 0.000000 1.680210 
# 
# From -- ./inp_files/2031.got.cif
#   From: 2010.03.12/outbox.cif.g09.slc.cpg/sg47_2_cif.got.tgz:2031.got - 2010.04.14 03:12:58.
