data_PCOD8197301
_publ_section_title
;
Structure prediction by ZEFSAII (Michael W. Deem and Ramdas Pophale) SiO2 
 PCOD8197301
Probable space group: P M M M
;
_chemical_formula_sum "Si O2"
_cell_formula_units_Z 64
_cell_length_a 8.992797
_cell_length_b 31.087602
_cell_length_c 14.104942
_cell_angle_alpha 90.000000
_cell_angle_beta 90.000000
_cell_angle_gamma 90.000000
_cell_volume 3943.240973
_symmetry_space_group_name_H-M "P M M M"
_symmetry_group_IT_number 47
_symmetry_cell_setting 'orthorhombic'
loop_
_space_group_symop_operation_xyz
x,y,z
-x,-y,z
x,-y,-z
-x,y,-z
-x,-y,-z
x,y,-z
-x,y,z
x,-y,z
loop_
_atom_site_type_symbol
_atom_site_label
_atom_site_fract_x
_atom_site_fract_y
_atom_site_fract_z
Si Si1 0.173201 0.370577 0.890929
Si Si2 0.168899 0.785278 0.112523
Si Si3 0.174040 0.680868 0.392734
Si Si4 0.323950 0.292442 0.213501
Si Si5 0.829888 0.548048 0.769585
Si Si6 0.333627 0.870055 0.112960
Si Si7 0.832772 0.047249 0.112725
Si Si8 0.670652 0.408902 0.607049
O O1 0.268940 0.336653 0.832609
O O2 0.209024 0.418223 0.852381
O O3 0.000000 0.358766 0.879350
O O4 0.222170 0.369041 0.000000
O O5 0.269155 0.747445 0.152472
O O6 0.232664 0.830736 0.149241
O O7 0.000000 0.780650 0.148635
O O8 0.176660 0.782503 0.000000
O O9 0.209825 0.695866 0.500000
O O10 0.259677 0.712074 0.320134
O O11 0.228248 0.632561 0.375274
O O12 0.000000 0.682590 0.370935
O O13 0.500000 0.292169 0.216768
O O14 0.801659 0.500000 0.809468
O O15 0.725412 0.554336 0.678150
O O16 0.000000 0.553791 0.736750
O O17 0.500000 0.863883 0.152133
O O18 0.270114 0.914929 0.154690
O O19 0.333112 0.871425 0.000000
O O20 0.000000 0.054206 0.150425
O O21 0.773749 0.000000 0.145053
O O22 0.832829 0.049695 0.000000
O O23 0.689197 0.426173 0.500000
O O24 0.500000 0.396519 0.628013
#
# Coordination Sequence:
#
# PCOD8197301 Si02
#       8
#     8   8   8   8   8   8   8   8
#     4  10  21  37  55  73  95 124 158 193 228 268
#     4  10  20  33  48  65  89 124 163 199 236 279
#     4  10  20  35  56  78  99 123 150 181 218 265
#     4  12  23  34  52  76 100 123 150 187 230 275
#     4  10  21  36  54  75  98 126 158 189 223 267
#     4   9  16  25  37  55  81 111 147 195 246 288
#     4   8  13  21  33  49  71 104 148 194 238 285
#     4  10  20  34  53  77 102 126 150 179 221 268
#
# _framework density 16.230304
#
# number of rings (size 3 to 8) (size 9 to 14) (size 15 to 20)
#    0.000    2.125    1.250    3.375    0.000    6.500 
#    0.000    3.750    0.000    0.000    0.000    1.750 
#    0.000    0.000    0.000    0.000    0.000    0.625 
#
# Total GULP energy -793577.634941 kJ/mol
# GULP energy per Si atom -12399.650546 kJ/mol
# Density = 1.619336 g / cm^3
# Si number density = 16.230304 Si / 1000 Ang^3
#
#
#
# Elastic Constant Matrix: (Units=GPa)
#
#
# Indices 1 2 3 4 5 6 
#
# 1 109.7242 50.7565 37.9583 0.0000 0.0000 0.0000
# 2 50.7565 100.0360 23.6059 0.0000 0.0000 0.0000
# 3 37.9583 23.6059 55.1863 0.0000 0.0000 0.0000
# 4 0.0000 0.0000 0.0000 3.3305 0.0000 0.0000
# 5 0.0000 0.0000 0.0000 0.0000 18.8585 0.0000
# 6 0.0000 0.0000 0.0000 0.0000 0.0000 14.0592
#
#
#
# Elastic Compliance Matrix: (Units=1/GPa)
#
#
# Indices 1 2 3 4 5 6 
#
# 1 0.014211 -0.005455 -0.007442 0.000000 0.000000 0.000000
# 2 -0.005455 0.013212 -0.001900 0.000000 0.000000 0.000000
# 3 -0.007442 -0.001900 0.024052 0.000000 0.000000 0.000000
# 4 0.000000 0.000000 0.000000 0.300257 0.000000 0.000000
# 5 0.000000 0.000000 0.000000 0.000000 0.053027 0.000000
# 6 0.000000 0.000000 0.000000 0.000000 0.000000 0.071128
#
#
# Mechanical properties :
#
#
# Convention : Reuss Voigt Hill
#
# Bulk Modulus (GPa) = 45.69719 54.39865 50.04792
# Shear Modulus (GPa) = 9.75091 17.42469 13.58780
#
# Velocity S-wave (km/s) = 2.45375 3.28012 2.89656
# Velocity P-wave (km/s) = 6.02034 6.92352 6.48766
#
# Compressibility (1/GPa) = 0.02188319
#
# Stress axis : x y z
#
# Youngs Moduli (GPa) = 70.36641 75.68740 41.57729
#
# Poissons Ratio (x) = 0.41284 0.30940
# Poissons Ratio (y) = 0.38382 0.07899
# Poissons Ratio (z) = 0.52364 0.14379
#
# Static dielectric constant tensor:
#      x y z
#    x 3.208580 0.000000 0.000000 
#    y 0.000000 3.133320 0.000000 
#    z 0.000000 0.000000 2.895020 
# 
# 
# High freq. dielectric constant tensor:
#      x y z
#    x 1.635770 0.000000 0.000000 
#    y 0.000000 1.616890 0.000000 
#    z 0.000000 0.000000 1.582340 
# 
# From -- ./inp_files/22127.got.cif
#   From: 2010.03.12/outbox.cif.g09.slc.cpg/sg47_12_cif.got.tgz:22127.got - 2010.04.14 03:12:58.
