data_PCOD8197353
_publ_section_title
;
Structure prediction by ZEFSAII (Michael W. Deem and Ramdas Pophale) SiO2 
 PCOD8197353
Probable space group: P M M M
;
_chemical_formula_sum "Si O2"
_cell_formula_units_Z 44
_cell_length_a 28.663405
_cell_length_b 8.933271
_cell_length_c 9.102000
_cell_angle_alpha 90.000000
_cell_angle_beta 90.000000
_cell_angle_gamma 90.000000
_cell_volume 2330.639594
_symmetry_space_group_name_H-M "P M M M"
_symmetry_group_IT_number 47
_symmetry_cell_setting 'orthorhombic'
loop_
_space_group_symop_operation_xyz
x,y,z
-x,-y,z
x,-y,-z
-x,y,-z
-x,-y,-z
x,y,-z
-x,y,z
x,-y,z
loop_
_atom_site_type_symbol
_atom_site_label
_atom_site_fract_x
_atom_site_fract_y
_atom_site_fract_z
Si Si1 0.183240 0.675744 0.670493
Si Si2 0.359902 0.821565 0.335247
Si Si3 0.268815 0.177651 0.166926
Si Si4 0.551374 0.178035 0.165119
Si Si5 0.909156 0.321841 0.834022
Si Si6 0.000000 0.321352 0.333725
O O1 0.179012 0.716714 0.500000
O O2 0.189700 0.500000 0.695285
O O3 0.226959 0.758934 0.738214
O O4 0.136840 0.735463 0.750750
O O5 0.353904 0.759307 0.500000
O O6 0.317085 0.763465 0.236650
O O7 0.408275 0.756332 0.269760
O O8 0.361074 0.000000 0.335404
O O9 0.266529 0.000000 0.172358
O O10 0.265583 0.236540 0.000000
O O11 0.500000 0.229947 0.220984
O O12 0.553815 0.000000 0.165030
O O13 0.559861 0.237240 0.000000
O O14 0.910541 0.500000 0.834506
O O15 0.954434 0.259014 0.749651
O O16 0.908919 0.259199 0.000000
O O17 0.000000 0.500000 0.333788
O O18 0.000000 0.260182 0.500000
#
# Coordination Sequence:
#
# PCOD8197353 Si02
#       6
#     8   8   8   8   8   4
#     4  10  20  33  49  70  96 124 154 191 235 278
#     4   9  16  25  38  57  82 112 146 185 227 270
#     4  10  20  33  49  68  91 122 159 195 231 274
#     4   8  13  21  33  50  75 108 143 178 219 268
#     4   9  16  26  41  62  89 120 152 186 226 272
#     4   9  15  23  37  59  88 119 150 185 226 271
#
# _framework density 18.878938999999999
#
# number of rings (size 3 to 8) (size 9 to 14) (size 15 to 20)
#    0.000    2.818    0.000    3.000    0.000    8.000 
#    0.000    1.818    0.000    0.000    0.000    0.636 
#    0.000    5.818    0.000    7.636    0.000   10.545 
#
# Total GULP energy -545499.356001 kJ/mol
# GULP energy per Si atom -12397.712636 kJ/mol
# Density = 1.883597 g / cm^3
# Si number density = 18.878939 Si / 1000 Ang^3
#
#
#
# Elastic Constant Matrix: (Units=GPa)
#
#
# Indices 1 2 3 4 5 6 
#
# 1 177.2799 12.5738 81.2727 0.0000 0.0000 0.0000
# 2 12.5738 4.7869 12.4303 0.0000 0.0000 0.0000
# 3 81.2727 12.4303 149.5616 0.0000 0.0000 0.0000
# 4 0.0000 0.0000 0.0000 14.1463 0.0000 0.0000
# 5 0.0000 0.0000 0.0000 0.0000 42.8384 0.0000
# 6 0.0000 0.0000 0.0000 0.0000 0.0000 20.8572
#
#
#
# Elastic Compliance Matrix: (Units=1/GPa)
#
#
# Indices 1 2 3 4 5 6 
#
# 1 0.008058 -0.012492 -0.003341 0.000000 0.000000 0.000000
# 2 -0.012492 0.285763 -0.016962 0.000000 0.000000 0.000000
# 3 -0.003341 -0.016962 0.009911 0.000000 0.000000 0.000000
# 4 0.000000 0.000000 0.000000 0.070690 0.000000 0.000000
# 5 0.000000 0.000000 0.000000 0.000000 0.023344 0.000000
# 6 0.000000 0.000000 0.000000 0.000000 0.000000 0.047945
#
#
# Mechanical properties :
#
#
# Convention : Reuss Voigt Hill
#
# Bulk Modulus (GPa) = 4.19916 60.46466 32.33191
# Shear Modulus (GPa) = 8.46480 30.59183 19.52832
#
# Velocity S-wave (km/s) = 2.11978 4.02981 3.21969
# Velocity P-wave (km/s) = 2.86712 7.33141 5.56642
#
# Compressibility (1/GPa) = 0.23814310
#
# Stress axis : x y z
#
# Youngs Moduli (GPa) = 124.09515 3.49941 100.89485
#
# Poissons Ratio (x) = 0.04371 0.33706
# Poissons Ratio (y) = 1.55019 1.71137
# Poissons Ratio (z) = 0.41457 0.05936
#
# Static dielectric constant tensor:
#      x y z
#    x 3.775660 0.000000 0.000000 
#    y 0.000000 2.706860 0.000000 
#    z 0.000000 0.000000 3.739730 
# 
# 
# High freq. dielectric constant tensor:
#      x y z
#    x 1.755350 0.000000 0.000000 
#    y 0.000000 1.649100 0.000000 
#    z 0.000000 0.000000 1.749350 
# 
# From -- ./inp_files/13557.got.cif
#   From: 2010.03.12/outbox.cif.g09.slc.cpg/sg47_7_cif.got.tgz:13557.got - 2010.04.14 03:12:58.
