data_PCOD8197332
_publ_section_title
;
Structure prediction by ZEFSAII (Michael W. Deem and Ramdas Pophale) SiO2 
 PCOD8197332
Probable space group: P M M M
;
_chemical_formula_sum "Si O2"
_cell_formula_units_Z 52
_cell_length_a 11.667077
_cell_length_b 31.067602
_cell_length_c 8.893461
_cell_angle_alpha 90.000000
_cell_angle_beta 90.000000
_cell_angle_gamma 90.000000
_cell_volume 3223.595953
_symmetry_space_group_name_H-M "P M M M"
_symmetry_group_IT_number 47
_symmetry_cell_setting 'orthorhombic'
loop_
_space_group_symop_operation_xyz
x,y,z
-x,-y,z
x,-y,-z
-x,y,-z
-x,-y,-z
x,y,-z
-x,y,z
x,-y,z
loop_
_atom_site_type_symbol
_atom_site_label
_atom_site_fract_x
_atom_site_fract_y
_atom_site_fract_z
Si Si1 0.500000 0.549844 0.321418
Si Si2 0.135692 0.255510 0.831725
Si Si3 0.863322 0.000000 0.669363
Si Si4 0.136782 0.170807 0.669478
Si Si5 0.270664 0.418999 0.178681
Si Si6 0.866521 0.342988 0.676048
Si Si7 0.873168 0.500000 0.178336
Si Si8 0.136641 0.914665 0.169343
O O1 0.500000 0.500000 0.266576
O O2 0.500000 0.552403 0.500000
O O3 0.607607 0.575493 0.256855
O O4 0.186060 0.211908 0.759286
O O5 0.171302 0.295503 0.727607
O O6 0.000000 0.251825 0.839227
O O7 0.185792 0.261274 0.000000
O O8 0.815360 0.042463 0.751339
O O9 0.816890 0.000000 0.500000
O O10 0.000000 0.000000 0.672454
O O11 0.183328 0.172836 0.500000
O O12 0.184059 0.127330 0.745420
O O13 0.000000 0.171156 0.671293
O O14 0.211175 0.375301 0.229761
O O15 0.191695 0.457953 0.236584
O O16 0.286316 0.419160 0.000000
O O17 0.842148 0.348081 0.500000
O O18 0.000000 0.351521 0.713775
O O19 0.000000 0.500000 0.249118
O O20 0.879763 0.500000 0.000000
O O21 0.000000 0.914809 0.172044
O O22 0.183240 0.913685 0.000000
#
# Coordination Sequence:
#
# PCOD8197332 Si02
#       8
#     4   8   4   8   8   8   4   8
#     4  11  23  39  57  75  99 125 153 187 225 262
#     4   9  16  26  40  57  77 103 134 166 202 248
#     4   9  15  21  27  35  49  71 101 141 191 242
#     4   9  15  22  32  46  64  87 116 152 195 243
#     4  11  21  35  55  75  97 123 156 189 219 258
#     4  10  20  33  48  69  97 124 148 178 221 269
#     4   9  18  31  49  74 100 123 148 181 218 255
#     4   9  15  21  28  38  53  75 106 145 189 239
#
# _framework density 16.131053999999999
#
# number of rings (size 3 to 8) (size 9 to 14) (size 15 to 20)
#    0.000    2.385    0.769    3.231    0.000    8.308 
#    0.000    0.000    0.000    1.846    0.000    0.000 
#    0.000    0.000    0.000    0.000    0.000    0.000 
#
# Total GULP energy -644779.276762 kJ/mol
# GULP energy per Si atom -12399.601476 kJ/mol
# Density = 1.609434 g / cm^3
# Si number density = 16.131054 Si / 1000 Ang^3
#
#
#
# Elastic Constant Matrix: (Units=GPa)
#
#
# Indices 1 2 3 4 5 6 
#
# 1 50.1158 30.8446 21.3571 0.0000 0.0000 0.0000
# 2 30.8446 136.1443 47.7789 0.0000 0.0000 0.0000
# 3 21.3571 47.7789 105.2858 0.0000 0.0000 0.0000
# 4 0.0000 0.0000 0.0000 34.3348 0.0000 0.0000
# 5 0.0000 0.0000 0.0000 0.0000 12.2917 0.0000
# 6 0.0000 0.0000 0.0000 0.0000 0.0000 -0.4739
#
#
#
# Elastic Compliance Matrix: (Units=1/GPa)
#
#
# Indices 1 2 3 4 5 6 
#
# 1 0.023881 -0.004413 -0.002841 0.000000 0.000000 0.000000
# 2 -0.004413 0.009552 -0.003440 0.000000 0.000000 0.000000
# 3 -0.002841 -0.003440 0.011635 0.000000 0.000000 0.000000
# 4 0.000000 0.000000 0.000000 0.029125 0.000000 0.000000
# 5 0.000000 0.000000 0.000000 0.000000 0.081356 0.000000
# 6 0.000000 0.000000 0.000000 0.000000 0.000000 -2.110179
#
#
# Mechanical properties :
#
#
# Convention : Reuss Voigt Hill
#
# Bulk Modulus (GPa) = 42.23024 54.61190 48.42107
# Shear Modulus (GPa) = -2.59693 22.00154 9.70230
#
# Velocity S-wave (km/s) = -1.27019 3.69714 2.45514
# Velocity P-wave (km/s) = 4.90766 7.22176 6.17409
#
# Compressibility (1/GPa) = 0.02367971
#
# Stress axis : x y z
#
# Youngs Moduli (GPa) = 41.87448 104.68921 85.94589
#
# Poissons Ratio (x) = 0.46202 0.24421
# Poissons Ratio (y) = 0.18480 0.29561
# Poissons Ratio (z) = 0.11899 0.36008
#
# Static dielectric constant tensor:
#      x y z
#    x 2.489090 0.000000 0.000000 
#    y 0.000000 3.259110 0.000000 
#    z 0.000000 0.000000 3.194860 
# 
# 
# High freq. dielectric constant tensor:
#      x y z
#    x 1.535610 0.000000 0.000000 
#    y 0.000000 1.636890 0.000000 
#    z 0.000000 0.000000 1.636500 
# 
# From -- ./inp_files/4624.got.cif
#   From: 2010.03.12/outbox.cif.g09.slc.cpg/sg47_3_cif.got.tgz:4624.got - 2010.04.14 03:12:58.
