data_PCOD8197685
_publ_section_title
;
Structure prediction by ZEFSAII (Michael W. Deem and Ramdas Pophale) SiO2 
 PCOD8197685
Probable space group: P M M M
;
_chemical_formula_sum "Si O2"
_cell_formula_units_Z 52
_cell_length_a 9.773872
_cell_length_b 32.134540
_cell_length_c 8.396990
_cell_angle_alpha 90.000000
_cell_angle_beta 90.000000
_cell_angle_gamma 90.000000
_cell_volume 2637.317221
_symmetry_space_group_name_H-M "P M M M"
_symmetry_group_IT_number 47
_symmetry_cell_setting 'orthorhombic'
loop_
_space_group_symop_operation_xyz
x,y,z
-x,-y,z
x,-y,-z
-x,y,-z
-x,-y,-z
x,y,-z
-x,y,z
x,-y,z
loop_
_atom_site_type_symbol
_atom_site_label
_atom_site_fract_x
_atom_site_fract_y
_atom_site_fract_z
Si Si1 0.747689 0.599228 0.689640
Si Si2 0.000000 0.547411 0.690303
Si Si3 0.848570 0.759895 0.689195
Si Si4 0.656116 0.924421 0.187156
Si Si5 0.155856 0.853843 0.687898
Si Si6 0.500000 0.546073 0.690071
Si Si7 0.344870 0.687994 0.309775
Si Si8 0.842066 0.000000 0.810115
O O1 0.749892 0.600420 0.500000
O O2 0.626728 0.571332 0.756437
O O3 0.731662 0.646431 0.752914
O O4 0.876895 0.574899 0.757736
O O5 0.000000 0.500000 0.757656
O O6 0.000000 0.544935 0.500000
O O7 0.848081 0.757938 0.500000
O O8 0.813075 0.806707 0.743436
O O9 0.737622 0.727659 0.759208
O O10 0.000000 0.747604 0.751452
O O11 0.500000 0.926632 0.258189
O O12 0.728880 0.881086 0.227010
O O13 0.756213 0.960436 0.255421
O O14 0.644227 0.929735 0.000000
O O15 0.172041 0.858818 0.500000
O O16 0.000000 0.866283 0.738326
O O17 0.500000 0.500000 0.762991
O O18 0.500000 0.543929 0.500000
O O19 0.346839 0.688447 0.500000
O O20 0.500000 0.689450 0.244500
O O21 0.000000 0.000000 0.744588
O O22 0.847824 0.000000 0.000000
#
# Coordination Sequence:
#
# PCOD8197685 Si02
#       8
#     8   4   8   8   8   4   8   4
#     4   9  15  21  27  37  51  70 100 140 187 241
#     4   9  16  22  26  34  48  68  98 138 187 242
#     4   8  15  26  40  56  75 101 132 169 215 263
#     4  10  20  33  51  76 104 131 161 198 238 280
#     4   9  18  33  50  70  96 126 161 199 240 287
#     4   9  14  20  28  34  46  70  98 134 185 240
#     4   9  15  22  31  45  63  83 113 153 198 251
#     4   9  17  31  52  75  98 129 166 200 236 277
#
# _framework density 19.717006000000001
#
# number of rings (size 3 to 8) (size 9 to 14) (size 15 to 20)
#    0.000    3.000    0.769    2.077    1.077    4.615 
#    0.000    1.923    0.000    2.308    0.000    0.000 
#    0.000    0.000    0.000    0.000    0.000    0.000 
#
# Total GULP energy -644312.536287 kJ/mol
# GULP energy per Si atom -12390.625698 kJ/mol
# Density = 1.967213 g / cm^3
# Si number density = 19.717006 Si / 1000 Ang^3
#
#
#
# Elastic Constant Matrix: (Units=GPa)
#
#
# Indices 1 2 3 4 5 6 
#
# 1 197.3147 112.0791 4.9450 0.0000 0.0000 0.0000
# 2 112.0791 175.1298 2.9785 0.0000 0.0000 0.0000
# 3 4.9450 2.9785 3.5944 0.0000 0.0000 0.0000
# 4 0.0000 0.0000 0.0000 -10.1297 0.0000 0.0000
# 5 0.0000 0.0000 0.0000 0.0000 10.8970 0.0000
# 6 0.0000 0.0000 0.0000 0.0000 0.0000 44.9975
#
#
#
# Elastic Compliance Matrix: (Units=1/GPa)
#
#
# Indices 1 2 3 4 5 6 
#
# 1 0.008131 -0.005085 -0.006973 0.000000 0.000000 0.000000
# 2 -0.005085 0.008972 -0.000439 0.000000 0.000000 0.000000
# 3 -0.006973 -0.000439 0.288167 0.000000 0.000000 0.000000
# 4 0.000000 0.000000 0.000000 -0.098720 0.000000 0.000000
# 5 0.000000 0.000000 0.000000 0.000000 0.091769 0.000000
# 6 0.000000 0.000000 0.000000 0.000000 0.000000 0.022223
#
#
# Mechanical properties :
#
#
# Convention : Reuss Voigt Hill
#
# Bulk Modulus (GPa) = 3.56790 68.44937 36.00863
# Shear Modulus (GPa) = 11.39052 26.22206 18.80629
#
# Velocity S-wave (km/s) = 2.40615 3.65076 3.09173
# Velocity P-wave (km/s) = 3.08753 7.24997 5.57202
#
# Compressibility (1/GPa) = 0.28027723
#
# Stress axis : x y z
#
# Youngs Moduli (GPa) = 122.98070 111.45809 3.47021
#
# Poissons Ratio (x) = 0.56680 0.02420
# Poissons Ratio (y) = 0.62539 0.00152
# Poissons Ratio (z) = 0.85753 0.04887
#
# Static dielectric constant tensor:
#      x y z
#    x 3.910150 0.000000 0.000000 
#    y 0.000000 3.884170 0.000000 
#    z 0.000000 0.000000 2.724900 
# 
# 
# High freq. dielectric constant tensor:
#      x y z
#    x 1.781300 0.000000 0.000000 
#    y 0.000000 1.784020 0.000000 
#    z 0.000000 0.000000 1.684340 
# 
# From -- ./inp_files/15696.got.cif
#   From: 2010.03.12/outbox.cif.g09.slc.cpg/sg47_8_cif.got.tgz:15696.got - 2010.04.14 03:12:58.
