data_PCOD8197756
_publ_section_title
;
Structure prediction by ZEFSAII (Michael W. Deem and Ramdas Pophale) SiO2 
 PCOD8197756
Probable space group: P M M M
;
_chemical_formula_sum "Si O2"
_cell_formula_units_Z 52
_cell_length_a 11.658826
_cell_length_b 8.812619
_cell_length_c 28.237766
_cell_angle_alpha 90.000000
_cell_angle_beta 90.000000
_cell_angle_gamma 90.000000
_cell_volume 2901.283381
_symmetry_space_group_name_H-M "P M M M"
_symmetry_group_IT_number 47
_symmetry_cell_setting 'orthorhombic'
loop_
_space_group_symop_operation_xyz
x,y,z
-x,-y,z
x,-y,-z
-x,y,-z
-x,-y,-z
x,y,-z
-x,y,z
x,-y,z
loop_
_atom_site_type_symbol
_atom_site_label
_atom_site_fract_x
_atom_site_fract_y
_atom_site_fract_z
Si Si1 0.500000 0.321790 0.279925
Si Si2 0.500000 0.179226 0.176269
Si Si3 0.128029 0.319874 0.947492
Si Si4 0.274585 0.823288 0.314719
Si Si5 0.727840 0.678605 0.859523
Si Si6 0.130131 0.179289 0.404621
Si Si7 0.863725 0.671187 0.500000
Si Si8 0.866724 0.826286 0.778825
O O1 0.500000 0.500000 0.271312
O O2 0.500000 0.242788 0.229066
O O3 0.610546 0.273784 0.309827
O O4 0.610085 0.233049 0.147395
O O5 0.500000 0.000000 0.180471
O O6 0.123745 0.500000 0.945114
O O7 0.217236 0.259605 0.908490
O O8 0.000000 0.256550 0.936750
O O9 0.167543 0.266647 0.000000
O O10 0.209153 0.765972 0.361443
O O11 0.191631 0.791010 0.270932
O O12 0.307184 0.000000 0.317994
O O13 0.703091 0.500000 0.860912
O O14 0.815802 0.713175 0.817487
O O15 0.183075 0.247292 0.452855
O O16 0.000000 0.237373 0.395897
O O17 0.130929 0.000000 0.409074
O O18 0.818672 0.500000 0.500000
O O19 0.000000 0.681942 0.500000
O O20 0.000000 0.791836 0.773025
O O21 0.843831 0.000000 0.794344
#
# Coordination Sequence:
#
# PCOD8197756 Si02
#       8
#     4   4   8   8   8   8   4   8
#     4  12  24  38  56  78 104 138 182 227 266 314
#     4  12  24  40  57  73 101 144 184 222 269 324
#     4   8  15  30  53  81 112 142 171 210 264 321
#     4  10  20  35  55  77 106 143 180 218 263 317
#     4  11  21  34  55  82 107 136 179 228 269 311
#     4   9  17  31  53  80 108 140 180 220 258 310
#     4   9  17  29  47  74 109 146 179 215 267 319
#     4  10  20  33  51  77 110 145 175 208 261 325
#
# _framework density 17.923102
#
# number of rings (size 3 to 8) (size 9 to 14) (size 15 to 20)
#    0.000    2.077    1.538    3.462    0.000    4.308 
#    0.000    0.385    0.000    7.385    0.000    8.615 
#    0.000    0.000    0.000    0.000    0.000    0.000 
#
# Total GULP energy -644852.262757 kJ/mol
# GULP energy per Si atom -12401.005053 kJ/mol
# Density = 1.788231 g / cm^3
# Si number density = 17.923102 Si / 1000 Ang^3
#
#
#
# Elastic Constant Matrix: (Units=GPa)
#
#
# Indices 1 2 3 4 5 6 
#
# 1 127.5350 44.5276 76.1354 0.0000 0.0000 0.0000
# 2 44.5276 68.2116 47.6008 0.0000 0.0000 0.0000
# 3 76.1354 47.6008 160.1456 0.0000 0.0000 0.0000
# 4 0.0000 0.0000 0.0000 23.2768 0.0000 0.0000
# 5 0.0000 0.0000 0.0000 0.0000 -0.7807 0.0000
# 6 0.0000 0.0000 0.0000 0.0000 0.0000 25.3227
#
#
#
# Elastic Compliance Matrix: (Units=1/GPa)
#
#
# Indices 1 2 3 4 5 6 
#
# 1 0.012126 -0.004911 -0.004305 0.000000 0.000000 0.000000
# 2 -0.004911 0.020486 -0.003754 0.000000 0.000000 0.000000
# 3 -0.004305 -0.003754 0.009407 0.000000 0.000000 0.000000
# 4 0.000000 0.000000 0.000000 0.042961 0.000000 0.000000
# 5 0.000000 0.000000 0.000000 0.000000 -1.280961 0.000000
# 6 0.000000 0.000000 0.000000 0.000000 0.000000 0.039490
#
#
# Mechanical properties :
#
#
# Convention : Reuss Voigt Hill
#
# Bulk Modulus (GPa) = 62.19812 76.93554 69.56683
# Shear Modulus (GPa) = -4.44369 22.07231 8.81431
#
# Velocity S-wave (km/s) = -1.57629 3.51308 2.22003
# Velocity P-wave (km/s) = 5.60938 7.71195 6.74312
#
# Compressibility (1/GPa) = 0.01607766
#
# Stress axis : x y z
#
# Youngs Moduli (GPa) = 82.46981 48.81331 106.30585
#
# Poissons Ratio (x) = 0.23974 0.45763
# Poissons Ratio (y) = 0.40504 0.39910
# Poissons Ratio (z) = 0.35502 0.18326
#
# Static dielectric constant tensor:
#      x y z
#    x 3.365200 0.000000 0.000000 
#    y 0.000000 3.164160 0.000000 
#    z 0.000000 0.000000 3.536060 
# 
# 
# High freq. dielectric constant tensor:
#      x y z
#    x 1.685110 0.000000 0.000000 
#    y 0.000000 1.679360 0.000000 
#    z 0.000000 0.000000 1.699820 
# 
# From -- ./inp_files/33646.got.cif
#   From: 2010.03.12/outbox.cif.g09.slc.cpg/sg47_17_cif.got.tgz:33646.got - 2010.04.14 03:12:58.
