data_PCOD8197000
_publ_section_title
;
Structure prediction by ZEFSAII (Michael W. Deem and Ramdas Pophale) SiO2 
 PCOD8197000
Probable space group: P M M M
;
_chemical_formula_sum "Si O2"
_cell_formula_units_Z 56
_cell_length_a 18.895124
_cell_length_b 9.442884
_cell_length_c 18.429868
_cell_angle_alpha 90.000000
_cell_angle_beta 90.000000
_cell_angle_gamma 90.000000
_cell_volume 3288.339321
_symmetry_space_group_name_H-M "P M M M"
_symmetry_group_IT_number 47
_symmetry_cell_setting 'orthorhombic'
loop_
_space_group_symop_operation_xyz
x,y,z
-x,-y,z
x,-y,-z
-x,y,-z
-x,-y,-z
x,y,-z
-x,y,z
x,-y,z
loop_
_atom_site_type_symbol
_atom_site_label
_atom_site_fract_x
_atom_site_fract_y
_atom_site_fract_z
Si Si1 0.213674 0.665015 0.198770
Si Si2 0.160076 0.668535 0.420323
Si Si3 0.700208 0.335205 0.658393
Si Si4 0.577844 0.342393 0.086045
Si Si5 0.078076 0.331601 0.284432
Si Si6 0.418584 0.165452 0.582837
Si Si7 0.290896 0.164091 0.914865
O O1 0.212999 0.500000 0.177969
O O2 0.273023 0.695024 0.259875
O O3 0.136024 0.715504 0.225345
O O4 0.228324 0.756924 0.127310
O O5 0.143381 0.730868 0.500000
O O6 0.157565 0.500000 0.420606
O O7 0.238440 0.715826 0.396438
O O8 0.101799 0.726491 0.363588
O O9 0.683171 0.500000 0.648187
O O10 0.629533 0.248965 0.640333
O O11 0.500000 0.300706 0.116215
O O12 0.598867 0.500000 0.113797
O O13 0.634846 0.229032 0.113244
O O14 0.575383 0.342805 0.000000
O O15 0.076600 0.500000 0.287361
O O16 0.000000 0.271074 0.265279
O O17 0.401204 0.211163 0.500000
O O18 0.500000 0.201378 0.600661
O O19 0.404029 0.000000 0.592796
O O20 0.290877 0.000000 0.894893
O O21 0.279168 0.190045 0.000000
#
# Coordination Sequence:
#
# PCOD8197000 Si02
#       7
#     8   8   8   8   8   8   8
#     4   9  18  32  49  69  93 121 152 187 230 279
#     4   8  13  21  36  62  94 122 146 177 219 263
#     4   9  17  29  45  65  89 118 154 192 227 269
#     4   8  14  26  45  68  93 120 147 175 213 263
#     4   8  14  25  42  65  92 121 152 184 218 262
#     4   9  18  31  45  63  89 121 158 200 241 274
#     4  10  20  32  48  71  95 119 152 194 234 274
#
# _framework density 17.029874
#
# number of rings (size 3 to 8) (size 9 to 14) (size 15 to 20)
#    0.000    3.286    0.000    3.429    0.000    3.143 
#    0.000    4.286    0.000    1.714    0.000    3.000 
#    0.000    0.000    0.000   15.143    0.000   11.429 
#
# Total GULP energy -694033.745403 kJ/mol
# GULP energy per Si atom -12393.459739 kJ/mol
# Density = 1.699111 g / cm^3
# Si number density = 17.029874 Si / 1000 Ang^3
#
#
#
# Elastic Constant Matrix: (Units=GPa)
#
#
# Indices 1 2 3 4 5 6 
#
# 1 128.2365 50.6130 54.1267 0.0000 0.0000 0.0000
# 2 50.6130 62.4071 42.4800 0.0000 0.0000 0.0000
# 3 54.1267 42.4800 69.4937 0.0000 0.0000 0.0000
# 4 0.0000 0.0000 0.0000 21.1193 0.0000 0.0000
# 5 0.0000 0.0000 0.0000 0.0000 20.0830 0.0000
# 6 0.0000 0.0000 0.0000 0.0000 0.0000 2.9714
#
#
#
# Elastic Compliance Matrix: (Units=1/GPa)
#
#
# Indices 1 2 3 4 5 6 
#
# 1 0.012878 -0.006194 -0.006244 0.000000 0.000000 0.000000
# 2 -0.006194 0.030422 -0.013772 0.000000 0.000000 0.000000
# 3 -0.006244 -0.013772 0.027672 0.000000 0.000000 0.000000
# 4 0.000000 0.000000 0.000000 0.047350 0.000000 0.000000
# 5 0.000000 0.000000 0.000000 0.000000 0.049793 0.000000
# 6 0.000000 0.000000 0.000000 0.000000 0.000000 0.336545
#
#
# Mechanical properties :
#
#
# Convention : Reuss Voigt Hill
#
# Bulk Modulus (GPa) = 53.90402 61.61962 57.76182
# Shear Modulus (GPa) = 8.87684 16.36258 12.61971
#
# Velocity S-wave (km/s) = 2.28557 3.10307 2.72515
# Velocity P-wave (km/s) = 6.21984 7.00717 6.62521
#
# Compressibility (1/GPa) = 0.01855149
#
# Stress axis : x y z
#
# Youngs Moduli (GPa) = 77.64911 32.87147 36.13815
#
# Poissons Ratio (x) = 0.20361 0.22566
# Poissons Ratio (y) = 0.48097 0.49768
# Poissons Ratio (z) = 0.48487 0.45269
#
# Static dielectric constant tensor:
#      x y z
#    x 3.393350 0.000000 0.000000 
#    y 0.000000 2.853190 0.000000 
#    z 0.000000 0.000000 3.064040 
# 
# 
# High freq. dielectric constant tensor:
#      x y z
#    x 1.654760 0.000000 0.000000 
#    y 0.000000 1.622220 0.000000 
#    z 0.000000 0.000000 1.640300 
# 
# From -- ./inp_files/26958.got.cif
#   From: 2010.03.12/outbox.cif.g09.slc.cpg/sg47_14_cif.got.tgz:26958.got - 2010.04.14 03:12:58.
