data_PCOD8197998
_publ_section_title
;
Structure prediction by ZEFSAII (Michael W. Deem and Ramdas Pophale) SiO2 
 PCOD8197998
Probable space group: P M M M
;
_chemical_formula_sum "Si O2"
_cell_formula_units_Z 48
_cell_length_a 7.934153
_cell_length_b 33.768377
_cell_length_c 9.784174
_cell_angle_alpha 90.000000
_cell_angle_beta 90.000000
_cell_angle_gamma 90.000000
_cell_volume 2621.409846
_symmetry_space_group_name_H-M "P M M M"
_symmetry_group_IT_number 47
_symmetry_cell_setting 'orthorhombic'
loop_
_space_group_symop_operation_xyz
x,y,z
-x,-y,z
x,-y,-z
-x,y,-z
-x,-y,-z
x,y,-z
-x,y,z
x,-y,z
loop_
_atom_site_type_symbol
_atom_site_label
_atom_site_fract_x
_atom_site_fract_y
_atom_site_fract_z
Si Si1 0.308223 0.612513 0.348428
Si Si2 0.197510 0.544590 0.844471
Si Si3 0.000000 0.816066 0.838176
Si Si4 0.000000 0.904923 0.836451
Si Si5 0.191620 0.303675 0.656795
Si Si6 0.311170 0.763377 0.842358
Si Si7 0.312880 0.955409 0.162423
O O1 0.245326 0.600131 0.500000
O O2 0.500000 0.626377 0.352525
O O3 0.292918 0.575105 0.250771
O O4 0.204196 0.650537 0.295630
O O5 0.248996 0.500000 0.802154
O O6 0.000000 0.550694 0.826662
O O7 0.252160 0.552606 0.000000
O O8 0.000000 0.860370 0.777573
O O9 0.170681 0.794240 0.787717
O O10 0.000000 0.818459 0.000000
O O11 0.167729 0.926648 0.779020
O O12 0.000000 0.905322 0.000000
O O13 0.254226 0.299674 0.500000
O O14 0.304671 0.276570 0.754120
O O15 0.000000 0.289553 0.672058
O O16 0.500000 0.781569 0.827055
O O17 0.274222 0.752419 0.000000
O O18 0.500000 0.941364 0.210858
O O19 0.278196 0.000000 0.215121
O O20 0.306127 0.955018 0.000000
#
# Coordination Sequence:
#
# PCOD8197998 Si02
#       7
#     8   8   4   4   8   8   8
#     4  10  21  35  51  75 104 129 157 196 241 289
#     4   9  19  36  55  74  98 130 167 202 236 280
#     4   9  18  31  43  62  91 121 161 209 248 296
#     4   9  15  22  35  51  73 109 150 195 247 292
#     4  10  20  35  56  78  99 126 162 204 249 296
#     4  10  20  34  52  72  97 130 164 202 251 301
#     4   8  13  20  30  47  72 103 145 197 246 291
#
# _framework density 18.310759000000001
#
# number of rings (size 3 to 8) (size 9 to 14) (size 15 to 20)
#    0.000    2.667    0.833    2.250    0.000    5.333 
#    0.000    5.833    0.000    0.000    0.000    0.000 
#    0.000    0.000    0.000    0.000    0.000    6.667 
#
# Total GULP energy -595033.996890 kJ/mol
# GULP energy per Si atom -12396.541602 kJ/mol
# Density = 1.826908 g / cm^3
# Si number density = 18.310759 Si / 1000 Ang^3
#
#
#
# Elastic Constant Matrix: (Units=GPa)
#
#
# Indices 1 2 3 4 5 6 
#
# 1 115.2474 62.8619 28.0528 0.0000 0.0000 0.0000
# 2 62.8619 128.5127 42.6829 0.0000 0.0000 0.0000
# 3 28.0528 42.6829 40.4231 0.0000 0.0000 0.0000
# 4 0.0000 0.0000 0.0000 -0.4027 0.0000 0.0000
# 5 0.0000 0.0000 0.0000 0.0000 16.9963 0.0000
# 6 0.0000 0.0000 0.0000 0.0000 0.0000 23.3771
#
#
#
# Elastic Compliance Matrix: (Units=1/GPa)
#
#
# Indices 1 2 3 4 5 6 
#
# 1 0.012116 -0.004826 -0.003312 0.000000 0.000000 0.000000
# 2 -0.004826 0.013907 -0.011335 0.000000 0.000000 0.000000
# 3 -0.003312 -0.011335 0.039005 0.000000 0.000000 0.000000
# 4 0.000000 0.000000 0.000000 -2.483189 0.000000 0.000000
# 5 0.000000 0.000000 0.000000 0.000000 0.058836 0.000000
# 6 0.000000 0.000000 0.000000 0.000000 0.000000 0.042777
#
#
# Mechanical properties :
#
#
# Convention : Reuss Voigt Hill
#
# Bulk Modulus (GPa) = 38.34123 61.26425 49.80274
# Shear Modulus (GPa) = -2.20370 18.03318 7.91474
#
# Velocity S-wave (km/s) = -1.09823 3.14162 2.08131
# Velocity P-wave (km/s) = 4.40187 6.83304 5.74747
#
# Compressibility (1/GPa) = 0.02608158
#
# Stress axis : x y z
#
# Youngs Moduli (GPa) = 82.53747 71.90717 25.63762
#
# Poissons Ratio (x) = 0.34706 0.08491
# Poissons Ratio (y) = 0.39836 0.29060
# Poissons Ratio (z) = 0.27335 0.81506
#
# Static dielectric constant tensor:
#      x y z
#    x 3.550240 0.000000 0.000000 
#    y 0.000000 3.404040 0.000000 
#    z 0.000000 0.000000 2.980580 
# 
# 
# High freq. dielectric constant tensor:
#      x y z
#    x 1.724040 0.000000 0.000000 
#    y 0.000000 1.703250 0.000000 
#    z 0.000000 0.000000 1.659390 
# 
# From -- ./inp_files/2657.got.cif
#   From: 2010.03.12/outbox.cif.g09.slc.cpg/sg47_2_cif.got.tgz:2657.got - 2010.04.14 03:12:58.
