data_PCOD8197497
_publ_section_title
;
Structure prediction by ZEFSAII (Michael W. Deem and Ramdas Pophale) SiO2 
 PCOD8197497
Probable space group: P M M M
;
_chemical_formula_sum "Si O2"
_cell_formula_units_Z 64
_cell_length_a 9.020288
_cell_length_b 20.373544
_cell_length_c 17.728745
_cell_angle_alpha 90.000000
_cell_angle_beta 90.000000
_cell_angle_gamma 90.000000
_cell_volume 3258.104269
_symmetry_space_group_name_H-M "P M M M"
_symmetry_group_IT_number 47
_symmetry_cell_setting 'orthorhombic'
loop_
_space_group_symop_operation_xyz
x,y,z
-x,-y,z
x,-y,-z
-x,y,-z
-x,-y,-z
x,y,-z
-x,y,z
x,-y,z
loop_
_atom_site_type_symbol
_atom_site_label
_atom_site_fract_x
_atom_site_fract_y
_atom_site_fract_z
Si Si1 0.326177 0.424515 0.870009
Si Si2 0.340366 0.424345 0.702673
Si Si3 0.672829 0.799806 0.798882
Si Si4 0.174970 0.893108 0.418392
Si Si5 0.833627 0.357583 0.584188
Si Si6 0.669837 0.232235 0.371105
Si Si7 0.173785 0.927158 0.254536
Si Si8 0.169483 0.702637 0.914994
O O1 0.500000 0.420693 0.889151
O O2 0.270770 0.500000 0.884626
O O3 0.294161 0.398896 0.785023
O O4 0.238352 0.370839 0.918482
O O5 0.500000 0.392131 0.678546
O O6 0.368657 0.500000 0.713180
O O7 0.210432 0.414208 0.642446
O O8 0.500000 0.806905 0.817526
O O9 0.701002 0.766044 0.718218
O O10 0.741860 0.873401 0.796121
O O11 0.745795 0.754458 0.862206
O O12 0.229781 0.923149 0.500000
O O13 0.227971 0.818569 0.414931
O O14 0.232579 0.928713 0.342179
O O15 0.000000 0.895135 0.418270
O O16 0.822517 0.386357 0.500000
O O17 0.712879 0.301651 0.595122
O O18 0.000000 0.332736 0.601498
O O19 0.500000 0.215434 0.388633
O O20 0.000000 0.909897 0.252767
O O21 0.204053 0.000000 0.221284
O O22 0.000000 0.697813 0.887188
O O23 0.178235 0.730469 0.000000
#
# Coordination Sequence:
#
# PCOD8197497 Si02
#       8
#     8   8   8   8   8   8   8   8
#     4   9  19  37  60  85 113 145 181 219 259 310
#     4   9  19  36  55  73  94 124 166 213 258 307
#     4  10  21  37  58  82 108 141 181 225 270 319
#     4   9  17  29  46  71 105 142 179 220 264 311
#     4  11  23  34  45  66  96 129 168 217 270 319
#     4  10  20  33  50  72  97 129 173 219 262 312
#     4   9  18  33  54  80 110 146 186 227 274 325
#     4  11  24  39  57  85 118 147 176 214 261 315
#
# _framework density 19.643325000000001
#
# number of rings (size 3 to 8) (size 9 to 14) (size 15 to 20)
#    0.000    2.250    0.000    3.375    0.000   10.250 
#    0.000    5.000    0.000    0.375    0.000    6.125 
#    0.000    0.000    0.000    0.000    0.000    0.000 
#
# Total GULP energy -793104.526493 kJ/mol
# GULP energy per Si atom -12392.258226 kJ/mol
# Density = 1.959862 g / cm^3
# Si number density = 19.643325 Si / 1000 Ang^3
#
#
#
# Elastic Constant Matrix: (Units=GPa)
#
#
# Indices 1 2 3 4 5 6 
#
# 1 62.5648 36.7966 40.4830 0.0000 0.0000 0.0000
# 2 36.7966 80.1423 36.6028 0.0000 0.0000 0.0000
# 3 40.4830 36.6028 80.0596 0.0000 0.0000 0.0000
# 4 0.0000 0.0000 0.0000 -3.0909 0.0000 0.0000
# 5 0.0000 0.0000 0.0000 0.0000 24.0755 0.0000
# 6 0.0000 0.0000 0.0000 0.0000 0.0000 28.2730
#
#
#
# Elastic Compliance Matrix: (Units=1/GPa)
#
#
# Indices 1 2 3 4 5 6 
#
# 1 0.027160 -0.007833 -0.010152 0.000000 0.000000 0.000000
# 2 -0.007833 0.018030 -0.004282 0.000000 0.000000 0.000000
# 3 -0.010152 -0.004282 0.019582 0.000000 0.000000 0.000000
# 4 0.000000 0.000000 0.000000 -0.323529 0.000000 0.000000
# 5 0.000000 0.000000 0.000000 0.000000 0.041536 0.000000
# 6 0.000000 0.000000 0.000000 0.000000 0.000000 0.035369
#
#
# Mechanical properties :
#
#
# Convention : Reuss Voigt Hill
#
# Bulk Modulus (GPa) = 49.41627 50.05907 49.73767
# Shear Modulus (GPa) = -38.29333 17.11047 -10.59143
#
# Velocity S-wave (km/s) = -4.42003 2.95457 -2.32456
# Velocity P-wave (km/s) = 0.91513 6.09743 4.26270
#
# Compressibility (1/GPa) = 0.02023625
#
# Stress axis : x y z
#
# Youngs Moduli (GPa) = 36.81945 55.46234 51.06708
#
# Poissons Ratio (x) = 0.43446 0.51844
# Poissons Ratio (y) = 0.28842 0.21869
# Poissons Ratio (z) = 0.37380 0.23751
#
# Static dielectric constant tensor:
#      x y z
#    x 3.611090 0.000000 0.000000 
#    y 0.000000 3.491360 0.000000 
#    z 0.000000 0.000000 3.682580 
# 
# 
# High freq. dielectric constant tensor:
#      x y z
#    x 1.762290 0.000000 0.000000 
#    y 0.000000 1.755770 0.000000 
#    z 0.000000 0.000000 1.754540 
# 
# From -- ./inp_files/27020.got.cif
#   From: 2010.03.12/outbox.cif.g09.slc.cpg/sg47_14_cif.got.tgz:27020.got - 2010.04.14 03:12:58.
