data_PCOD8197075
_publ_section_title
;
Structure prediction by ZEFSAII (Michael W. Deem and Ramdas Pophale) SiO2 
 PCOD8197075
Probable space group: P M M M
;
_chemical_formula_sum "Si O2"
_cell_formula_units_Z 48
_cell_length_a 9.337554
_cell_length_b 9.119131
_cell_length_c 30.794771
_cell_angle_alpha 90.000000
_cell_angle_beta 90.000000
_cell_angle_gamma 90.000000
_cell_volume 2622.186396
_symmetry_space_group_name_H-M "P M M M"
_symmetry_group_IT_number 47
_symmetry_cell_setting 'orthorhombic'
loop_
_space_group_symop_operation_xyz
x,y,z
-x,-y,z
x,-y,-z
-x,y,-z
-x,-y,-z
x,y,-z
-x,y,z
x,-y,z
loop_
_atom_site_type_symbol
_atom_site_label
_atom_site_fract_x
_atom_site_fract_y
_atom_site_fract_z
Si Si1 0.333638 0.332997 0.049898
Si Si2 0.166686 0.828165 0.707146
Si Si3 0.669707 0.668056 0.631432
Si Si4 0.670000 0.164317 0.452190
Si Si5 0.167341 0.169603 0.877789
Si Si6 0.170254 0.334555 0.793049
O O1 0.500000 0.308349 0.059505
O O2 0.289985 0.500000 0.060780
O O3 0.243580 0.222233 0.078743
O O4 0.298566 0.297320 0.000000
O O5 0.255967 0.766097 0.667429
O O6 0.225060 0.752369 0.750913
O O7 0.000000 0.792518 0.699577
O O8 0.194351 0.000000 0.711484
O O9 0.500000 0.686938 0.635885
O O10 0.716878 0.500000 0.636867
O O11 0.725444 0.723946 0.584484
O O12 0.725808 0.214043 0.500000
O O13 0.500000 0.163736 0.452508
O O14 0.725917 0.000000 0.441774
O O15 0.229709 0.256992 0.836360
O O16 0.000000 0.199551 0.883615
O O17 0.200536 0.000000 0.870002
O O18 0.229858 0.500000 0.791218
O O19 0.000000 0.331798 0.794004
#
# Coordination Sequence:
#
# PCOD8197075 Si02
#       6
#     8   8   8   8   8   8
#     4   9  19  36  55  74  99 133 171 208 247 293
#     4  10  20  34  53  75  99 130 167 204 245 295
#     4  10  20  32  48  73 103 132 163 202 247 292
#     4   8  14  26  45  68  94 126 163 201 243 292
#     4  10  20  33  51  77 106 132 162 203 247 291
#     4   9  17  31  52  75  99 129 164 202 245 292
#
# _framework density 18.305334999999999
#
# number of rings (size 3 to 8) (size 9 to 14) (size 15 to 20)
#    0.000    2.667    0.000    3.000    0.000    6.333 
#    0.000    5.000    0.000    5.500    0.000    3.500 
#    0.000    0.000    0.000    0.000    0.000    0.000 
#
# Total GULP energy -595172.784149 kJ/mol
# GULP energy per Si atom -12399.433003 kJ/mol
# Density = 1.826367 g / cm^3
# Si number density = 18.305335 Si / 1000 Ang^3
#
#
#
# Elastic Constant Matrix: (Units=GPa)
#
#
# Indices 1 2 3 4 5 6 
#
# 1 26.8834 35.6758 37.4515 0.0000 0.0000 0.0000
# 2 35.6758 118.7367 75.7406 0.0000 0.0000 0.0000
# 3 37.4515 75.7406 144.7961 0.0000 0.0000 0.0000
# 4 0.0000 0.0000 0.0000 43.1761 0.0000 0.0000
# 5 0.0000 0.0000 0.0000 0.0000 26.5282 0.0000
# 6 0.0000 0.0000 0.0000 0.0000 0.0000 24.4384
#
#
#
# Elastic Compliance Matrix: (Units=1/GPa)
#
#
# Indices 1 2 3 4 5 6 
#
# 1 0.071807 -0.014599 -0.010936 0.000000 0.000000 0.000000
# 2 -0.014599 0.015608 -0.004388 0.000000 0.000000 0.000000
# 3 -0.010936 -0.004388 0.012030 0.000000 0.000000 0.000000
# 4 0.000000 0.000000 0.000000 0.023161 0.000000 0.000000
# 5 0.000000 0.000000 0.000000 0.000000 0.037696 0.000000
# 6 0.000000 0.000000 0.000000 0.000000 0.000000 0.040919
#
#
# Mechanical properties :
#
#
# Convention : Reuss Voigt Hill
#
# Bulk Modulus (GPa) = 25.25384 65.35022 45.30203
# Shear Modulus (GPa) = 18.23043 28.26509 23.24776
#
# Velocity S-wave (km/s) = 3.15922 3.93375 3.56757
# Velocity P-wave (km/s) = 5.20898 7.51067 6.46311
#
# Compressibility (1/GPa) = 0.03959794
#
# Stress axis : x y z
#
# Youngs Moduli (GPa) = 13.92622 64.07167 83.12398
#
# Poissons Ratio (x) = 0.93539 0.90907
# Poissons Ratio (y) = 0.20331 0.36475
# Poissons Ratio (z) = 0.15230 0.28115
#
# Static dielectric constant tensor:
#      x y z
#    x 2.940290 0.000000 0.000000 
#    y 0.000000 3.506410 0.000000 
#    z 0.000000 0.000000 3.626510 
# 
# 
# High freq. dielectric constant tensor:
#      x y z
#    x 1.663200 0.000000 0.000000 
#    y 0.000000 1.719640 0.000000 
#    z 0.000000 0.000000 1.726090 
# 
# From -- ./inp_files/2422.got.cif
#   From: 2010.03.12/outbox.cif.g09.slc.cpg/sg47_2_cif.got.tgz:2422.got - 2010.04.14 03:12:58.
