data_PCOD8197503
_publ_section_title
;
Structure prediction by ZEFSAII (Michael W. Deem and Ramdas Pophale) SiO2 
 PCOD8197503
Probable space group: P M M M
;
_chemical_formula_sum "Si O2"
_cell_formula_units_Z 48
_cell_length_a 30.714093
_cell_length_b 9.121889
_cell_length_c 9.454730
_cell_angle_alpha 90.000000
_cell_angle_beta 90.000000
_cell_angle_gamma 90.000000
_cell_volume 2648.936877
_symmetry_space_group_name_H-M "P M M M"
_symmetry_group_IT_number 47
_symmetry_cell_setting 'orthorhombic'
loop_
_space_group_symop_operation_xyz
x,y,z
-x,-y,z
x,-y,-z
-x,y,-z
-x,-y,-z
x,y,-z
-x,y,z
x,-y,z
loop_
_atom_site_type_symbol
_atom_site_label
_atom_site_fract_x
_atom_site_fract_y
_atom_site_fract_z
Si Si1 0.369606 0.664071 0.331732
Si Si2 0.879152 0.169040 0.835924
Si Si3 0.283695 0.829870 0.666325
Si Si4 0.452034 0.164737 0.331780
Si Si5 0.208382 0.328767 0.835240
Si Si6 0.949863 0.333402 0.335888
O O1 0.371738 0.662182 0.500000
O O2 0.364022 0.500000 0.271670
O O3 0.329242 0.762197 0.280781
O O4 0.414400 0.731104 0.268950
O O5 0.837631 0.262577 0.786602
O O6 0.921331 0.220518 0.751968
O O7 0.869609 0.000000 0.801598
O O8 0.888915 0.194620 0.000000
O O9 0.277209 0.805310 0.500000
O O10 0.245430 0.748427 0.746032
O O11 0.283424 0.000000 0.706787
O O12 0.449448 0.164238 0.500000
O O13 0.500000 0.220998 0.283601
O O14 0.444326 0.000000 0.275485
O O15 0.208269 0.500000 0.800435
O O16 0.216826 0.297258 0.000000
O O17 0.938998 0.312907 0.500000
O O18 0.939650 0.500000 0.289018
O O19 0.000000 0.295828 0.305566
#
# Coordination Sequence:
#
# PCOD8197503 Si02
#       6
#     8   8   8   8   8   8
#     4   9  16  25  38  58  86 119 155 197 242 287
#     4  10  21  36  54  77 104 133 166 204 246 293
#     4  10  20  33  50  72  98 129 164 201 244 295
#     4   8  13  21  33  50  76 113 154 193 236 288
#     4  10  21  37  56  76  99 129 165 205 249 295
#     4   9  19  36  56  78 105 137 172 208 246 289
#
# _framework density 18.120474999999999
#
# number of rings (size 3 to 8) (size 9 to 14) (size 15 to 20)
#    0.000    2.667    0.000    3.000    0.000    7.000 
#    0.000    4.167    0.000    0.000    0.000    0.000 
#    0.000    0.667    0.000    7.000    0.000    9.667 
#
# Total GULP energy -595183.259031 kJ/mol
# GULP energy per Si atom -12399.651230 kJ/mol
# Density = 1.807923 g / cm^3
# Si number density = 18.120475 Si / 1000 Ang^3
#
#
#
# Elastic Constant Matrix: (Units=GPa)
#
#
# Indices 1 2 3 4 5 6 
#
# 1 149.9482 87.7538 46.6095 0.0000 0.0000 0.0000
# 2 87.7538 138.8816 40.3206 0.0000 0.0000 0.0000
# 3 46.6095 40.3206 31.5828 0.0000 0.0000 0.0000
# 4 0.0000 0.0000 0.0000 23.6595 0.0000 0.0000
# 5 0.0000 0.0000 0.0000 0.0000 -19.7697 0.0000
# 6 0.0000 0.0000 0.0000 0.0000 0.0000 42.4724
#
#
#
# Elastic Compliance Matrix: (Units=1/GPa)
#
#
# Indices 1 2 3 4 5 6 
#
# 1 0.013883 -0.004487 -0.014760 0.000000 0.000000 0.000000
# 2 -0.004487 0.012891 -0.009836 0.000000 0.000000 0.000000
# 3 -0.014760 -0.009836 0.066002 0.000000 0.000000 0.000000
# 4 0.000000 0.000000 0.000000 0.042266 0.000000 0.000000
# 5 0.000000 0.000000 0.000000 0.000000 -0.050582 0.000000
# 6 0.000000 0.000000 0.000000 0.000000 0.000000 0.023545
#
#
# Mechanical properties :
#
#
# Convention : Reuss Voigt Hill
#
# Bulk Modulus (GPa) = 28.89251 74.42004 51.65627
# Shear Modulus (GPa) = 28.13627 18.98767 23.56197
#
# Velocity S-wave (km/s) = 3.94475 3.24057 3.60987
# Velocity P-wave (km/s) = 6.06031 7.42701 6.77819
#
# Compressibility (1/GPa) = 0.03461104
#
# Stress axis : x y z
#
# Youngs Moduli (GPa) = 72.03231 77.57353 15.15098
#
# Poissons Ratio (x) = 0.34806 0.22363
# Poissons Ratio (y) = 0.32319 0.14902
# Poissons Ratio (z) = 1.06318 0.76301
#
# Static dielectric constant tensor:
#      x y z
#    x 3.544140 0.000000 0.000000 
#    y 0.000000 3.518040 0.000000 
#    z 0.000000 0.000000 2.919040 
# 
# 
# High freq. dielectric constant tensor:
#      x y z
#    x 1.717380 0.000000 0.000000 
#    y 0.000000 1.713270 0.000000 
#    z 0.000000 0.000000 1.653140 
# 
# From -- ./inp_files/2421.got.cif
#   From: 2010.03.12/outbox.cif.g09.slc.cpg/sg47_2_cif.got.tgz:2421.got - 2010.04.14 03:12:58.
