data_PCOD8197293
_publ_section_title
;
Structure prediction by ZEFSAII (Michael W. Deem and Ramdas Pophale) SiO2 
 PCOD8197293
Probable space group: P M M M
;
_chemical_formula_sum "Si O2"
_cell_formula_units_Z 52
_cell_length_a 11.519449
_cell_length_b 9.012012
_cell_length_c 31.380178
_cell_angle_alpha 90.000000
_cell_angle_beta 90.000000
_cell_angle_gamma 90.000000
_cell_volume 3257.683367
_symmetry_space_group_name_H-M "P M M M"
_symmetry_group_IT_number 47
_symmetry_cell_setting 'orthorhombic'
loop_
_space_group_symop_operation_xyz
x,y,z
-x,-y,z
x,-y,-z
-x,y,-z
-x,-y,-z
x,y,-z
-x,y,z
x,-y,z
loop_
_atom_site_type_symbol
_atom_site_label
_atom_site_fract_x
_atom_site_fract_y
_atom_site_fract_z
Si Si1 0.127553 0.323411 0.500000
Si Si2 0.861022 0.333078 0.591231
Si Si3 0.137757 0.666363 0.756384
Si Si4 0.500000 0.675069 0.952399
Si Si5 0.862966 0.167970 0.000000
Si Si6 0.138521 0.833377 0.326331
Si Si7 0.747571 0.676358 0.079017
Si Si8 0.135723 0.173519 0.158104
O O1 0.115563 0.500000 0.500000
O O2 0.189237 0.276966 0.455112
O O3 0.000000 0.250468 0.500000
O O4 0.818973 0.500000 0.600832
O O5 0.812748 0.230468 0.629099
O O6 0.000000 0.328590 0.589151
O O7 0.187750 0.500000 0.761508
O O8 0.187955 0.737635 0.713034
O O9 0.176780 0.767083 0.796029
O O10 0.000000 0.661707 0.753767
O O11 0.500000 0.500000 0.957329
O O12 0.386044 0.726389 0.926875
O O13 0.500000 0.745503 0.000000
O O14 0.823031 0.254430 0.958398
O O15 0.000000 0.163721 0.000000
O O16 0.813370 0.000000 0.000000
O O17 0.000000 0.828523 0.326355
O O18 0.184641 0.000000 0.321175
O O19 0.762542 0.500000 0.077910
O O20 0.790349 0.738382 0.123698
O O21 0.000000 0.205383 0.150348
O O22 0.163230 0.000000 0.155162
#
# Coordination Sequence:
#
# PCOD8197293 Si02
#       8
#     4   8   8   4   4   8   8   8
#     4   7  10  16  25  35  47  67  99 141 187 230
#     4   8  12  18  27  37  50  72 105 144 185 232
#     4   9  16  26  40  56  73  97 130 161 191 237
#     4   9  18  36  56  74  94 116 144 182 216 235
#     4  11  23  36  49  70 100 125 144 173 212 247
#     4   9  15  21  29  43  63  86 112 146 191 238
#     4  11  21  35  55  73  91 117 149 178 206 245
#     4  10  20  33  47  66  94 119 137 167 212 254
#
# _framework density 15.962263
#
# number of rings (size 3 to 8) (size 9 to 14) (size 15 to 20)
#    0.000    2.692    0.769    3.462    0.000    7.077 
#    0.000    2.308    0.000    2.308    0.000    0.000 
#    0.000    0.000    0.000    0.000    0.000    0.000 
#
# Total GULP energy -644456.821541 kJ/mol
# GULP energy per Si atom -12393.400414 kJ/mol
# Density = 1.592593 g / cm^3
# Si number density = 15.962263 Si / 1000 Ang^3
#
#
#
# Elastic Constant Matrix: (Units=GPa)
#
#
# Indices 1 2 3 4 5 6 
#
# 1 36.8613 24.2115 30.9618 0.0000 0.0000 0.0000
# 2 24.2115 98.6871 58.0306 0.0000 0.0000 0.0000
# 3 30.9618 58.0306 152.4237 0.0000 0.0000 0.0000
# 4 0.0000 0.0000 0.0000 26.1831 0.0000 0.0000
# 5 0.0000 0.0000 0.0000 0.0000 -33.6518 0.0000
# 6 0.0000 0.0000 0.0000 0.0000 0.0000 7.5652
#
#
#
# Elastic Compliance Matrix: (Units=1/GPa)
#
#
# Indices 1 2 3 4 5 6 
#
# 1 0.035018 -0.005680 -0.004951 0.000000 0.000000 0.000000
# 2 -0.005680 0.013977 -0.004168 0.000000 0.000000 0.000000
# 3 -0.004951 -0.004168 0.009153 0.000000 0.000000 0.000000
# 4 0.000000 0.000000 0.000000 0.038193 0.000000 0.000000
# 5 0.000000 0.000000 0.000000 0.000000 -0.029716 0.000000
# 6 0.000000 0.000000 0.000000 0.000000 0.000000 0.132185
#
#
# Mechanical properties :
#
#
# Convention : Reuss Voigt Hill
#
# Bulk Modulus (GPa) = 35.02453 57.15331 46.08892
# Shear Modulus (GPa) = 21.01523 11.67053 16.34288
#
# Velocity S-wave (km/s) = 3.63238 2.70688 3.20323
# Velocity P-wave (km/s) = 6.29142 6.75667 6.52819
#
# Compressibility (1/GPa) = 0.02855142
#
# Stress axis : x y z
#
# Youngs Moduli (GPa) = 28.55691 71.54504 109.25412
#
# Poissons Ratio (x) = 0.40638 0.54088
# Poissons Ratio (y) = 0.16220 0.45533
# Poissons Ratio (z) = 0.14138 0.29817
#
# Static dielectric constant tensor:
#      x y z
#    x 2.497820 0.000000 0.000000 
#    y 0.000000 3.118850 0.000000 
#    z 0.000000 0.000000 3.499310 
# 
# 
# High freq. dielectric constant tensor:
#      x y z
#    x 1.527630 0.000000 0.000000 
#    y 0.000000 1.616900 0.000000 
#    z 0.000000 0.000000 1.635660 
# 
# From -- ./inp_files/34549.got.cif
#   From: 2010.03.12/outbox.cif.g09.slc.cpg/sg47_18_cif.got.tgz:34549.got - 2010.04.14 03:12:58.
