data_PCOD8197775
_publ_section_title
;
Structure prediction by ZEFSAII (Michael W. Deem and Ramdas Pophale) SiO2 
 PCOD8197775
Probable space group: P M M M
;
_chemical_formula_sum "Si O2"
_cell_formula_units_Z 52
_cell_length_a 14.161111
_cell_length_b 23.131561
_cell_length_c 8.937423
_cell_angle_alpha 90.000000
_cell_angle_beta 90.000000
_cell_angle_gamma 90.000000
_cell_volume 2927.619166
_symmetry_space_group_name_H-M "P M M M"
_symmetry_group_IT_number 47
_symmetry_cell_setting 'orthorhombic'
loop_
_space_group_symop_operation_xyz
x,y,z
-x,-y,z
x,-y,-z
-x,y,-z
-x,-y,-z
x,y,-z
-x,y,z
x,-y,z
loop_
_atom_site_type_symbol
_atom_site_label
_atom_site_fract_x
_atom_site_fract_y
_atom_site_fract_z
Si Si1 0.784000 0.720230 0.323560
Si Si2 0.606674 0.760954 0.174768
Si Si3 0.888046 0.384532 0.171315
Si Si4 0.222774 0.065241 0.172378
Si Si5 0.393612 0.883519 0.673288
Si Si6 0.891439 0.163584 0.325518
Si Si7 0.887667 0.500000 0.669001
O O1 0.777983 0.713342 0.500000
O O2 0.678910 0.717148 0.254352
O O3 0.845653 0.668749 0.259900
O O4 0.832645 0.780348 0.275870
O O5 0.500000 0.739411 0.206415
O O6 0.622789 0.824097 0.241109
O O7 0.628652 0.763272 0.000000
O O8 0.849804 0.443557 0.245071
O O9 0.000000 0.380592 0.184537
O O10 0.854566 0.383036 0.000000
O O11 0.321660 0.069915 0.260713
O O12 0.143924 0.108002 0.235898
O O13 0.185088 0.000000 0.192530
O O14 0.241424 0.080109 0.000000
O O15 0.370937 0.872211 0.500000
O O16 0.500000 0.906875 0.695792
O O17 0.877654 0.150883 0.500000
O O18 0.000000 0.174970 0.284726
O O19 0.848094 0.500000 0.500000
O O20 0.000000 0.500000 0.668629
#
# Coordination Sequence:
#
# PCOD8197775 Si02
#       7
#     8   8   8   8   8   8   4
#     4  11  21  34  55  82 110 141 179 220 264 316
#     4  10  20  34  54  80 109 139 171 211 262 318
#     4  10  20  33  51  78 113 152 190 226 267 315
#     4  11  24  39  55  76 102 134 173 216 265 322
#     4  10  20  35  56  80 104 132 167 208 259 319
#     4  10  22  39  57  77 102 135 175 219 266 315
#     4   9  17  31  51  75 108 149 190 231 271 311
#
# _framework density 17.761873999999999
#
# number of rings (size 3 to 8) (size 9 to 14) (size 15 to 20)
#    0.000    1.769    1.538    3.000    0.000    7.077 
#    0.000    3.077    0.000    0.000    0.000    0.538 
#    0.000    4.308    0.000    0.000    0.000    0.000 
#
# Total GULP energy -644968.557721 kJ/mol
# GULP energy per Si atom -12403.241495 kJ/mol
# Density = 1.772145 g / cm^3
# Si number density = 17.761874 Si / 1000 Ang^3
#
#
#
# Elastic Constant Matrix: (Units=GPa)
#
#
# Indices 1 2 3 4 5 6 
#
# 1 80.8158 32.6018 48.3546 0.0000 0.0000 0.0000
# 2 32.6018 95.6013 58.0866 0.0000 0.0000 0.0000
# 3 48.3546 58.0866 114.8623 0.0000 0.0000 0.0000
# 4 0.0000 0.0000 0.0000 32.8769 0.0000 0.0000
# 5 0.0000 0.0000 0.0000 0.0000 29.7754 0.0000
# 6 0.0000 0.0000 0.0000 0.0000 0.0000 16.2408
#
#
#
# Elastic Compliance Matrix: (Units=1/GPa)
#
#
# Indices 1 2 3 4 5 6 
#
# 1 0.016819 -0.002069 -0.006034 0.000000 0.000000 0.000000
# 2 -0.002069 0.015354 -0.006894 0.000000 0.000000 0.000000
# 3 -0.006034 -0.006894 0.014732 0.000000 0.000000 0.000000
# 4 0.000000 0.000000 0.000000 0.030416 0.000000 0.000000
# 5 0.000000 0.000000 0.000000 0.000000 0.033585 0.000000
# 6 0.000000 0.000000 0.000000 0.000000 0.000000 0.061573
#
#
# Mechanical properties :
#
#
# Convention : Reuss Voigt Hill
#
# Bulk Modulus (GPa) = 59.13041 63.26283 61.19662
# Shear Modulus (GPa) = 24.02561 25.92771 24.97666
#
# Velocity S-wave (km/s) = 3.68183 3.82480 3.75399
# Velocity P-wave (km/s) = 7.17199 7.42967 7.30196
#
# Compressibility (1/GPa) = 0.01691177
#
# Stress axis : x y z
#
# Youngs Moduli (GPa) = 59.45697 65.12827 67.87789
#
# Poissons Ratio (x) = 0.13478 0.40957
# Poissons Ratio (y) = 0.12304 0.46792
# Poissons Ratio (z) = 0.35876 0.44897
#
# Static dielectric constant tensor:
#      x y z
#    x 3.336990 0.000000 0.000000 
#    y 0.000000 3.170270 0.000000 
#    z 0.000000 0.000000 3.479290 
# 
# 
# High freq. dielectric constant tensor:
#      x y z
#    x 1.677850 0.000000 0.000000 
#    y 0.000000 1.671040 0.000000 
#    z 0.000000 0.000000 1.705340 
# 
# From -- ./inp_files/6933.got.cif
#   From: 2010.03.12/outbox.cif.g09.slc.cpg/sg47_4_cif.got.tgz:6933.got - 2010.04.14 03:12:58.
