data_PCOD8197760
_publ_section_title
;
Structure prediction by ZEFSAII (Michael W. Deem and Ramdas Pophale) SiO2 
 PCOD8197760
Probable space group: P M M M
;
_chemical_formula_sum "Si O2"
_cell_formula_units_Z 52
_cell_length_a 16.050533
_cell_length_b 17.394554
_cell_length_c 9.181557
_cell_angle_alpha 90.000000
_cell_angle_beta 90.000000
_cell_angle_gamma 90.000000
_cell_volume 2563.416004
_symmetry_space_group_name_H-M "P M M M"
_symmetry_group_IT_number 47
_symmetry_cell_setting 'orthorhombic'
loop_
_space_group_symop_operation_xyz
x,y,z
-x,-y,z
x,-y,-z
-x,y,-z
-x,-y,-z
x,y,-z
-x,y,z
x,-y,z
loop_
_atom_site_type_symbol
_atom_site_label
_atom_site_fract_x
_atom_site_fract_y
_atom_site_fract_z
Si Si1 0.337723 0.908338 0.334515
Si Si2 0.500000 0.090075 0.830051
Si Si3 0.660277 0.414749 0.164362
Si Si4 0.093068 0.763874 0.166224
Si Si5 0.406819 0.740935 0.164543
Si Si6 0.748693 0.705289 0.328445
Si Si7 0.823474 0.085128 0.164444
O O1 0.345264 0.879239 0.500000
O O2 0.414927 0.872824 0.239054
O O3 0.249178 0.883749 0.269574
O O4 0.345555 0.000000 0.325570
O O5 0.500000 0.000000 0.793998
O O6 0.500000 0.106482 0.000000
O O7 0.631782 0.500000 0.215977
O O8 0.584718 0.352869 0.171116
O O9 0.732503 0.381577 0.270925
O O10 0.696000 0.418793 0.000000
O O11 0.160417 0.726701 0.271384
O O12 0.099523 0.856663 0.177831
O O13 0.000000 0.740172 0.215447
O O14 0.109932 0.737687 0.000000
O O15 0.500000 0.773837 0.206636
O O16 0.327250 0.762349 0.270295
O O17 0.383870 0.766329 0.000000
O O18 0.748676 0.708928 0.500000
O O19 0.853966 0.000000 0.210780
O O20 0.787661 0.083617 0.000000
#
# Coordination Sequence:
#
# PCOD8197760 Si02
#       7
#     8   4   8   8   8   8   8
#     4   9  16  26  42  65  95 129 160 193 238 293
#     4   9  15  23  39  63  91 125 165 203 236 277
#     4   8  15  29  50  77 111 151 191 228 267 313
#     4  10  21  38  60  81 102 134 176 219 266 328
#     4   8  15  29  50  77 111 151 191 227 264 311
#     4  10  20  33  51  77 112 147 181 225 268 315
#     4   9  18  33  54  80 106 129 158 206 268 327
#
# _framework density 20.285430999999999
#
# number of rings (size 3 to 8) (size 9 to 14) (size 15 to 20)
#    0.923    2.077    0.000    1.615    0.000    4.923 
#    0.000    3.077    1.692    1.385    0.000    6.462 
#    0.000    0.000    0.000    0.000    0.000    0.000 
#
# Total GULP energy -644338.677199 kJ/mol
# GULP energy per Si atom -12391.128408 kJ/mol
# Density = 2.023926 g / cm^3
# Si number density = 20.285431 Si / 1000 Ang^3
#
#
#
# Elastic Constant Matrix: (Units=GPa)
#
#
# Indices 1 2 3 4 5 6 
#
# 1 120.6617 23.6052 70.4742 0.0000 0.0000 0.0000
# 2 23.6052 31.1378 7.7554 0.0000 0.0000 0.0000
# 3 70.4742 7.7554 125.5063 0.0000 0.0000 0.0000
# 4 0.0000 0.0000 0.0000 14.5342 0.0000 0.0000
# 5 0.0000 0.0000 0.0000 0.0000 18.8307 0.0000
# 6 0.0000 0.0000 0.0000 0.0000 0.0000 18.8036
#
#
#
# Elastic Compliance Matrix: (Units=1/GPa)
#
#
# Indices 1 2 3 4 5 6 
#
# 1 0.014492 -0.009100 -0.007575 0.000000 0.000000 0.000000
# 2 -0.009100 0.038331 0.002741 0.000000 0.000000 0.000000
# 3 -0.007575 0.002741 0.012052 0.000000 0.000000 0.000000
# 4 0.000000 0.000000 0.000000 0.068803 0.000000 0.000000
# 5 0.000000 0.000000 0.000000 0.000000 0.053105 0.000000
# 6 0.000000 0.000000 0.000000 0.000000 0.000000 0.053181
#
#
# Mechanical properties :
#
#
# Convention : Reuss Voigt Hill
#
# Bulk Modulus (GPa) = 27.02169 53.44172 40.23171
# Shear Modulus (GPa) = 17.84639 22.13177 19.98908
#
# Velocity S-wave (km/s) = 2.96930 3.30664 3.14250
# Velocity P-wave (km/s) = 5.01052 6.40161 5.74830
#
# Compressibility (1/GPa) = 0.03700731
#
# Stress axis : x y z
#
# Youngs Moduli (GPa) = 69.00183 26.08855 82.97308
#
# Poissons Ratio (x) = 0.23740 0.62856
# Poissons Ratio (y) = 0.62790 -0.22744
# Poissons Ratio (z) = 0.52272 -0.07151
#
# Static dielectric constant tensor:
#      x y z
#    x 3.427510 0.000000 0.000000 
#    y 0.000000 3.882440 0.000000 
#    z 0.000000 0.000000 3.526400 
# 
# 
# High freq. dielectric constant tensor:
#      x y z
#    x 1.769270 0.000000 0.000000 
#    y 0.000000 1.806120 0.000000 
#    z 0.000000 0.000000 1.778530 
# 
# From -- ./inp_files/7084.got.cif
#   From: 2010.03.12/outbox.cif.g09.slc.cpg/sg47_4_cif.got.tgz:7084.got - 2010.04.14 03:12:58.
