data_PCOD8197551
_publ_section_title
;
Structure prediction by ZEFSAII (Michael W. Deem and Ramdas Pophale) SiO2 
 PCOD8197551
Probable space group: P M M M
;
_chemical_formula_sum "Si O2"
_cell_formula_units_Z 64
_cell_length_a 9.318767
_cell_length_b 14.400159
_cell_length_c 25.439126
_cell_angle_alpha 90.000000
_cell_angle_beta 90.000000
_cell_angle_gamma 90.000000
_cell_volume 3413.720238
_symmetry_space_group_name_H-M "P M M M"
_symmetry_group_IT_number 47
_symmetry_cell_setting 'orthorhombic'
loop_
_space_group_symop_operation_xyz
x,y,z
-x,-y,z
x,-y,-z
-x,y,-z
-x,-y,-z
x,y,-z
-x,y,z
x,-y,z
loop_
_atom_site_type_symbol
_atom_site_label
_atom_site_fract_x
_atom_site_fract_y
_atom_site_fract_z
Si Si1 0.660711 0.397729 0.437561
Si Si2 0.334426 0.766304 0.941075
Si Si3 0.833708 0.394475 0.895122
Si Si4 0.666565 0.107924 0.641060
Si Si5 0.335133 0.602989 0.211223
Si Si6 0.332278 0.793122 0.255808
Si Si7 0.670815 0.104328 0.847394
Si Si8 0.834070 0.222246 0.561844
O O1 0.661045 0.397811 0.500000
O O2 0.500000 0.375820 0.416897
O O3 0.709489 0.500000 0.417327
O O4 0.768388 0.319188 0.416545
O O5 0.500000 0.742335 0.929420
O O6 0.243718 0.671910 0.936649
O O7 0.276330 0.842402 0.899729
O O8 0.315055 0.806120 0.000000
O O9 0.812233 0.500000 0.914453
O O10 0.765088 0.379486 0.838214
O O11 0.000000 0.368182 0.891252
O O12 0.500000 0.131267 0.631165
O O13 0.732218 0.163821 0.690902
O O14 0.754824 0.136714 0.589551
O O15 0.690028 0.000000 0.652132
O O16 0.500000 0.613671 0.192413
O O17 0.308577 0.500000 0.235511
O O18 0.299747 0.682352 0.254219
O O19 0.500000 0.814492 0.256715
O O20 0.267382 0.843084 0.204059
O O21 0.500000 0.102093 0.846140
O O22 0.733162 0.000000 0.848578
O O23 0.808877 0.210582 0.500000
O O24 0.000000 0.221306 0.576749
#
# Coordination Sequence:
#
# PCOD8197551 Si02
#       8
#     8   8   8   8   8   8   8   8
#     4   8  14  27  50  79 108 138 174 216 258 301
#     4  10  20  33  50  75 105 136 173 217 263 311
#     4  10  20  33  50  73 102 137 175 213 256 309
#     4  10  21  36  55  79 105 136 178 228 276 320
#     4   9  16  29  53  81 107 135 168 208 255 309
#     4   9  16  30  53  80 106 132 167 212 263 314
#     4   9  16  28  50  78 104 131 166 212 263 309
#     4  10  21  36  54  77 108 147 184 218 264 322
#
# _framework density 18.747875000000001
#
# number of rings (size 3 to 8) (size 9 to 14) (size 15 to 20)
#    0.000    2.625    1.250    1.500    0.000    4.500 
#    0.000    6.250    0.000    2.625    0.000    0.875 
#    0.000    0.000    0.000    0.000    0.000    0.000 
#
# Total GULP energy -793432.796581 kJ/mol
# GULP energy per Si atom -12397.387447 kJ/mol
# Density = 1.870520 g / cm^3
# Si number density = 18.747875 Si / 1000 Ang^3
#
#
#
# Elastic Constant Matrix: (Units=GPa)
#
#
# Indices 1 2 3 4 5 6 
#
# 1 66.4276 44.7242 37.7686 0.0000 0.0000 0.0000
# 2 44.7242 131.5287 56.5183 0.0000 0.0000 0.0000
# 3 37.7686 56.5183 81.2243 0.0000 0.0000 0.0000
# 4 0.0000 0.0000 0.0000 29.3572 0.0000 0.0000
# 5 0.0000 0.0000 0.0000 0.0000 10.8586 0.0000
# 6 0.0000 0.0000 0.0000 0.0000 0.0000 14.8903
#
#
#
# Elastic Compliance Matrix: (Units=1/GPa)
#
#
# Indices 1 2 3 4 5 6 
#
# 1 0.022136 -0.004428 -0.007212 0.000000 0.000000 0.000000
# 2 -0.004428 0.011732 -0.006104 0.000000 0.000000 0.000000
# 3 -0.007212 -0.006104 0.019912 0.000000 0.000000 0.000000
# 4 0.000000 0.000000 0.000000 0.034063 0.000000 0.000000
# 5 0.000000 0.000000 0.000000 0.000000 0.092093 0.000000
# 6 0.000000 0.000000 0.000000 0.000000 0.000000 0.067158
#
#
# Mechanical properties :
#
#
# Convention : Reuss Voigt Hill
#
# Bulk Modulus (GPa) = 54.66930 61.91143 58.29036
# Shear Modulus (GPa) = 17.32031 20.36586 18.84308
#
# Velocity S-wave (km/s) = 3.04279 3.29949 3.17374
# Velocity P-wave (km/s) = 6.44735 6.90002 6.67753
#
# Compressibility (1/GPa) = 0.01829180
#
# Stress axis : x y z
#
# Youngs Moduli (GPa) = 45.17616 85.24025 50.21979
#
# Poissons Ratio (x) = 0.37744 0.36217
# Poissons Ratio (y) = 0.20004 0.30655
# Poissons Ratio (z) = 0.32580 0.52032
#
# Static dielectric constant tensor:
#      x y z
#    x 3.184200 0.000000 0.000000 
#    y 0.000000 3.707110 0.000000 
#    z 0.000000 0.000000 3.284950 
# 
# 
# High freq. dielectric constant tensor:
#      x y z
#    x 1.691070 0.000000 0.000000 
#    y 0.000000 1.739570 0.000000 
#    z 0.000000 0.000000 1.709670 
# 
# From -- ./inp_files/25614.got.cif
#   From: 2010.03.12/outbox.cif.g09.slc.cpg/sg47_13_cif.got.tgz:25614.got - 2010.04.14 03:12:58.
