data_PCOD8197547
_publ_section_title
;
Structure prediction by ZEFSAII (Michael W. Deem and Ramdas Pophale) SiO2 
 PCOD8197547
Probable space group: P M M M
;
_chemical_formula_sum "Si O2"
_cell_formula_units_Z 64
_cell_length_a 9.267581
_cell_length_b 14.458386
_cell_length_c 25.736435
_cell_angle_alpha 90.000000
_cell_angle_beta 90.000000
_cell_angle_gamma 90.000000
_cell_volume 3448.534650
_symmetry_space_group_name_H-M "P M M M"
_symmetry_group_IT_number 47
_symmetry_cell_setting 'orthorhombic'
loop_
_space_group_symop_operation_xyz
x,y,z
-x,-y,z
x,-y,-z
-x,y,-z
-x,-y,-z
x,y,-z
-x,y,z
x,-y,z
loop_
_atom_site_type_symbol
_atom_site_label
_atom_site_fract_x
_atom_site_fract_y
_atom_site_fract_z
Si Si1 0.171956 0.202998 0.940574
Si Si2 0.666013 0.602531 0.708387
Si Si3 0.832433 0.395128 0.602610
Si Si4 0.669017 0.791943 0.752549
Si Si5 0.665966 0.893352 0.853027
Si Si6 0.838698 0.597611 0.061644
Si Si7 0.671783 0.895942 0.349039
Si Si8 0.666521 0.767552 0.558198
O O1 0.244242 0.125703 0.905041
O O2 0.232459 0.304642 0.921268
O O3 0.000000 0.199563 0.934993
O O4 0.217195 0.183018 0.000000
O O5 0.500000 0.613219 0.690262
O O6 0.693267 0.500000 0.732443
O O7 0.765447 0.619611 0.659165
O O8 0.703140 0.681828 0.750558
O O9 0.808045 0.500000 0.583250
O O10 0.755811 0.327281 0.562201
O O11 0.000000 0.370498 0.606036
O O12 0.500000 0.812275 0.753617
O O13 0.734205 0.834150 0.805453
O O14 0.733546 0.842891 0.701650
O O15 0.500000 0.866871 0.863588
O O16 0.681945 0.000000 0.837843
O O17 0.759629 0.500000 0.078865
O O18 0.000000 0.594057 0.084387
O O19 0.847284 0.601424 0.000000
O O20 0.500000 0.898185 0.348019
O O21 0.725477 0.843003 0.400804
O O22 0.734259 0.000000 0.349918
O O23 0.686411 0.807424 0.500000
O O24 0.500000 0.744362 0.569799
#
# Coordination Sequence:
#
# PCOD8197547 Si02
#       8
#     8   8   8   8   8   8   8   8
#     4   9  18  33  53  76 102 134 171 210 253 300
#     4   9  16  29  53  80 103 129 164 206 251 301
#     4  10  20  33  50  73 102 136 171 206 249 304
#     4   9  16  30  52  76 100 128 164 203 245 297
#     4  10  21  35  51  73 101 134 172 213 255 300
#     4   7  10  20  42  70  95 120 155 196 234 279
#     4   9  16  28  50  77 100 125 162 209 256 299
#     4  10  20  33  50  75 104 132 168 215 260 301
#
# _framework density 18.558606999999999
#
# number of rings (size 3 to 8) (size 9 to 14) (size 15 to 20)
#    0.000    2.875    1.250    1.875    0.000    3.750 
#    0.000    5.000    0.000    1.500    0.000    2.625 
#    0.000    0.000    0.000    0.000    0.000    0.000 
#
# Total GULP energy -793034.540902 kJ/mol
# GULP energy per Si atom -12391.164702 kJ/mol
# Density = 1.851637 g / cm^3
# Si number density = 18.558607 Si / 1000 Ang^3
#
#
#
# Elastic Constant Matrix: (Units=GPa)
#
#
# Indices 1 2 3 4 5 6 
#
# 1 36.3585 28.5923 27.1620 0.0000 0.0000 0.0000
# 2 28.5923 124.5371 60.8705 0.0000 0.0000 0.0000
# 3 27.1620 60.8705 110.6577 0.0000 0.0000 0.0000
# 4 0.0000 0.0000 0.0000 28.9241 0.0000 0.0000
# 5 0.0000 0.0000 0.0000 0.0000 7.7306 0.0000
# 6 0.0000 0.0000 0.0000 0.0000 0.0000 15.8026
#
#
#
# Elastic Compliance Matrix: (Units=1/GPa)
#
#
# Indices 1 2 3 4 5 6 
#
# 1 0.036173 -0.005423 -0.005896 0.000000 0.000000 0.000000
# 2 -0.005423 0.011796 -0.005157 0.000000 0.000000 0.000000
# 3 -0.005896 -0.005157 0.013321 0.000000 0.000000 0.000000
# 4 0.000000 0.000000 0.000000 0.034573 0.000000 0.000000
# 5 0.000000 0.000000 0.000000 0.000000 0.129356 0.000000
# 6 0.000000 0.000000 0.000000 0.000000 0.000000 0.063281
#
#
# Mechanical properties :
#
#
# Convention : Reuss Voigt Hill
#
# Bulk Modulus (GPa) = 35.28951 56.08921 45.68936
# Shear Modulus (GPa) = 15.11037 20.82002 17.96520
#
# Velocity S-wave (km/s) = 2.85651 3.35304 3.11469
# Velocity P-wave (km/s) = 5.47138 6.72896 6.13249
#
# Compressibility (1/GPa) = 0.02833703
#
# Stress axis : x y z
#
# Youngs Moduli (GPa) = 27.64472 84.77724 75.06929
#
# Poissons Ratio (x) = 0.45977 0.44260
# Poissons Ratio (y) = 0.14992 0.38716
# Poissons Ratio (z) = 0.16299 0.43723
#
# Static dielectric constant tensor:
#      x y z
#    x 2.984020 0.000000 0.000000 
#    y 0.000000 3.819880 0.000000 
#    z 0.000000 0.000000 3.241880 
# 
# 
# High freq. dielectric constant tensor:
#      x y z
#    x 1.668190 0.000000 0.000000 
#    y 0.000000 1.738060 0.000000 
#    z 0.000000 0.000000 1.699930 
# 
# From -- ./inp_files/32101.got.cif
#   From: 2010.03.12/outbox.cif.g09.slc.cpg/sg47_17_cif.got.tgz:32101.got - 2010.04.14 03:12:58.
