data_PCOD8197751
_publ_section_title
;
Structure prediction by ZEFSAII (Michael W. Deem and Ramdas Pophale) SiO2 
 PCOD8197751
Probable space group: P M M M
;
_chemical_formula_sum "Si O2"
_cell_formula_units_Z 40
_cell_length_a 8.936081
_cell_length_b 19.893083
_cell_length_c 12.172643
_cell_angle_alpha 90.000000
_cell_angle_beta 90.000000
_cell_angle_gamma 90.000000
_cell_volume 2163.884503
_symmetry_space_group_name_H-M "P M M M"
_symmetry_group_IT_number 47
_symmetry_cell_setting 'orthorhombic'
loop_
_space_group_symop_operation_xyz
x,y,z
-x,-y,z
x,-y,-z
-x,y,-z
-x,-y,-z
x,y,-z
-x,y,z
x,-y,z
loop_
_atom_site_type_symbol
_atom_site_label
_atom_site_fract_x
_atom_site_fract_y
_atom_site_fract_z
Si Si1 0.331053 0.394754 0.500000
Si Si2 0.324880 0.500000 0.871183
Si Si3 0.328628 0.865924 0.870045
Si Si4 0.175620 0.605959 0.278602
Si Si5 0.831022 0.000000 0.130746
Si Si6 0.668385 0.764827 0.500000
Si Si7 0.174958 0.237521 0.720186
O O1 0.500000 0.423060 0.500000
O O2 0.245438 0.421275 0.607619
O O3 0.330194 0.314994 0.500000
O O4 0.500000 0.500000 0.844320
O O5 0.250445 0.433216 0.821756
O O6 0.292791 0.500000 0.000000
O O7 0.500000 0.865552 0.831829
O O8 0.253345 0.934084 0.824707
O O9 0.244508 0.801543 0.822332
O O10 0.313684 0.861268 0.000000
O O11 0.211289 0.684288 0.261660
O O12 0.000000 0.591389 0.281277
O O13 0.000000 0.000000 0.176151
O O14 0.829114 0.000000 0.000000
O O15 0.500000 0.793313 0.500000
O O16 0.753179 0.790849 0.608052
O O17 0.000000 0.223976 0.714034
#
# Coordination Sequence:
#
# PCOD8197751 Si02
#       7
#     4   4   8   8   4   4   8
#     4   9  17  32  56  83 108 132 165 212 263 311
#     4  11  25  42  57  74 101 139 179 217 262 317
#     4  10  20  33  51  77 108 141 177 217 261 309
#     4  10  21  37  57  80 106 136 173 217 263 312
#     4   9  17  31  51  74 103 138 175 217 264 311
#     4   9  17  31  52  77 106 139 172 210 259 310
#     4  10  20  34  54  80 108 138 174 216 260 308
#
# _framework density 18.485274
#
# number of rings (size 3 to 8) (size 9 to 14) (size 15 to 20)
#    0.000    2.200    0.000    3.000    0.000    9.200 
#    0.000    6.000    0.000    0.600    0.000    4.200 
#    0.000    0.000    0.000    0.000    0.000    0.000 
#
# Total GULP energy -496114.894834 kJ/mol
# GULP energy per Si atom -12402.872371 kJ/mol
# Density = 1.844320 g / cm^3
# Si number density = 18.485274 Si / 1000 Ang^3
#
#
#
# Elastic Constant Matrix: (Units=GPa)
#
#
# Indices 1 2 3 4 5 6 
#
# 1 157.4072 65.3881 61.6335 0.0000 0.0000 0.0000
# 2 65.3881 91.4990 47.5335 0.0000 0.0000 0.0000
# 3 61.6335 47.5335 83.4183 0.0000 0.0000 0.0000
# 4 0.0000 0.0000 0.0000 4.6162 0.0000 0.0000
# 5 0.0000 0.0000 0.0000 0.0000 34.5401 0.0000
# 6 0.0000 0.0000 0.0000 0.0000 0.0000 31.5874
#
#
#
# Elastic Compliance Matrix: (Units=1/GPa)
#
#
# Indices 1 2 3 4 5 6 
#
# 1 0.010241 -0.004812 -0.004824 0.000000 0.000000 0.000000
# 2 -0.004812 0.017786 -0.006579 0.000000 0.000000 0.000000
# 3 -0.004824 -0.006579 0.019301 0.000000 0.000000 0.000000
# 4 0.000000 0.000000 0.000000 0.216628 0.000000 0.000000
# 5 0.000000 0.000000 0.000000 0.000000 0.028952 0.000000
# 6 0.000000 0.000000 0.000000 0.000000 0.000000 0.031658
#
#
# Mechanical properties :
#
#
# Convention : Reuss Voigt Hill
#
# Bulk Modulus (GPa) = 67.13057 75.71499 71.42278
# Shear Modulus (GPa) = 13.81352 24.66671 19.24011
#
# Velocity S-wave (km/s) = 2.73659 3.65690 3.22970
# Velocity P-wave (km/s) = 6.81027 7.67327 7.25462
#
# Compressibility (1/GPa) = 0.01489634
#
# Stress axis : x y z
#
# Youngs Moduli (GPa) = 97.64638 56.22394 51.80989
#
# Poissons Ratio (x) = 0.27057 0.24995
# Poissons Ratio (y) = 0.46990 0.34087
# Poissons Ratio (z) = 0.47109 0.36991
#
# Static dielectric constant tensor:
#      x y z
#    x 3.635520 0.000000 0.000000 
#    y 0.000000 3.284500 0.000000 
#    z 0.000000 0.000000 3.294180 
# 
# 
# High freq. dielectric constant tensor:
#      x y z
#    x 1.738640 0.000000 0.000000 
#    y 0.000000 1.705770 0.000000 
#    z 0.000000 0.000000 1.702830 
# 
# From -- ./inp_files/4183.got.cif
#   From: 2010.03.12/outbox.cif.g09.slc.cpg/sg47_3_cif.got.tgz:4183.got - 2010.04.14 03:12:58.
