data_PCOD8197851
_publ_section_title
;
Structure prediction by ZEFSAII (Michael W. Deem and Ramdas Pophale) SiO2 
 PCOD8197851
Probable space group: P M M M
;
_chemical_formula_sum "Si O2"
_cell_formula_units_Z 44
_cell_length_a 7.943386
_cell_length_b 14.204537
_cell_length_c 19.203214
_cell_angle_alpha 90.000000
_cell_angle_beta 90.000000
_cell_angle_gamma 90.000000
_cell_volume 2166.739353
_symmetry_space_group_name_H-M "P M M M"
_symmetry_group_IT_number 47
_symmetry_cell_setting 'orthorhombic'
loop_
_space_group_symop_operation_xyz
x,y,z
-x,-y,z
x,-y,-z
-x,y,-z
-x,-y,-z
x,y,-z
-x,y,z
x,-y,z
loop_
_atom_site_type_symbol
_atom_site_label
_atom_site_fract_x
_atom_site_fract_y
_atom_site_fract_z
Si Si1 0.306044 0.395818 0.281623
Si Si2 0.808262 0.395262 0.869424
Si Si3 0.691259 0.792711 0.077598
Si Si4 0.690593 0.204144 0.657042
Si Si5 0.191374 0.893262 0.210061
Si Si6 0.000000 0.892185 0.582247
O O1 0.500000 0.389354 0.258572
O O2 0.264542 0.500000 0.312527
O O3 0.196583 0.375570 0.213253
O O4 0.266959 0.315930 0.339244
O O5 0.737400 0.500000 0.885286
O O6 0.699972 0.319701 0.911540
O O7 0.000000 0.386355 0.894155
O O8 0.500000 0.825806 0.086574
O O9 0.803144 0.847047 0.133807
O O10 0.756322 0.817577 0.000000
O O11 0.500000 0.188270 0.627851
O O12 0.694220 0.162559 0.735181
O O13 0.828249 0.155861 0.608229
O O14 0.000000 0.889403 0.237337
O O15 0.256518 0.000000 0.205110
O O16 0.000000 0.885288 0.500000
O O17 0.000000 0.000000 0.608269
#
# Coordination Sequence:
#
# PCOD8197851 Si02
#       6
#     8   8   8   8   8   4
#     4   9  18  33  56  89 124 156 197 249 302 359
#     4  10  20  33  52  79 110 147 193 245 301 361
#     4  11  24  39  54  76 110 153 199 252 314 372
#     4  11  22  39  67  97 127 166 208 252 305 362
#     4  11  23  39  60  85 114 151 201 256 306 362
#     4  11  26  46  67  97 134 168 206 251 301 361
#
# _framework density 20.307009999999998
#
# number of rings (size 3 to 8) (size 9 to 14) (size 15 to 20)
#    0.000    1.545    2.727    2.182    1.273    6.182 
#    0.000    4.545    0.000    1.091    0.000    2.545 
#    0.000    0.000    0.000    0.000    0.000    0.000 
#
# Total GULP energy -545612.332496 kJ/mol
# GULP energy per Si atom -12400.280284 kJ/mol
# Density = 2.026079 g / cm^3
# Si number density = 20.307010 Si / 1000 Ang^3
#
#
#
# Elastic Constant Matrix: (Units=GPa)
#
#
# Indices 1 2 3 4 5 6 
#
# 1 81.4564 34.6472 27.0576 0.0000 0.0000 0.0000
# 2 34.6472 127.9285 38.0437 0.0000 0.0000 0.0000
# 3 27.0576 38.0437 67.4464 0.0000 0.0000 0.0000
# 4 0.0000 0.0000 0.0000 25.4487 0.0000 0.0000
# 5 0.0000 0.0000 0.0000 0.0000 23.5281 0.0000
# 6 0.0000 0.0000 0.0000 0.0000 0.0000 27.9561
#
#
#
# Elastic Compliance Matrix: (Units=1/GPa)
#
#
# Indices 1 2 3 4 5 6 
#
# 1 0.014909 -0.002715 -0.004450 0.000000 0.000000 0.000000
# 2 -0.002715 0.009887 -0.004488 0.000000 0.000000 0.000000
# 3 -0.004450 -0.004488 0.019143 0.000000 0.000000 0.000000
# 4 0.000000 0.000000 0.000000 0.039295 0.000000 0.000000
# 5 0.000000 0.000000 0.000000 0.000000 0.042502 0.000000
# 6 0.000000 0.000000 0.000000 0.000000 0.000000 0.035770
#
#
# Mechanical properties :
#
#
# Convention : Reuss Voigt Hill
#
# Bulk Modulus (GPa) = 48.46228 52.92535 50.69381
# Shear Modulus (GPa) = 26.08392 27.19211 26.63801
#
# Velocity S-wave (km/s) = 3.58785 3.66327 3.62576
# Velocity P-wave (km/s) = 6.40938 6.63415 6.52273
#
# Compressibility (1/GPa) = 0.02063460
#
# Stress axis : x y z
#
# Youngs Moduli (GPa) = 67.07216 101.14703 52.23822
#
# Poissons Ratio (x) = 0.27457 0.23246
# Poissons Ratio (y) = 0.18207 0.23442
# Poissons Ratio (z) = 0.29847 0.45391
#
# Static dielectric constant tensor:
#      x y z
#    x 3.554300 0.000000 0.000000 
#    y 0.000000 3.997140 0.000000 
#    z 0.000000 0.000000 3.264540 
# 
# 
# High freq. dielectric constant tensor:
#      x y z
#    x 1.796190 0.000000 0.000000 
#    y 0.000000 1.808220 0.000000 
#    z 0.000000 0.000000 1.749890 
# 
# From -- ./inp_files/9008.got.cif
#   From: 2010.03.12/outbox.cif.g09.slc.cpg/sg47_5_cif.got.tgz:9008.got - 2010.04.14 03:12:58.
