data_PCOD8197857
_publ_section_title
;
Structure prediction by ZEFSAII (Michael W. Deem and Ramdas Pophale) SiO2 
 PCOD8197857
Probable space group: P M M M
;
_chemical_formula_sum "Si O2"
_cell_formula_units_Z 52
_cell_length_a 14.431538
_cell_length_b 8.777934
_cell_length_c 20.583157
_cell_angle_alpha 90.000000
_cell_angle_beta 90.000000
_cell_angle_gamma 90.000000
_cell_volume 2607.455559
_symmetry_space_group_name_H-M "P M M M"
_symmetry_group_IT_number 47
_symmetry_cell_setting 'orthorhombic'
loop_
_space_group_symop_operation_xyz
x,y,z
-x,-y,z
x,-y,-z
-x,y,-z
-x,-y,-z
x,y,-z
-x,y,z
x,-y,z
loop_
_atom_site_type_symbol
_atom_site_label
_atom_site_fract_x
_atom_site_fract_y
_atom_site_fract_z
Si Si1 0.500000 0.820388 0.572104
Si Si2 0.775570 0.324050 0.691355
Si Si3 0.778948 0.175511 0.927991
Si Si4 0.396719 0.174447 0.747234
Si Si5 0.398366 0.674650 0.116140
Si Si6 0.106801 0.680000 0.187757
Si Si7 0.297121 0.820525 0.426343
O O1 0.500000 0.750152 0.500000
O O2 0.600051 0.772740 0.603133
O O3 0.500000 0.000000 0.566677
O O4 0.795047 0.500000 0.681721
O O5 0.671624 0.292989 0.714314
O O6 0.846672 0.258503 0.745417
O O7 0.783674 0.246787 0.620106
O O8 0.681877 0.266313 0.931028
O O9 0.847992 0.243072 0.874815
O O10 0.760055 0.000000 0.911053
O O11 0.823589 0.192290 0.000000
O O12 0.500000 0.192159 0.716628
O O13 0.398639 0.214147 0.822637
O O14 0.362381 0.000000 0.737942
O O15 0.500000 0.684365 0.082184
O O16 0.377690 0.500000 0.137088
O O17 0.121605 0.500000 0.181515
O O18 0.000000 0.726731 0.189930
O O19 0.284563 0.758854 0.500000
O O20 0.286467 0.000000 0.426019
#
# Coordination Sequence:
#
# PCOD8197857 Si02
#       7
#     4   8   8   8   8   8   8
#     4   7  12  26  47  71 103 147 194 229 260 311
#     4  11  22  35  56  85 115 147 187 239 291 340
#     4  11  24  40  60  88 120 153 190 234 287 347
#     4  10  20  33  52  79 113 153 193 233 279 335
#     4  10  20  35  56  83 117 156 197 238 279 327
#     4  10  23  44  66  86 110 145 190 239 296 359
#     4   9  18  33  53  78 112 155 198 234 274 332
#
# _framework density 19.942812
#
# number of rings (size 3 to 8) (size 9 to 14) (size 15 to 20)
#    0.000    2.077    1.538    2.769    1.077    4.923 
#    0.000    3.077    0.000    1.846    0.000    3.231 
#    0.000    0.000    0.000    0.000    0.000    0.000 
#
# Total GULP energy -644350.423312 kJ/mol
# GULP energy per Si atom -12391.354294 kJ/mol
# Density = 1.989742 g / cm^3
# Si number density = 19.942812 Si / 1000 Ang^3
#
#
#
# Elastic Constant Matrix: (Units=GPa)
#
#
# Indices 1 2 3 4 5 6 
#
# 1 112.3608 38.0197 68.3821 0.0000 0.0000 0.0000
# 2 38.0197 51.9209 30.8801 0.0000 0.0000 0.0000
# 3 68.3821 30.8801 117.2231 0.0000 0.0000 0.0000
# 4 0.0000 0.0000 0.0000 19.5244 0.0000 0.0000
# 5 0.0000 0.0000 0.0000 0.0000 14.6036 0.0000
# 6 0.0000 0.0000 0.0000 0.0000 0.0000 20.7707
#
#
#
# Elastic Compliance Matrix: (Units=1/GPa)
#
#
# Indices 1 2 3 4 5 6 
#
# 1 0.015790 -0.007215 -0.007311 0.000000 0.000000 0.000000
# 2 -0.007215 0.026135 -0.002676 0.000000 0.000000 0.000000
# 3 -0.007311 -0.002676 0.013500 0.000000 0.000000 0.000000
# 4 0.000000 0.000000 0.000000 0.051218 0.000000 0.000000
# 5 0.000000 0.000000 0.000000 0.000000 0.068476 0.000000
# 6 0.000000 0.000000 0.000000 0.000000 0.000000 0.048145
#
#
# Mechanical properties :
#
#
# Convention : Reuss Voigt Hill
#
# Bulk Modulus (GPa) = 47.56770 61.78539 54.67655
# Shear Modulus (GPa) = 18.89110 20.59460 19.74285
#
# Velocity S-wave (km/s) = 3.08110 3.21702 3.14980
# Velocity P-wave (km/s) = 6.04661 6.69683 6.38001
#
# Compressibility (1/GPa) = 0.02102267
#
# Stress axis : x y z
#
# Youngs Moduli (GPa) = 63.32952 38.26342 74.07171
#
# Poissons Ratio (x) = 0.27606 0.54152
# Poissons Ratio (y) = 0.45690 0.19822
# Poissons Ratio (z) = 0.46299 0.10239
#
# Static dielectric constant tensor:
#      x y z
#    x 3.626900 0.000000 0.000000 
#    y 0.000000 3.497810 0.000000 
#    z 0.000000 0.000000 3.804420 
# 
# 
# High freq. dielectric constant tensor:
#      x y z
#    x 1.750370 0.000000 0.000000 
#    y 0.000000 1.765280 0.000000 
#    z 0.000000 0.000000 1.787450 
# 
# From -- ./inp_files/24971.got.cif
#   From: 2010.03.12/outbox.cif.g09.slc.cpg/sg47_13_cif.got.tgz:24971.got - 2010.04.14 03:12:58.
