data_PCOD8197644
_publ_section_title
;
Structure prediction by ZEFSAII (Michael W. Deem and Ramdas Pophale) SiO2 
 PCOD8197644
Probable space group: P M M M
;
_chemical_formula_sum "Si O2"
_cell_formula_units_Z 48
_cell_length_a 9.465095
_cell_length_b 8.645043
_cell_length_c 30.883151
_cell_angle_alpha 90.000000
_cell_angle_beta 90.000000
_cell_angle_gamma 90.000000
_cell_volume 2527.049447
_symmetry_space_group_name_H-M "P M M M"
_symmetry_group_IT_number 47
_symmetry_cell_setting 'orthorhombic'
loop_
_space_group_symop_operation_xyz
x,y,z
-x,-y,z
x,-y,-z
-x,y,-z
-x,-y,-z
x,y,-z
-x,y,z
x,-y,z
loop_
_atom_site_type_symbol
_atom_site_label
_atom_site_fract_x
_atom_site_fract_y
_atom_site_fract_z
Si Si1 0.341683 0.816009 0.452545
Si Si2 0.841982 0.815988 0.375064
Si Si3 0.661182 0.179335 0.949857
Si Si4 0.340934 0.183292 0.200515
Si Si5 0.162681 0.680476 0.123404
Si Si6 0.158993 0.816042 0.720503
O O1 0.281768 0.766718 0.500000
O O2 0.500000 0.752853 0.447405
O O3 0.251303 0.742037 0.413484
O O4 0.340731 0.000000 0.449102
O O5 0.788301 0.763397 0.327354
O O6 0.000000 0.754793 0.382034
O O7 0.838265 0.000000 0.377816
O O8 0.500000 0.221018 0.937056
O O9 0.770298 0.283258 0.923228
O O10 0.689955 0.000000 0.939791
O O11 0.687447 0.216009 0.000000
O O12 0.500000 0.251312 0.197557
O O13 0.251045 0.228158 0.158951
O O14 0.265099 0.252018 0.243456
O O15 0.347463 0.000000 0.203136
O O16 0.173687 0.500000 0.133041
O O17 0.000000 0.736029 0.124161
O O18 0.000000 0.753698 0.729237
O O19 0.156513 0.000000 0.722922
#
# Coordination Sequence:
#
# PCOD8197644 Si02
#       6
#     8   8   8   8   8   8
#     4   8  13  19  25  35  55  86 124 166 213 263
#     4   8  13  20  30  45  65  91 126 169 216 265
#     4   9  19  37  60  84 108 134 166 203 241 282
#     4  10  20  33  51  74  96 121 158 201 243 289
#     4  11  24  38  52  74 104 136 168 201 239 284
#     4   8  14  25  40  58  81 108 139 180 231 281
#
# _framework density 18.994482999999999
#
# number of rings (size 3 to 8) (size 9 to 14) (size 15 to 20)
#    0.000    3.000    0.000    3.500    0.000    6.333 
#    0.000    7.500    0.000    0.000    0.000    0.000 
#    0.000    0.000    0.000    0.000    0.000    0.833 
#
# Total GULP energy -594923.576329 kJ/mol
# GULP energy per Si atom -12394.241174 kJ/mol
# Density = 1.895125 g / cm^3
# Si number density = 18.994483 Si / 1000 Ang^3
#
#
#
# Elastic Constant Matrix: (Units=GPa)
#
#
# Indices 1 2 3 4 5 6 
#
# 1 131.2531 12.9073 84.6169 0.0000 0.0000 0.0000
# 2 12.9073 10.4318 9.0692 0.0000 0.0000 0.0000
# 3 84.6169 9.0692 144.9228 0.0000 0.0000 0.0000
# 4 0.0000 0.0000 0.0000 -1.0850 0.0000 0.0000
# 5 0.0000 0.0000 0.0000 0.0000 45.0167 0.0000
# 6 0.0000 0.0000 0.0000 0.0000 0.0000 14.0818
#
#
#
# Elastic Compliance Matrix: (Units=1/GPa)
#
#
# Indices 1 2 3 4 5 6 
#
# 1 0.013163 -0.010157 -0.007050 0.000000 0.000000 0.000000
# 2 -0.010157 0.109214 -0.000904 0.000000 0.000000 0.000000
# 3 -0.007050 -0.000904 0.011073 0.000000 0.000000 0.000000
# 4 0.000000 0.000000 0.000000 -0.921693 0.000000 0.000000
# 5 0.000000 0.000000 0.000000 0.000000 0.022214 0.000000
# 6 0.000000 0.000000 0.000000 0.000000 0.000000 0.071014
#
#
# Mechanical properties :
#
#
# Convention : Reuss Voigt Hill
#
# Bulk Modulus (GPa) = 10.28514 55.53275 32.90895
# Shear Modulus (GPa) = -7.98231 23.60366 7.81068
#
# Velocity S-wave (km/s) = -2.05221 3.52896 2.03003
# Velocity P-wave (km/s) = 0.43457 6.77528 4.78098
#
# Compressibility (1/GPa) = 0.09722763
#
# Stress axis : x y z
#
# Youngs Moduli (GPa) = 75.97332 9.15634 90.31041
#
# Poissons Ratio (x) = 0.09300 0.63666
# Poissons Ratio (y) = 0.77167 0.08165
# Poissons Ratio (z) = 0.53558 0.00828
#
# Static dielectric constant tensor:
#      x y z
#    x 3.747270 0.000000 0.000000 
#    y 0.000000 2.834360 0.000000 
#    z 0.000000 0.000000 3.842610 
# 
# 
# High freq. dielectric constant tensor:
#      x y z
#    x 1.738820 0.000000 0.000000 
#    y 0.000000 1.672780 0.000000 
#    z 0.000000 0.000000 1.756930 
# 
# From -- ./inp_files/13794.got.cif
#   From: 2010.03.12/outbox.cif.g09.slc.cpg/sg47_7_cif.got.tgz:13794.got - 2010.04.14 03:12:58.
