data_PCOD8197944
_publ_section_title
;
Structure prediction by ZEFSAII (Michael W. Deem and Ramdas Pophale) SiO2 
 PCOD8197944
Probable space group: P M M M
;
_chemical_formula_sum "Si O2"
_cell_formula_units_Z 48
_cell_length_a 9.247025
_cell_length_b 15.362231
_cell_length_c 19.152591
_cell_angle_alpha 90.000000
_cell_angle_beta 90.000000
_cell_angle_gamma 90.000000
_cell_volume 2720.720053
_symmetry_space_group_name_H-M "P M M M"
_symmetry_group_IT_number 47
_symmetry_cell_setting 'orthorhombic'
loop_
_space_group_symop_operation_xyz
x,y,z
-x,-y,z
x,-y,-z
-x,y,-z
-x,-y,-z
x,y,-z
-x,y,z
x,-y,z
loop_
_atom_site_type_symbol
_atom_site_label
_atom_site_fract_x
_atom_site_fract_y
_atom_site_fract_z
Si Si1 0.330261 0.898475 0.812308
Si Si2 0.171751 0.219252 0.919466
Si Si3 0.837846 0.500000 0.582838
Si Si4 0.330504 0.668966 0.419022
Si Si5 0.837491 0.407587 0.917092
Si Si6 0.671472 0.162949 0.337343
Si Si7 0.327031 0.000000 0.578219
O O1 0.500000 0.886282 0.824511
O O2 0.246425 0.857400 0.876957
O O3 0.278064 0.848408 0.742500
O O4 0.290393 0.000000 0.805883
O O5 0.231840 0.315013 0.892937
O O6 0.000000 0.215238 0.909049
O O7 0.212876 0.204121 0.000000
O O8 0.840026 0.500000 0.500000
O O9 0.753744 0.584939 0.609199
O O10 0.000000 0.500000 0.613537
O O11 0.295770 0.690017 0.500000
O O12 0.500000 0.651839 0.409178
O O13 0.272871 0.747267 0.370707
O O14 0.759878 0.500000 0.893427
O O15 0.000000 0.411017 0.887966
O O16 0.841830 0.404043 0.000000
O O17 0.500000 0.158907 0.341641
O O18 0.735860 0.084440 0.383010
O O19 0.500000 0.000000 0.579237
O O20 0.266869 0.000000 0.500000
#
# Coordination Sequence:
#
# PCOD8197944 Si02
#       7
#     8   8   4   8   8   8   4
#     4  10  20  34  50  67  94 132 164 191 235 295
#     4   9  18  32  51  75  98 121 157 204 243 275
#     4   9  17  29  45  67  97 131 162 195 240 287
#     4   9  16  27  47  74  98 122 159 203 240 278
#     4   7  10  20  42  70  94 114 139 177 229 280
#     4   9  16  28  45  68  97 127 157 193 241 289
#     4   9  14  22  42  72 100 121 150 198 245 281
#
# _framework density 17.642386999999999
#
# number of rings (size 3 to 8) (size 9 to 14) (size 15 to 20)
#    0.000    3.167    0.833    2.250    0.000    4.000 
#    0.000    2.500    1.833    0.500    0.000    2.333 
#    0.000    4.000    0.000    0.000    0.000    0.000 
#
# Total GULP energy -594667.167582 kJ/mol
# GULP energy per Si atom -12388.899325 kJ/mol
# Density = 1.760223 g / cm^3
# Si number density = 17.642387 Si / 1000 Ang^3
#
#
#
# Elastic Constant Matrix: (Units=GPa)
#
#
# Indices 1 2 3 4 5 6 
#
# 1 33.6602 45.8017 29.1601 0.0000 0.0000 0.0000
# 2 45.8017 168.5182 70.7512 0.0000 0.0000 0.0000
# 3 29.1601 70.7512 88.8620 0.0000 0.0000 0.0000
# 4 0.0000 0.0000 0.0000 17.4275 0.0000 0.0000
# 5 0.0000 0.0000 0.0000 0.0000 8.6956 0.0000
# 6 0.0000 0.0000 0.0000 0.0000 0.0000 15.6505
#
#
#
# Elastic Compliance Matrix: (Units=1/GPa)
#
#
# Indices 1 2 3 4 5 6 
#
# 1 0.051165 -0.010300 -0.008589 0.000000 0.000000 0.000000
# 2 -0.010300 0.010987 -0.005368 0.000000 0.000000 0.000000
# 3 -0.008589 -0.005368 0.018346 0.000000 0.000000 0.000000
# 4 0.000000 0.000000 0.000000 0.057381 0.000000 0.000000
# 5 0.000000 0.000000 0.000000 0.000000 0.115001 0.000000
# 6 0.000000 0.000000 0.000000 0.000000 0.000000 0.063896
#
#
# Mechanical properties :
#
#
# Convention : Reuss Voigt Hill
#
# Bulk Modulus (GPa) = 31.26575 64.71848 47.99212
# Shear Modulus (GPa) = 13.29962 18.04320 15.67141
#
# Velocity S-wave (km/s) = 2.74860 3.20147 2.98364
# Velocity P-wave (km/s) = 5.27575 7.10134 6.25550
#
# Compressibility (1/GPa) = 0.03198388
#
# Stress axis : x y z
#
# Youngs Moduli (GPa) = 19.54467 91.01455 54.50840
#
# Poissons Ratio (x) = 0.93746 0.46817
# Poissons Ratio (y) = 0.20131 0.29260
# Poissons Ratio (z) = 0.16787 0.48856
#
# Static dielectric constant tensor:
#      x y z
#    x 2.807280 0.000000 0.000000 
#    y 0.000000 3.714810 0.000000 
#    z 0.000000 0.000000 3.063480 
# 
# 
# High freq. dielectric constant tensor:
#      x y z
#    x 1.628050 0.000000 0.000000 
#    y 0.000000 1.705920 0.000000 
#    z 0.000000 0.000000 1.655610 
# 
# From -- ./inp_files/26551.got.cif
#   From: 2010.03.12/outbox.cif.g09.slc.cpg/sg47_14_cif.got.tgz:26551.got - 2010.04.14 03:12:58.
