data_PCOD8197252
_publ_section_title
;
Structure prediction by ZEFSAII (Michael W. Deem and Ramdas Pophale) SiO2 
 PCOD8197252
Probable space group: P M M M
;
_chemical_formula_sum "Si O2"
_cell_formula_units_Z 52
_cell_length_a 8.859881
_cell_length_b 13.698061
_cell_length_c 24.008450
_cell_angle_alpha 90.000000
_cell_angle_beta 90.000000
_cell_angle_gamma 90.000000
_cell_volume 2913.742088
_symmetry_space_group_name_H-M "P M M M"
_symmetry_group_IT_number 47
_symmetry_cell_setting 'orthorhombic'
loop_
_space_group_symop_operation_xyz
x,y,z
-x,-y,z
x,-y,-z
-x,y,-z
-x,-y,-z
x,y,-z
-x,y,z
x,-y,z
loop_
_atom_site_type_symbol
_atom_site_label
_atom_site_fract_x
_atom_site_fract_y
_atom_site_fract_z
Si Si1 0.679385 0.390659 0.562142
Si Si2 0.320535 0.211950 0.837163
Si Si3 0.675640 0.605800 0.769479
Si Si4 0.331206 0.500000 0.065742
Si Si5 0.826149 0.111663 0.262010
Si Si6 0.177809 0.300122 0.935901
Si Si7 0.324121 0.728664 0.334795
O O1 0.730368 0.359186 0.500000
O O2 0.500000 0.393869 0.566640
O O3 0.741220 0.500000 0.575342
O O4 0.739740 0.309154 0.605662
O O5 0.500000 0.203242 0.840855
O O6 0.258510 0.312804 0.810532
O O7 0.260244 0.126852 0.796878
O O8 0.248839 0.211626 0.899218
O O9 0.500000 0.597411 0.781443
O O10 0.752682 0.500000 0.779957
O O11 0.704043 0.637824 0.706169
O O12 0.500000 0.500000 0.091635
O O13 0.245462 0.597010 0.085757
O O14 0.338961 0.500000 0.000000
O O15 0.762774 0.176070 0.312947
O O16 0.000000 0.138301 0.252417
O O17 0.803975 0.000000 0.279948
O O18 0.000000 0.303514 0.928241
O O19 0.222431 0.280196 0.000000
O O20 0.500000 0.757096 0.337333
#
# Coordination Sequence:
#
# PCOD8197252 Si02
#       7
#     8   8   8   4   8   8   8
#     4   8  13  22  41  73 110 143 172 202 238 282
#     4  10  20  32  51  76  98 124 159 202 247 296
#     4   8  14  24  39  63  94 124 154 190 233 280
#     4   9  17  29  45  65  91 129 175 211 236 271
#     4  10  21  37  55  72  93 123 159 204 260 315
#     4  10  20  33  48  68  99 136 169 202 242 290
#     4   9  16  27  47  73  98 127 165 207 245 286
#
# _framework density 17.846465999999999
#
# number of rings (size 3 to 8) (size 9 to 14) (size 15 to 20)
#    0.000    2.846    0.000    3.462    1.077    4.923 
#    0.000    0.000    0.000    9.692    0.000    7.538 
#    0.000    0.000    0.000    0.000    0.000    0.000 
#
# Total GULP energy -644441.703762 kJ/mol
# GULP energy per Si atom -12393.109688 kJ/mol
# Density = 1.780585 g / cm^3
# Si number density = 17.846466 Si / 1000 Ang^3
#
#
#
# Elastic Constant Matrix: (Units=GPa)
#
#
# Indices 1 2 3 4 5 6 
#
# 1 72.3486 30.7257 38.0180 0.0000 0.0000 0.0000
# 2 30.7257 75.9400 36.3698 0.0000 0.0000 0.0000
# 3 38.0180 36.3698 107.8124 0.0000 0.0000 0.0000
# 4 0.0000 0.0000 0.0000 32.1006 0.0000 0.0000
# 5 0.0000 0.0000 0.0000 0.0000 17.0766 0.0000
# 6 0.0000 0.0000 0.0000 0.0000 0.0000 21.4954
#
#
#
# Elastic Compliance Matrix: (Units=1/GPa)
#
#
# Indices 1 2 3 4 5 6 
#
# 1 0.018550 -0.005215 -0.004782 0.000000 0.000000 0.000000
# 2 -0.005215 0.017172 -0.003954 0.000000 0.000000 0.000000
# 3 -0.004782 -0.003954 0.012295 0.000000 0.000000 0.000000
# 4 0.000000 0.000000 0.000000 0.031152 0.000000 0.000000
# 5 0.000000 0.000000 0.000000 0.000000 0.058560 0.000000
# 6 0.000000 0.000000 0.000000 0.000000 0.000000 0.046522
#
#
# Mechanical properties :
#
#
# Convention : Reuss Voigt Hill
#
# Bulk Modulus (GPa) = 49.71334 51.81422 50.76378
# Shear Modulus (GPa) = 22.84597 24.20035 23.52316
#
# Velocity S-wave (km/s) = 3.58179 3.68643 3.63448
# Velocity P-wave (km/s) = 6.70986 6.87139 6.79110
#
# Compressibility (1/GPa) = 0.02011532
#
# Stress axis : x y z
#
# Youngs Moduli (GPa) = 53.90969 58.23458 81.33111
#
# Poissons Ratio (x) = 0.30370 0.38892
# Poissons Ratio (y) = 0.28114 0.32157
# Poissons Ratio (z) = 0.25779 0.23025
#
# Static dielectric constant tensor:
#      x y z
#    x 3.055290 0.000000 0.000000 
#    y 0.000000 2.027930 0.000000 
#    z 0.000000 0.000000 3.518370 
# 
# 
# High freq. dielectric constant tensor:
#      x y z
#    x 1.665900 0.000000 0.000000 
#    y 0.000000 1.663150 0.000000 
#    z 0.000000 0.000000 1.692970 
# 
# From -- ./inp_files/31958.got.cif
#   From: 2010.03.12/outbox.cif.g09.slc.cpg/sg47_16_cif.got.tgz:31958.got - 2010.04.14 03:12:58.
