data_PCOD8197288
_publ_section_title
;
Structure prediction by ZEFSAII (Michael W. Deem and Ramdas Pophale) SiO2 
 PCOD8197288
Probable space group: P M M M
;
_chemical_formula_sum "Si O2"
_cell_formula_units_Z 48
_cell_length_a 7.394308
_cell_length_b 18.833140
_cell_length_c 20.471735
_cell_angle_alpha 90.000000
_cell_angle_beta 90.000000
_cell_angle_gamma 90.000000
_cell_volume 2850.853646
_symmetry_space_group_name_H-M "P M M M"
_symmetry_group_IT_number 47
_symmetry_cell_setting 'orthorhombic'
loop_
_space_group_symop_operation_xyz
x,y,z
-x,-y,z
x,-y,-z
-x,y,-z
-x,-y,-z
x,y,-z
-x,y,z
x,-y,z
loop_
_atom_site_type_symbol
_atom_site_label
_atom_site_fract_x
_atom_site_fract_y
_atom_site_fract_z
Si Si1 0.500000 0.685016 0.573250
Si Si2 0.790962 0.273929 0.791523
Si Si3 0.789720 0.863968 0.137130
Si Si4 0.790790 0.580530 0.376611
Si Si5 0.787366 0.575175 0.772646
Si Si6 0.500000 0.779980 0.694953
Si Si7 0.785861 0.920449 0.000000
Si Si8 0.500000 0.080273 0.765775
O O1 0.500000 0.715552 0.500000
O O2 0.323713 0.636228 0.582014
O O3 0.500000 0.754444 0.620143
O O4 0.758396 0.220345 0.851686
O O5 0.728645 0.354068 0.812825
O O6 0.679593 0.249878 0.728802
O O7 0.000000 0.274266 0.769669
O O8 0.677937 0.908400 0.189976
O O9 0.000000 0.885215 0.145212
O O10 0.716223 0.880371 0.064641
O O11 0.757560 0.500000 0.401682
O O12 0.725344 0.586421 0.301765
O O13 0.000000 0.601257 0.384245
O O14 0.703600 0.500000 0.799596
O O15 0.000000 0.566636 0.774663
O O16 0.500000 0.865930 0.703832
O O17 0.000000 0.921826 0.000000
O O18 0.706925 0.000000 0.000000
O O19 0.500000 0.000000 0.738732
#
# Coordination Sequence:
#
# PCOD8197288 Si02
#       8
#     4   8   8   8   8   4   4   4
#     4  12  23  32  46  66  89 120 154 184 223 275
#     4   9  16  29  47  64  86 117 152 187 222 258
#     4   9  18  30  46  69  96 125 152 179 213 259
#     4   9  18  32  47  64  90 122 153 184 220 264
#     4   8  13  23  42  64  84 111 146 183 223 258
#     4  10  20  33  47  65  89 112 141 186 229 265
#     4   9  16  27  43  65  97 128 149 173 211 264
#     4  10  20  33  51  72  90 112 147 187 226 266
#
# _framework density 16.837063000000001
#
# number of rings (size 3 to 8) (size 9 to 14) (size 15 to 20)
#    0.000    2.750    1.667    1.750    0.000    2.333 
#    0.000    2.083    0.000    0.250    0.000    0.583 
#    0.000    4.667    0.000   15.833    0.000   17.167 
#
# Total GULP energy -594699.135179 kJ/mol
# GULP energy per Si atom -12389.565316 kJ/mol
# Density = 1.679874 g / cm^3
# Si number density = 16.837063 Si / 1000 Ang^3
#
#
#
# Elastic Constant Matrix: (Units=GPa)
#
#
# Indices 1 2 3 4 5 6 
#
# 1 64.8319 28.8937 22.2381 0.0000 0.0000 0.0000
# 2 28.8937 166.8251 66.3248 0.0000 0.0000 0.0000
# 3 22.2381 66.3248 86.9140 0.0000 0.0000 0.0000
# 4 0.0000 0.0000 0.0000 -9.1413 0.0000 0.0000
# 5 0.0000 0.0000 0.0000 0.0000 11.9844 0.0000
# 6 0.0000 0.0000 0.0000 0.0000 0.0000 14.2898
#
#
#
# Elastic Compliance Matrix: (Units=1/GPa)
#
#
# Indices 1 2 3 4 5 6 
#
# 1 0.017266 -0.001771 -0.003066 0.000000 0.000000 0.000000
# 2 -0.001771 0.008787 -0.006252 0.000000 0.000000 0.000000
# 3 -0.003066 -0.006252 0.017061 0.000000 0.000000 0.000000
# 4 0.000000 0.000000 0.000000 -0.109393 0.000000 0.000000
# 5 0.000000 0.000000 0.000000 0.000000 0.083442 0.000000
# 6 0.000000 0.000000 0.000000 0.000000 0.000000 0.069980
#
#
# Mechanical properties :
#
#
# Convention : Reuss Voigt Hill
#
# Bulk Modulus (GPa) = 47.76734 61.49825 54.63280
# Shear Modulus (GPa) = 42.99280 16.83420 29.91350
#
# Velocity S-wave (km/s) = 5.05866 3.16544 4.21960
# Velocity P-wave (km/s) = 7.90898 7.06858 7.50056
#
# Compressibility (1/GPa) = 0.02093481
#
# Stress axis : x y z
#
# Youngs Moduli (GPa) = 57.91861 113.80814 58.61324
#
# Poissons Ratio (x) = 0.20161 0.17970
# Poissons Ratio (y) = 0.10260 0.36645
# Poissons Ratio (z) = 0.17757 0.71152
#
# Static dielectric constant tensor:
#      x y z
#    x 3.170210 0.000000 0.000000 
#    y 0.000000 3.983390 0.000000 
#    z 0.000000 0.000000 2.867040 
# 
# 
# High freq. dielectric constant tensor:
#      x y z
#    x 1.658870 0.000000 0.000000 
#    y 0.000000 1.652870 0.000000 
#    z 0.000000 0.000000 1.591150 
# 
# From -- ./inp_files/29864.got.cif
#   From: 2010.03.12/outbox.cif.g09.slc.cpg/sg47_15_cif.got.tgz:29864.got - 2010.04.14 03:12:58.
