data_PCOD8197255
_publ_section_title
;
Structure prediction by ZEFSAII (Michael W. Deem and Ramdas Pophale) SiO2 
 PCOD8197255
Probable space group: P M M M
;
_chemical_formula_sum "Si O2"
_cell_formula_units_Z 64
_cell_length_a 10.018102
_cell_length_b 24.051632
_cell_length_c 14.708664
_cell_angle_alpha 90.000000
_cell_angle_beta 90.000000
_cell_angle_gamma 90.000000
_cell_volume 3544.077634
_symmetry_space_group_name_H-M "P M M M"
_symmetry_group_IT_number 47
_symmetry_cell_setting 'orthorhombic'
loop_
_space_group_symop_operation_xyz
x,y,z
-x,-y,z
x,-y,-z
-x,y,-z
-x,-y,-z
x,y,-z
-x,y,z
x,-y,z
loop_
_atom_site_type_symbol
_atom_site_label
_atom_site_fract_x
_atom_site_fract_y
_atom_site_fract_z
Si Si1 0.342079 0.164084 0.898760
Si Si2 0.146467 0.820956 0.396864
Si Si3 0.651492 0.059849 0.792354
Si Si4 0.752931 0.938336 0.600033
Si Si5 0.344638 0.239401 0.262777
Si Si6 0.342892 0.631341 0.269886
Si Si7 0.658332 0.437914 0.099992
Si Si8 0.849289 0.436744 0.392888
O O1 0.500000 0.157666 0.905615
O O2 0.278618 0.109634 0.848818
O O3 0.306617 0.217949 0.838227
O O4 0.280448 0.170704 0.000000
O O5 0.174604 0.802005 0.500000
O O6 0.141743 0.888262 0.390468
O O7 0.260714 0.793900 0.336559
O O8 0.000000 0.800056 0.365494
O O9 0.500000 0.057563 0.824190
O O10 0.650700 0.069912 0.683453
O O11 0.720031 0.000000 0.815641
O O12 0.681824 0.933644 0.500000
O O13 0.820951 0.000000 0.607566
O O14 0.500000 0.227876 0.283709
O O15 0.309954 0.303905 0.267215
O O16 0.500000 0.619938 0.285910
O O17 0.290447 0.605145 0.175314
O O18 0.259366 0.604228 0.350619
O O19 0.500000 0.437756 0.098298
O O20 0.709820 0.500000 0.123872
O O21 0.711970 0.420086 0.000000
O O22 0.837307 0.430097 0.500000
O O23 0.816725 0.500000 0.363866
O O24 0.000000 0.421183 0.361610
#
# Coordination Sequence:
#
# PCOD8197255 Si02
#       8
#     8   8   8   8   8   8   8   8
#     4   9  17  30  48  69  96 132 173 216 261 307
#     4  10  21  36  54  75  99 131 170 209 253 308
#     4   9  16  26  43  70 102 132 165 207 256 312
#     4   9  17  29  47  72  99 126 159 204 259 316
#     4  10  21  36  51  73 104 137 175 215 255 297
#     4  10  20  32  51  78 106 136 173 216 255 293
#     4   8  14  26  46  74 106 134 160 197 249 303
#     4   9  19  36  56  78 106 140 174 207 249 302
#
# _framework density 18.058295000000001
#
# number of rings (size 3 to 8) (size 9 to 14) (size 15 to 20)
#    0.000    2.750    1.250    1.125    0.000    3.500 
#    0.000   10.625    0.000    0.750    0.000    3.500 
#    0.000    2.000    0.000    0.000    0.000    0.000 
#
# Total GULP energy -792886.541515 kJ/mol
# GULP energy per Si atom -12388.852211 kJ/mol
# Density = 1.801719 g / cm^3
# Si number density = 18.058295 Si / 1000 Ang^3
#
#
#
# Elastic Constant Matrix: (Units=GPa)
#
#
# Indices 1 2 3 4 5 6 
#
# 1 48.8755 46.6458 41.0113 0.0000 0.0000 0.0000
# 2 46.6458 132.8841 69.8030 0.0000 0.0000 0.0000
# 3 41.0113 69.8030 116.5978 0.0000 0.0000 0.0000
# 4 0.0000 0.0000 0.0000 17.1733 0.0000 0.0000
# 5 0.0000 0.0000 0.0000 0.0000 4.2142 0.0000
# 6 0.0000 0.0000 0.0000 0.0000 0.0000 15.1998
#
#
#
# Elastic Compliance Matrix: (Units=1/GPa)
#
#
# Indices 1 2 3 4 5 6 
#
# 1 0.034374 -0.008337 -0.007099 0.000000 0.000000 0.000000
# 2 -0.008337 0.012999 -0.004850 0.000000 0.000000 0.000000
# 3 -0.007099 -0.004850 0.013977 0.000000 0.000000 0.000000
# 4 0.000000 0.000000 0.000000 0.058230 0.000000 0.000000
# 5 0.000000 0.000000 0.000000 0.000000 0.237294 0.000000
# 6 0.000000 0.000000 0.000000 0.000000 0.000000 0.065790
#
#
# Mechanical properties :
#
#
# Convention : Reuss Voigt Hill
#
# Bulk Modulus (GPa) = 48.12810 68.14195 58.13503
# Shear Modulus (GPa) = 10.63460 16.71059 13.67260
#
# Velocity S-wave (km/s) = 2.42937 3.04529 2.75460
# Velocity P-wave (km/s) = 5.88035 7.08388 6.50999
#
# Compressibility (1/GPa) = 0.02077788
#
# Stress axis : x y z
#
# Youngs Moduli (GPa) = 29.09194 76.92625 71.54557
#
# Poissons Ratio (x) = 0.64132 0.50793
# Poissons Ratio (y) = 0.24253 0.34700
# Poissons Ratio (z) = 0.20654 0.37309
#
# Static dielectric constant tensor:
#      x y z
#    x 2.868070 0.000000 0.000000 
#    y 0.000000 3.512490 0.000000 
#    z 0.000000 0.000000 3.561820 
# 
# 
# High freq. dielectric constant tensor:
#      x y z
#    x 1.643950 0.000000 0.000000 
#    y 0.000000 1.707020 0.000000 
#    z 0.000000 0.000000 1.703740 
# 
# From -- ./inp_files/16830.got.cif
#   From: 2010.03.12/outbox.cif.g09.slc.cpg/sg47_9_cif.got.tgz:16830.got - 2010.04.14 03:12:58.
