data_PCOD8197671
_publ_section_title
;
Structure prediction by ZEFSAII (Michael W. Deem and Ramdas Pophale) SiO2 
 PCOD8197671
Probable space group: P M M M
;
_chemical_formula_sum "Si O2"
_cell_formula_units_Z 48
_cell_length_a 9.142290
_cell_length_b 31.238473
_cell_length_c 9.651502
_cell_angle_alpha 90.000000
_cell_angle_beta 90.000000
_cell_angle_gamma 90.000000
_cell_volume 2756.383838
_symmetry_space_group_name_H-M "P M M M"
_symmetry_group_IT_number 47
_symmetry_cell_setting 'orthorhombic'
loop_
_space_group_symop_operation_xyz
x,y,z
-x,-y,z
x,-y,-z
-x,y,-z
-x,-y,-z
x,y,-z
-x,y,z
x,-y,z
loop_
_atom_site_type_symbol
_atom_site_label
_atom_site_fract_x
_atom_site_fract_y
_atom_site_fract_z
Si Si1 0.329295 0.883069 0.839103
Si Si2 0.328712 0.715098 0.160576
Si Si3 0.336274 0.454684 0.335419
Si Si4 0.167237 0.950299 0.340682
Si Si5 0.325071 0.636957 0.656079
Si Si6 0.165092 0.200920 0.164726
O O1 0.500000 0.876126 0.814630
O O2 0.276148 0.924290 0.756209
O O3 0.247469 0.841170 0.780079
O O4 0.292758 0.890568 0.000000
O O5 0.500000 0.722228 0.185716
O O6 0.267405 0.674182 0.243593
O O7 0.246740 0.756809 0.219673
O O8 0.293304 0.707226 0.000000
O O9 0.343549 0.452580 0.500000
O O10 0.500000 0.456508 0.274919
O O11 0.256890 0.500000 0.289932
O O12 0.262546 0.409454 0.288591
O O13 0.198657 0.938673 0.500000
O O14 0.000000 0.939068 0.302599
O O15 0.198216 0.000000 0.313680
O O16 0.270136 0.646597 0.500000
O O17 0.500000 0.634694 0.658717
O O18 0.000000 0.200597 0.221869
O O19 0.169194 0.201028 0.000000
#
# Coordination Sequence:
#
# PCOD8197671 Si02
#       6
#     8   8   8   8   8   8
#     4  10  20  33  51  76 102 125 154 195 238 277
#     4   9  16  26  41  60  82 108 138 173 214 259
#     4   7   9  14  26  45  69  98 132 166 198 238
#     4   9  19  36  55  74  99 132 166 196 228 270
#     4   8  13  21  34  53  77 105 136 169 206 250
#     4   9  17  30  48  67  87 115 151 186 220 263
#
# _framework density 17.41412
#
# number of rings (size 3 to 8) (size 9 to 14) (size 15 to 20)
#    0.000    3.333    0.000    3.000    0.000    4.000 
#    0.000    3.333    0.000    4.000    0.000    3.500 
#    0.000    0.667    0.000    8.333    0.000    7.667 
#
# Total GULP energy -594706.190886 kJ/mol
# GULP energy per Si atom -12389.712310 kJ/mol
# Density = 1.737448 g / cm^3
# Si number density = 17.414120 Si / 1000 Ang^3
#
#
#
# Elastic Constant Matrix: (Units=GPa)
#
#
# Indices 1 2 3 4 5 6 
#
# 1 60.4325 54.6982 28.5039 0.0000 0.0000 0.0000
# 2 54.6982 159.1934 54.6985 0.0000 0.0000 0.0000
# 3 28.5039 54.6985 46.6574 0.0000 0.0000 0.0000
# 4 0.0000 0.0000 0.0000 28.1215 0.0000 0.0000
# 5 0.0000 0.0000 0.0000 0.0000 15.1690 0.0000
# 6 0.0000 0.0000 0.0000 0.0000 0.0000 6.4911
#
#
#
# Elastic Compliance Matrix: (Units=1/GPa)
#
#
# Indices 1 2 3 4 5 6 
#
# 1 0.026141 -0.005852 -0.009109 0.000000 0.000000 0.000000
# 2 -0.005852 0.011829 -0.010292 0.000000 0.000000 0.000000
# 3 -0.009109 -0.010292 0.039064 0.000000 0.000000 0.000000
# 4 0.000000 0.000000 0.000000 0.035560 0.000000 0.000000
# 5 0.000000 0.000000 0.000000 0.000000 0.065924 0.000000
# 6 0.000000 0.000000 0.000000 0.000000 0.000000 0.154056
#
#
# Mechanical properties :
#
#
# Convention : Reuss Voigt Hill
#
# Bulk Modulus (GPa) = 37.69859 60.23162 48.96511
# Shear Modulus (GPa) = 12.75761 18.51519 15.63640
#
# Velocity S-wave (km/s) = 2.70960 3.26426 2.99977
# Velocity P-wave (km/s) = 5.61111 6.99071 6.33856
#
# Compressibility (1/GPa) = 0.02652619
#
# Stress axis : x y z
#
# Youngs Moduli (GPa) = 38.25477 84.53973 25.59890
#
# Poissons Ratio (x) = 0.49471 0.23319
# Poissons Ratio (y) = 0.22386 0.26347
# Poissons Ratio (z) = 0.34848 0.87012
#
# Static dielectric constant tensor:
#      x y z
#    x 2.916460 0.000000 0.000000 
#    y 0.000000 3.714450 0.000000 
#    z 0.000000 0.000000 2.901900 
# 
# 
# High freq. dielectric constant tensor:
#      x y z
#    x 1.633510 0.000000 0.000000 
#    y 0.000000 1.698100 0.000000 
#    z 0.000000 0.000000 1.629860 
# 
# From -- ./inp_files/4469.got.cif
#   From: 2010.03.12/outbox.cif.g09.slc.cpg/sg47_3_cif.got.tgz:4469.got - 2010.04.14 03:12:58.
