data_PCOD8197655
_publ_section_title
;
Structure prediction by ZEFSAII (Michael W. Deem and Ramdas Pophale) SiO2 
 PCOD8197655
Probable space group: P M M M
;
_chemical_formula_sum "Si O2"
_cell_formula_units_Z 44
_cell_length_a 8.305005
_cell_length_b 29.916024
_cell_length_c 9.469125
_cell_angle_alpha 90.000000
_cell_angle_beta 90.000000
_cell_angle_gamma 90.000000
_cell_volume 2352.629947
_symmetry_space_group_name_H-M "P M M M"
_symmetry_group_IT_number 47
_symmetry_cell_setting 'orthorhombic'
loop_
_space_group_symop_operation_xyz
x,y,z
-x,-y,z
x,-y,-z
-x,y,-z
-x,-y,-z
x,y,-z
-x,y,z
x,-y,z
loop_
_atom_site_type_symbol
_atom_site_label
_atom_site_fract_x
_atom_site_fract_y
_atom_site_fract_z
Si Si1 0.185816 0.202676 0.341968
Si Si2 0.686464 0.280539 0.154894
Si Si3 0.500000 0.948977 0.332021
Si Si4 0.180092 0.101084 0.332399
Si Si5 0.317608 0.548388 0.332594
Si Si6 0.185711 0.640262 0.340397
O O1 0.258569 0.207985 0.500000
O O2 0.273497 0.235174 0.235309
O O3 0.209700 0.152205 0.286906
O O4 0.000000 0.215877 0.345927
O O5 0.500000 0.281479 0.129972
O O6 0.729897 0.324120 0.242506
O O7 0.771727 0.281194 0.000000
O O8 0.500000 0.944619 0.500000
O O9 0.666966 0.927083 0.272236
O O10 0.500000 0.000000 0.281527
O O11 0.176383 0.097328 0.500000
O O12 0.000000 0.085386 0.277358
O O13 0.308429 0.546867 0.500000
O O14 0.500000 0.555685 0.281386
O O15 0.253885 0.500000 0.274739
O O16 0.213221 0.590297 0.277574
O O17 0.256063 0.643824 0.500000
O O18 0.000000 0.651678 0.341428
#
# Coordination Sequence:
#
# PCOD8197655 Si02
#       6
#     8   8   4   8   8   8
#     4   9  18  33  53  75  97 126 167 209 250 299
#     4  11  24  37  49  70  99 130 165 205 251 302
#     4   9  16  24  38  64  97 135 173 203 244 301
#     4   8  15  27  42  64  95 128 165 209 250 295
#     4   8  14  26  46  72 100 128 158 195 239 285
#     4  10  20  33  51  75 101 130 165 202 242 293
#
# _framework density 18.702473999999999
#
# number of rings (size 3 to 8) (size 9 to 14) (size 15 to 20)
#    0.000    2.818    0.000    3.273    1.273    5.818 
#    0.000    3.636    0.000    0.545    0.000    3.818 
#    0.000    1.455    0.000    4.000    0.000    4.000 
#
# Total GULP energy -545159.396113 kJ/mol
# GULP energy per Si atom -12389.986275 kJ/mol
# Density = 1.865991 g / cm^3
# Si number density = 18.702474 Si / 1000 Ang^3
#
#
#
# Elastic Constant Matrix: (Units=GPa)
#
#
# Indices 1 2 3 4 5 6 
#
# 1 91.2373 63.2752 28.1950 0.0000 0.0000 0.0000
# 2 63.2752 140.1468 45.1670 0.0000 0.0000 0.0000
# 3 28.1950 45.1670 60.4442 0.0000 0.0000 0.0000
# 4 0.0000 0.0000 0.0000 -3.4321 0.0000 0.0000
# 5 0.0000 0.0000 0.0000 0.0000 10.4380 0.0000
# 6 0.0000 0.0000 0.0000 0.0000 0.0000 20.3572
#
#
#
# Elastic Compliance Matrix: (Units=1/GPa)
#
#
# Indices 1 2 3 4 5 6 
#
# 1 0.016302 -0.006467 -0.002772 0.000000 0.000000 0.000000
# 2 -0.006467 0.011964 -0.005924 0.000000 0.000000 0.000000
# 3 -0.002772 -0.005924 0.022264 0.000000 0.000000 0.000000
# 4 0.000000 0.000000 0.000000 -0.291366 0.000000 0.000000
# 5 0.000000 0.000000 0.000000 0.000000 0.095804 0.000000
# 6 0.000000 0.000000 0.000000 0.000000 0.000000 0.049123
#
#
# Mechanical properties :
#
#
# Convention : Reuss Voigt Hill
#
# Bulk Modulus (GPa) = 49.49298 62.78919 56.14109
# Shear Modulus (GPa) = -84.96273 15.81869 -34.57202
#
# Velocity S-wave (km/s) = -6.74739 2.91143 -4.30411
# Velocity P-wave (km/s) = 5.84655 6.70429 2.32005
#
# Compressibility (1/GPa) = 0.02020489
#
# Stress axis : x y z
#
# Youngs Moduli (GPa) = 61.34239 83.58243 44.91619
#
# Poissons Ratio (x) = 0.54052 0.12450
# Poissons Ratio (y) = 0.39669 0.26607
# Poissons Ratio (z) = 0.17003 0.49512
#
# Static dielectric constant tensor:
#      x y z
#    x 3.606540 0.000000 0.000000 
#    y 0.000000 3.884570 0.000000 
#    z 0.000000 0.000000 3.094290 
# 
# 
# High freq. dielectric constant tensor:
#      x y z
#    x 1.728670 0.000000 0.000000 
#    y 0.000000 1.737800 0.000000 
#    z 0.000000 0.000000 1.662820 
# 
# From -- ./inp_files/2131.got.cif
#   From: 2010.03.12/outbox.cif.g09.slc.cpg/sg47_2_cif.got.tgz:2131.got - 2010.04.14 03:12:58.
