data_PCOD8197600
_publ_section_title
;
Structure prediction by ZEFSAII (Michael W. Deem and Ramdas Pophale) SiO2 
 PCOD8197600
Probable space group: P M M M
;
_chemical_formula_sum "Si O2"
_cell_formula_units_Z 48
_cell_length_a 8.979565
_cell_length_b 9.020127
_cell_length_c 31.170646
_cell_angle_alpha 90.000000
_cell_angle_beta 90.000000
_cell_angle_gamma 90.000000
_cell_volume 2524.723101
_symmetry_space_group_name_H-M "P M M M"
_symmetry_group_IT_number 47
_symmetry_cell_setting 'orthorhombic'
loop_
_space_group_symop_operation_xyz
x,y,z
-x,-y,z
x,-y,-z
-x,y,-z
-x,-y,-z
x,y,-z
-x,y,z
x,-y,z
loop_
_atom_site_type_symbol
_atom_site_label
_atom_site_fract_x
_atom_site_fract_y
_atom_site_fract_z
Si Si1 0.667669 0.176344 0.665806
Si Si2 0.325985 0.172593 0.835861
Si Si3 0.830554 0.676026 0.085115
Si Si4 0.670988 0.324892 0.500000
Si Si5 0.167871 0.823508 0.250267
Si Si6 0.173973 0.826749 0.579456
Si Si7 0.331724 0.323529 0.000000
O O1 0.500000 0.239130 0.663776
O O2 0.748173 0.241054 0.708040
O O3 0.757092 0.230001 0.624093
O O4 0.666074 0.000000 0.667941
O O5 0.500000 0.204692 0.832847
O O6 0.258522 0.262440 0.874858
O O7 0.251855 0.232071 0.792192
O O8 0.291471 0.000000 0.842808
O O9 0.824352 0.500000 0.086606
O O10 0.753542 0.736596 0.041869
O O11 0.000000 0.733554 0.086230
O O12 0.686139 0.500000 0.500000
O O13 0.500000 0.273182 0.500000
O O14 0.750154 0.262925 0.541783
O O15 0.000000 0.761534 0.249703
O O16 0.168139 0.000000 0.252072
O O17 0.000000 0.791803 0.580050
O O18 0.205345 0.000000 0.572217
O O19 0.332525 0.500000 0.000000
O O20 0.500000 0.261246 0.000000
#
# Coordination Sequence:
#
# PCOD8197600 Si02
#       7
#     8   8   8   4   8   8   4
#     4   9  16  27  46  73 103 133 166 206 250 294
#     4  10  20  33  50  74 104 137 172 209 250 298
#     4  10  20  34  53  76 101 130 166 208 253 302
#     4  11  24  39  54  74 102 137 174 209 250 304
#     4   9  16  27  45  70 101 135 169 206 248 295
#     4  10  20  34  54  80 106 132 167 211 255 298
#     4   9  17  31  52  75  98 127 164 206 252 301
#
# _framework density 19.011986
#
# number of rings (size 3 to 8) (size 9 to 14) (size 15 to 20)
#    0.000    2.333    0.000    3.250    0.000    9.667 
#    0.000    0.417    0.000    3.500    0.000    0.000 
#    0.000    0.000    0.000    0.000    0.000    0.000 
#
# Total GULP energy -595290.120330 kJ/mol
# GULP energy per Si atom -12401.877507 kJ/mol
# Density = 1.896871 g / cm^3
# Si number density = 19.011986 Si / 1000 Ang^3
#
#
#
# Elastic Constant Matrix: (Units=GPa)
#
#
# Indices 1 2 3 4 5 6 
#
# 1 149.6423 25.8390 80.0047 0.0000 0.0000 0.0000
# 2 25.8390 17.2421 26.0718 0.0000 0.0000 0.0000
# 3 80.0047 26.0718 184.8021 0.0000 0.0000 0.0000
# 4 0.0000 0.0000 0.0000 -34.2021 0.0000 0.0000
# 5 0.0000 0.0000 0.0000 0.0000 48.0043 0.0000
# 6 0.0000 0.0000 0.0000 0.0000 0.0000 20.6772
#
#
#
# Elastic Compliance Matrix: (Units=1/GPa)
#
#
# Indices 1 2 3 4 5 6 
#
# 1 0.010061 -0.010794 -0.002833 0.000000 0.000000 0.000000
# 2 -0.010794 0.085305 -0.007362 0.000000 0.000000 0.000000
# 3 -0.002833 -0.007362 0.007676 0.000000 0.000000 0.000000
# 4 0.000000 0.000000 0.000000 -0.029238 0.000000 0.000000
# 5 0.000000 0.000000 0.000000 0.000000 0.020831 0.000000
# 6 0.000000 0.000000 0.000000 0.000000 0.000000 0.048363
#
#
# Mechanical properties :
#
#
# Convention : Reuss Voigt Hill
#
# Bulk Modulus (GPa) = 16.37594 68.39083 42.38339
# Shear Modulus (GPa) = 24.35097 21.54728 22.94913
#
# Velocity S-wave (km/s) = 3.58274 3.37018 3.47809
# Velocity P-wave (km/s) = 5.07414 7.15505 6.20248
#
# Compressibility (1/GPa) = 0.06106520
#
# Stress axis : x y z
#
# Youngs Moduli (GPa) = 99.39447 11.72261 130.27300
#
# Poissons Ratio (x) = 0.12653 0.36904
# Poissons Ratio (y) = 1.07285 0.95906
# Poissons Ratio (z) = 0.28156 0.08630
#
# Static dielectric constant tensor:
#      x y z
#    x 3.779000 0.000000 0.000000 
#    y 0.000000 2.945730 0.000000 
#    z 0.000000 0.000000 3.740860 
# 
# 
# High freq. dielectric constant tensor:
#      x y z
#    x 1.761870 0.000000 0.000000 
#    y 0.000000 1.680560 0.000000 
#    z 0.000000 0.000000 1.760200 
# 
# From -- ./inp_files/34153.got.cif
#   From: 2010.03.12/outbox.cif.g09.slc.cpg/sg47_18_cif.got.tgz:34153.got - 2010.04.14 03:12:58.
