data_PCOD8197639
_publ_section_title
;
Structure prediction by ZEFSAII (Michael W. Deem and Ramdas Pophale) SiO2 
 PCOD8197639
Probable space group: P M M M
;
_chemical_formula_sum "Si O2"
_cell_formula_units_Z 56
_cell_length_a 17.411655
_cell_length_b 8.977164
_cell_length_c 19.936896
_cell_angle_alpha 90.000000
_cell_angle_beta 90.000000
_cell_angle_gamma 90.000000
_cell_volume 3116.282034
_symmetry_space_group_name_H-M "P M M M"
_symmetry_group_IT_number 47
_symmetry_cell_setting 'orthorhombic'
loop_
_space_group_symop_operation_xyz
x,y,z
-x,-y,z
x,-y,-z
-x,y,-z
-x,-y,-z
x,y,-z
-x,y,z
x,-y,z
loop_
_atom_site_type_symbol
_atom_site_label
_atom_site_fract_x
_atom_site_fract_y
_atom_site_fract_z
Si Si1 0.090448 0.171154 0.424331
Si Si2 0.413986 0.322918 0.500000
Si Si3 0.846041 0.326416 0.921419
Si Si4 0.584278 0.174821 0.765405
Si Si5 0.360628 0.330516 0.638966
Si Si6 0.809593 0.329715 0.686490
Si Si7 0.251961 0.177061 0.814790
Si Si8 0.000000 0.832125 0.079628
O O1 0.114374 0.223782 0.500000
O O2 0.128453 0.267456 0.365608
O O3 0.000000 0.189977 0.415897
O O4 0.114964 0.000000 0.414589
O O5 0.408138 0.500000 0.500000
O O6 0.500000 0.264796 0.500000
O O7 0.373303 0.258772 0.566028
O O8 0.847934 0.500000 0.904111
O O9 0.775207 0.247437 0.884622
O O10 0.924999 0.254235 0.894503
O O11 0.834675 0.297714 0.000000
O O12 0.500000 0.218725 0.796850
O O13 0.588327 0.240974 0.691405
O O14 0.658721 0.230833 0.807373
O O15 0.590609 0.000000 0.758365
O O16 0.389725 0.500000 0.642675
O O17 0.271103 0.317437 0.650466
O O18 0.830890 0.500000 0.704347
O O19 0.803520 0.236547 0.755501
O O20 0.245121 0.000000 0.817353
O O21 0.000000 0.000000 0.108637
O O22 0.000000 0.834330 0.000000
#
# Coordination Sequence:
#
# PCOD8197639 Si02
#       8
#     8   4   8   8   8   8   8   4
#     4   9  19  36  55  73  96 130 173 218 263 315
#     4   9  16  26  41  63  92 123 156 194 239 295
#     4  10  20  35  56  82 113 144 175 215 260 305
#     4   9  18  33  52  73  99 131 169 215 262 306
#     4   9  18  30  46  68  94 127 164 203 249 306
#     4  10  20  33  51  74 102 131 168 217 264 312
#     4  10  20  35  55  78 107 140 177 217 260 315
#     4   9  17  31  53  81 111 143 178 207 240 297
#
# _framework density 17.970133000000001
#
# number of rings (size 3 to 8) (size 9 to 14) (size 15 to 20)
#    0.000    2.571    0.000    2.357    1.000    4.286 
#    1.286    1.071    0.000    1.714    0.000    3.000 
#    0.000    0.000    0.000    0.000    0.000    0.000 
#
# Total GULP energy -694139.831452 kJ/mol
# GULP energy per Si atom -12395.354133 kJ/mol
# Density = 1.792923 g / cm^3
# Si number density = 17.970133 Si / 1000 Ang^3
#
#
#
# Elastic Constant Matrix: (Units=GPa)
#
#
# Indices 1 2 3 4 5 6 
#
# 1 95.7208 46.0300 52.3026 0.0000 0.0000 0.0000
# 2 46.0300 71.4912 40.2909 0.0000 0.0000 0.0000
# 3 52.3026 40.2909 80.1352 0.0000 0.0000 0.0000
# 4 0.0000 0.0000 0.0000 26.1931 0.0000 0.0000
# 5 0.0000 0.0000 0.0000 0.0000 24.4273 0.0000
# 6 0.0000 0.0000 0.0000 0.0000 0.0000 22.9433
#
#
#
# Elastic Compliance Matrix: (Units=1/GPa)
#
#
# Indices 1 2 3 4 5 6 
#
# 1 0.018524 -0.007135 -0.008503 0.000000 0.000000 0.000000
# 2 -0.007135 0.022266 -0.006539 0.000000 0.000000 0.000000
# 3 -0.008503 -0.006539 0.021316 0.000000 0.000000 0.000000
# 4 0.000000 0.000000 0.000000 0.038178 0.000000 0.000000
# 5 0.000000 0.000000 0.000000 0.000000 0.040938 0.000000
# 6 0.000000 0.000000 0.000000 0.000000 0.000000 0.043586
#
#
# Mechanical properties :
#
#
# Convention : Reuss Voigt Hill
#
# Bulk Modulus (GPa) = 56.32522 58.28824 57.30673
# Shear Modulus (GPa) = 21.26943 21.96099 21.61521
#
# Velocity S-wave (km/s) = 3.44408 3.49962 3.47196
# Velocity P-wave (km/s) = 6.87222 6.98830 6.93051
#
# Compressibility (1/GPa) = 0.01775404
#
# Stress axis : x y z
#
# Youngs Moduli (GPa) = 53.98363 44.91056 46.91258
#
# Poissons Ratio (x) = 0.32042 0.39890
# Poissons Ratio (y) = 0.38516 0.30674
# Poissons Ratio (z) = 0.45903 0.29365
#
# Static dielectric constant tensor:
#      x y z
#    x 3.503330 0.000000 0.000000 
#    y 0.000000 3.339410 0.000000 
#    z 0.000000 0.000000 3.247050 
# 
# 
# High freq. dielectric constant tensor:
#      x y z
#    x 1.698430 0.000000 0.000000 
#    y 0.000000 1.693570 0.000000 
#    z 0.000000 0.000000 1.679270 
# 
# From -- ./inp_files/31000.got.cif
#   From: 2010.03.12/outbox.cif.g09.slc.cpg/sg47_16_cif.got.tgz:31000.got - 2010.04.14 03:12:58.
