data_PCOD8197295
_publ_section_title
;
Structure prediction by ZEFSAII (Michael W. Deem and Ramdas Pophale) SiO2 
 PCOD8197295
Probable space group: P M M M
;
_chemical_formula_sum "Si O2"
_cell_formula_units_Z 32
_cell_length_a 18.640150
_cell_length_b 7.799880
_cell_length_c 14.514102
_cell_angle_alpha 90.000000
_cell_angle_beta 90.000000
_cell_angle_gamma 90.000000
_cell_volume 2110.218834
_symmetry_space_group_name_H-M "P M M M"
_symmetry_group_IT_number 47
_symmetry_cell_setting 'orthorhombic'
loop_
_space_group_symop_operation_xyz
x,y,z
-x,-y,z
x,-y,-z
-x,y,-z
-x,-y,-z
x,y,-z
-x,y,z
x,-y,z
loop_
_atom_site_type_symbol
_atom_site_label
_atom_site_fract_x
_atom_site_fract_y
_atom_site_fract_z
Si Si1 0.080539 0.190226 0.609550
Si Si2 0.584126 0.191350 0.293636
Si Si3 0.584996 0.694133 0.099415
Si Si4 0.338016 0.500000 0.390873
Si Si5 0.824786 0.500000 0.390152
O O1 0.081471 0.196052 0.500000
O O2 0.135399 0.331103 0.649612
O O3 0.000000 0.232021 0.644348
O O4 0.103876 0.000000 0.643364
O O5 0.500000 0.234954 0.298280
O O6 0.611920 0.198174 0.187415
O O7 0.624458 0.327875 0.356090
O O8 0.599743 0.000000 0.331270
O O9 0.500000 0.700384 0.095954
O O10 0.611641 0.500000 0.113664
O O11 0.614206 0.764617 0.000000
O O12 0.342176 0.500000 0.500000
O O13 0.256517 0.500000 0.354624
O O14 0.827448 0.500000 0.500000
#
# Coordination Sequence:
#
# PCOD8197295 Si02
#       5
#     8   8   8   4   4
#     4   8  13  22  38  59  79  96 117 152 198 246
#     4  10  20  33  48  63  79 103 139 182 225 265
#     4   8  13  24  45  69  88 102 117 150 208 272
#     4  11  23  35  44  55  77 111 151 193 223 240
#     4   9  17  27  39  54  73 101 134 168 206 243
#
# _framework density 15.164305000000001
#
# number of rings (size 3 to 8) (size 9 to 14) (size 15 to 20)
#    0.000    3.000    1.250    2.250    0.000    4.500 
#    0.000    6.250    0.000    0.000    0.000    0.000 
#    0.000    0.000    0.000    0.000    0.000   10.000 
#
# Total GULP energy -396464.975711 kJ/mol
# GULP energy per Si atom -12389.530491 kJ/mol
# Density = 1.512979 g / cm^3
# Si number density = 15.164305 Si / 1000 Ang^3
#
#
#
# Elastic Constant Matrix: (Units=GPa)
#
#
# Indices 1 2 3 4 5 6 
#
# 1 78.1981 63.7242 27.6091 0.0000 0.0000 0.0000
# 2 63.7242 122.8931 33.6264 0.0000 0.0000 0.0000
# 3 27.6091 33.6264 52.6827 0.0000 0.0000 0.0000
# 4 0.0000 0.0000 0.0000 11.1911 0.0000 0.0000
# 5 0.0000 0.0000 0.0000 0.0000 -0.3859 0.0000
# 6 0.0000 0.0000 0.0000 0.0000 0.0000 12.6622
#
#
#
# Elastic Compliance Matrix: (Units=1/GPa)
#
#
# Indices 1 2 3 4 5 6 
#
# 1 0.023378 -0.010626 -0.005469 0.000000 0.000000 0.000000
# 2 -0.010626 0.014689 -0.003807 0.000000 0.000000 0.000000
# 3 -0.005469 -0.003807 0.024278 0.000000 0.000000 0.000000
# 4 0.000000 0.000000 0.000000 0.089357 0.000000 0.000000
# 5 0.000000 0.000000 0.000000 0.000000 -2.591450 0.000000
# 6 0.000000 0.000000 0.000000 0.000000 0.000000 0.078975
#
#
# Mechanical properties :
#
#
# Convention : Reuss Voigt Hill
#
# Bulk Modulus (GPa) = 44.36485 55.96592 50.16539
# Shear Modulus (GPa) = -2.16127 13.28109 5.55991
#
# Velocity S-wave (km/s) = -1.19513 2.96262 1.91687
# Velocity P-wave (km/s) = 5.23595 6.97777 6.16865
#
# Compressibility (1/GPa) = 0.02254037
#
# Stress axis : x y z
#
# Youngs Moduli (GPa) = 42.77499 68.07982 41.19001
#
# Poissons Ratio (x) = 0.72340 0.22528
# Poissons Ratio (y) = 0.45452 0.15681
# Poissons Ratio (z) = 0.23395 0.25917
#
# Static dielectric constant tensor:
#      x y z
#    x 2.751690 0.000000 0.000000 
#    y 0.000000 3.144730 0.000000 
#    z 0.000000 0.000000 2.898750 
# 
# 
# High freq. dielectric constant tensor:
#      x y z
#    x 1.540730 0.000000 0.000000 
#    y 0.000000 1.596350 0.000000 
#    z 0.000000 0.000000 1.537970 
# 
# From -- ./inp_files/23197.got.cif
#   From: 2010.03.12/outbox.cif.g09.slc.cpg/sg47_12_cif.got.tgz:23197.got - 2010.04.14 03:12:58.
