data_PCOD8197099
_publ_section_title
;
Structure prediction by ZEFSAII (Michael W. Deem and Ramdas Pophale) SiO2 
 PCOD8197099
Probable space group: P M M M
;
_chemical_formula_sum "Si O2"
_cell_formula_units_Z 48
_cell_length_a 9.204807
_cell_length_b 10.225734
_cell_length_c 29.468781
_cell_angle_alpha 90.000000
_cell_angle_beta 90.000000
_cell_angle_gamma 90.000000
_cell_volume 2773.775766
_symmetry_space_group_name_H-M "P M M M"
_symmetry_group_IT_number 47
_symmetry_cell_setting 'orthorhombic'
loop_
_space_group_symop_operation_xyz
x,y,z
-x,-y,z
x,-y,-z
-x,y,-z
-x,-y,-z
x,y,-z
-x,y,z
x,-y,z
loop_
_atom_site_type_symbol
_atom_site_label
_atom_site_fract_x
_atom_site_fract_y
_atom_site_fract_z
Si Si1 0.826931 0.749565 0.104177
Si Si2 0.161640 0.344721 0.703974
Si Si3 0.167001 0.148089 0.553252
Si Si4 0.173275 0.500000 0.949219
Si Si5 0.172956 0.646298 0.802452
Si Si6 0.671228 0.651122 0.615748
Si Si7 0.826401 0.000000 0.948338
O O1 0.766520 0.626175 0.076645
O O2 0.772664 0.739834 0.156589
O O3 0.000000 0.752205 0.102930
O O4 0.764003 0.876587 0.079228
O O5 0.154277 0.500000 0.706640
O O6 0.221328 0.295687 0.753223
O O7 0.268344 0.298823 0.664116
O O8 0.000000 0.288703 0.694056
O O9 0.191110 0.164725 0.500000
O O10 0.266319 0.255915 0.576986
O O11 0.000000 0.174691 0.566219
O O12 0.210450 0.000000 0.567893
O O13 0.000000 0.500000 0.949671
O O14 0.235560 0.500000 0.000000
O O15 0.235860 0.500000 0.810218
O O16 0.000000 0.637550 0.802607
O O17 0.500000 0.666104 0.616586
O O18 0.716809 0.500000 0.606353
O O19 0.000000 0.000000 0.949221
O O20 0.767380 0.000000 0.000000
#
# Coordination Sequence:
#
# PCOD8197099 Si02
#       7
#     8   8   8   4   8   8   4
#     4   9  14  20  29  41  59  85 121 164 205 249
#     4   8  14  25  43  64  86 115 152 192 234 277
#     4   9  19  36  56  76  99 130 168 206 242 282
#     4   9  14  18  26  40  58  82 117 161 202 243
#     4   8  12  20  35  53  68  89 130 180 220 254
#     4  10  20  32  48  74 105 133 163 199 240 287
#     4   9  16  22  26  36  60  94 125 153 196 257
#
# _framework density 17.304929999999999
#
# number of rings (size 3 to 8) (size 9 to 14) (size 15 to 20)
#    0.000    3.167    0.833    2.500    0.000    4.000 
#    0.000    2.500    1.833    0.000    0.000    0.000 
#    0.000    0.000    0.000    0.000    0.000    5.000 
#
# Total GULP energy -594804.654519 kJ/mol
# GULP energy per Si atom -12391.763636 kJ/mol
# Density = 1.726554 g / cm^3
# Si number density = 17.304930 Si / 1000 Ang^3
#
#
#
# Elastic Constant Matrix: (Units=GPa)
#
#
# Indices 1 2 3 4 5 6 
#
# 1 39.5598 29.4111 38.5189 0.0000 0.0000 0.0000
# 2 29.4111 104.7278 65.2806 0.0000 0.0000 0.0000
# 3 38.5189 65.2806 130.4986 0.0000 0.0000 0.0000
# 4 0.0000 0.0000 0.0000 25.7257 0.0000 0.0000
# 5 0.0000 0.0000 0.0000 0.0000 0.8086 0.0000
# 6 0.0000 0.0000 0.0000 0.0000 0.0000 13.3229
#
#
#
# Elastic Compliance Matrix: (Units=1/GPa)
#
#
# Indices 1 2 3 4 5 6 
#
# 1 0.037365 -0.005258 -0.008399 0.000000 0.000000 0.000000
# 2 -0.005258 0.014615 -0.005759 0.000000 0.000000 0.000000
# 3 -0.008399 -0.005759 0.013023 0.000000 0.000000 0.000000
# 4 0.000000 0.000000 0.000000 0.038872 0.000000 0.000000
# 5 0.000000 0.000000 0.000000 0.000000 1.236770 0.000000
# 6 0.000000 0.000000 0.000000 0.000000 0.000000 0.075059
#
#
# Mechanical properties :
#
#
# Convention : Reuss Voigt Hill
#
# Bulk Modulus (GPa) = 38.20978 60.13414 49.17196
# Shear Modulus (GPa) = 3.41703 17.40981 10.41342
#
# Velocity S-wave (km/s) = 1.40673 3.17529 2.45574
# Velocity P-wave (km/s) = 4.97662 6.94755 6.04298
#
# Compressibility (1/GPa) = 0.02617131
#
# Stress axis : x y z
#
# Youngs Moduli (GPa) = 26.76303 68.42276 76.78872
#
# Poissons Ratio (x) = 0.35978 0.64491
# Poissons Ratio (y) = 0.14073 0.44222
# Poissons Ratio (z) = 0.22477 0.39404
#
# Static dielectric constant tensor:
#      x y z
#    x 2.673370 0.000000 0.000000 
#    y 0.000000 3.152160 0.000000 
#    z 0.000000 0.000000 3.629090 
# 
# 
# High freq. dielectric constant tensor:
#      x y z
#    x 1.605170 0.000000 0.000000 
#    y 0.000000 1.645100 0.000000 
#    z 0.000000 0.000000 1.687580 
# 
# From -- ./inp_files/34052.got.cif
#   From: 2010.03.12/outbox.cif.g09.slc.cpg/sg47_18_cif.got.tgz:34052.got - 2010.04.14 03:12:58.
