data_PCOD8197553
_publ_section_title
;
Structure prediction by ZEFSAII (Michael W. Deem and Ramdas Pophale) SiO2 
 PCOD8197553
Probable space group: P M M M
;
_chemical_formula_sum "Si O2"
_cell_formula_units_Z 48
_cell_length_a 14.722736
_cell_length_b 18.808158
_cell_length_c 8.928518
_cell_angle_alpha 90.000000
_cell_angle_beta 90.000000
_cell_angle_gamma 90.000000
_cell_volume 2472.373999
_symmetry_space_group_name_H-M "P M M M"
_symmetry_group_IT_number 47
_symmetry_cell_setting 'orthorhombic'
loop_
_space_group_symop_operation_xyz
x,y,z
-x,-y,z
x,-y,-z
-x,y,-z
-x,-y,-z
x,y,-z
-x,y,z
x,-y,z
loop_
_atom_site_type_symbol
_atom_site_label
_atom_site_fract_x
_atom_site_fract_y
_atom_site_fract_z
Si Si1 0.397223 0.417521 0.174035
Si Si2 0.831733 0.078230 0.828275
Si Si3 0.731411 0.694329 0.324859
Si Si4 0.598854 0.207656 0.832945
Si Si5 0.898166 0.232212 0.173969
Si Si6 0.644179 0.078859 0.669402
O O1 0.500000 0.399771 0.232821
O O2 0.376724 0.500000 0.200436
O O3 0.316555 0.375298 0.255849
O O4 0.392248 0.397348 0.000000
O O5 0.891939 0.147489 0.787990
O O6 0.748887 0.080993 0.714914
O O7 0.881006 0.000000 0.807972
O O8 0.797717 0.084661 0.000000
O O9 0.741060 0.682236 0.500000
O O10 0.665710 0.759614 0.288396
O O11 0.830286 0.714816 0.261196
O O12 0.500000 0.245007 0.830290
O O13 0.586259 0.126301 0.783850
O O14 0.640577 0.213715 0.000000
O O15 0.000000 0.255895 0.217325
O O16 0.878502 0.244344 0.000000
O O17 0.634737 0.107253 0.500000
O O18 0.604207 0.000000 0.681919
#
# Coordination Sequence:
#
# PCOD8197553 Si02
#       6
#     8   8   8   8   8   8
#     4   9  19  38  65  95 125 157 191 226 268 325
#     4   9  17  31  53  78 105 140 184 237 295 351
#     4  12  24  37  57  85 119 155 186 228 285 336
#     4  11  23  37  54  76 104 143 191 236 278 333
#     4  10  21  37  58  83 112 150 196 243 291 346
#     4  10  20  33  50  73 103 139 179 228 288 347
#
# _framework density 19.414539000000001
#
# number of rings (size 3 to 8) (size 9 to 14) (size 15 to 20)
#    0.000    1.833    1.667    3.500    0.000    6.000 
#    0.000    4.167    0.000    0.500    0.000    7.000 
#    0.000    0.000    0.000    0.000    0.000    0.000 
#
# Total GULP energy -594730.391078 kJ/mol
# GULP energy per Si atom -12390.216481 kJ/mol
# Density = 1.937035 g / cm^3
# Si number density = 19.414539 Si / 1000 Ang^3
#
#
#
# Elastic Constant Matrix: (Units=GPa)
#
#
# Indices 1 2 3 4 5 6 
#
# 1 120.4604 52.8128 49.8585 0.0000 0.0000 0.0000
# 2 52.8128 106.2053 52.6977 0.0000 0.0000 0.0000
# 3 49.8585 52.6977 88.2480 0.0000 0.0000 0.0000
# 4 0.0000 0.0000 0.0000 26.6909 0.0000 0.0000
# 5 0.0000 0.0000 0.0000 0.0000 -21.8633 0.0000
# 6 0.0000 0.0000 0.0000 0.0000 0.0000 41.6604
#
#
#
# Elastic Compliance Matrix: (Units=1/GPa)
#
#
# Indices 1 2 3 4 5 6 
#
# 1 0.011739 -0.003619 -0.004471 0.000000 0.000000 0.000000
# 2 -0.003619 0.014496 -0.006612 0.000000 0.000000 0.000000
# 3 -0.004471 -0.006612 0.017806 0.000000 0.000000 0.000000
# 4 0.000000 0.000000 0.000000 0.037466 0.000000 0.000000
# 5 0.000000 0.000000 0.000000 0.000000 -0.045739 0.000000
# 6 0.000000 0.000000 0.000000 0.000000 0.000000 0.024004
#
#
# Mechanical properties :
#
#
# Convention : Reuss Voigt Hill
#
# Bulk Modulus (GPa) = 68.31883 69.51686 68.91784
# Shear Modulus (GPa) = 53.16107 19.93392 36.54750
#
# Velocity S-wave (km/s) = 5.23847 3.20777 4.34346
# Velocity P-wave (km/s) = 8.47671 7.04302 7.79290
#
# Compressibility (1/GPa) = 0.01463725
#
# Stress axis : x y z
#
# Youngs Moduli (GPa) = 85.18871 68.98503 56.16063
#
# Poissons Ratio (x) = 0.24964 0.25110
# Poissons Ratio (y) = 0.30828 0.37132
# Poissons Ratio (z) = 0.38089 0.45611
#
# Static dielectric constant tensor:
#      x y z
#    x 3.388790 0.000000 0.000000 
#    y 0.000000 3.656430 0.000000 
#    z 0.000000 0.000000 3.428620 
# 
# 
# High freq. dielectric constant tensor:
#      x y z
#    x 1.738670 0.000000 0.000000 
#    y 0.000000 1.751080 0.000000 
#    z 0.000000 0.000000 1.749300 
# 
# From -- ./inp_files/6373.got.cif
#   From: 2010.03.12/outbox.cif.g09.slc.cpg/sg47_4_cif.got.tgz:6373.got - 2010.04.14 03:12:58.
