data_PCOD8197603
_publ_section_title
;
Structure prediction by ZEFSAII (Michael W. Deem and Ramdas Pophale) SiO2 
 PCOD8197603
Probable space group: P M M M
;
_chemical_formula_sum "Si O2"
_cell_formula_units_Z 40
_cell_length_a 9.075158
_cell_length_b 8.933267
_cell_length_c 25.757356
_cell_angle_alpha 90.000000
_cell_angle_beta 90.000000
_cell_angle_gamma 90.000000
_cell_volume 2088.169701
_symmetry_space_group_name_H-M "P M M M"
_symmetry_group_IT_number 47
_symmetry_cell_setting 'orthorhombic'
loop_
_space_group_symop_operation_xyz
x,y,z
-x,-y,z
x,-y,-z
-x,y,-z
-x,-y,-z
x,y,-z
-x,y,z
x,-y,z
loop_
_atom_site_type_symbol
_atom_site_label
_atom_site_fract_x
_atom_site_fract_y
_atom_site_fract_z
Si Si1 0.333454 0.178704 0.000000
Si Si2 0.833857 0.178087 0.898917
Si Si3 0.829605 0.824937 0.405017
Si Si4 0.168766 0.324883 0.702128
Si Si5 0.672756 0.827228 0.204378
Si Si6 0.674088 0.329269 0.500000
O O1 0.250754 0.241677 0.050820
O O2 0.500000 0.239670 0.000000
O O3 0.332459 0.000000 0.000000
O O4 0.751917 0.234011 0.847258
O O5 0.000000 0.240979 0.898885
O O6 0.833645 0.000000 0.900840
O O7 0.780820 0.757806 0.350033
O O8 0.732615 0.751040 0.449082
O O9 0.000000 0.789643 0.416583
O O10 0.797510 0.000000 0.404157
O O11 0.189776 0.500000 0.693276
O O12 0.273771 0.271211 0.747837
O O13 0.000000 0.284228 0.715980
O O14 0.500000 0.805974 0.196492
O O15 0.713956 0.000000 0.214824
O O16 0.728914 0.500000 0.500000
O O17 0.500000 0.317971 0.500000
#
# Coordination Sequence:
#
# PCOD8197603 Si02
#       6
#     4   8   8   8   8   4
#     4   9  15  23  37  61  96 133 168 211 264 319
#     4   9  16  26  42  65  95 132 173 216 262 313
#     4  10  21  38  61  86 110 140 180 223 267 316
#     4  10  21  37  57  80 105 136 175 218 265 317
#     4  10  20  33  50  74 104 138 175 216 265 318
#     4  11  24  39  56  82 116 151 184 219 262 312
#
# _framework density 19.155532000000001
#
# number of rings (size 3 to 8) (size 9 to 14) (size 15 to 20)
#    0.000    2.200    0.000    3.300    0.000   10.000 
#    0.000    0.000    0.000    0.000    0.000    0.700 
#    0.000    5.600    0.000    0.000    0.000    0.000 
#
# Total GULP energy -496148.234507 kJ/mol
# GULP energy per Si atom -12403.705863 kJ/mol
# Density = 1.911193 g / cm^3
# Si number density = 19.155532 Si / 1000 Ang^3
#
#
#
# Elastic Constant Matrix: (Units=GPa)
#
#
# Indices 1 2 3 4 5 6 
#
# 1 113.4795 37.2273 76.4173 0.0000 0.0000 0.0000
# 2 37.2273 66.0100 51.6676 0.0000 0.0000 0.0000
# 3 76.4173 51.6676 168.4744 0.0000 0.0000 0.0000
# 4 0.0000 0.0000 0.0000 -62.5474 0.0000 0.0000
# 5 0.0000 0.0000 0.0000 0.0000 75.5137 0.0000
# 6 0.0000 0.0000 0.0000 0.0000 0.0000 22.6200
#
#
#
# Elastic Compliance Matrix: (Units=1/GPa)
#
#
# Indices 1 2 3 4 5 6 
#
# 1 0.013329 -0.003664 -0.004922 0.000000 0.000000 0.000000
# 2 -0.003664 0.020942 -0.004760 0.000000 0.000000 0.000000
# 3 -0.004922 -0.004760 0.009628 0.000000 0.000000 0.000000
# 4 0.000000 0.000000 0.000000 -0.015988 0.000000 0.000000
# 5 0.000000 0.000000 0.000000 0.000000 0.013243 0.000000
# 6 0.000000 0.000000 0.000000 0.000000 0.000000 0.044209
#
#
# Mechanical properties :
#
#
# Convention : Reuss Voigt Hill
#
# Bulk Modulus (GPa) = 58.12165 75.39871 66.76018
# Shear Modulus (GPa) = 42.44832 19.29403 30.87117
#
# Velocity S-wave (km/s) = 4.71253 3.17713 4.01884
# Velocity P-wave (km/s) = 7.74715 7.27363 7.51412
#
# Compressibility (1/GPa) = 0.01720529
#
# Stress axis : x y z
#
# Youngs Moduli (GPa) = 75.02604 47.75133 103.86387
#
# Poissons Ratio (x) = 0.17498 0.51121
# Poissons Ratio (y) = 0.27493 0.49442
# Poissons Ratio (z) = 0.36927 0.22731
#
# Static dielectric constant tensor:
#      x y z
#    x 3.566950 0.000000 0.000000 
#    y 0.000000 3.226280 0.000000 
#    z 0.000000 0.000000 3.617300 
# 
# 
# High freq. dielectric constant tensor:
#      x y z
#    x 1.750530 0.000000 0.000000 
#    y 0.000000 1.713600 0.000000 
#    z 0.000000 0.000000 1.762250 
# 
# From -- ./inp_files/1868.got.cif
#   From: 2010.03.12/outbox.cif.g09.slc.cpg/sg47_1_cif.got.tgz:1868.got - 2010.04.14 03:12:58.
