data_PCOD8197992
_publ_section_title
;
Structure prediction by ZEFSAII (Michael W. Deem and Ramdas Pophale) SiO2 
 PCOD8197992
Probable space group: P M M M
;
_chemical_formula_sum "Si O2"
_cell_formula_units_Z 64
_cell_length_a 9.159725
_cell_length_b 14.205640
_cell_length_c 31.531478
_cell_angle_alpha 90.000000
_cell_angle_beta 90.000000
_cell_angle_gamma 90.000000
_cell_volume 4102.868219
_symmetry_space_group_name_H-M "P M M M"
_symmetry_group_IT_number 47
_symmetry_cell_setting 'orthorhombic'
loop_
_space_group_symop_operation_xyz
x,y,z
-x,-y,z
x,-y,-z
-x,y,-z
-x,-y,-z
x,y,-z
-x,y,z
x,-y,z
loop_
_atom_site_type_symbol
_atom_site_label
_atom_site_fract_x
_atom_site_fract_y
_atom_site_fract_z
Si Si1 0.830136 0.893390 0.827485
Si Si2 0.829765 0.390977 0.872298
Si Si3 0.326114 0.395404 0.717350
Si Si4 0.325961 0.279580 0.797891
Si Si5 0.668499 0.893775 0.084611
Si Si6 0.836433 0.388177 0.546163
Si Si7 0.166601 0.269981 0.047165
Si Si8 0.661755 0.612293 0.625142
O O1 0.742998 0.824568 0.796115
O O2 0.765221 0.878719 0.873894
O O3 0.000000 0.865956 0.828914
O O4 0.807113 0.000000 0.811449
O O5 0.785127 0.500000 0.872451
O O6 0.733517 0.337551 0.837737
O O7 0.791430 0.349375 0.918579
O O8 0.000000 0.377468 0.861390
O O9 0.500000 0.399418 0.715528
O O10 0.264843 0.500000 0.726896
O O11 0.271436 0.327645 0.754514
O O12 0.269712 0.359328 0.671091
O O13 0.500000 0.274216 0.800931
O O14 0.500000 0.872102 0.095505
O O15 0.728526 0.820915 0.050141
O O16 0.685739 0.000000 0.067037
O O17 0.769092 0.359472 0.500000
O O18 0.835691 0.500000 0.550153
O O19 0.750124 0.343351 0.585734
O O20 0.000000 0.349293 0.548944
O O21 0.000000 0.236705 0.054012
O O22 0.187640 0.312945 0.000000
O O23 0.500000 0.654086 0.620964
O O24 0.658003 0.500000 0.622605
#
# Coordination Sequence:
#
# PCOD8197992 Si02
#       8
#     8   8   8   8   8   8   8   8
#     4  10  20  34  52  72  95 120 143 172 212 258
#     4  10  21  36  52  70  93 120 151 185 217 252
#     4   8  15  27  41  60  87 117 146 178 219 260
#     4  11  20  31  51  74  94 117 146 180 219 263
#     4  10  20  34  53  76  98 119 143 173 212 255
#     4   8  13  20  29  43  66  96 131 175 225 266
#     4  10  21  36  53  72  95 124 152 177 212 257
#     4   8  13  22  35  49  69 100 139 179 213 250
#
# _framework density 15.598844
#
# number of rings (size 3 to 8) (size 9 to 14) (size 15 to 20)
#    0.000    2.625    1.250    2.625    0.000    3.250 
#    0.000    5.000    0.000    3.000    0.000    1.750 
#    0.000    0.000    0.000    0.000    0.000    0.625 
#
# Total GULP energy -793242.907347 kJ/mol
# GULP energy per Si atom -12394.420427 kJ/mol
# Density = 1.556334 g / cm^3
# Si number density = 15.598844 Si / 1000 Ang^3
#
#
#
# Elastic Constant Matrix: (Units=GPa)
#
#
# Indices 1 2 3 4 5 6 
#
# 1 68.3282 34.1060 46.7349 0.0000 0.0000 0.0000
# 2 34.1060 72.5724 44.8228 0.0000 0.0000 0.0000
# 3 46.7349 44.8228 134.1262 0.0000 0.0000 0.0000
# 4 0.0000 0.0000 0.0000 7.6013 0.0000 0.0000
# 5 0.0000 0.0000 0.0000 0.0000 14.8826 0.0000
# 6 0.0000 0.0000 0.0000 0.0000 0.0000 19.4558
#
#
#
# Elastic Compliance Matrix: (Units=1/GPa)
#
#
# Indices 1 2 3 4 5 6 
#
# 1 0.021688 -0.006962 -0.005230 0.000000 0.000000 0.000000
# 2 -0.006962 0.019598 -0.004123 0.000000 0.000000 0.000000
# 3 -0.005230 -0.004123 0.010656 0.000000 0.000000 0.000000
# 4 0.000000 0.000000 0.000000 0.131557 0.000000 0.000000
# 5 0.000000 0.000000 0.000000 0.000000 0.067193 0.000000
# 6 0.000000 0.000000 0.000000 0.000000 0.000000 0.051399
#
#
# Mechanical properties :
#
#
# Convention : Reuss Voigt Hill
#
# Bulk Modulus (GPa) = 51.78580 58.48378 55.13479
# Shear Modulus (GPa) = 14.65595 18.34547 16.50071
#
# Velocity S-wave (km/s) = 3.06854 3.43312 3.25594
# Velocity P-wave (km/s) = 6.76943 7.29992 7.03967
#
# Compressibility (1/GPa) = 0.01931031
#
# Stress axis : x y z
#
# Youngs Moduli (GPa) = 46.10910 51.02572 93.84287
#
# Poissons Ratio (x) = 0.35524 0.49083
# Poissons Ratio (y) = 0.32101 0.38696
# Poissons Ratio (z) = 0.24116 0.21040
#
# Static dielectric constant tensor:
#      x y z
#    x 3.006410 0.000000 0.000000 
#    y 0.000000 2.846230 0.000000 
#    z 0.000000 0.000000 3.187460 
# 
# 
# High freq. dielectric constant tensor:
#      x y z
#    x 1.595230 0.000000 0.000000 
#    y 0.000000 1.558960 0.000000 
#    z 0.000000 0.000000 1.594890 
# 
# From -- ./inp_files/34453.got.cif
#   From: 2010.03.12/outbox.cif.g09.slc.cpg/sg47_18_cif.got.tgz:34453.got - 2010.04.14 03:12:58.
