data_PCOD8197561
_publ_section_title
;
Structure prediction by ZEFSAII (Michael W. Deem and Ramdas Pophale) SiO2 
 PCOD8197561
Probable space group: P M M M
;
_chemical_formula_sum "Si O2"
_cell_formula_units_Z 52
_cell_length_a 9.188995
_cell_length_b 19.813225
_cell_length_c 15.875596
_cell_angle_alpha 90.000000
_cell_angle_beta 90.000000
_cell_angle_gamma 90.000000
_cell_volume 2890.368564
_symmetry_space_group_name_H-M "P M M M"
_symmetry_group_IT_number 47
_symmetry_cell_setting 'orthorhombic'
loop_
_space_group_symop_operation_xyz
x,y,z
-x,-y,z
x,-y,-z
-x,y,-z
-x,-y,-z
x,y,-z
-x,y,z
x,-y,z
loop_
_atom_site_type_symbol
_atom_site_label
_atom_site_fract_x
_atom_site_fract_y
_atom_site_fract_z
Si Si1 0.828798 0.922183 0.673478
Si Si2 0.170539 0.577034 0.743697
Si Si3 0.829657 0.322758 0.597289
Si Si4 0.336831 0.920060 0.840331
Si Si5 0.665407 0.580108 0.092774
Si Si6 0.660339 0.192658 0.403149
Si Si7 0.164241 0.080685 0.000000
O O1 0.755886 0.898260 0.760019
O O2 0.755307 0.875515 0.603572
O O3 0.000000 0.909693 0.678592
O O4 0.793909 0.000000 0.652187
O O5 0.221391 0.500000 0.729919
O O6 0.217359 0.616410 0.658902
O O7 0.242275 0.608932 0.828361
O O8 0.000000 0.581963 0.758268
O O9 0.789215 0.340917 0.500000
O O10 0.746436 0.256993 0.633180
O O11 0.000000 0.307176 0.604257
O O12 0.500000 0.889673 0.836467
O O13 0.345904 0.000000 0.847079
O O14 0.250714 0.890579 0.919936
O O15 0.500000 0.603897 0.105532
O O16 0.676898 0.500000 0.093741
O O17 0.721232 0.605648 0.000000
O O18 0.637458 0.206913 0.500000
O O19 0.500000 0.185048 0.360294
O O20 0.000000 0.109069 0.000000
O O21 0.160476 0.000000 0.000000
#
# Coordination Sequence:
#
# PCOD8197561 Si02
#       7
#     8   8   8   8   8   8   4
#     4  10  20  33  50  73  99 125 155 194 242 296
#     4   9  17  28  45  73 104 132 166 207 249 290
#     4   9  18  33  51  70  96 131 168 204 244 295
#     4   9  16  26  41  63  92 123 154 189 230 276
#     4   8  14  25  41  63  94 131 167 202 242 289
#     4  10  21  36  53  72  94 123 161 202 243 291
#     4   9  15  23  37  59  89 123 157 191 228 273
#
# _framework density 17.990786
#
# number of rings (size 3 to 8) (size 9 to 14) (size 15 to 20)
#    0.000    2.846    0.000    2.077    0.000    6.154 
#    0.000    4.615    0.000    0.000    2.000    4.308 
#    0.000    0.000    0.000    0.000    0.000    0.000 
#
# Total GULP energy -644467.923612 kJ/mol
# GULP energy per Si atom -12393.613916 kJ/mol
# Density = 1.794984 g / cm^3
# Si number density = 17.990786 Si / 1000 Ang^3
#
#
#
# Elastic Constant Matrix: (Units=GPa)
#
#
# Indices 1 2 3 4 5 6 
#
# 1 103.1123 42.9144 45.6120 0.0000 0.0000 0.0000
# 2 42.9144 65.4688 42.3428 0.0000 0.0000 0.0000
# 3 45.6120 42.3428 96.9529 0.0000 0.0000 0.0000
# 4 0.0000 0.0000 0.0000 6.8113 0.0000 0.0000
# 5 0.0000 0.0000 0.0000 0.0000 31.3430 0.0000
# 6 0.0000 0.0000 0.0000 0.0000 0.0000 18.9060
#
#
#
# Elastic Compliance Matrix: (Units=1/GPa)
#
#
# Indices 1 2 3 4 5 6 
#
# 1 0.014205 -0.006953 -0.003646 0.000000 0.000000 0.000000
# 2 -0.006953 0.024691 -0.007512 0.000000 0.000000 0.000000
# 3 -0.003646 -0.007512 0.015310 0.000000 0.000000 0.000000
# 4 0.000000 0.000000 0.000000 0.146815 0.000000 0.000000
# 5 0.000000 0.000000 0.000000 0.000000 0.031905 0.000000
# 6 0.000000 0.000000 0.000000 0.000000 0.000000 0.052893
#
#
# Mechanical properties :
#
#
# Convention : Reuss Voigt Hill
#
# Bulk Modulus (GPa) = 55.60708 58.58583 57.09646
# Shear Modulus (GPa) = 15.24219 20.38970 17.81595
#
# Velocity S-wave (km/s) = 2.91387 3.37017 3.15029
# Velocity P-wave (km/s) = 6.50358 6.91224 6.71102
#
# Compressibility (1/GPa) = 0.01798332
#
# Stress axis : x y z
#
# Youngs Moduli (GPa) = 70.39876 40.50093 65.31471
#
# Poissons Ratio (x) = 0.28160 0.23814
# Poissons Ratio (y) = 0.48948 0.49066
# Poissons Ratio (z) = 0.25668 0.30425
#
# Static dielectric constant tensor:
#      x y z
#    x 3.559610 0.000000 0.000000 
#    y 0.000000 2.938130 0.000000 
#    z 0.000000 0.000000 3.547890 
# 
# 
# High freq. dielectric constant tensor:
#      x y z
#    x 1.705370 0.000000 0.000000 
#    y 0.000000 1.645010 0.000000 
#    z 0.000000 0.000000 1.700080 
# 
# From -- ./inp_files/11006.got.cif
#   From: 2010.03.12/outbox.cif.g09.slc.cpg/sg47_6_cif.got.tgz:11006.got - 2010.04.14 03:12:58.
