data_PCOD8197914
_publ_section_title
;
Structure prediction by ZEFSAII (Michael W. Deem and Ramdas Pophale) SiO2 
 PCOD8197914
Probable space group: P M M M
;
_chemical_formula_sum "Si O2"
_cell_formula_units_Z 64
_cell_length_a 13.343560
_cell_length_b 15.791268
_cell_length_c 15.819058
_cell_angle_alpha 90.000000
_cell_angle_beta 90.000000
_cell_angle_gamma 90.000000
_cell_volume 3333.261110
_symmetry_space_group_name_H-M "P M M M"
_symmetry_group_IT_number 47
_symmetry_cell_setting 'orthorhombic'
loop_
_space_group_symop_operation_xyz
x,y,z
-x,-y,z
x,-y,-z
-x,y,-z
-x,-y,-z
x,y,-z
-x,y,z
x,-y,z
loop_
_atom_site_type_symbol
_atom_site_label
_atom_site_fract_x
_atom_site_fract_y
_atom_site_fract_z
Si Si1 0.383825 0.171765 0.093467
Si Si2 0.390910 0.902142 0.729296
Si Si3 0.189289 0.595030 0.597045
Si Si4 0.264328 0.298777 0.186074
Si Si5 0.890824 0.400717 0.906927
Si Si6 0.885574 0.239973 0.686055
Si Si7 0.387041 0.403999 0.312130
Si Si8 0.774864 0.098655 0.401792
O O1 0.500000 0.197026 0.096159
O O2 0.356043 0.111709 0.173146
O O3 0.315351 0.254653 0.105454
O O4 0.359395 0.131978 0.000000
O O5 0.500000 0.858746 0.715334
O O6 0.315883 0.867839 0.657644
O O7 0.401270 0.000000 0.713816
O O8 0.164576 0.608337 0.500000
O O9 0.155902 0.500000 0.626292
O O10 0.127931 0.666344 0.646675
O O11 0.309050 0.605561 0.610545
O O12 0.194213 0.375002 0.157914
O O13 0.193444 0.232125 0.236648
O O14 0.354639 0.336823 0.241053
O O15 0.890286 0.500000 0.913071
O O16 0.000000 0.368951 0.874724
O O17 0.870490 0.362133 0.000000
O O18 0.865758 0.162570 0.620190
O O19 0.000000 0.230907 0.717185
O O20 0.500000 0.382045 0.342560
O O21 0.383463 0.500000 0.275968
O O22 0.744889 0.108933 0.500000
O O23 0.803552 0.000000 0.382678
#
# Coordination Sequence:
#
# PCOD8197914 Si02
#       8
#     8   8   8   8   8   8   8   8
#     4  10  20  33  53  82 112 143 176 212 261 322
#     4   9  18  35  58  84 114 144 175 217 268 326
#     4   9  19  35  53  75 105 139 177 225 278 330
#     4  11  19  33  51  73 104 142 177 223 271 326
#     4   9  18  32  50  73 100 132 177 232 282 328
#     4  11  23  37  55  79 107 142 188 235 281 331
#     4   9  18  31  48  70  97 135 179 219 263 317
#     4  10  21  38  59  84 113 146 185 229 279 333
#
# _framework density 19.200416000000001
#
# number of rings (size 3 to 8) (size 9 to 14) (size 15 to 20)
#    0.000    2.250    1.250    2.250    0.000    2.750 
#    0.000    5.000    0.000    1.500    0.000    5.250 
#    0.000    2.000    0.000    0.000    0.000    0.000 
#
# Total GULP energy -792921.271931 kJ/mol
# GULP energy per Si atom -12389.394874 kJ/mol
# Density = 1.915671 g / cm^3
# Si number density = 19.200416 Si / 1000 Ang^3
#
#
#
# Elastic Constant Matrix: (Units=GPa)
#
#
# Indices 1 2 3 4 5 6 
#
# 1 81.1970 30.8315 29.3524 0.0000 0.0000 0.0000
# 2 30.8315 57.6640 20.4041 0.0000 0.0000 0.0000
# 3 29.3524 20.4041 90.0741 0.0000 0.0000 0.0000
# 4 0.0000 0.0000 0.0000 29.3819 0.0000 0.0000
# 5 0.0000 0.0000 0.0000 0.0000 19.7670 0.0000
# 6 0.0000 0.0000 0.0000 0.0000 0.0000 22.9195
#
#
#
# Elastic Compliance Matrix: (Units=1/GPa)
#
#
# Indices 1 2 3 4 5 6 
#
# 1 0.016500 -0.007522 -0.003673 0.000000 0.000000 0.000000
# 2 -0.007522 0.022283 -0.002596 0.000000 0.000000 0.000000
# 3 -0.003673 -0.002596 0.012887 0.000000 0.000000 0.000000
# 4 0.000000 0.000000 0.000000 0.034035 0.000000 0.000000
# 5 0.000000 0.000000 0.000000 0.000000 0.050589 0.000000
# 6 0.000000 0.000000 0.000000 0.000000 0.000000 0.043631
#
#
# Mechanical properties :
#
#
# Convention : Reuss Voigt Hill
#
# Bulk Modulus (GPa) = 41.51720 43.34569 42.43145
# Shear Modulus (GPa) = 23.19801 24.30349 23.75075
#
# Velocity S-wave (km/s) = 3.47969 3.56164 3.52090
# Velocity P-wave (km/s) = 6.14934 6.28793 6.21902
#
# Compressibility (1/GPa) = 0.02408640
#
# Stress axis : x y z
#
# Youngs Moduli (GPa) = 60.60699 44.87820 77.59806
#
# Poissons Ratio (x) = 0.33759 0.28500
# Poissons Ratio (y) = 0.45591 0.20146
# Poissons Ratio (z) = 0.22259 0.11652
#
# Static dielectric constant tensor:
#      x y z
#    x 3.646760 0.000000 0.000000 
#    y 0.000000 3.438000 0.000000 
#    z 0.000000 0.000000 3.625690 
# 
# 
# High freq. dielectric constant tensor:
#      x y z
#    x 1.743380 0.000000 0.000000 
#    y 0.000000 1.735900 0.000000 
#    z 0.000000 0.000000 1.741070 
# 
# From -- ./inp_files/17903.got.cif
#   From: 2010.03.12/outbox.cif.g09.slc.cpg/sg47_9_cif.got.tgz:17903.got - 2010.04.14 03:12:58.
