data_PCOD8197307
_publ_section_title
;
Structure prediction by ZEFSAII (Michael W. Deem and Ramdas Pophale) SiO2 
 PCOD8197307
Probable space group: P M M M
;
_chemical_formula_sum "Si O2"
_cell_formula_units_Z 52
_cell_length_a 20.338031
_cell_length_b 15.803499
_cell_length_c 9.228875
_cell_angle_alpha 90.000000
_cell_angle_beta 90.000000
_cell_angle_gamma 90.000000
_cell_volume 2966.271657
_symmetry_space_group_name_H-M "P M M M"
_symmetry_group_IT_number 47
_symmetry_cell_setting 'orthorhombic'
loop_
_space_group_symop_operation_xyz
x,y,z
-x,-y,z
x,-y,-z
-x,y,-z
-x,-y,-z
x,y,-z
-x,y,z
x,-y,z
loop_
_atom_site_type_symbol
_atom_site_label
_atom_site_fract_x
_atom_site_fract_y
_atom_site_fract_z
Si Si1 0.288915 0.592102 0.166089
Si Si2 0.072882 0.099825 0.161610
Si Si3 0.841157 0.378566 0.663970
Si Si4 0.426649 0.905364 0.827955
Si Si5 0.184316 0.812217 0.664760
Si Si6 0.317076 0.777645 0.170376
Si Si7 0.923065 0.500000 0.161247
O O1 0.326107 0.500000 0.186985
O O2 0.226361 0.588965 0.268308
O O3 0.330881 0.677218 0.204814
O O4 0.265564 0.600697 0.000000
O O5 0.130530 0.125412 0.270050
O O6 0.000000 0.131235 0.212979
O O7 0.072617 0.000000 0.155920
O O8 0.087221 0.135833 0.000000
O O9 0.843567 0.411699 0.500000
O O10 0.848942 0.278868 0.671729
O O11 0.901146 0.416386 0.753929
O O12 0.500000 0.886275 0.768249
O O13 0.377495 0.833349 0.767375
O O14 0.404434 0.000000 0.778366
O O15 0.427714 0.901534 0.000000
O O16 0.200128 0.839166 0.500000
O O17 0.251791 0.812578 0.753991
O O18 0.308369 0.792574 0.000000
O O19 0.000000 0.500000 0.152329
O O20 0.892357 0.500000 0.000000
#
# Coordination Sequence:
#
# PCOD8197307 Si02
#       7
#     8   8   8   8   8   8   4
#     4   9  16  27  45  66  90 121 156 195 238 286
#     4   9  19  36  55  72  91 121 163 205 244 292
#     4  10  20  33  48  66  90 120 154 193 237 287
#     4   8  14  26  46  72 100 130 165 204 245 290
#     4  10  21  34  49  73 102 128 157 199 250 298
#     4   9  17  29  47  72  98 126 164 207 247 290
#     4  11  23  35  47  65  89 119 156 197 242 291
#
# _framework density 17.530424
#
# number of rings (size 3 to 8) (size 9 to 14) (size 15 to 20)
#    0.000    2.692    0.769    2.077    0.000    4.308 
#    0.000    5.385    0.000    0.923    0.000    4.308 
#    0.000    0.000    0.000    7.692    0.000    8.000 
#
# Total GULP energy -644317.027568 kJ/mol
# GULP energy per Si atom -12390.712069 kJ/mol
# Density = 1.749052 g / cm^3
# Si number density = 17.530424 Si / 1000 Ang^3
#
#
#
# Elastic Constant Matrix: (Units=GPa)
#
#
# Indices 1 2 3 4 5 6 
#
# 1 97.7403 64.0656 37.8805 0.0000 0.0000 0.0000
# 2 64.0656 102.4217 32.1053 0.0000 0.0000 0.0000
# 3 37.8805 32.1053 76.5515 0.0000 0.0000 0.0000
# 4 0.0000 0.0000 0.0000 11.0589 0.0000 0.0000
# 5 0.0000 0.0000 0.0000 0.0000 -1.2699 0.0000
# 6 0.0000 0.0000 0.0000 0.0000 0.0000 28.6247
#
#
#
# Elastic Compliance Matrix: (Units=1/GPa)
#
#
# Indices 1 2 3 4 5 6 
#
# 1 0.018903 -0.010238 -0.005060 0.000000 0.000000 0.000000
# 2 -0.010238 0.016786 -0.001974 0.000000 0.000000 0.000000
# 3 -0.005060 -0.001974 0.016395 0.000000 0.000000 0.000000
# 4 0.000000 0.000000 0.000000 0.090425 0.000000 0.000000
# 5 0.000000 0.000000 0.000000 0.000000 -0.787464 0.000000
# 6 0.000000 0.000000 0.000000 0.000000 0.000000 0.034935
#
#
# Mechanical properties :
#
#
# Convention : Reuss Voigt Hill
#
# Bulk Modulus (GPa) = 57.01221 60.53515 58.77368
# Shear Modulus (GPa) = -8.77763 17.19355 4.20796
#
# Velocity S-wave (km/s) = -2.24008 3.13514 1.55100
# Velocity P-wave (km/s) = 5.08939 6.90738 6.06687
#
# Compressibility (1/GPa) = 0.01754010
#
# Stress axis : x y z
#
# Youngs Moduli (GPa) = 52.90216 59.57314 60.99436
#
# Poissons Ratio (x) = 0.60989 0.30864
# Poissons Ratio (y) = 0.54160 0.12040
# Poissons Ratio (z) = 0.26769 0.11760
#
# Static dielectric constant tensor:
#      x y z
#    x 3.136510 0.000000 0.000000 
#    y 0.000000 3.676640 0.000000 
#    z 0.000000 0.000000 3.310760 
# 
# 
# High freq. dielectric constant tensor:
#      x y z
#    x 1.647750 0.000000 0.000000 
#    y 0.000000 1.687920 0.000000 
#    z 0.000000 0.000000 1.666090 
# 
# From -- ./inp_files/9547.got.cif
#   From: 2010.03.12/outbox.cif.g09.slc.cpg/sg47_5_cif.got.tgz:9547.got - 2010.04.14 03:12:58.
