data_PCOD8197768
_publ_section_title
;
Structure prediction by ZEFSAII (Michael W. Deem and Ramdas Pophale) SiO2 
 PCOD8197768
Probable space group: P M M M
;
_chemical_formula_sum "Si O2"
_cell_formula_units_Z 48
_cell_length_a 10.094779
_cell_length_b 9.005412
_cell_length_c 29.110094
_cell_angle_alpha 90.000000
_cell_angle_beta 90.000000
_cell_angle_gamma 90.000000
_cell_volume 2646.330061
_symmetry_space_group_name_H-M "P M M M"
_symmetry_group_IT_number 47
_symmetry_cell_setting 'orthorhombic'
loop_
_space_group_symop_operation_xyz
x,y,z
-x,-y,z
x,-y,-z
-x,y,-z
-x,-y,-z
x,y,-z
-x,y,z
x,-y,z
loop_
_atom_site_type_symbol
_atom_site_label
_atom_site_fract_x
_atom_site_fract_y
_atom_site_fract_z
Si Si1 0.000000 0.324273 0.053143
Si Si2 0.251086 0.174288 0.096829
Si Si3 0.348327 0.168400 0.195495
Si Si4 0.500000 0.331919 0.945683
Si Si5 0.153368 0.825656 0.640656
Si Si6 0.347959 0.325476 0.712117
Si Si7 0.843029 0.333674 0.449714
O O1 0.124587 0.256855 0.078283
O O2 0.000000 0.500000 0.058702
O O3 0.000000 0.277290 0.000000
O O4 0.258484 0.203346 0.151445
O O5 0.373970 0.243061 0.070913
O O6 0.244458 0.000000 0.086026
O O7 0.500000 0.193581 0.180362
O O8 0.307673 0.277691 0.236520
O O9 0.326571 0.000000 0.212674
O O10 0.500000 0.500000 0.925820
O O11 0.500000 0.337486 0.000000
O O12 0.246705 0.750582 0.677754
O O13 0.205310 0.776128 0.590324
O O14 0.000000 0.777511 0.648571
O O15 0.169447 0.000000 0.644679
O O16 0.500000 0.276406 0.701716
O O17 0.331501 0.500000 0.707516
O O18 0.789434 0.281328 0.500000
O O19 0.790982 0.500000 0.439092
O O20 0.000000 0.334221 0.451332
#
# Coordination Sequence:
#
# PCOD8197768 Si02
#       7
#     4   8   8   4   8   8   8
#     4  11  25  43  59  81 117 155 187 223 274 331
#     4  11  22  39  62  87 112 145 187 229 273 326
#     4   9  18  36  59  83 110 138 173 221 273 322
#     4  11  23  37  57  87 119 149 181 225 276 321
#     4  10  20  33  51  78 110 144 181 223 271 320
#     4  10  21  36  56  81 106 139 182 223 268 325
#     4   8  14  26  46  72 103 140 179 221 270 320
#
# _framework density 18.138325999999999
#
# number of rings (size 3 to 8) (size 9 to 14) (size 15 to 20)
#    0.000    2.167    0.833    3.000    0.000    7.000 
#    1.500    1.667    0.000    0.500    0.000    3.500 
#    0.000    0.000    0.000    0.000    0.000    0.000 
#
# Total GULP energy -595139.493884 kJ/mol
# GULP energy per Si atom -12398.739456 kJ/mol
# Density = 1.809704 g / cm^3
# Si number density = 18.138326 Si / 1000 Ang^3
#
#
#
# Elastic Constant Matrix: (Units=GPa)
#
#
# Indices 1 2 3 4 5 6 
#
# 1 103.8387 51.5172 68.3710 0.0000 0.0000 0.0000
# 2 51.5172 91.0712 67.4219 0.0000 0.0000 0.0000
# 3 68.3710 67.4219 135.6606 0.0000 0.0000 0.0000
# 4 0.0000 0.0000 0.0000 38.8786 0.0000 0.0000
# 5 0.0000 0.0000 0.0000 0.0000 28.2404 0.0000
# 6 0.0000 0.0000 0.0000 0.0000 0.0000 36.7154
#
#
#
# Elastic Compliance Matrix: (Units=1/GPa)
#
#
# Indices 1 2 3 4 5 6 
#
# 1 0.015616 -0.004758 -0.005506 0.000000 0.000000 0.000000
# 2 -0.004758 0.018822 -0.006956 0.000000 0.000000 0.000000
# 3 -0.005506 -0.006956 0.013603 0.000000 0.000000 0.000000
# 4 0.000000 0.000000 0.000000 0.025721 0.000000 0.000000
# 5 0.000000 0.000000 0.000000 0.000000 0.035410 0.000000
# 6 0.000000 0.000000 0.000000 0.000000 0.000000 0.027237
#
#
# Mechanical properties :
#
#
# Convention : Reuss Voigt Hill
#
# Bulk Modulus (GPa) = 73.52128 78.35453 75.93791
# Shear Modulus (GPa) = 28.50919 30.31757 29.41338
#
# Velocity S-wave (km/s) = 3.96885 4.09279 4.03130
# Velocity P-wave (km/s) = 7.85010 8.10103 7.97655
#
# Compressibility (1/GPa) = 0.01360150
#
# Stress axis : x y z
#
# Youngs Moduli (GPa) = 64.03758 53.13019 73.51113
#
# Poissons Ratio (x) = 0.25277 0.40473
# Poissons Ratio (y) = 0.30467 0.51137
# Poissons Ratio (z) = 0.35257 0.36960
#
# Static dielectric constant tensor:
#      x y z
#    x 3.131550 0.000000 0.000000 
#    y 0.000000 3.525800 0.000000 
#    z 0.000000 0.000000 3.666810 
# 
# 
# High freq. dielectric constant tensor:
#      x y z
#    x 1.678580 0.000000 0.000000 
#    y 0.000000 1.712720 0.000000 
#    z 0.000000 0.000000 1.714880 
# 
# From -- ./inp_files/34103.got.cif
#   From: 2010.03.12/outbox.cif.g09.slc.cpg/sg47_18_cif.got.tgz:34103.got - 2010.04.14 03:12:58.
