data_PCOD8197850
_publ_section_title
;
Structure prediction by ZEFSAII (Michael W. Deem and Ramdas Pophale) SiO2 
 PCOD8197850
Probable space group: P M M M
;
_chemical_formula_sum "Si O2"
_cell_formula_units_Z 48
_cell_length_a 16.793617
_cell_length_b 9.498391
_cell_length_c 15.411064
_cell_angle_alpha 90.000000
_cell_angle_beta 90.000000
_cell_angle_gamma 90.000000
_cell_volume 2458.254889
_symmetry_space_group_name_H-M "P M M M"
_symmetry_group_IT_number 47
_symmetry_cell_setting 'orthorhombic'
loop_
_space_group_symop_operation_xyz
x,y,z
-x,-y,z
x,-y,-z
-x,y,-z
-x,-y,-z
x,y,-z
-x,y,z
x,-y,z
loop_
_atom_site_type_symbol
_atom_site_label
_atom_site_fract_x
_atom_site_fract_y
_atom_site_fract_z
Si Si1 0.686386 0.660475 0.094539
Si Si2 0.710984 0.661365 0.598553
Si Si3 0.000000 0.264821 0.903610
Si Si4 0.171059 0.153261 0.128813
Si Si5 0.848514 0.161350 0.673042
Si Si6 0.411433 0.666863 0.255938
Si Si7 0.000000 0.341996 0.711326
O O1 0.704653 0.500000 0.119450
O O2 0.772424 0.732306 0.085723
O O3 0.630011 0.727769 0.168394
O O4 0.644163 0.672274 0.000000
O O5 0.680469 0.672248 0.500000
O O6 0.735689 0.500000 0.621251
O O7 0.785599 0.764796 0.609640
O O8 0.639005 0.712182 0.660041
O O9 0.920910 0.170946 0.897542
O O10 0.000000 0.361111 0.816940
O O11 0.000000 0.340625 0.000000
O O12 0.186400 0.162199 0.230942
O O13 0.196859 0.000000 0.094895
O O14 0.926807 0.255984 0.672685
O O15 0.865931 0.000000 0.642754
O O16 0.500000 0.732278 0.263581
O O17 0.417853 0.500000 0.249074
O O18 0.000000 0.500000 0.673190
#
# Coordination Sequence:
#
# PCOD8197850 Si02
#       7
#     8   8   4   8   8   8   4
#     4  10  20  33  52  79 110 146 188 231 276 328
#     4  10  20  35  59  88 114 143 181 226 280 340
#     4  10  21  33  47  76 113 149 191 236 280 328
#     4  10  20  34  53  75 105 149 193 232 275 323
#     4  10  20  36  57  81 112 150 190 229 275 331
#     4   9  18  34  56  82 114 147 179 225 281 334
#     4  10  21  36  57  81 111 152 193 238 283 323
#
# _framework density 19.526046000000001
#
# number of rings (size 3 to 8) (size 9 to 14) (size 15 to 20)
#    0.000    2.167    1.667    1.500    0.000    7.500 
#    0.000    3.750    0.000    4.500    0.000    2.333 
#    0.000    0.000    0.000    0.000    0.000    0.000 
#
# Total GULP energy -594873.016810 kJ/mol
# GULP energy per Si atom -12393.187850 kJ/mol
# Density = 1.948160 g / cm^3
# Si number density = 19.526046 Si / 1000 Ang^3
#
#
#
# Elastic Constant Matrix: (Units=GPa)
#
#
# Indices 1 2 3 4 5 6 
#
# 1 137.5989 53.3399 60.8751 0.0000 0.0000 0.0000
# 2 53.3399 100.6843 29.5463 0.0000 0.0000 0.0000
# 3 60.8751 29.5463 114.2042 0.0000 0.0000 0.0000
# 4 0.0000 0.0000 0.0000 11.0191 0.0000 0.0000
# 5 0.0000 0.0000 0.0000 0.0000 12.2058 0.0000
# 6 0.0000 0.0000 0.0000 0.0000 0.0000 2.1943
#
#
#
# Elastic Compliance Matrix: (Units=1/GPa)
#
#
# Indices 1 2 3 4 5 6 
#
# 1 0.011116 -0.004491 -0.004763 0.000000 0.000000 0.000000
# 2 -0.004491 0.012563 -0.000856 0.000000 0.000000 0.000000
# 3 -0.004763 -0.000856 0.011517 0.000000 0.000000 0.000000
# 4 0.000000 0.000000 0.000000 0.090751 0.000000 0.000000
# 5 0.000000 0.000000 0.000000 0.000000 0.081928 0.000000
# 6 0.000000 0.000000 0.000000 0.000000 0.000000 0.455732
#
#
# Mechanical properties :
#
#
# Convention : Reuss Voigt Hill
#
# Bulk Modulus (GPa) = 66.78209 71.11222 68.94716
# Shear Modulus (GPa) = 7.25880 18.99891 13.12886
#
# Velocity S-wave (km/s) = 1.93017 3.12268 2.59584
# Velocity P-wave (km/s) = 6.26444 7.03561 6.66119
#
# Compressibility (1/GPa) = 0.01497407
#
# Stress axis : x y z
#
# Youngs Moduli (GPa) = 89.96256 79.60176 86.83017
#
# Poissons Ratio (x) = 0.35749 0.41359
# Poissons Ratio (y) = 0.40403 0.07435
# Poissons Ratio (z) = 0.42851 0.06816
#
# Static dielectric constant tensor:
#      x y z
#    x 3.516910 0.000000 0.000000 
#    y 0.000000 3.357330 0.000000 
#    z 0.000000 0.000000 3.629970 
# 
# 
# High freq. dielectric constant tensor:
#      x y z
#    x 1.748960 0.000000 0.000000 
#    y 0.000000 1.734730 0.000000 
#    z 0.000000 0.000000 1.763370 
# 
# From -- ./inp_files/24474.got.cif
#   From: 2010.03.12/outbox.cif.g09.slc.cpg/sg47_13_cif.got.tgz:24474.got - 2010.04.14 03:12:58.
