data_PCOD8197023
_publ_section_title
;
Structure prediction by ZEFSAII (Michael W. Deem and Ramdas Pophale) SiO2 
 PCOD8197023
Probable space group: P M M M
;
_chemical_formula_sum "Si O2"
_cell_formula_units_Z 40
_cell_length_a 9.102450
_cell_length_b 7.761927
_cell_length_c 27.649050
_cell_angle_alpha 90.000000
_cell_angle_beta 90.000000
_cell_angle_gamma 90.000000
_cell_volume 1953.475955
_symmetry_space_group_name_H-M "P M M M"
_symmetry_group_IT_number 47
_symmetry_cell_setting 'orthorhombic'
loop_
_space_group_symop_operation_xyz
x,y,z
-x,-y,z
x,-y,-z
-x,y,-z
-x,-y,-z
x,y,-z
-x,y,z
x,-y,z
loop_
_atom_site_type_symbol
_atom_site_label
_atom_site_fract_x
_atom_site_fract_y
_atom_site_fract_z
Si Si1 0.834627 0.794233 0.405752
Si Si2 0.661804 0.197710 0.314408
Si Si3 0.166808 0.702057 0.221174
Si Si4 0.326025 0.000000 0.946203
Si Si5 0.672189 0.302960 0.876917
Si Si6 0.665728 0.205134 0.500000
O O1 0.754854 0.717516 0.358005
O O2 0.748950 0.724761 0.452676
O O3 0.000000 0.721349 0.406768
O O4 0.837529 0.000000 0.405083
O O5 0.500000 0.285360 0.310399
O O6 0.746829 0.208633 0.264191
O O7 0.640000 0.000000 0.327697
O O8 0.173658 0.500000 0.229629
O O9 0.242456 0.753414 0.171014
O O10 0.000000 0.770041 0.220468
O O11 0.274204 0.174003 0.919042
O O12 0.500000 0.000000 0.949768
O O13 0.256662 0.000000 0.000000
O O14 0.500000 0.281754 0.866345
O O15 0.709510 0.500000 0.892123
O O16 0.500000 0.277212 0.500000
O O17 0.664933 0.000000 0.500000
#
# Coordination Sequence:
#
# PCOD8197023 Si02
#       6
#     8   8   8   4   8   4
#     4   9  16  26  40  61  91 126 165 208 257 312
#     4  10  20  32  48  72 101 131 165 209 260 313
#     4  10  21  36  53  74 101 134 172 213 259 312
#     4   9  18  32  53  83 113 141 181 228 271 320
#     4   9  18  33  53  77 107 142 180 224 272 321
#     4   9  15  23  37  57  86 125 166 209 258 311
#
# _framework density 20.476319
#
# number of rings (size 3 to 8) (size 9 to 14) (size 15 to 20)
#    0.000    2.600    0.000    2.100    1.400    6.400 
#    0.000    2.000    0.000    1.200    0.000    3.500 
#    0.000    5.600    0.000    0.000    0.000    0.000 
#
# Total GULP energy -495952.630362 kJ/mol
# GULP energy per Si atom -12398.815759 kJ/mol
# Density = 2.042971 g / cm^3
# Si number density = 20.476319 Si / 1000 Ang^3
#
#
#
# Elastic Constant Matrix: (Units=GPa)
#
#
# Indices 1 2 3 4 5 6 
#
# 1 157.0783 24.7903 90.7974 0.0000 0.0000 0.0000
# 2 24.7903 49.2287 45.4073 0.0000 0.0000 0.0000
# 3 90.7974 45.4073 192.5621 0.0000 0.0000 0.0000
# 4 0.0000 0.0000 0.0000 -17.4886 0.0000 0.0000
# 5 0.0000 0.0000 0.0000 0.0000 15.4988 0.0000
# 6 0.0000 0.0000 0.0000 0.0000 0.0000 11.3451
#
#
#
# Elastic Compliance Matrix: (Units=1/GPa)
#
#
# Indices 1 2 3 4 5 6 
#
# 1 0.008774 -0.000770 -0.003956 0.000000 0.000000 0.000000
# 2 -0.000770 0.026027 -0.005774 0.000000 0.000000 0.000000
# 3 -0.003956 -0.005774 0.008420 0.000000 0.000000 0.000000
# 4 0.000000 0.000000 0.000000 -0.057180 0.000000 0.000000
# 5 0.000000 0.000000 0.000000 0.000000 0.064521 0.000000
# 6 0.000000 0.000000 0.000000 0.000000 0.000000 0.088144
#
#
# Mechanical properties :
#
#
# Convention : Reuss Voigt Hill
#
# Bulk Modulus (GPa) = 45.00140 80.09547 62.54843
# Shear Modulus (GPa) = 29.91986 17.72934 23.82460
#
# Velocity S-wave (km/s) = 3.82670 2.94572 3.41474
# Velocity P-wave (km/s) = 6.44592 7.12536 6.79414
#
# Compressibility (1/GPa) = 0.02222153
#
# Stress axis : x y z
#
# Youngs Moduli (GPa) = 113.96874 38.42146 118.76499
#
# Poissons Ratio (x) = 0.02958 0.46981
# Poissons Ratio (y) = 0.08774 0.68579
# Poissons Ratio (z) = 0.45083 0.22186
#
# Static dielectric constant tensor:
#      x y z
#    x 3.868420 0.000000 0.000000 
#    y 0.000000 3.392060 0.000000 
#    z 0.000000 0.000000 3.806520 
# 
# 
# High freq. dielectric constant tensor:
#      x y z
#    x 1.799120 0.000000 0.000000 
#    y 0.000000 1.772260 0.000000 
#    z 0.000000 0.000000 1.803040 
# 
# From -- ./inp_files/12990.got.cif
#   From: 2010.03.12/outbox.cif.g09.slc.cpg/sg47_7_cif.got.tgz:12990.got - 2010.04.14 03:12:58.
