data_PCOD8197088
_publ_section_title
;
Structure prediction by ZEFSAII (Michael W. Deem and Ramdas Pophale) SiO2 
 PCOD8197088
Probable space group: P M M M
;
_chemical_formula_sum "Si O2"
_cell_formula_units_Z 44
_cell_length_a 8.007821
_cell_length_b 30.101991
_cell_length_c 9.192359
_cell_angle_alpha 90.000000
_cell_angle_beta 90.000000
_cell_angle_gamma 90.000000
_cell_volume 2215.830599
_symmetry_space_group_name_H-M "P M M M"
_symmetry_group_IT_number 47
_symmetry_cell_setting 'orthorhombic'
loop_
_space_group_symop_operation_xyz
x,y,z
-x,-y,z
x,-y,-z
-x,y,-z
-x,-y,-z
x,y,-z
-x,y,z
x,-y,z
loop_
_atom_site_type_symbol
_atom_site_label
_atom_site_fract_x
_atom_site_fract_y
_atom_site_fract_z
Si Si1 0.309646 0.859380 0.334924
Si Si2 0.688747 0.391776 0.831044
Si Si3 0.189930 0.952115 0.327729
Si Si4 0.196974 0.693359 0.668827
Si Si5 0.000000 0.549572 0.827577
Si Si6 0.192509 0.221929 0.159973
O O1 0.238974 0.857396 0.500000
O O2 0.500000 0.844620 0.330852
O O3 0.292578 0.909501 0.270494
O O4 0.208533 0.825621 0.235951
O O5 0.500000 0.411042 0.808633
O O6 0.703998 0.346846 0.740819
O O7 0.830029 0.426150 0.774020
O O8 0.720949 0.380820 0.000000
O O9 0.203251 0.953671 0.500000
O O10 0.000000 0.945868 0.277060
O O11 0.258007 0.000000 0.267405
O O12 0.242304 0.695676 0.500000
O O13 0.267277 0.738632 0.741269
O O14 0.000000 0.686693 0.693742
O O15 0.000000 0.500000 0.760712
O O16 0.000000 0.546998 0.000000
O O17 0.000000 0.232255 0.139665
O O18 0.278742 0.221281 0.000000
#
# Coordination Sequence:
#
# PCOD8197088 Si02
#       6
#     8   8   8   8   4   8
#     4  10  20  32  48  73 105 138 171 211 260 314
#     4  10  20  34  56  85 116 152 191 232 280 331
#     4   8  14  26  46  71  97 127 165 209 256 307
#     4  10  20  35  57  82 108 141 181 226 277 330
#     4   9  18  34  57  85 119 155 191 237 282 323
#     4  10  21  36  55  77 102 137 179 221 266 317
#
# _framework density 19.857112999999998
#
# number of rings (size 3 to 8) (size 9 to 14) (size 15 to 20)
#    0.000    2.455    0.909    2.182    0.000    4.727 
#    0.000    3.636    0.000    1.636    0.000    5.091 
#    0.000    0.000    0.000    0.000    0.000    0.000 
#
# Total GULP energy -545355.788840 kJ/mol
# GULP energy per Si atom -12394.449746 kJ/mol
# Density = 1.981192 g / cm^3
# Si number density = 19.857113 Si / 1000 Ang^3
#
#
#
# Elastic Constant Matrix: (Units=GPa)
#
#
# Indices 1 2 3 4 5 6 
#
# 1 73.8430 44.4612 28.1922 0.0000 0.0000 0.0000
# 2 44.4612 163.6106 55.2343 0.0000 0.0000 0.0000
# 3 28.1922 55.2343 84.5568 0.0000 0.0000 0.0000
# 4 0.0000 0.0000 0.0000 20.8960 0.0000 0.0000
# 5 0.0000 0.0000 0.0000 0.0000 16.0435 0.0000
# 6 0.0000 0.0000 0.0000 0.0000 0.0000 15.6368
#
#
#
# Elastic Compliance Matrix: (Units=1/GPa)
#
#
# Indices 1 2 3 4 5 6 
#
# 1 0.016914 -0.003454 -0.003383 0.000000 0.000000 0.000000
# 2 -0.003454 0.008547 -0.004431 0.000000 0.000000 0.000000
# 3 -0.003383 -0.004431 0.015849 0.000000 0.000000 0.000000
# 4 0.000000 0.000000 0.000000 0.047856 0.000000 0.000000
# 5 0.000000 0.000000 0.000000 0.000000 0.062331 0.000000
# 6 0.000000 0.000000 0.000000 0.000000 0.000000 0.063952
#
#
# Mechanical properties :
#
#
# Convention : Reuss Voigt Hill
#
# Bulk Modulus (GPa) = 53.26915 64.19840 58.73377
# Shear Modulus (GPa) = 20.47156 23.45678 21.96417
#
# Velocity S-wave (km/s) = 3.21431 3.44070 3.32943
# Velocity P-wave (km/s) = 6.37654 6.94154 6.66503
#
# Compressibility (1/GPa) = 0.01877259
#
# Stress axis : x y z
#
# Youngs Moduli (GPa) = 59.12417 117.00381 63.09624
#
# Poissons Ratio (x) = 0.40416 0.21344
# Poissons Ratio (y) = 0.20423 0.27959
# Poissons Ratio (z) = 0.20000 0.51847
#
# Static dielectric constant tensor:
#      x y z
#    x 3.503540 0.000000 0.000000 
#    y 0.000000 4.588850 0.000000 
#    z 0.000000 0.000000 3.384620 
# 
# 
# High freq. dielectric constant tensor:
#      x y z
#    x 1.763700 0.000000 0.000000 
#    y 0.000000 1.782410 0.000000 
#    z 0.000000 0.000000 1.736370 
# 
# From -- ./inp_files/2313.got.cif
#   From: 2010.03.12/outbox.cif.g09.slc.cpg/sg47_2_cif.got.tgz:2313.got - 2010.04.14 03:12:58.
