data_PCOD8197214
_publ_section_title
;
Structure prediction by ZEFSAII (Michael W. Deem and Ramdas Pophale) SiO2 
 PCOD8197214
Probable space group: P M M M
;
_chemical_formula_sum "Si O2"
_cell_formula_units_Z 52
_cell_length_a 19.415007
_cell_length_b 9.293848
_cell_length_c 15.510502
_cell_angle_alpha 90.000000
_cell_angle_beta 90.000000
_cell_angle_gamma 90.000000
_cell_volume 2798.716904
_symmetry_space_group_name_H-M "P M M M"
_symmetry_group_IT_number 47
_symmetry_cell_setting 'orthorhombic'
loop_
_space_group_symop_operation_xyz
x,y,z
-x,-y,z
x,-y,-z
-x,y,-z
-x,-y,-z
x,y,-z
-x,y,z
x,-y,z
loop_
_atom_site_type_symbol
_atom_site_label
_atom_site_fract_x
_atom_site_fract_y
_atom_site_fract_z
Si Si1 0.921340 0.331321 0.151859
Si Si2 0.917503 0.158250 0.500000
Si Si3 0.666100 0.331324 0.898047
Si Si4 0.203635 0.842051 0.902526
Si Si5 0.581830 0.337385 0.595898
Si Si6 0.418184 0.164404 0.760857
Si Si7 0.918988 0.343159 0.654200
O O1 0.908702 0.500000 0.135053
O O2 0.870572 0.235082 0.096085
O O3 0.903908 0.288408 0.250024
O O4 0.000000 0.292121 0.128197
O O5 0.887217 0.234700 0.584867
O O6 0.000000 0.156534 0.500000
O O7 0.886525 0.000000 0.500000
O O8 0.667801 0.500000 0.876544
O O9 0.737872 0.262131 0.863381
O O10 0.606139 0.254283 0.844120
O O11 0.653231 0.306447 0.000000
O O12 0.201038 0.000000 0.856450
O O13 0.224885 0.868437 0.000000
O O14 0.606840 0.286665 0.500000
O O15 0.500000 0.334350 0.597876
O O16 0.607899 0.500000 0.613508
O O17 0.610735 0.233774 0.671522
O O18 0.500000 0.169782 0.761736
O O19 0.391536 0.000000 0.766696
O O20 0.885538 0.500000 0.639508
O O21 0.000000 0.356351 0.640151
#
# Coordination Sequence:
#
# PCOD8197214 Si02
#       7
#     8   4   8   8   8   8   8
#     4   9  18  32  50  73  99 127 162 203 245 292
#     4   9  15  21  33  57  87 117 149 185 226 273
#     4  10  21  37  56  75  97 131 176 220 258 304
#     4  10  21  36  53  73  98 128 162 202 251 307
#     4   8  14  26  45  70 102 139 177 216 254 294
#     4  10  20  32  49  77 111 143 174 212 260 309
#     4   8  14  25  40  59  86 119 152 186 226 273
#
# _framework density 18.579941999999999
#
# number of rings (size 3 to 8) (size 9 to 14) (size 15 to 20)
#    0.000    2.846    0.000    3.000    0.000    5.538 
#    0.000    6.154    0.000    0.000    2.000    0.000 
#    0.000    0.000    0.000    0.000    0.000    0.000 
#
# Total GULP energy -644410.151295 kJ/mol
# GULP energy per Si atom -12392.502910 kJ/mol
# Density = 1.853765 g / cm^3
# Si number density = 18.579942 Si / 1000 Ang^3
#
#
#
# Elastic Constant Matrix: (Units=GPa)
#
#
# Indices 1 2 3 4 5 6 
#
# 1 38.4887 34.9721 21.3449 0.0000 0.0000 0.0000
# 2 34.9721 133.0370 55.4971 0.0000 0.0000 0.0000
# 3 21.3449 55.4971 78.3705 0.0000 0.0000 0.0000
# 4 0.0000 0.0000 0.0000 25.8321 0.0000 0.0000
# 5 0.0000 0.0000 0.0000 0.0000 4.9101 0.0000
# 6 0.0000 0.0000 0.0000 0.0000 0.0000 23.0739
#
#
#
# Elastic Compliance Matrix: (Units=1/GPa)
#
#
# Indices 1 2 3 4 5 6 
#
# 1 0.035126 -0.007441 -0.004298 0.000000 0.000000 0.000000
# 2 -0.007441 0.012244 -0.006644 0.000000 0.000000 0.000000
# 3 -0.004298 -0.006644 0.018635 0.000000 0.000000 0.000000
# 4 0.000000 0.000000 0.000000 0.038712 0.000000 0.000000
# 5 0.000000 0.000000 0.000000 0.000000 0.203660 0.000000
# 6 0.000000 0.000000 0.000000 0.000000 0.000000 0.043339
#
#
# Mechanical properties :
#
#
# Convention : Reuss Voigt Hill
#
# Bulk Modulus (GPa) = 34.19927 52.61382 43.40655
# Shear Modulus (GPa) = 12.55560 19.96870 16.26215
#
# Velocity S-wave (km/s) = 2.60236 3.28189 2.96168
# Velocity P-wave (km/s) = 5.24178 6.53759 5.92521
#
# Compressibility (1/GPa) = 0.02924039
#
# Stress axis : x y z
#
# Youngs Moduli (GPa) = 28.46876 81.67026 53.66151
#
# Poissons Ratio (x) = 0.60771 0.23062
# Poissons Ratio (y) = 0.21184 0.35653
# Poissons Ratio (z) = 0.12235 0.54262
#
# Static dielectric constant tensor:
#      x y z
#    x 2.912220 0.000000 0.000000 
#    y 0.000000 3.743070 0.000000 
#    z 0.000000 0.000000 3.583950 
# 
# 
# High freq. dielectric constant tensor:
#      x y z
#    x 1.668620 0.000000 0.000000 
#    y 0.000000 1.730210 0.000000 
#    z 0.000000 0.000000 1.720000 
# 
# From -- ./inp_files/24991.got.cif
#   From: 2010.03.12/outbox.cif.g09.slc.cpg/sg47_13_cif.got.tgz:24991.got - 2010.04.14 03:12:58.
