data_PCOD8197885
_publ_section_title
;
Structure prediction by ZEFSAII (Michael W. Deem and Ramdas Pophale) SiO2 
 PCOD8197885
Probable space group: P M M M
;
_chemical_formula_sum "Si O2"
_cell_formula_units_Z 56
_cell_length_a 23.492189
_cell_length_b 7.719177
_cell_length_c 14.535809
_cell_angle_alpha 90.000000
_cell_angle_beta 90.000000
_cell_angle_gamma 90.000000
_cell_volume 2635.928910
_symmetry_space_group_name_H-M "P M M M"
_symmetry_group_IT_number 47
_symmetry_cell_setting 'orthorhombic'
loop_
_space_group_symop_operation_xyz
x,y,z
-x,-y,z
x,-y,-z
-x,y,-z
-x,-y,-z
x,y,-z
-x,y,z
x,-y,z
loop_
_atom_site_type_symbol
_atom_site_label
_atom_site_fract_x
_atom_site_fract_y
_atom_site_fract_z
Si Si1 0.563886 0.205147 0.776840
Si Si2 0.371569 0.793838 0.601503
Si Si3 0.932903 0.702161 0.779440
Si Si4 0.128313 0.304599 0.600900
Si Si5 0.750776 0.810119 0.608662
Si Si6 0.253406 0.000000 0.890397
Si Si7 0.875783 0.000000 0.890726
Si Si8 0.668108 0.693298 0.106432
O O1 0.500000 0.270270 0.796908
O O2 0.580270 0.264411 0.673196
O O3 0.606273 0.292779 0.848163
O O4 0.568527 0.000000 0.786895
O O5 0.386479 0.718647 0.500000
O O6 0.309741 0.725153 0.639214
O O7 0.366910 0.000000 0.595696
O O8 0.914910 0.500000 0.794821
O O9 0.911458 0.775534 0.680272
O O10 0.000000 0.722943 0.783579
O O11 0.905983 0.823736 0.857297
O O12 0.121198 0.210919 0.500000
O O13 0.108736 0.500000 0.588077
O O14 0.194056 0.302112 0.634885
O O15 0.745909 0.829363 0.500000
O O16 0.759122 0.000000 0.654126
O O17 0.189029 0.000000 0.853535
O O18 0.286305 0.829711 0.852131
O O19 0.252358 0.000000 0.000000
O O20 0.878822 0.000000 0.000000
O O21 0.692595 0.500000 0.121152
O O22 0.658398 0.735216 0.000000
#
# Coordination Sequence:
#
# PCOD8197885 Si02
#       8
#     8   8   8   8   8   4   4   8
#     4  10  20  33  52  81 116 154 198 245 289 340
#     4   8  15  29  48  72 105 147 193 238 287 342
#     4  10  23  42  62  90 127 164 208 254 293 348
#     4   9  18  33  54  83 120 159 197 241 296 355
#     4   8  14  26  46  72 104 144 189 236 286 341
#     4   9  20  41  65  92 121 147 186 242 300 362
#     4  11  25  44  68  93 120 157 201 253 311 364
#     4  10  21  39  63  88 118 154 187 230 295 362
#
# _framework density 21.244882
#
# number of rings (size 3 to 8) (size 9 to 14) (size 15 to 20)
#    0.000    2.714    0.714    1.071    1.000    3.714 
#    0.000    8.571    0.000    2.143    0.000    1.000 
#    0.000    0.000    0.000    0.000    0.000    0.000 
#
# Total GULP energy -693982.344334 kJ/mol
# GULP energy per Si atom -12392.541863 kJ/mol
# Density = 2.119653 g / cm^3
# Si number density = 21.244882 Si / 1000 Ang^3
#
#
#
# Elastic Constant Matrix: (Units=GPa)
#
#
# Indices 1 2 3 4 5 6 
#
# 1 131.8867 45.9903 37.2105 0.0000 0.0000 0.0000
# 2 45.9903 82.7924 33.8835 0.0000 0.0000 0.0000
# 3 37.2105 33.8835 64.6536 0.0000 0.0000 0.0000
# 4 0.0000 0.0000 0.0000 16.7510 0.0000 0.0000
# 5 0.0000 0.0000 0.0000 0.0000 34.6894 0.0000
# 6 0.0000 0.0000 0.0000 0.0000 0.0000 17.7825
#
#
#
# Elastic Compliance Matrix: (Units=1/GPa)
#
#
# Indices 1 2 3 4 5 6 
#
# 1 0.010032 -0.004086 -0.003632 0.000000 0.000000 0.000000
# 2 -0.004086 0.017041 -0.006579 0.000000 0.000000 0.000000
# 3 -0.003632 -0.006579 0.021005 0.000000 0.000000 0.000000
# 4 0.000000 0.000000 0.000000 0.059698 0.000000 0.000000
# 5 0.000000 0.000000 0.000000 0.000000 0.028827 0.000000
# 6 0.000000 0.000000 0.000000 0.000000 0.000000 0.056235
#
#
# Mechanical properties :
#
#
# Convention : Reuss Voigt Hill
#
# Bulk Modulus (GPa) = 51.32583 57.05569 54.19076
# Shear Modulus (GPa) = 21.93681 24.66115 23.29898
#
# Velocity S-wave (km/s) = 3.21685 3.41075 3.31522
# Velocity P-wave (km/s) = 6.16515 6.51349 6.34171
#
# Compressibility (1/GPa) = 0.01948337
#
# Stress axis : x y z
#
# Youngs Moduli (GPa) = 99.68154 58.68323 47.60672
#
# Poissons Ratio (x) = 0.23978 0.17292
# Poissons Ratio (y) = 0.40731 0.31320
# Poissons Ratio (z) = 0.36208 0.38607
#
# Static dielectric constant tensor:
#      x y z
#    x 3.993910 0.000000 0.000000 
#    y 0.000000 3.718850 0.000000 
#    z 0.000000 0.000000 3.860670 
# 
# 
# High freq. dielectric constant tensor:
#      x y z
#    x 1.829650 0.000000 0.000000 
#    y 0.000000 1.812150 0.000000 
#    z 0.000000 0.000000 1.826410 
# 
# From -- ./inp_files/25245.got.cif
#   From: 2010.03.12/outbox.cif.g09.slc.cpg/sg47_13_cif.got.tgz:25245.got - 2010.04.14 03:12:58.
