data_PCOD8197874
_publ_section_title
;
Structure prediction by ZEFSAII (Michael W. Deem and Ramdas Pophale) SiO2 
 PCOD8197874
Probable space group: P M M M
;
_chemical_formula_sum "Si O2"
_cell_formula_units_Z 52
_cell_length_a 14.396645
_cell_length_b 8.681709
_cell_length_c 20.598848
_cell_angle_alpha 90.000000
_cell_angle_beta 90.000000
_cell_angle_gamma 90.000000
_cell_volume 2574.598153
_symmetry_space_group_name_H-M "P M M M"
_symmetry_group_IT_number 47
_symmetry_cell_setting 'orthorhombic'
loop_
_space_group_symop_operation_xyz
x,y,z
-x,-y,z
x,-y,-z
-x,y,-z
-x,-y,-z
x,y,-z
-x,y,z
x,-y,z
loop_
_atom_site_type_symbol
_atom_site_label
_atom_site_fract_x
_atom_site_fract_y
_atom_site_fract_z
Si Si1 0.500000 0.674581 0.577161
Si Si2 0.773990 0.322423 0.689561
Si Si3 0.781321 0.177472 0.928509
Si Si4 0.396533 0.176485 0.749813
Si Si5 0.397862 0.676619 0.113379
Si Si6 0.106675 0.682202 0.190091
Si Si7 0.307015 0.818579 0.427125
O O1 0.500000 0.500000 0.603287
O O2 0.500000 0.679946 0.500000
O O3 0.594039 0.759105 0.601043
O O4 0.794365 0.500000 0.676951
O O5 0.670660 0.296634 0.715647
O O6 0.846296 0.256376 0.743093
O O7 0.777618 0.237346 0.619519
O O8 0.683635 0.267958 0.933822
O O9 0.847628 0.244887 0.873360
O O10 0.762371 0.000000 0.912302
O O11 0.828190 0.195650 0.000000
O O12 0.500000 0.203869 0.721908
O O13 0.394072 0.210334 0.825719
O O14 0.364411 0.000000 0.737901
O O15 0.500000 0.690669 0.079976
O O16 0.379949 0.500000 0.134829
O O17 0.119710 0.500000 0.185169
O O18 0.000000 0.732648 0.192076
O O19 0.288247 0.755821 0.500000
O O20 0.310958 0.000000 0.426840
#
# Coordination Sequence:
#
# PCOD8197874 Si02
#       7
#     4   8   8   8   8   8   8
#     4   9  17  31  51  77 113 157 202 243 282 331
#     4  11  22  36  59  87 115 150 193 241 291 345
#     4  11  24  40  60  88 121 156 194 238 290 349
#     4  10  20  33  52  80 116 155 193 236 286 341
#     4  10  20  35  56  83 117 157 200 242 284 335
#     4  10  23  44  67  90 115 145 187 241 301 361
#     4  10  21  36  54  79 116 159 199 239 285 339
#
# _framework density 20.197327000000001
#
# number of rings (size 3 to 8) (size 9 to 14) (size 15 to 20)
#    0.000    1.769    1.538    2.538    1.077    6.462 
#    0.000    3.077    0.000    0.462    0.000    3.231 
#    0.000    0.000    0.000    0.000    0.000    0.000 
#
# Total GULP energy -644607.423739 kJ/mol
# GULP energy per Si atom -12396.296610 kJ/mol
# Density = 2.015136 g / cm^3
# Si number density = 20.197327 Si / 1000 Ang^3
#
#
#
# Elastic Constant Matrix: (Units=GPa)
#
#
# Indices 1 2 3 4 5 6 
#
# 1 114.7969 39.7241 69.8232 0.0000 0.0000 0.0000
# 2 39.7241 61.2161 24.8852 0.0000 0.0000 0.0000
# 3 69.8232 24.8852 125.0462 0.0000 0.0000 0.0000
# 4 0.0000 0.0000 0.0000 30.3383 0.0000 0.0000
# 5 0.0000 0.0000 0.0000 0.0000 14.0464 0.0000
# 6 0.0000 0.0000 0.0000 0.0000 0.0000 18.4021
#
#
#
# Elastic Compliance Matrix: (Units=1/GPa)
#
#
# Indices 1 2 3 4 5 6 
#
# 1 0.015637 -0.007178 -0.007303 0.000000 0.000000 0.000000
# 2 -0.007178 0.021069 -0.000185 0.000000 0.000000 0.000000
# 3 -0.007303 -0.000185 0.012111 0.000000 0.000000 0.000000
# 4 0.000000 0.000000 0.000000 0.032962 0.000000 0.000000
# 5 0.000000 0.000000 0.000000 0.000000 0.071193 0.000000
# 6 0.000000 0.000000 0.000000 0.000000 0.000000 0.054342
#
#
# Mechanical properties :
#
#
# Convention : Reuss Voigt Hill
#
# Bulk Modulus (GPa) = 51.31969 63.32492 57.32231
# Shear Modulus (GPa) = 20.56435 23.66581 22.11508
#
# Velocity S-wave (km/s) = 3.19434 3.42677 3.31259
# Velocity P-wave (km/s) = 6.25055 6.86135 6.56306
#
# Compressibility (1/GPa) = 0.01948570
#
# Stress axis : x y z
#
# Youngs Moduli (GPa) = 63.95196 47.46367 82.56640
#
# Poissons Ratio (x) = 0.34071 0.60296
# Poissons Ratio (y) = 0.45907 0.01525
# Poissons Ratio (z) = 0.46702 0.00876
#
# Static dielectric constant tensor:
#      x y z
#    x 3.601260 0.000000 0.000000 
#    y 0.000000 3.631900 0.000000 
#    z 0.000000 0.000000 3.860270 
# 
# 
# High freq. dielectric constant tensor:
#      x y z
#    x 1.755960 0.000000 0.000000 
#    y 0.000000 1.792070 0.000000 
#    z 0.000000 0.000000 1.798300 
# 
# From -- ./inp_files/21403.got.cif
#   From: 2010.03.12/outbox.cif.g09.slc.cpg/sg47_11_cif.got.tgz:21403.got - 2010.04.14 03:12:58.
