data_PCOD8197335
_publ_section_title
;
Structure prediction by ZEFSAII (Michael W. Deem and Ramdas Pophale) SiO2 
 PCOD8197335
Probable space group: P M M M
;
_chemical_formula_sum "Si O2"
_cell_formula_units_Z 40
_cell_length_a 7.811191
_cell_length_b 29.281537
_cell_length_c 9.493241
_cell_angle_alpha 90.000000
_cell_angle_beta 90.000000
_cell_angle_gamma 90.000000
_cell_volume 2171.329000
_symmetry_space_group_name_H-M "P M M M"
_symmetry_group_IT_number 47
_symmetry_cell_setting 'orthorhombic'
loop_
_space_group_symop_operation_xyz
x,y,z
-x,-y,z
x,-y,-z
-x,y,-z
-x,-y,-z
x,y,-z
-x,y,z
x,-y,z
loop_
_atom_site_type_symbol
_atom_site_label
_atom_site_fract_x
_atom_site_fract_y
_atom_site_fract_z
Si Si1 0.188565 0.596772 0.667030
Si Si2 0.693606 0.500000 0.332335
Si Si3 0.198783 0.903801 0.343260
Si Si4 0.802544 0.819214 0.836952
Si Si5 0.500000 0.341601 0.668088
Si Si6 0.299500 0.000000 0.341770
Si Si7 0.500000 0.249171 0.163220
O O1 0.203996 0.594659 0.500000
O O2 0.216039 0.545595 0.727340
O O3 0.332541 0.631358 0.723511
O O4 0.000000 0.613977 0.714157
O O5 0.500000 0.500000 0.278552
O O6 0.701593 0.500000 0.500000
O O7 0.284093 0.901919 0.500000
O O8 0.269936 0.863007 0.247358
O O9 0.000000 0.896082 0.357519
O O10 0.235149 0.953049 0.269143
O O11 0.674118 0.778113 0.800574
O O12 0.000000 0.806112 0.797106
O O13 0.790719 0.832338 0.000000
O O14 0.500000 0.336158 0.500000
O O15 0.500000 0.292510 0.737299
O O16 0.500000 0.000000 0.340128
O O17 0.223153 0.000000 0.500000
O O18 0.500000 0.263794 0.000000
#
# Coordination Sequence:
#
# PCOD8197335 Si02
#       7
#     8   4   8   8   4   4   4
#     4   9  16  26  42  67 101 136 165 197 240 286
#     4   9  13  21  39  64  99 138 168 194 232 286
#     4   9  17  30  49  72  98 128 160 193 231 280
#     4   9  19  36  55  73  94 122 158 201 246 290
#     4  10  20  33  48  72 101 127 160 204 248 286
#     4   9  17  27  42  69 102 132 157 184 226 281
#     4  10  22  38  55  72  94 126 163 202 249 300
#
# _framework density 18.421897000000001
#
# number of rings (size 3 to 8) (size 9 to 14) (size 15 to 20)
#    0.000    2.800    1.000    0.600    1.400    4.000 
#    0.000    0.500    0.000    3.000    0.000    1.400 
#    0.000    1.600    0.000    0.000    0.000    0.000 
#
# Total GULP energy -495708.130427 kJ/mol
# GULP energy per Si atom -12392.703261 kJ/mol
# Density = 1.837997 g / cm^3
# Si number density = 18.421897 Si / 1000 Ang^3
#
#
#
# Elastic Constant Matrix: (Units=GPa)
#
#
# Indices 1 2 3 4 5 6 
#
# 1 117.8544 70.9646 25.9113 0.0000 0.0000 0.0000
# 2 70.9646 163.9603 48.4577 0.0000 0.0000 0.0000
# 3 25.9113 48.4577 33.4562 0.0000 0.0000 0.0000
# 4 0.0000 0.0000 0.0000 1.9361 0.0000 0.0000
# 5 0.0000 0.0000 0.0000 0.0000 11.7010 0.0000
# 6 0.0000 0.0000 0.0000 0.0000 0.0000 22.8300
#
#
#
# Elastic Compliance Matrix: (Units=1/GPa)
#
#
# Indices 1 2 3 4 5 6 
#
# 1 0.011646 -0.004152 -0.003005 0.000000 0.000000 0.000000
# 2 -0.004152 0.012144 -0.014374 0.000000 0.000000 0.000000
# 3 -0.003005 -0.014374 0.053037 0.000000 0.000000 0.000000
# 4 0.000000 0.000000 0.000000 0.516493 0.000000 0.000000
# 5 0.000000 0.000000 0.000000 0.000000 0.085463 0.000000
# 6 0.000000 0.000000 0.000000 0.000000 0.000000 0.043802
#
#
# Mechanical properties :
#
#
# Convention : Reuss Voigt Hill
#
# Bulk Modulus (GPa) = 29.61769 67.32646 48.47208
# Shear Modulus (GPa) = 6.43581 18.62257 12.52919
#
# Velocity S-wave (km/s) = 1.87114 3.18290 2.61075
# Velocity P-wave (km/s) = 4.55857 7.08055 5.95461
#
# Compressibility (1/GPa) = 0.03376360
#
# Stress axis : x y z
#
# Youngs Moduli (GPa) = 85.86550 82.34256 18.85493
#
# Poissons Ratio (x) = 0.34192 0.05667
# Poissons Ratio (y) = 0.35655 0.27102
# Poissons Ratio (z) = 0.25806 1.18358
#
# Static dielectric constant tensor:
#      x y z
#    x 3.576480 0.000000 0.000000 
#    y 0.000000 3.528620 0.000000 
#    z 0.000000 0.000000 3.075000 
# 
# 
# High freq. dielectric constant tensor:
#      x y z
#    x 1.726790 0.000000 0.000000 
#    y 0.000000 1.717980 0.000000 
#    z 0.000000 0.000000 1.653000 
# 
# From -- ./inp_files/1913.got.cif
#   From: 2010.03.12/outbox.cif.g09.slc.cpg/sg47_1_cif.got.tgz:1913.got - 2010.04.14 03:12:58.
