data_PCOD8197235
_publ_section_title
;
Structure prediction by ZEFSAII (Michael W. Deem and Ramdas Pophale) SiO2 
 PCOD8197235
Probable space group: P M M M
;
_chemical_formula_sum "Si O2"
_cell_formula_units_Z 40
_cell_length_a 8.186138
_cell_length_b 9.173053
_cell_length_c 27.500652
_cell_angle_alpha 90.000000
_cell_angle_beta 90.000000
_cell_angle_gamma 90.000000
_cell_volume 2065.075598
_symmetry_space_group_name_H-M "P M M M"
_symmetry_group_IT_number 47
_symmetry_cell_setting 'orthorhombic'
loop_
_space_group_symop_operation_xyz
x,y,z
-x,-y,z
x,-y,-z
-x,y,-z
-x,-y,-z
x,y,-z
-x,y,z
x,-y,z
loop_
_atom_site_type_symbol
_atom_site_label
_atom_site_fract_x
_atom_site_fract_y
_atom_site_fract_z
Si Si1 0.188121 0.840868 0.500000
Si Si2 0.315961 0.174292 0.113785
Si Si3 0.000000 0.826458 0.944944
Si Si4 0.687839 0.662856 0.590116
Si Si5 0.186951 0.831180 0.679490
Si Si6 0.311199 0.164307 0.220847
O O1 0.226272 0.752889 0.451708
O O2 0.000000 0.872628 0.500000
O O3 0.277678 0.000000 0.500000
O O4 0.500000 0.224421 0.096466
O O5 0.168109 0.232631 0.079823
O O6 0.281197 0.238603 0.168082
O O7 0.316038 0.000000 0.115187
O O8 0.000000 0.000000 0.942872
O O9 0.000000 0.768770 0.000000
O O10 0.500000 0.654039 0.576376
O O11 0.763071 0.500000 0.592502
O O12 0.706592 0.740113 0.641933
O O13 0.213694 0.764446 0.733917
O O14 0.000000 0.815232 0.664224
O O15 0.243836 0.000000 0.678156
O O16 0.500000 0.170688 0.234720
O O17 0.247426 0.000000 0.215700
#
# Coordination Sequence:
#
# PCOD8197235 Si02
#       6
#     4   8   4   8   8   8
#     4  11  24  41  62  86 108 131 166 211 254 296
#     4   8  14  23  34  49  72 105 147 195 247 299
#     4   9  16  22  30  46  70 106 151 198 247 296
#     4  11  24  40  57  78 105 138 173 205 245 300
#     4  10  20  32  50  77 103 128 163 208 255 302
#     4   8  14  25  41  61  85 115 151 196 249 297
#
# _framework density 19.369751000000001
#
# number of rings (size 3 to 8) (size 9 to 14) (size 15 to 20)
#    0.000    2.600    0.000    3.600    1.400    7.600 
#    0.000    2.000    0.000    0.000    0.000    0.000 
#    0.000    0.000    0.000    0.000    0.000    2.000 
#
# Total GULP energy -495650.560890 kJ/mol
# GULP energy per Si atom -12391.264022 kJ/mol
# Density = 1.932566 g / cm^3
# Si number density = 19.369751 Si / 1000 Ang^3
#
#
#
# Elastic Constant Matrix: (Units=GPa)
#
#
# Indices 1 2 3 4 5 6 
#
# 1 92.8182 24.0150 58.4359 0.0000 0.0000 0.0000
# 2 24.0150 62.2119 37.7681 0.0000 0.0000 0.0000
# 3 58.4359 37.7681 149.7200 0.0000 0.0000 0.0000
# 4 0.0000 0.0000 0.0000 -5.9974 0.0000 0.0000
# 5 0.0000 0.0000 0.0000 0.0000 95.1440 0.0000
# 6 0.0000 0.0000 0.0000 0.0000 0.0000 -0.6839
#
#
#
# Elastic Compliance Matrix: (Units=1/GPa)
#
#
# Indices 1 2 3 4 5 6 
#
# 1 0.014625 -0.002574 -0.005059 0.000000 0.000000 0.000000
# 2 -0.002574 0.019434 -0.003898 0.000000 0.000000 0.000000
# 3 -0.005059 -0.003898 0.009637 0.000000 0.000000 0.000000
# 4 0.000000 0.000000 0.000000 -0.166738 0.000000 0.000000
# 5 0.000000 0.000000 0.000000 0.000000 0.010510 0.000000
# 6 0.000000 0.000000 0.000000 0.000000 0.000000 -1.462236
#
#
# Mechanical properties :
#
#
# Convention : Reuss Voigt Hill
#
# Bulk Modulus (GPa) = 48.46325 60.57645 54.51985
# Shear Modulus (GPa) = -3.23660 29.99461 13.37900
#
# Velocity S-wave (km/s) = -1.29406 3.93940 2.63100
# Velocity P-wave (km/s) = 4.77929 7.21342 6.11862
#
# Compressibility (1/GPa) = 0.02063419
#
# Stress axis : x y z
#
# Youngs Moduli (GPa) = 68.37816 51.45613 103.76996
#
# Poissons Ratio (x) = 0.13247 0.52493
# Poissons Ratio (y) = 0.17603 0.40445
# Poissons Ratio (z) = 0.34590 0.20056
#
# Static dielectric constant tensor:
#      x y z
#    x 3.622100 0.000000 0.000000 
#    y 0.000000 3.123970 0.000000 
#    z 0.000000 0.000000 3.800870 
# 
# 
# High freq. dielectric constant tensor:
#      x y z
#    x 1.760360 0.000000 0.000000 
#    y 0.000000 1.684490 0.000000 
#    z 0.000000 0.000000 1.765700 
# 
# From -- ./inp_files/33032.got.cif
#   From: 2010.03.12/outbox.cif.g09.slc.cpg/sg47_17_cif.got.tgz:33032.got - 2010.04.14 03:12:58.
