data_PCOD8197055
_publ_section_title
;
Structure prediction by ZEFSAII (Michael W. Deem and Ramdas Pophale) SiO2 
 PCOD8197055
Probable space group: P M M M
;
_chemical_formula_sum "Si O2"
_cell_formula_units_Z 44
_cell_length_a 9.361891
_cell_length_b 9.252356
_cell_length_c 28.589352
_cell_angle_alpha 90.000000
_cell_angle_beta 90.000000
_cell_angle_gamma 90.000000
_cell_volume 2476.396758
_symmetry_space_group_name_H-M "P M M M"
_symmetry_group_IT_number 47
_symmetry_cell_setting 'orthorhombic'
loop_
_space_group_symop_operation_xyz
x,y,z
-x,-y,z
x,-y,-z
-x,y,-z
-x,-y,-z
x,y,-z
-x,y,z
x,-y,z
loop_
_atom_site_type_symbol
_atom_site_label
_atom_site_fract_x
_atom_site_fract_y
_atom_site_fract_z
Si Si1 0.332030 0.832304 0.221350
Si Si2 0.330300 0.660706 0.689028
Si Si3 0.340714 0.327961 0.586656
Si Si4 0.169547 0.161935 0.051528
Si Si5 0.160395 0.327349 0.500000
Si Si6 0.168653 0.332955 0.140631
O O1 0.500000 0.805105 0.214554
O O2 0.277694 0.770070 0.271014
O O3 0.248203 0.751464 0.181065
O O4 0.292872 0.000000 0.219698
O O5 0.500000 0.652492 0.687574
O O6 0.268876 0.500000 0.699668
O O7 0.279126 0.716900 0.637866
O O8 0.500000 0.264901 0.578714
O O9 0.347466 0.500000 0.584358
O O10 0.238564 0.266110 0.546213
O O11 0.225309 0.271890 0.090938
O O12 0.000000 0.162510 0.050976
O O13 0.224623 0.000000 0.063072
O O14 0.225796 0.209911 0.000000
O O15 0.162623 0.500000 0.500000
O O16 0.000000 0.267263 0.500000
O O17 0.210649 0.500000 0.143239
O O18 0.000000 0.308748 0.146340
#
# Coordination Sequence:
#
# PCOD8197055 Si02
#       6
#     8   8   8   8   4   8
#     4  10  20  33  50  71  94 123 158 194 236 286
#     4   8  14  26  44  64  86 114 149 188 227 268
#     4   8  13  22  37  55  76 107 145 179 213 259
#     4   8  14  26  45  68  94 125 159 194 233 276
#     4   9  15  21  31  53  86 115 136 168 218 267
#     4  10  20  32  48  72  99 126 157 194 236 280
#
# _framework density 17.767751000000001
#
# number of rings (size 3 to 8) (size 9 to 14) (size 15 to 20)
#    0.000    3.182    0.000    3.000    0.000    3.636 
#    0.000    2.727    0.000    3.818    0.000    4.455 
#    0.000    5.091    0.000    0.000    0.000    0.000 
#
# Total GULP energy -545325.745883 kJ/mol
# GULP energy per Si atom -12393.766952 kJ/mol
# Density = 1.772731 g / cm^3
# Si number density = 17.767751 Si / 1000 Ang^3
#
#
#
# Elastic Constant Matrix: (Units=GPa)
#
#
# Indices 1 2 3 4 5 6 
#
# 1 47.5604 33.2967 54.4503 0.0000 0.0000 0.0000
# 2 33.2967 97.2300 83.4295 0.0000 0.0000 0.0000
# 3 54.4503 83.4295 196.3064 0.0000 0.0000 0.0000
# 4 0.0000 0.0000 0.0000 3.8128 0.0000 0.0000
# 5 0.0000 0.0000 0.0000 0.0000 34.6724 0.0000
# 6 0.0000 0.0000 0.0000 0.0000 0.0000 15.4278
#
#
#
# Elastic Compliance Matrix: (Units=1/GPa)
#
#
# Indices 1 2 3 4 5 6 
#
# 1 0.032480 -0.005340 -0.006740 0.000000 0.000000 0.000000
# 2 -0.005340 0.017066 -0.005772 0.000000 0.000000 0.000000
# 3 -0.006740 -0.005772 0.009417 0.000000 0.000000 0.000000
# 4 0.000000 0.000000 0.000000 0.262277 0.000000 0.000000
# 5 0.000000 0.000000 0.000000 0.000000 0.028841 0.000000
# 6 0.000000 0.000000 0.000000 0.000000 0.000000 0.064818
#
#
# Mechanical properties :
#
#
# Convention : Reuss Voigt Hill
#
# Bulk Modulus (GPa) = 42.99217 75.93887 59.46552
# Shear Modulus (GPa) = 10.90854 22.11060 16.50957
#
# Velocity S-wave (km/s) = 2.48049 3.53147 3.05156
# Velocity P-wave (km/s) = 5.69676 7.71109 6.77916
#
# Compressibility (1/GPa) = 0.02326005
#
# Stress axis : x y z
#
# Youngs Moduli (GPa) = 30.78773 58.59518 106.19560
#
# Poissons Ratio (x) = 0.31289 0.71574
# Poissons Ratio (y) = 0.16440 0.61296
# Poissons Ratio (z) = 0.20750 0.33821
#
# Static dielectric constant tensor:
#      x y z
#    x 2.972040 0.000000 0.000000 
#    y 0.000000 3.136820 0.000000 
#    z 0.000000 0.000000 3.852680 
# 
# 
# High freq. dielectric constant tensor:
#      x y z
#    x 1.642010 0.000000 0.000000 
#    y 0.000000 1.656860 0.000000 
#    z 0.000000 0.000000 1.709550 
# 
# From -- ./inp_files/33926.got.cif
#   From: 2010.03.12/outbox.cif.g09.slc.cpg/sg47_17_cif.got.tgz:33926.got - 2010.04.14 03:12:58.
