data_PCOD8197663
_publ_section_title
;
Structure prediction by ZEFSAII (Michael W. Deem and Ramdas Pophale) SiO2 
 PCOD8197663
Probable space group: P M M M
;
_chemical_formula_sum "Si O2"
_cell_formula_units_Z 52
_cell_length_a 8.799583
_cell_length_b 14.325939
_cell_length_c 24.755639
_cell_angle_alpha 90.000000
_cell_angle_beta 90.000000
_cell_angle_gamma 90.000000
_cell_volume 3120.752525
_symmetry_space_group_name_H-M "P M M M"
_symmetry_group_IT_number 47
_symmetry_cell_setting 'orthorhombic'
loop_
_space_group_symop_operation_xyz
x,y,z
-x,-y,z
x,-y,-z
-x,y,-z
-x,-y,-z
x,y,-z
-x,y,z
x,-y,z
loop_
_atom_site_type_symbol
_atom_site_label
_atom_site_fract_x
_atom_site_fract_y
_atom_site_fract_z
Si Si1 0.325515 0.216878 0.560853
Si Si2 0.180051 0.000000 0.061972
Si Si3 0.179994 0.105201 0.656509
Si Si4 0.179532 0.222646 0.759551
Si Si5 0.675844 0.605315 0.714974
Si Si6 0.822013 0.394705 0.600227
Si Si7 0.328036 0.896806 0.849430
O O1 0.305064 0.178679 0.500000
O O2 0.500000 0.216692 0.578633
O O3 0.234364 0.150554 0.600924
O O4 0.264580 0.322931 0.561778
O O5 0.250322 0.092362 0.091192
O O6 0.000000 0.000000 0.068583
O O7 0.231139 0.000000 0.000000
O O8 0.238953 0.163586 0.708004
O O9 0.000000 0.104416 0.656181
O O10 0.244356 0.000000 0.660592
O O11 0.260774 0.323506 0.759637
O O12 0.227294 0.172488 0.814376
O O13 0.000000 0.235649 0.758678
O O14 0.500000 0.624986 0.702248
O O15 0.699542 0.500000 0.736494
O O16 0.772621 0.623306 0.661410
O O17 0.780882 0.500000 0.582001
O O18 0.000000 0.375511 0.595987
O O19 0.500000 0.858702 0.855212
O O20 0.328193 0.000000 0.821778
#
# Coordination Sequence:
#
# PCOD8197663 Si02
#       7
#     8   4   8   8   8   8   8
#     4  11  24  39  54  73  96 123 158 202 253 310
#     4   9  17  31  51  75 109 151 190 227 264 299
#     4  10  22  38  55  75  96 125 163 203 251 303
#     4  11  20  32  53  77 104 134 170 213 254 304
#     4  10  20  33  51  75 103 133 164 201 250 309
#     4  10  20  35  55  77  98 122 156 196 244 305
#     4   9  19  31  47  74 107 144 182 218 255 298
#
# _framework density 16.662648000000001
#
# number of rings (size 3 to 8) (size 9 to 14) (size 15 to 20)
#    0.462    1.462    1.538    2.769    0.000    5.846 
#    0.000    3.077    0.000    0.000    0.000    0.000 
#    0.000    0.615    0.000    6.462    0.000    2.769 
#
# Total GULP energy -644743.698512 kJ/mol
# GULP energy per Si atom -12398.917279 kJ/mol
# Density = 1.662472 g / cm^3
# Si number density = 16.662648 Si / 1000 Ang^3
#
#
#
# Elastic Constant Matrix: (Units=GPa)
#
#
# Indices 1 2 3 4 5 6 
#
# 1 27.5021 19.6882 15.8857 0.0000 0.0000 0.0000
# 2 19.6882 88.9873 37.5286 0.0000 0.0000 0.0000
# 3 15.8857 37.5286 87.4666 0.0000 0.0000 0.0000
# 4 0.0000 0.0000 0.0000 17.1258 0.0000 0.0000
# 5 0.0000 0.0000 0.0000 0.0000 22.0833 0.0000
# 6 0.0000 0.0000 0.0000 0.0000 0.0000 26.7765
#
#
#
# Elastic Compliance Matrix: (Units=1/GPa)
#
#
# Indices 1 2 3 4 5 6 
#
# 1 0.044756 -0.007904 -0.004737 0.000000 0.000000 0.000000
# 2 -0.007904 0.015116 -0.005050 0.000000 0.000000 0.000000
# 3 -0.004737 -0.005050 0.014460 0.000000 0.000000 0.000000
# 4 0.000000 0.000000 0.000000 0.058391 0.000000 0.000000
# 5 0.000000 0.000000 0.000000 0.000000 0.045283 0.000000
# 6 0.000000 0.000000 0.000000 0.000000 0.000000 0.037346
#
#
# Mechanical properties :
#
#
# Convention : Reuss Voigt Hill
#
# Bulk Modulus (GPa) = 25.67477 38.90680 32.29078
# Shear Modulus (GPa) = 18.95960 21.92069 20.44014
#
# Velocity S-wave (km/s) = 3.37686 3.63100 3.50623
# Velocity P-wave (km/s) = 5.53591 6.40150 5.98438
#
# Compressibility (1/GPa) = 0.03894874
#
# Stress axis : x y z
#
# Youngs Moduli (GPa) = 22.34356 66.15431 69.15567
#
# Poissons Ratio (x) = 0.52290 0.32760
# Poissons Ratio (y) = 0.17661 0.34925
# Poissons Ratio (z) = 0.10584 0.33409
#
# Static dielectric constant tensor:
#      x y z
#    x 3.173930 0.000000 0.000000 
#    y 0.000000 3.242560 0.000000 
#    z 0.000000 0.000000 2.836140 
# 
# 
# High freq. dielectric constant tensor:
#      x y z
#    x 1.657490 0.000000 0.000000 
#    y 0.000000 1.636270 0.000000 
#    z 0.000000 0.000000 1.606920 
# 
# From -- ./inp_files/31988.got.cif
#   From: 2010.03.12/outbox.cif.g09.slc.cpg/sg47_16_cif.got.tgz:31988.got - 2010.04.14 03:12:58.
