data_PCOD8197666
_publ_section_title
;
Structure prediction by ZEFSAII (Michael W. Deem and Ramdas Pophale) SiO2 
 PCOD8197666
Probable space group: P M M M
;
_chemical_formula_sum "Si O2"
_cell_formula_units_Z 64
_cell_length_a 9.166614
_cell_length_b 15.328403
_cell_length_c 23.310280
_cell_angle_alpha 90.000000
_cell_angle_beta 90.000000
_cell_angle_gamma 90.000000
_cell_volume 3275.317036
_symmetry_space_group_name_H-M "P M M M"
_symmetry_group_IT_number 47
_symmetry_cell_setting 'orthorhombic'
loop_
_space_group_symop_operation_xyz
x,y,z
-x,-y,z
x,-y,-z
-x,y,-z
-x,-y,-z
x,y,-z
-x,y,z
x,-y,z
loop_
_atom_site_type_symbol
_atom_site_label
_atom_site_fract_x
_atom_site_fract_y
_atom_site_fract_z
Si Si1 0.335424 0.405808 0.623454
Si Si2 0.169144 0.099244 0.124098
Si Si3 0.670733 0.768603 0.435162
Si Si4 0.831336 0.274880 0.934130
Si Si5 0.658319 0.901464 0.767398
Si Si6 0.166999 0.352205 0.270823
Si Si7 0.327638 0.601646 0.154502
Si Si8 0.833781 0.166396 0.329518
O O1 0.500000 0.387210 0.644999
O O2 0.324598 0.500000 0.592373
O O3 0.289226 0.332224 0.577929
O O4 0.232894 0.411317 0.678976
O O5 0.203409 0.171494 0.075578
O O6 0.249004 0.138238 0.180359
O O7 0.000000 0.097188 0.139995
O O8 0.217594 0.000000 0.105578
O O9 0.718863 0.789538 0.500000
O O10 0.500000 0.787176 0.426347
O O11 0.762970 0.828803 0.392495
O O12 0.732739 0.340131 0.897378
O O13 0.000000 0.293158 0.918796
O O14 0.797015 0.295375 0.000000
O O15 0.500000 0.853804 0.761740
O O16 0.744274 0.902972 0.707317
O O17 0.630830 0.000000 0.784902
O O18 0.256423 0.364894 0.213061
O O19 0.181628 0.253762 0.292517
O O20 0.000000 0.379107 0.259997
O O21 0.500000 0.615176 0.158757
O O22 0.288484 0.500000 0.143931
O O23 0.000000 0.136733 0.337218
#
# Coordination Sequence:
#
# PCOD8197666 Si02
#       8
#     8   8   8   8   8   8   8   8
#     4   9  17  29  46  70 100 131 164 205 252 302
#     4   9  18  34  57  85 116 145 171 205 254 313
#     4   9  18  32  49  69  95 131 173 212 251 296
#     4  10  22  39  58  81 108 140 180 221 260 307
#     4  10  20  33  52  80 110 136 164 201 247 301
#     4  10  20  33  51  76 103 131 167 211 260 313
#     4  11  24  39  55  76 103 138 180 226 275 321
#     4  10  20  33  51  75 103 135 169 208 255 306
#
# _framework density 19.540092999999999
#
# number of rings (size 3 to 8) (size 9 to 14) (size 15 to 20)
#    0.000    2.250    0.000    2.625    0.000    9.750 
#    0.000    3.750    0.000    0.375    0.000    8.750 
#    0.000    0.000    0.000    0.000    0.000    0.000 
#
# Total GULP energy -793312.221744 kJ/mol
# GULP energy per Si atom -12395.503465 kJ/mol
# Density = 1.949562 g / cm^3
# Si number density = 19.540093 Si / 1000 Ang^3
#
#
#
# Elastic Constant Matrix: (Units=GPa)
#
#
# Indices 1 2 3 4 5 6 
#
# 1 101.7626 26.1747 55.1539 0.0000 0.0000 0.0000
# 2 26.1747 47.2064 26.7417 0.0000 0.0000 0.0000
# 3 55.1539 26.7417 110.9616 0.0000 0.0000 0.0000
# 4 0.0000 0.0000 0.0000 18.2586 0.0000 0.0000
# 5 0.0000 0.0000 0.0000 0.0000 31.8626 0.0000
# 6 0.0000 0.0000 0.0000 0.0000 0.0000 23.6022
#
#
#
# Elastic Compliance Matrix: (Units=1/GPa)
#
#
# Indices 1 2 3 4 5 6 
#
# 1 0.014229 -0.004497 -0.005989 0.000000 0.000000 0.000000
# 2 -0.004497 0.025954 -0.004020 0.000000 0.000000 0.000000
# 3 -0.005989 -0.004020 0.012958 0.000000 0.000000 0.000000
# 4 0.000000 0.000000 0.000000 0.054769 0.000000 0.000000
# 5 0.000000 0.000000 0.000000 0.000000 0.031385 0.000000
# 6 0.000000 0.000000 0.000000 0.000000 0.000000 0.042369
#
#
# Mechanical properties :
#
#
# Convention : Reuss Voigt Hill
#
# Bulk Modulus (GPa) = 41.44256 52.89680 47.16968
# Shear Modulus (GPa) = 22.86043 24.86870 23.86456
#
# Velocity S-wave (km/s) = 3.42413 3.57136 3.49852
# Velocity P-wave (km/s) = 6.07354 6.64348 6.36489
#
# Compressibility (1/GPa) = 0.02412978
#
# Stress axis : x y z
#
# Youngs Moduli (GPa) = 70.27662 38.52946 77.17411
#
# Poissons Ratio (x) = 0.17327 0.46220
# Poissons Ratio (y) = 0.31605 0.31021
# Poissons Ratio (z) = 0.42089 0.15487
#
# Static dielectric constant tensor:
#      x y z
#    x 3.764450 0.000000 0.000000 
#    y 0.000000 3.528520 0.000000 
#    z 0.000000 0.000000 3.434840 
# 
# 
# High freq. dielectric constant tensor:
#      x y z
#    x 1.764140 0.000000 0.000000 
#    y 0.000000 1.753510 0.000000 
#    z 0.000000 0.000000 1.749270 
# 
# From -- ./inp_files/29965.got.cif
#   From: 2010.03.12/outbox.cif.g09.slc.cpg/sg47_15_cif.got.tgz:29965.got - 2010.04.14 03:12:58.
