data_PCOD8197866
_publ_section_title
;
Structure prediction by ZEFSAII (Michael W. Deem and Ramdas Pophale) SiO2 
 PCOD8197866
Probable space group: P M M M
;
_chemical_formula_sum "Si O2"
_cell_formula_units_Z 44
_cell_length_a 9.122835
_cell_length_b 28.340793
_cell_length_c 8.606724
_cell_angle_alpha 90.000000
_cell_angle_beta 90.000000
_cell_angle_gamma 90.000000
_cell_volume 2225.254533
_symmetry_space_group_name_H-M "P M M M"
_symmetry_group_IT_number 47
_symmetry_cell_setting 'orthorhombic'
loop_
_space_group_symop_operation_xyz
x,y,z
-x,-y,z
x,-y,-z
-x,y,-z
-x,-y,-z
x,y,-z
-x,y,z
x,-y,z
loop_
_atom_site_type_symbol
_atom_site_label
_atom_site_fract_x
_atom_site_fract_y
_atom_site_fract_z
Si Si1 0.329770 0.184867 0.180217
Si Si2 0.173747 0.000000 0.825460
Si Si3 0.835408 0.551983 0.815187
Si Si4 0.172287 0.902568 0.680065
Si Si5 0.168241 0.272201 0.319436
Si Si6 0.663100 0.640994 0.816266
O O1 0.500000 0.183657 0.224625
O O2 0.259302 0.134604 0.216692
O O3 0.251806 0.224100 0.283546
O O4 0.306764 0.197074 0.000000
O O5 0.227962 0.954031 0.732782
O O6 0.000000 0.000000 0.832353
O O7 0.238998 0.000000 0.000000
O O8 0.779879 0.500000 0.761434
O O9 0.731163 0.592724 0.745872
O O10 0.000000 0.560612 0.752904
O O11 0.835928 0.554429 0.000000
O O12 0.210134 0.895244 0.500000
O O13 0.000000 0.896163 0.711285
O O14 0.182667 0.283618 0.500000
O O15 0.237132 0.314927 0.225059
O O16 0.000000 0.266315 0.268357
O O17 0.500000 0.647616 0.746660
O O18 0.655286 0.637158 0.000000
#
# Coordination Sequence:
#
# PCOD8197866 Si02
#       6
#     8   4   8   8   8   8
#     4  11  24  40  58  82 111 142 178 221 270 324
#     4   9  17  31  54  83 114 149 188 230 274 317
#     4   8  14  26  46  73 105 141 180 221 265 313
#     4  10  20  35  57  85 115 147 185 227 271 321
#     4  11  24  40  58  80 105 137 179 223 268 321
#     4  10  20  33  52  80 111 142 177 218 267 322
#
# _framework density 19.773019000000001
#
# number of rings (size 3 to 8) (size 9 to 14) (size 15 to 20)
#    0.000    2.091    0.000    4.091    0.000   10.909 
#    0.000    2.273    0.000    3.273    0.000    3.818 
#    0.000    0.000    0.000    0.000    0.000    0.000 
#
# Total GULP energy -545658.591646 kJ/mol
# GULP energy per Si atom -12401.331628 kJ/mol
# Density = 1.972801 g / cm^3
# Si number density = 19.773019 Si / 1000 Ang^3
#
#
#
# Elastic Constant Matrix: (Units=GPa)
#
#
# Indices 1 2 3 4 5 6 
#
# 1 104.8890 57.6170 26.9716 0.0000 0.0000 0.0000
# 2 57.6170 141.9031 7.7388 0.0000 0.0000 0.0000
# 3 26.9716 7.7388 31.4421 0.0000 0.0000 0.0000
# 4 0.0000 0.0000 0.0000 -4.2572 0.0000 0.0000
# 5 0.0000 0.0000 0.0000 0.0000 20.6284 0.0000
# 6 0.0000 0.0000 0.0000 0.0000 0.0000 -9.7628
#
#
#
# Elastic Compliance Matrix: (Units=1/GPa)
#
#
# Indices 1 2 3 4 5 6 
#
# 1 0.015826 -0.005763 -0.012157 0.000000 0.000000 0.000000
# 2 -0.005763 0.009241 0.002669 0.000000 0.000000 0.000000
# 3 -0.012157 0.002669 0.041576 0.000000 0.000000 0.000000
# 4 0.000000 0.000000 0.000000 -0.234897 0.000000 0.000000
# 5 0.000000 0.000000 0.000000 0.000000 0.048477 0.000000
# 6 0.000000 0.000000 0.000000 0.000000 0.000000 -0.102429
#
#
# Mechanical properties :
#
#
# Convention : Reuss Voigt Hill
#
# Bulk Modulus (GPa) = 27.66934 51.43210 39.55072
# Shear Modulus (GPa) = -27.83077 13.71547 -7.05765
#
# Velocity S-wave (km/s) = -3.75575 2.63657 -1.89132
# Velocity P-wave (km/s) = 2.18717 5.94444 3.90850
#
# Compressibility (1/GPa) = 0.03614108
#
# Stress axis : x y z
#
# Youngs Moduli (GPa) = 63.18915 108.20957 24.05226
#
# Poissons Ratio (x) = 0.62357 0.29240
# Poissons Ratio (y) = 0.36414 -0.06419
# Poissons Ratio (z) = 0.76819 -0.28879
#
# Static dielectric constant tensor:
#      x y z
#    x 3.708470 0.000000 0.000000 
#    y 0.000000 3.860430 0.000000 
#    z 0.000000 0.000000 3.378050 
# 
# 
# High freq. dielectric constant tensor:
#      x y z
#    x 1.764000 0.000000 0.000000 
#    y 0.000000 1.789330 0.000000 
#    z 0.000000 0.000000 1.751150 
# 
# From -- ./inp_files/2284.got.cif
#   From: 2010.03.12/outbox.cif.g09.slc.cpg/sg47_2_cif.got.tgz:2284.got - 2010.04.14 03:12:58.
