data_PCOD8197681
_publ_section_title
;
Structure prediction by ZEFSAII (Michael W. Deem and Ramdas Pophale) SiO2 
 PCOD8197681
Probable space group: P M M M
;
_chemical_formula_sum "Si O2"
_cell_formula_units_Z 44
_cell_length_a 28.080816
_cell_length_b 9.489239
_cell_length_c 9.231141
_cell_angle_alpha 90.000000
_cell_angle_beta 90.000000
_cell_angle_gamma 90.000000
_cell_volume 2459.781288
_symmetry_space_group_name_H-M "P M M M"
_symmetry_group_IT_number 47
_symmetry_cell_setting 'orthorhombic'
loop_
_space_group_symop_operation_xyz
x,y,z
-x,-y,z
x,-y,-z
-x,y,-z
-x,-y,-z
x,y,-z
-x,y,z
x,-y,z
loop_
_atom_site_type_symbol
_atom_site_label
_atom_site_fract_x
_atom_site_fract_y
_atom_site_fract_z
Si Si1 0.276332 0.167585 0.663600
Si Si2 0.907786 0.336636 0.831524
Si Si3 0.183942 0.836474 0.831631
Si Si4 0.000000 0.332413 0.663449
Si Si5 0.368713 0.165006 0.831923
Si Si6 0.555190 0.337410 0.665197
O O1 0.277306 0.225852 0.500000
O O2 0.228880 0.222774 0.742617
O O3 0.322620 0.224419 0.747614
O O4 0.276451 0.000000 0.667066
O O5 0.898286 0.500000 0.796962
O O6 0.861939 0.249974 0.779846
O O7 0.952964 0.276500 0.744186
O O8 0.918494 0.312369 0.000000
O O9 0.174315 0.000000 0.798613
O O10 0.194937 0.811184 0.000000
O O11 0.000000 0.500000 0.668467
O O12 0.000000 0.274651 0.500000
O O13 0.415401 0.242260 0.774931
O O14 0.375648 0.000000 0.803751
O O15 0.361458 0.198745 0.000000
O O16 0.567586 0.296016 0.500000
O O17 0.500000 0.308746 0.696891
O O18 0.567692 0.500000 0.692949
#
# Coordination Sequence:
#
# PCOD8197681 Si02
#       6
#     8   8   8   4   8   8
#     4   9  17  30  49  71  95 126 162 197 236 284
#     4   9  17  30  48  68  90 118 152 188 227 274
#     4   9  17  30  48  69  93 121 153 190 233 280
#     4   9  17  29  46  67  90 118 152 189 228 270
#     4  10  20  33  51  76 103 130 164 206 246 286
#     4   9  19  36  55  74  99 132 167 202 244 295
#
# _framework density 17.887768999999999
#
# number of rings (size 3 to 8) (size 9 to 14) (size 15 to 20)
#    0.000    2.818    0.000    1.909    0.000    6.182 
#    0.000    4.091    0.000    6.000    0.000    0.000 
#    0.000    0.000    0.000    0.000    0.000    0.000 
#
# Total GULP energy -545658.970576 kJ/mol
# GULP energy per Si atom -12401.340240 kJ/mol
# Density = 1.784706 g / cm^3
# Si number density = 17.887769 Si / 1000 Ang^3
#
#
#
# Elastic Constant Matrix: (Units=GPa)
#
#
# Indices 1 2 3 4 5 6 
#
# 1 152.0395 50.3360 86.0920 0.0000 0.0000 0.0000
# 2 50.3360 40.4905 40.2128 0.0000 0.0000 0.0000
# 3 86.0920 40.2128 114.9392 0.0000 0.0000 0.0000
# 4 0.0000 0.0000 0.0000 20.6115 0.0000 0.0000
# 5 0.0000 0.0000 0.0000 0.0000 35.4059 0.0000
# 6 0.0000 0.0000 0.0000 0.0000 0.0000 7.7196
#
#
#
# Elastic Compliance Matrix: (Units=1/GPa)
#
#
# Indices 1 2 3 4 5 6 
#
# 1 0.013872 -0.010614 -0.006677 0.000000 0.000000 0.000000
# 2 -0.010614 0.045969 -0.008133 0.000000 0.000000 0.000000
# 3 -0.006677 -0.008133 0.016547 0.000000 0.000000 0.000000
# 4 0.000000 0.000000 0.000000 0.048517 0.000000 0.000000
# 5 0.000000 0.000000 0.000000 0.000000 0.028244 0.000000
# 6 0.000000 0.000000 0.000000 0.000000 0.000000 0.129540
#
#
# Mechanical properties :
#
#
# Convention : Reuss Voigt Hill
#
# Bulk Modulus (GPa) = 39.15374 73.41674 56.28524
# Shear Modulus (GPa) = 14.61780 21.46931 18.04355
#
# Velocity S-wave (km/s) = 2.86176 3.46818 3.17946
# Velocity P-wave (km/s) = 5.73199 7.56107 6.70915
#
# Compressibility (1/GPa) = 0.02554035
#
# Stress axis : x y z
#
# Youngs Moduli (GPa) = 72.08729 21.75399 60.43436
#
# Poissons Ratio (x) = 0.23089 0.40353
# Poissons Ratio (y) = 0.76512 0.49149
# Poissons Ratio (z) = 0.48134 0.17692
#
# Static dielectric constant tensor:
#      x y z
#    x 3.432720 0.000000 0.000000 
#    y 0.000000 2.972420 0.000000 
#    z 0.000000 0.000000 3.367040 
# 
# 
# High freq. dielectric constant tensor:
#      x y z
#    x 1.704490 0.000000 0.000000 
#    y 0.000000 1.655420 0.000000 
#    z 0.000000 0.000000 1.696160 
# 
# From -- ./inp_files/1985.got.cif
#   From: 2010.03.12/outbox.cif.g09.slc.cpg/sg47_1_cif.got.tgz:1985.got - 2010.04.14 03:12:58.
