data_PCOD8197160
_publ_section_title
;
Structure prediction by ZEFSAII (Michael W. Deem and Ramdas Pophale) SiO2 
 PCOD8197160
Probable space group: P M M M
;
_chemical_formula_sum "Si O2"
_cell_formula_units_Z 64
_cell_length_a 9.191420
_cell_length_b 41.185522
_cell_length_c 9.343608
_cell_angle_alpha 90.000000
_cell_angle_beta 90.000000
_cell_angle_gamma 90.000000
_cell_volume 3537.054863
_symmetry_space_group_name_H-M "P M M M"
_symmetry_group_IT_number 47
_symmetry_cell_setting 'orthorhombic'
loop_
_space_group_symop_operation_xyz
x,y,z
-x,-y,z
x,-y,-z
-x,y,-z
-x,-y,-z
x,y,-z
-x,y,z
x,-y,z
loop_
_atom_site_type_symbol
_atom_site_label
_atom_site_fract_x
_atom_site_fract_y
_atom_site_fract_z
Si Si1 0.163109 0.535776 0.669961
Si Si2 0.666569 0.097771 0.169761
Si Si3 0.836892 0.964224 0.830039
Si Si4 0.170391 0.153859 0.666017
Si Si5 0.170391 0.346141 0.166017
Si Si6 0.332691 0.781529 0.666331
Si Si7 0.333431 0.597771 0.669761
Si Si8 0.332692 0.718471 0.166331
O O1 0.163414 0.535755 0.500000
O O2 0.212532 0.500000 0.725165
O O3 0.272940 0.563211 0.726988
O O4 0.000000 0.543455 0.725559
O O5 0.500000 0.100680 0.218322
O O6 0.727060 0.063211 0.226987
O O7 0.758978 0.125920 0.240644
O O8 0.683442 0.100693 0.000000
O O9 0.000000 0.956546 0.774438
O O10 0.787466 0.000000 0.774838
O O11 0.836591 0.964244 0.000000
O O12 0.206055 0.147415 0.500000
O O13 0.237105 0.188028 0.716197
O O14 0.000000 0.154635 0.696386
O O15 0.241023 0.374080 0.259356
O O16 0.237104 0.311972 0.216196
O O17 0.000000 0.345365 0.196387
O O18 0.206055 0.352585 0.000000
O O19 0.311683 0.774232 0.500000
O O20 0.500000 0.789207 0.704475
O O21 0.276260 0.750000 0.750000
O O22 0.316557 0.600693 0.500000
O O23 0.500000 0.600680 0.718321
O O24 0.500000 0.710793 0.204478
O O25 0.311686 0.725768 0.000000
#
# Coordination Sequence:
#
# PCOD8197160 Si02
#       8
#     8   8   8   8   8   8   8   8
#     4   8  14  26  45  69  98 131 164 200 245 294
#     4  10  20  32  49  75 103 131 166 207 249 294
#     4   8  14  26  45  69  98 131 164 200 245 294
#     4  10  21  36  53  73  99 133 170 205 245 294
#     4  10  21  36  53  73  99 133 170 205 245 294
#     4   9  18  33  52  73  98 128 161 198 241 290
#     4  10  20  32  49  75 103 131 166 207 249 294
#     4   9  18  33  52  73  98 128 161 198 241 290
#
# _framework density 18.094149999999999
#
# number of rings (size 3 to 8) (size 9 to 14) (size 15 to 20)
#    0.000    2.750    0.000    2.250    0.000    5.000 
#    0.000    5.000    0.000    0.750    0.000    5.250 
#    0.000    0.000    0.000    0.000    0.000    0.000 
#
# Total GULP energy -793543.379431 kJ/mol
# GULP energy per Si atom -12399.115304 kJ/mol
# Density = 1.805297 g / cm^3
# Si number density = 18.094150 Si / 1000 Ang^3
#
#
#
# Elastic Constant Matrix: (Units=GPa)
#
#
# Indices 1 2 3 4 5 6 
#
# 1 106.3081 83.0566 30.6670 0.0000 0.0000 0.0000
# 2 83.0566 170.3476 43.9521 0.0000 0.0000 0.0000
# 3 30.6670 43.9521 27.4582 0.0000 0.0000 0.0000
# 4 0.0000 0.0000 0.0000 24.3855 0.0000 0.0000
# 5 0.0000 0.0000 0.0000 0.0000 21.7249 0.0000
# 6 0.0000 0.0000 0.0000 0.0000 0.0000 41.5123
#
#
#
# Elastic Compliance Matrix: (Units=1/GPa)
#
#
# Indices 1 2 3 4 5 6 
#
# 1 0.016524 -0.005613 -0.009470 0.000000 0.000000 0.000000
# 2 -0.005613 0.011907 -0.012791 0.000000 0.000000 0.000000
# 3 -0.009470 -0.012791 0.067470 0.000000 0.000000 0.000000
# 4 0.000000 0.000000 0.000000 0.041008 0.000000 0.000000
# 5 0.000000 0.000000 0.000000 0.000000 0.046030 0.000000
# 6 0.000000 0.000000 0.000000 0.000000 0.000000 0.024089
#
#
# Mechanical properties :
#
#
# Convention : Reuss Voigt Hill
#
# Bulk Modulus (GPa) = 24.90465 68.82947 46.86706
# Shear Modulus (GPa) = 18.10537 27.28708 22.69622
#
# Velocity S-wave (km/s) = 3.16669 3.88759 3.54551
# Velocity P-wave (km/s) = 5.21194 7.63370 6.53597
#
# Compressibility (1/GPa) = 0.04015314
#
# Stress axis : x y z
#
# Youngs Moduli (GPa) = 60.51820 83.98114 14.82143
#
# Poissons Ratio (x) = 0.47141 0.14036
# Poissons Ratio (y) = 0.33970 0.18958
# Poissons Ratio (z) = 0.57310 1.07419
#
# Static dielectric constant tensor:
#      x y z
#    x 3.471610 0.000000 0.000000 
#    y 0.000000 3.665940 0.000000 
#    z 0.000000 0.000000 3.022210 
# 
# 
# High freq. dielectric constant tensor:
#      x y z
#    x 1.705050 0.000000 0.000000 
#    y 0.000000 1.716680 0.000000 
#    z 0.000000 0.000000 1.663880 
# 
# From -- ./inp_files/15724.got.cif
#   From: 2010.03.12/outbox.cif.g09.slc.cpg/sg47_8_cif.got.tgz:15724.got - 2010.04.14 03:12:58.
