data_PCOD8197546
_publ_section_title
;
Structure prediction by ZEFSAII (Michael W. Deem and Ramdas Pophale) SiO2 
 PCOD8197546
Probable space group: P M M M
;
_chemical_formula_sum "Si O2"
_cell_formula_units_Z 56
_cell_length_a 14.532533
_cell_length_b 23.346501
_cell_length_c 8.857670
_cell_angle_alpha 90.000000
_cell_angle_beta 90.000000
_cell_angle_gamma 90.000000
_cell_volume 3005.263903
_symmetry_space_group_name_H-M "P M M M"
_symmetry_group_IT_number 47
_symmetry_cell_setting 'orthorhombic'
loop_
_space_group_symop_operation_xyz
x,y,z
-x,-y,z
x,-y,-z
-x,y,-z
-x,-y,-z
x,y,-z
-x,y,z
x,-y,z
loop_
_atom_site_type_symbol
_atom_site_label
_atom_site_fract_x
_atom_site_fract_y
_atom_site_fract_z
Si Si1 0.607012 0.754361 0.326925
Si Si2 0.726946 0.340937 0.822842
Si Si3 0.778782 0.937425 0.823133
Si Si4 0.893164 0.168658 0.825588
Si Si5 0.104939 0.287471 0.321726
Si Si6 0.395586 0.433319 0.674041
Si Si7 0.397166 0.871933 0.826683
O O1 0.636970 0.745825 0.500000
O O2 0.500000 0.740372 0.303687
O O3 0.663770 0.712064 0.222676
O O4 0.629380 0.818815 0.278438
O O5 0.827978 0.335429 0.747834
O O6 0.678567 0.399506 0.772152
O O7 0.740833 0.342126 0.000000
O O8 0.841561 0.886652 0.755165
O O9 0.671796 0.923766 0.790796
O O10 0.801146 0.000000 0.751008
O O11 0.798914 0.940608 0.000000
O O12 0.862713 0.224981 0.734975
O O13 0.000000 0.156183 0.805645
O O14 0.865832 0.178552 0.000000
O O15 0.113342 0.288993 0.500000
O O16 0.000000 0.299956 0.269150
O O17 0.384369 0.415245 0.500000
O O18 0.500000 0.419154 0.726671
O O19 0.374929 0.500000 0.696203
O O20 0.500000 0.894032 0.791864
O O21 0.387709 0.851638 0.000000
#
# Coordination Sequence:
#
# PCOD8197546 Si02
#       7
#     8   8   8   8   8   8   8
#     4  10  20  33  50  73 102 135 171 212 258 310
#     4  12  23  33  52  81 112 143 174 214 262 309
#     4   9  17  28  43  65  91 120 158 202 247 299
#     4   9  17  30  49  72  97 124 156 200 255 309
#     4  10  21  37  57  79 103 134 173 216 262 314
#     4   9  19  37  59  82 112 151 190 223 254 293
#     4   9  17  29  45  65  90 121 159 205 255 303
#
# _framework density 18.633970000000001
#
# number of rings (size 3 to 8) (size 9 to 14) (size 15 to 20)
#    0.000    2.286    0.000    3.857    0.000    5.714 
#    0.000    3.571    0.000    2.143    0.000    7.000 
#    0.000    0.000    0.000    0.000    0.000    0.000 
#
# Total GULP energy -694391.133083 kJ/mol
# GULP energy per Si atom -12399.841662 kJ/mol
# Density = 1.859156 g / cm^3
# Si number density = 18.633970 Si / 1000 Ang^3
#
#
#
# Elastic Constant Matrix: (Units=GPa)
#
#
# Indices 1 2 3 4 5 6 
#
# 1 90.9298 57.2029 36.7837 0.0000 0.0000 0.0000
# 2 57.2029 86.7832 36.3377 0.0000 0.0000 0.0000
# 3 36.7837 36.3377 72.3460 0.0000 0.0000 0.0000
# 4 0.0000 0.0000 0.0000 13.6830 0.0000 0.0000
# 5 0.0000 0.0000 0.0000 0.0000 23.0846 0.0000
# 6 0.0000 0.0000 0.0000 0.0000 0.0000 28.6838
#
#
#
# Elastic Compliance Matrix: (Units=1/GPa)
#
#
# Indices 1 2 3 4 5 6 
#
# 1 0.019864 -0.011225 -0.004462 0.000000 0.000000 0.000000
# 2 -0.011225 0.020935 -0.004808 0.000000 0.000000 0.000000
# 3 -0.004462 -0.004808 0.018506 0.000000 0.000000 0.000000
# 4 0.000000 0.000000 0.000000 0.073083 0.000000 0.000000
# 5 0.000000 0.000000 0.000000 0.000000 0.043319 0.000000
# 6 0.000000 0.000000 0.000000 0.000000 0.000000 0.034863
#
#
# Mechanical properties :
#
#
# Convention : Reuss Voigt Hill
#
# Bulk Modulus (GPa) = 54.59790 56.74530 55.67160
# Shear Modulus (GPa) = 19.40511 21.07261 20.23886
#
# Velocity S-wave (km/s) = 3.23055 3.36649 3.29922
# Velocity P-wave (km/s) = 6.57868 6.75498 6.66741
#
# Compressibility (1/GPa) = 0.01831572
#
# Stress axis : x y z
#
# Youngs Moduli (GPa) = 50.34267 47.76662 54.03712
#
# Poissons Ratio (x) = 0.53618 0.24109
# Poissons Ratio (y) = 0.56510 0.25981
# Poissons Ratio (z) = 0.22460 0.22966
#
# Static dielectric constant tensor:
#      x y z
#    x 3.619950 0.000000 0.000000 
#    y 0.000000 3.407350 0.000000 
#    z 0.000000 0.000000 3.285650 
# 
# 
# High freq. dielectric constant tensor:
#      x y z
#    x 1.730840 0.000000 0.000000 
#    y 0.000000 1.709420 0.000000 
#    z 0.000000 0.000000 1.705000 
# 
# From -- ./inp_files/7298.got.cif
#   From: 2010.03.12/outbox.cif.g09.slc.cpg/sg47_4_cif.got.tgz:7298.got - 2010.04.14 03:12:58.
