data_PCOD8197734
_publ_section_title
;
Structure prediction by ZEFSAII (Michael W. Deem and Ramdas Pophale) SiO2 
 PCOD8197734
Probable space group: P M M M
;
_chemical_formula_sum "Si O2"
_cell_formula_units_Z 48
_cell_length_a 9.276687
_cell_length_b 9.048034
_cell_length_c 30.443890
_cell_angle_alpha 90.000000
_cell_angle_beta 90.000000
_cell_angle_gamma 90.000000
_cell_volume 2555.331635
_symmetry_space_group_name_H-M "P M M M"
_symmetry_group_IT_number 47
_symmetry_cell_setting 'orthorhombic'
loop_
_space_group_symop_operation_xyz
x,y,z
-x,-y,z
x,-y,-z
-x,y,-z
-x,-y,-z
x,y,-z
-x,y,z
x,-y,z
loop_
_atom_site_type_symbol
_atom_site_label
_atom_site_fract_x
_atom_site_fract_y
_atom_site_fract_z
Si Si1 0.163055 0.676077 0.500000
Si Si2 0.332455 0.826886 0.078343
Si Si3 0.830753 0.327366 0.000000
Si Si4 0.168640 0.166417 0.759218
Si Si5 0.335822 0.324975 0.415842
Si Si6 0.667021 0.330545 0.832927
Si Si7 0.836462 0.172644 0.658828
O O1 0.164602 0.500000 0.500000
O O2 0.244507 0.736837 0.543030
O O3 0.000000 0.737299 0.500000
O O4 0.500000 0.791432 0.069286
O O5 0.236968 0.744601 0.042878
O O6 0.284556 0.768514 0.125921
O O7 0.300946 0.000000 0.075756
O O8 0.795010 0.500000 0.000000
O O9 0.000000 0.295979 0.000000
O O10 0.248010 0.282488 0.789887
O O11 0.202949 0.208961 0.709071
O O12 0.000000 0.176814 0.768402
O O13 0.223276 0.000000 0.769032
O O14 0.500000 0.271965 0.421560
O O15 0.326064 0.500000 0.413670
O O16 0.273493 0.262100 0.370904
O O17 0.500000 0.307188 0.822717
O O18 0.703191 0.500000 0.843920
O O19 0.000000 0.223055 0.648610
O O20 0.819260 0.000000 0.649395
#
# Coordination Sequence:
#
# PCOD8197734 Si02
#       7
#     4   8   4   8   8   8   8
#     4   9  17  31  52  75 100 135 176 214 256 309
#     4  10  21  38  60  83 107 141 184 223 263 316
#     4  11  24  39  56  82 114 145 178 219 268 318
#     4   9  19  36  56  77 103 138 178 218 262 312
#     4  10  20  33  51  77 107 136 169 213 263 313
#     4  10  21  36  55  81 111 141 175 217 264 313
#     4   9  19  36  55  75 102 137 177 218 260 310
#
# _framework density 18.784255000000002
#
# number of rings (size 3 to 8) (size 9 to 14) (size 15 to 20)
#    0.000    2.333    0.000    3.250    0.000    8.333 
#    0.000    5.417    0.000    2.500    0.000    0.000 
#    0.000    0.000    0.000    0.000    0.000    0.000 
#
# Total GULP energy -595343.754226 kJ/mol
# GULP energy per Si atom -12402.994880 kJ/mol
# Density = 1.874150 g / cm^3
# Si number density = 18.784255 Si / 1000 Ang^3
#
#
#
# Elastic Constant Matrix: (Units=GPa)
#
#
# Indices 1 2 3 4 5 6 
#
# 1 111.0832 52.2476 80.4452 0.0000 0.0000 0.0000
# 2 52.2476 69.5199 53.5670 0.0000 0.0000 0.0000
# 3 80.4452 53.5670 133.2722 0.0000 0.0000 0.0000
# 4 0.0000 0.0000 0.0000 41.3013 0.0000 0.0000
# 5 0.0000 0.0000 0.0000 0.0000 63.9399 0.0000
# 6 0.0000 0.0000 0.0000 0.0000 0.0000 30.6772
#
#
#
# Elastic Compliance Matrix: (Units=1/GPa)
#
#
# Indices 1 2 3 4 5 6 
#
# 1 0.018429 -0.007647 -0.008050 0.000000 0.000000 0.000000
# 2 -0.007647 0.024011 -0.005035 0.000000 0.000000 0.000000
# 3 -0.008050 -0.005035 0.014387 0.000000 0.000000 0.000000
# 4 0.000000 0.000000 0.000000 0.024212 0.000000 0.000000
# 5 0.000000 0.000000 0.000000 0.000000 0.015640 0.000000
# 6 0.000000 0.000000 0.000000 0.000000 0.000000 0.032598
#
#
# Mechanical properties :
#
#
# Convention : Reuss Voigt Hill
#
# Bulk Modulus (GPa) = 65.09749 76.26610 70.68179
# Shear Modulus (GPa) = 28.43132 35.69139 32.06135
#
# Velocity S-wave (km/s) = 3.89469 4.36371 4.13585
# Velocity P-wave (km/s) = 7.41319 8.12887 7.77926
#
# Compressibility (1/GPa) = 0.01536158
#
# Stress axis : x y z
#
# Youngs Moduli (GPa) = 54.26182 41.64703 69.50960
#
# Poissons Ratio (x) = 0.31849 0.55958
# Poissons Ratio (y) = 0.41496 0.34998
# Poissons Ratio (z) = 0.43683 0.20969
#
# Static dielectric constant tensor:
#      x y z
#    x 3.455260 0.000000 0.000000 
#    y 0.000000 3.337020 0.000000 
#    z 0.000000 0.000000 3.536840 
# 
# 
# High freq. dielectric constant tensor:
#      x y z
#    x 1.729380 0.000000 0.000000 
#    y 0.000000 1.721440 0.000000 
#    z 0.000000 0.000000 1.741470 
# 
# From -- ./inp_files/34056.got.cif
#   From: 2010.03.12/outbox.cif.g09.slc.cpg/sg47_18_cif.got.tgz:34056.got - 2010.04.14 03:12:58.
