data_PCOD8197346
_publ_section_title
;
Structure prediction by ZEFSAII (Michael W. Deem and Ramdas Pophale) SiO2 
 PCOD8197346
Probable space group: P M M M
;
_chemical_formula_sum "Si O2"
_cell_formula_units_Z 48
_cell_length_a 17.602304
_cell_length_b 21.119247
_cell_length_c 7.762308
_cell_angle_alpha 90.000000
_cell_angle_beta 90.000000
_cell_angle_gamma 90.000000
_cell_volume 2885.617863
_symmetry_space_group_name_H-M "P M M M"
_symmetry_group_IT_number 47
_symmetry_cell_setting 'orthorhombic'
loop_
_space_group_symop_operation_xyz
x,y,z
-x,-y,z
x,-y,-z
-x,y,-z
-x,-y,-z
x,y,-z
-x,y,z
x,-y,z
loop_
_atom_site_type_symbol
_atom_site_label
_atom_site_fract_x
_atom_site_fract_y
_atom_site_fract_z
Si Si1 0.679267 0.755291 0.192843
Si Si2 0.589055 0.805153 0.500000
Si Si3 0.084504 0.429304 0.703442
Si Si4 0.823171 0.311266 0.199220
Si Si5 0.312577 0.069375 0.500000
Si Si6 0.776591 0.118038 0.808712
Si Si7 0.916361 0.195642 0.203871
O O1 0.611836 0.765349 0.329834
O O2 0.735766 0.699235 0.262244
O O3 0.730037 0.817452 0.185419
O O4 0.645989 0.741185 0.000000
O O5 0.500000 0.815051 0.500000
O O6 0.625403 0.875201 0.500000
O O7 0.084805 0.428141 0.500000
O O8 0.104092 0.500000 0.770028
O O9 0.149085 0.382493 0.771371
O O10 0.000000 0.409918 0.770443
O O11 0.881195 0.260603 0.285019
O O12 0.820312 0.294846 0.000000
O O13 0.259616 0.071497 0.330775
O O14 0.352453 0.000000 0.500000
O O15 0.862653 0.135740 0.751583
O O16 0.775258 0.086563 0.000000
O O17 0.000000 0.184756 0.284802
O O18 0.922749 0.202969 0.000000
#
# Coordination Sequence:
#
# PCOD8197346 Si02
#       7
#     8   4   8   8   4   8   8
#     4   8  16  30  47  70  95 117 146 185 224 267
#     4  10  20  33  52  75  96 121 141 162 215 278
#     4   9  18  29  37  52  87 132 169 199 232 266
#     4   9  16  26  43  64  85 114 154 196 232 268
#     4  10  20  33  49  68  90 116 149 182 203 244
#     4   8  15  29  46  63  87 118 148 182 226 264
#     4   8  13  23  41  63  85 109 142 189 238 274
#
# _framework density 16.634219000000002
#
# number of rings (size 3 to 8) (size 9 to 14) (size 15 to 20)
#    0.000    3.333    0.000    3.000    1.167    2.167 
#    1.500    1.250    0.000    1.000    0.000    7.000 
#    0.000    1.333    0.000    3.667    0.000    0.000 
#
# Total GULP energy -594656.568966 kJ/mol
# GULP energy per Si atom -12388.678520 kJ/mol
# Density = 1.659636 g / cm^3
# Si number density = 16.634219 Si / 1000 Ang^3
#
#
#
# Elastic Constant Matrix: (Units=GPa)
#
#
# Indices 1 2 3 4 5 6 
#
# 1 107.8741 42.3981 40.5427 0.0000 0.0000 0.0000
# 2 42.3981 71.1300 22.8307 0.0000 0.0000 0.0000
# 3 40.5427 22.8307 67.6236 0.0000 0.0000 0.0000
# 4 0.0000 0.0000 0.0000 15.1653 0.0000 0.0000
# 5 0.0000 0.0000 0.0000 0.0000 16.0441 0.0000
# 6 0.0000 0.0000 0.0000 0.0000 0.0000 15.3419
#
#
#
# Elastic Compliance Matrix: (Units=1/GPa)
#
#
# Indices 1 2 3 4 5 6 
#
# 1 0.014170 -0.006415 -0.006330 0.000000 0.000000 0.000000
# 2 -0.006415 0.018671 -0.002458 0.000000 0.000000 0.000000
# 3 -0.006330 -0.002458 0.019413 0.000000 0.000000 0.000000
# 4 0.000000 0.000000 0.000000 0.065940 0.000000 0.000000
# 5 0.000000 0.000000 0.000000 0.000000 0.062328 0.000000
# 6 0.000000 0.000000 0.000000 0.000000 0.000000 0.065181
#
#
# Mechanical properties :
#
#
# Convention : Reuss Voigt Hill
#
# Bulk Modulus (GPa) = 45.76827 50.90785 48.33806
# Shear Modulus (GPa) = 17.64346 18.70066 18.17206
#
# Velocity S-wave (km/s) = 3.26033 3.35659 3.30881
# Velocity P-wave (km/s) = 6.46121 6.75966 6.61212
#
# Compressibility (1/GPa) = 0.02184920
#
# Stress axis : x y z
#
# Youngs Moduli (GPa) = 70.57059 53.55833 51.51316
#
# Poissons Ratio (x) = 0.34356 0.32607
# Poissons Ratio (y) = 0.45269 0.12661
# Poissons Ratio (z) = 0.44670 0.13164
#
# Static dielectric constant tensor:
#      x y z
#    x 3.114440 0.000000 0.000000 
#    y 0.000000 3.173760 0.000000 
#    z 0.000000 0.000000 3.270080 
# 
# 
# High freq. dielectric constant tensor:
#      x y z
#    x 1.610940 0.000000 0.000000 
#    y 0.000000 1.608470 0.000000 
#    z 0.000000 0.000000 1.640550 
# 
# From -- ./inp_files/9758.got.cif
#   From: 2010.03.12/outbox.cif.g09.slc.cpg/sg47_5_cif.got.tgz:9758.got - 2010.04.14 03:12:58.
