data_PCOD8197145
_publ_section_title
;
Structure prediction by ZEFSAII (Michael W. Deem and Ramdas Pophale) SiO2 
 PCOD8197145
Probable space group: P M M M
;
_chemical_formula_sum "Si O2"
_cell_formula_units_Z 32
_cell_length_a 23.993975
_cell_length_b 7.777189
_cell_length_c 9.625575
_cell_angle_alpha 90.000000
_cell_angle_beta 90.000000
_cell_angle_gamma 90.000000
_cell_volume 1796.186953
_symmetry_space_group_name_H-M "P M M M"
_symmetry_group_IT_number 47
_symmetry_cell_setting 'orthorhombic'
loop_
_space_group_symop_operation_xyz
x,y,z
-x,-y,z
x,-y,-z
-x,y,-z
-x,-y,-z
x,y,-z
-x,y,z
x,-y,z
loop_
_atom_site_type_symbol
_atom_site_label
_atom_site_fract_x
_atom_site_fract_y
_atom_site_fract_z
Si Si1 0.637277 0.690128 0.834725
Si Si2 0.937852 0.500000 0.334969
Si Si3 0.762457 0.701097 0.842024
Si Si4 0.562907 0.000000 0.834040
Si Si5 0.861483 0.191697 0.340639
O O1 0.621305 0.500000 0.777322
O O2 0.699849 0.740602 0.789037
O O3 0.593948 0.830255 0.775922
O O4 0.635475 0.685175 0.000000
O O5 0.941726 0.500000 0.500000
O O6 0.905968 0.329204 0.281873
O O7 0.000000 0.500000 0.270638
O O8 0.775218 0.500000 0.831153
O O9 0.804463 0.803633 0.744845
O O10 0.770148 0.765229 0.000000
O O11 0.500000 0.000000 0.776943
O O12 0.563796 0.000000 0.000000
O O13 0.847042 0.235733 0.500000
O O14 0.887161 0.000000 0.327227
#
# Coordination Sequence:
#
# PCOD8197145 Si02
#       5
#     8   4   8   4   8
#     4   8  15  26  38  57  85 115 150 191 230 273
#     4   9  18  34  53  71  97 131 160 193 238 282
#     4   9  17  30  49  71  96 128 163 195 236 290
#     4   9  16  24  36  56  83 119 158 189 226 276
#     4  10  20  32  49  75 101 125 156 196 239 283
#
# _framework density 17.815518000000001
#
# number of rings (size 3 to 8) (size 9 to 14) (size 15 to 20)
#    0.000    3.000    1.250    1.500    1.750    1.500 
#    0.000    5.000    0.000    1.500    0.000    1.750 
#    0.000    2.000    0.000    5.500    0.000    5.500 
#
# Total GULP energy -396669.185393 kJ/mol
# GULP energy per Si atom -12395.912044 kJ/mol
# Density = 1.777497 g / cm^3
# Si number density = 17.815518 Si / 1000 Ang^3
#
#
#
# Elastic Constant Matrix: (Units=GPa)
#
#
# Indices 1 2 3 4 5 6 
#
# 1 144.2145 85.9011 26.1609 0.0000 0.0000 0.0000
# 2 85.9011 137.6655 21.4807 0.0000 0.0000 0.0000
# 3 26.1609 21.4807 26.5042 0.0000 0.0000 0.0000
# 4 0.0000 0.0000 0.0000 13.8669 0.0000 0.0000
# 5 0.0000 0.0000 0.0000 0.0000 0.2197 0.0000
# 6 0.0000 0.0000 0.0000 0.0000 0.0000 26.3748
#
#
#
# Elastic Compliance Matrix: (Units=1/GPa)
#
#
# Indices 1 2 3 4 5 6 
#
# 1 0.011964 -0.006437 -0.006592 0.000000 0.000000 0.000000
# 2 -0.006437 0.011779 -0.003193 0.000000 0.000000 0.000000
# 3 -0.006592 -0.003193 0.046824 0.000000 0.000000 0.000000
# 4 0.000000 0.000000 0.000000 0.072114 0.000000 0.000000
# 5 0.000000 0.000000 0.000000 0.000000 4.551244 0.000000
# 6 0.000000 0.000000 0.000000 0.000000 0.000000 0.037915
#
#
# Mechanical properties :
#
#
# Convention : Reuss Voigt Hill
#
# Bulk Modulus (GPa) = 26.23061 63.94108 45.08584
# Shear Modulus (GPa) = 1.04668 19.74837 10.39753
#
# Velocity S-wave (km/s) = 0.76733 3.33302 2.41845
# Velocity P-wave (km/s) = 3.94214 7.12605 5.75852
#
# Compressibility (1/GPa) = 0.03812340
#
# Stress axis : x y z
#
# Youngs Moduli (GPa) = 83.58420 84.89990 21.35637
#
# Poissons Ratio (x) = 0.54648 0.14079
# Poissons Ratio (y) = 0.53801 0.06819
# Poissons Ratio (z) = 0.55101 0.27107
#
# Static dielectric constant tensor:
#      x y z
#    x 3.398210 0.000000 0.000000 
#    y 0.000000 3.574480 0.000000 
#    z 0.000000 0.000000 2.760610 
# 
# 
# High freq. dielectric constant tensor:
#      x y z
#    x 1.684870 0.000000 0.000000 
#    y 0.000000 1.704420 0.000000 
#    z 0.000000 0.000000 1.621880 
# 
# From -- ./inp_files/1327.got.cif
#   From: 2010.03.12/outbox.cif.g09.slc.cpg/sg47_1_cif.got.tgz:1327.got - 2010.04.14 03:12:58.
