data_PCOD8197148
_publ_section_title
;
Structure prediction by ZEFSAII (Michael W. Deem and Ramdas Pophale) SiO2 
 PCOD8197148
Probable space group: P M M M
;
_chemical_formula_sum "Si O2"
_cell_formula_units_Z 48
_cell_length_a 31.424273
_cell_length_b 8.769040
_cell_length_c 9.565801
_cell_angle_alpha 90.000000
_cell_angle_beta 90.000000
_cell_angle_gamma 90.000000
_cell_volume 2635.958886
_symmetry_space_group_name_H-M "P M M M"
_symmetry_group_IT_number 47
_symmetry_cell_setting 'orthorhombic'
loop_
_space_group_symop_operation_xyz
x,y,z
-x,-y,z
x,-y,-z
-x,y,-z
-x,-y,-z
x,y,-z
-x,y,z
x,-y,z
loop_
_atom_site_type_symbol
_atom_site_label
_atom_site_fract_x
_atom_site_fract_y
_atom_site_fract_z
Si Si1 0.545055 0.329074 0.166161
Si Si2 0.197480 0.178786 0.339648
Si Si3 0.363958 0.682438 0.842640
Si Si4 0.876050 0.318800 0.841724
Si Si5 0.952774 0.681347 0.656704
Si Si6 0.285887 0.323905 0.661622
O O1 0.500000 0.246310 0.211841
O O2 0.543091 0.500000 0.226381
O O3 0.590006 0.252672 0.214475
O O4 0.547399 0.335662 0.000000
O O5 0.188636 0.228201 0.500000
O O6 0.165459 0.264651 0.238647
O O7 0.244791 0.227040 0.295046
O O8 0.192038 0.000000 0.319521
O O9 0.366087 0.500000 0.838329
O O10 0.326002 0.743538 0.745877
O O11 0.355017 0.739692 0.000000
O O12 0.876691 0.500000 0.840890
O O13 0.918014 0.252426 0.764286
O O14 0.875641 0.255822 0.000000
O O15 0.942087 0.739775 0.500000
O O16 0.951647 0.500000 0.658287
O O17 0.000000 0.737965 0.701123
O O18 0.296877 0.303380 0.500000
O O19 0.277066 0.500000 0.699492
#
# Coordination Sequence:
#
# PCOD8197148 Si02
#       6
#     8   8   8   8   8   8
#     4   7   9  14  26  46  73 104 136 168 202 244
#     4  10  21  36  52  68  88 119 159 198 235 277
#     4   8  13  21  35  56  80 107 140 175 210 254
#     4  10  20  32  49  75 103 129 156 188 230 277
#     4   8  14  26  46  72 100 129 160 192 224 260
#     4   9  17  29  45  64  86 112 142 180 227 274
#
# _framework density 18.209693000000001
#
# number of rings (size 3 to 8) (size 9 to 14) (size 15 to 20)
#    0.000    3.333    0.000    3.000    0.000    3.000 
#    0.000    3.333    0.000    1.000    0.000    7.000 
#    0.000    0.667    0.000    8.333    0.000    7.667 
#
# Total GULP energy -594633.188687 kJ/mol
# GULP energy per Si atom -12388.191431 kJ/mol
# Density = 1.816825 g / cm^3
# Si number density = 18.209693 Si / 1000 Ang^3
#
#
#
# Elastic Constant Matrix: (Units=GPa)
#
#
# Indices 1 2 3 4 5 6 
#
# 1 170.1138 7.2256 85.2561 0.0000 0.0000 0.0000
# 2 7.2256 7.8001 10.6107 0.0000 0.0000 0.0000
# 3 85.2561 10.6107 93.0782 0.0000 0.0000 0.0000
# 4 0.0000 0.0000 0.0000 10.5945 0.0000 0.0000
# 5 0.0000 0.0000 0.0000 0.0000 30.1235 0.0000
# 6 0.0000 0.0000 0.0000 0.0000 0.0000 -1.8197
#
#
#
# Elastic Compliance Matrix: (Units=1/GPa)
#
#
# Indices 1 2 3 4 5 6 
#
# 1 0.010979 0.004154 -0.010530 0.000000 0.000000 0.000000
# 2 0.004154 0.153304 -0.021281 0.000000 0.000000 0.000000
# 3 -0.010530 -0.021281 0.022815 0.000000 0.000000 0.000000
# 4 0.000000 0.000000 0.000000 0.094388 0.000000 0.000000
# 5 0.000000 0.000000 0.000000 0.000000 0.033197 0.000000
# 6 0.000000 0.000000 0.000000 0.000000 0.000000 -0.549540
#
#
# Mechanical properties :
#
#
# Convention : Reuss Voigt Hill
#
# Bulk Modulus (GPa) = 7.58818 53.01963 30.30390
# Shear Modulus (GPa) = -36.86954 18.97298 -8.94828
#
# Velocity S-wave (km/s) = -4.50457 3.23138 -2.21916
# Velocity P-wave (km/s) = 4.78317 6.56519 3.17986
#
# Compressibility (1/GPa) = 0.13178388
#
# Stress axis : x y z
#
# Youngs Moduli (GPa) = 91.07912 6.52297 43.83080
#
# Poissons Ratio (x) = -0.02710 0.46155
# Poissons Ratio (y) = -0.37833 0.93277
# Poissons Ratio (z) = 0.95909 0.13882
#
# Static dielectric constant tensor:
#      x y z
#    x 3.923700 0.000000 0.000000 
#    y 0.000000 2.770840 0.000000 
#    z 0.000000 0.000000 3.315500 
# 
# 
# High freq. dielectric constant tensor:
#      x y z
#    x 1.733050 0.000000 0.000000 
#    y 0.000000 1.640600 0.000000 
#    z 0.000000 0.000000 1.681370 
# 
# From -- ./inp_files/14070.got.cif
#   From: 2010.03.12/outbox.cif.g09.slc.cpg/sg47_8_cif.got.tgz:14070.got - 2010.04.14 03:12:58.
