data_PCOD8197617
_publ_section_title
;
Structure prediction by ZEFSAII (Michael W. Deem and Ramdas Pophale) SiO2 
 PCOD8197617
Probable space group: P M M M
;
_chemical_formula_sum "Si O2"
_cell_formula_units_Z 64
_cell_length_a 9.202598
_cell_length_b 14.417730
_cell_length_c 25.660894
_cell_angle_alpha 90.000000
_cell_angle_beta 90.000000
_cell_angle_gamma 90.000000
_cell_volume 3404.702126
_symmetry_space_group_name_H-M "P M M M"
_symmetry_group_IT_number 47
_symmetry_cell_setting 'orthorhombic'
loop_
_space_group_symop_operation_xyz
x,y,z
-x,-y,z
x,-y,-z
-x,y,-z
-x,-y,-z
x,y,-z
-x,y,z
x,-y,z
loop_
_atom_site_type_symbol
_atom_site_label
_atom_site_fract_x
_atom_site_fract_y
_atom_site_fract_z
Si Si1 0.330620 0.893638 0.339931
Si Si2 0.668978 0.605115 0.781350
Si Si3 0.331091 0.395826 0.098409
Si Si4 0.168721 0.225237 0.941803
Si Si5 0.672560 0.204153 0.442305
Si Si6 0.338330 0.402296 0.561768
Si Si7 0.172552 0.780068 0.253031
Si Si8 0.172683 0.895959 0.153158
O O1 0.500000 0.871146 0.330317
O O2 0.286148 0.873427 0.400015
O O3 0.231913 0.830908 0.303637
O O4 0.295100 0.000000 0.328032
O O5 0.500000 0.627922 0.773004
O O6 0.702803 0.500000 0.763018
O O7 0.712775 0.617048 0.841503
O O8 0.764849 0.675953 0.747763
O O9 0.500000 0.375958 0.090631
O O10 0.292673 0.500000 0.080152
O O11 0.243565 0.324787 0.062992
O O12 0.231427 0.151870 0.899890
O O13 0.000000 0.241448 0.930917
O O14 0.196294 0.185982 0.000000
O O15 0.733154 0.176545 0.500000
O O16 0.500000 0.215556 0.446319
O O17 0.737877 0.304532 0.422411
O O18 0.349141 0.400257 0.500000
O O19 0.500000 0.405168 0.585916
O O20 0.258953 0.500000 0.579318
O O21 0.227611 0.836549 0.202340
O O22 0.000000 0.775598 0.255692
O O23 0.000000 0.900883 0.152667
O O24 0.237641 0.000000 0.156586
#
# Coordination Sequence:
#
# PCOD8197617 Si02
#       8
#     8   8   8   8   8   8   8   8
#     4  10  21  35  51  75 107 140 177 226 279 323
#     4   9  18  34  57  83 109 137 171 213 261 314
#     4   9  18  33  53  76 104 139 173 206 252 314
#     4  10  20  33  50  75 105 135 173 223 270 310
#     4   8  14  26  45  69  98 134 176 220 265 315
#     4   7   9  15  31  57  88 120 154 194 241 293
#     4  11  21  35  57  80 105 138 175 218 263 316
#     4   9  18  33  52  74  98 128 171 219 266 314
#
# _framework density 18.797533000000001
#
# number of rings (size 3 to 8) (size 9 to 14) (size 15 to 20)
#    0.000    2.875    1.250    2.625    0.000    2.250 
#    0.000    5.625    0.000    3.750    0.000    1.750 
#    0.000    0.000    0.000    4.250    0.000    4.125 
#
# Total GULP energy -793053.058655 kJ/mol
# GULP energy per Si atom -12391.454041 kJ/mol
# Density = 1.875475 g / cm^3
# Si number density = 18.797533 Si / 1000 Ang^3
#
#
#
# Elastic Constant Matrix: (Units=GPa)
#
#
# Indices 1 2 3 4 5 6 
#
# 1 38.4456 37.4392 30.6616 0.0000 0.0000 0.0000
# 2 37.4392 120.5832 51.1763 0.0000 0.0000 0.0000
# 3 30.6616 51.1763 98.1885 0.0000 0.0000 0.0000
# 4 0.0000 0.0000 0.0000 28.3479 0.0000 0.0000
# 5 0.0000 0.0000 0.0000 0.0000 15.8638 0.0000
# 6 0.0000 0.0000 0.0000 0.0000 0.0000 21.3256
#
#
#
# Elastic Compliance Matrix: (Units=1/GPa)
#
#
# Indices 1 2 3 4 5 6 
#
# 1 0.041723 -0.009534 -0.008060 0.000000 0.000000 0.000000
# 2 -0.009534 0.012827 -0.003708 0.000000 0.000000 0.000000
# 3 -0.008060 -0.003708 0.014634 0.000000 0.000000 0.000000
# 4 0.000000 0.000000 0.000000 0.035276 0.000000 0.000000
# 5 0.000000 0.000000 0.000000 0.000000 0.063036 0.000000
# 6 0.000000 0.000000 0.000000 0.000000 0.000000 0.046892
#
#
# Mechanical properties :
#
#
# Convention : Reuss Voigt Hill
#
# Bulk Modulus (GPa) = 37.62207 55.08572 46.35389
# Shear Modulus (GPa) = 18.80743 22.30347 20.55545
#
# Velocity S-wave (km/s) = 3.16654 3.44831 3.31043
# Velocity P-wave (km/s) = 5.78162 6.72479 6.27096
#
# Compressibility (1/GPa) = 0.02658015
#
# Stress axis : x y z
#
# Youngs Moduli (GPa) = 23.96769 77.96111 68.33291
#
# Poissons Ratio (x) = 0.74325 0.55076
# Poissons Ratio (y) = 0.22850 0.25340
# Poissons Ratio (z) = 0.19318 0.28911
#
# Static dielectric constant tensor:
#      x y z
#    x 2.954800 0.000000 0.000000 
#    y 0.000000 3.835490 0.000000 
#    z 0.000000 0.000000 3.361980 
# 
# 
# High freq. dielectric constant tensor:
#      x y z
#    x 1.675670 0.000000 0.000000 
#    y 0.000000 1.745250 0.000000 
#    z 0.000000 0.000000 1.717720 
# 
# From -- ./inp_files/32094.got.cif
#   From: 2010.03.12/outbox.cif.g09.slc.cpg/sg47_17_cif.got.tgz:32094.got - 2010.04.14 03:12:58.
