data_PCOD8197494
_publ_section_title
;
Structure prediction by ZEFSAII (Michael W. Deem and Ramdas Pophale) SiO2 
 PCOD8197494
Probable space group: P M M M
;
_chemical_formula_sum "Si O2"
_cell_formula_units_Z 44
_cell_length_a 9.112633
_cell_length_b 28.690355
_cell_length_c 9.338607
_cell_angle_alpha 90.000000
_cell_angle_beta 90.000000
_cell_angle_gamma 90.000000
_cell_volume 2441.529079
_symmetry_space_group_name_H-M "P M M M"
_symmetry_group_IT_number 47
_symmetry_cell_setting 'orthorhombic'
loop_
_space_group_symop_operation_xyz
x,y,z
-x,-y,z
x,-y,-z
-x,y,-z
-x,-y,-z
x,y,-z
-x,y,z
x,-y,z
loop_
_atom_site_type_symbol
_atom_site_label
_atom_site_fract_x
_atom_site_fract_y
_atom_site_fract_z
Si Si1 0.672398 0.671613 0.165572
Si Si2 0.825597 0.051015 0.660368
Si Si3 0.825694 0.500000 0.837438
Si Si4 0.173129 0.590237 0.333665
Si Si5 0.162935 0.762793 0.830076
Si Si6 0.174913 0.135878 0.841207
O O1 0.500000 0.668337 0.186748
O O2 0.748912 0.634745 0.267667
O O3 0.725034 0.722565 0.217394
O O4 0.717373 0.662551 0.000000
O O5 0.764777 0.055783 0.500000
O O6 0.756208 0.093322 0.750967
O O7 0.000000 0.055165 0.660311
O O8 0.780140 0.000000 0.722844
O O9 0.768600 0.545215 0.752506
O O10 0.000000 0.500000 0.840439
O O11 0.763111 0.500000 0.000000
O O12 0.215705 0.584632 0.500000
O O13 0.000000 0.596338 0.314569
O O14 0.217541 0.813520 0.773089
O O15 0.000000 0.750872 0.770300
O O16 0.154829 0.766822 0.000000
O O17 0.000000 0.132659 0.846242
O O18 0.240853 0.130967 0.000000
#
# Coordination Sequence:
#
# PCOD8197494 Si02
#       6
#     8   8   4   8   8   8
#     4  10  20  33  50  72  97 127 163 199 236 281
#     4   8  13  20  29  44  71 105 134 163 208 264
#     4   9  17  31  54  81 104 127 158 196 234 273
#     4  10  20  34  53  77 104 132 161 194 234 278
#     4   8  14  26  44  64  87 116 150 190 233 273
#     4   8  13  21  34  52  73 101 139 178 215 259
#
# _framework density 18.021493
#
# number of rings (size 3 to 8) (size 9 to 14) (size 15 to 20)
#    0.000    3.182    0.000    3.000    0.000    3.636 
#    0.000    3.182    0.000    6.000    0.000    0.000 
#    0.000    0.727    0.000    9.091    0.000   10.545 
#
# Total GULP energy -545273.246240 kJ/mol
# GULP energy per Si atom -12392.573778 kJ/mol
# Density = 1.798048 g / cm^3
# Si number density = 18.021493 Si / 1000 Ang^3
#
#
#
# Elastic Constant Matrix: (Units=GPa)
#
#
# Indices 1 2 3 4 5 6 
#
# 1 26.5215 32.4345 27.3729 0.0000 0.0000 0.0000
# 2 32.4345 184.2388 80.7411 0.0000 0.0000 0.0000
# 3 27.3729 80.7411 95.9306 0.0000 0.0000 0.0000
# 4 0.0000 0.0000 0.0000 14.8424 0.0000 0.0000
# 5 0.0000 0.0000 0.0000 0.0000 12.7324 0.0000
# 6 0.0000 0.0000 0.0000 0.0000 0.0000 -1.2165
#
#
#
# Elastic Compliance Matrix: (Units=1/GPa)
#
#
# Indices 1 2 3 4 5 6 
#
# 1 0.055705 -0.004501 -0.012106 0.000000 0.000000 0.000000
# 2 -0.004501 0.008963 -0.006260 0.000000 0.000000 0.000000
# 3 -0.012106 -0.006260 0.019147 0.000000 0.000000 0.000000
# 4 0.000000 0.000000 0.000000 0.067374 0.000000 0.000000
# 5 0.000000 0.000000 0.000000 0.000000 0.078540 0.000000
# 6 0.000000 0.000000 0.000000 0.000000 0.000000 -0.822020
#
#
# Mechanical properties :
#
#
# Convention : Reuss Voigt Hill
#
# Bulk Modulus (GPa) = 26.25984 65.30978 45.78481
# Shear Modulus (GPa) = -9.36572 16.34783 3.49106
#
# Velocity S-wave (km/s) = -2.28216 3.01513 1.39333
# Velocity P-wave (km/s) = 2.76744 6.95988 5.29616
#
# Compressibility (1/GPa) = 0.03808096
#
# Stress axis : x y z
#
# Youngs Moduli (GPa) = 17.95170 111.56384 52.22650
#
# Poissons Ratio (x) = 0.50216 0.63228
# Poissons Ratio (y) = 0.08080 0.32693
# Poissons Ratio (z) = 0.21733 0.69838
#
# Static dielectric constant tensor:
#      x y z
#    x 2.803720 0.000000 0.000000 
#    y 0.000000 3.798070 0.000000 
#    z 0.000000 0.000000 3.317390 
# 
# 
# High freq. dielectric constant tensor:
#      x y z
#    x 1.638510 0.000000 0.000000 
#    y 0.000000 1.721000 0.000000 
#    z 0.000000 0.000000 1.676420 
# 
# From -- ./inp_files/2266.got.cif
#   From: 2010.03.12/outbox.cif.g09.slc.cpg/sg47_2_cif.got.tgz:2266.got - 2010.04.14 03:12:58.
