data_PCOD8197871
_publ_section_title
;
Structure prediction by ZEFSAII (Michael W. Deem and Ramdas Pophale) SiO2 
 PCOD8197871
Probable space group: P M M M
;
_chemical_formula_sum "Si O2"
_cell_formula_units_Z 52
_cell_length_a 29.794405
_cell_length_b 9.126671
_cell_length_c 10.114181
_cell_angle_alpha 90.000000
_cell_angle_beta 90.000000
_cell_angle_gamma 90.000000
_cell_volume 2750.285844
_symmetry_space_group_name_H-M "P M M M"
_symmetry_group_IT_number 47
_symmetry_cell_setting 'orthorhombic'
loop_
_space_group_symop_operation_xyz
x,y,z
-x,-y,z
x,-y,-z
-x,y,-z
-x,-y,-z
x,y,-z
-x,y,z
x,-y,z
loop_
_atom_site_type_symbol
_atom_site_label
_atom_site_fract_x
_atom_site_fract_y
_atom_site_fract_z
Si Si1 0.369166 0.333749 0.644939
Si Si2 0.947313 0.167976 0.650216
Si Si3 0.552828 0.338048 0.000000
Si Si4 0.794572 0.835591 0.156705
Si Si5 0.551157 0.827436 0.260509
Si Si6 0.116548 0.327599 0.846942
Si Si7 0.705776 0.328166 0.847610
O O1 0.346200 0.326164 0.500000
O O2 0.383407 0.500000 0.679282
O O3 0.414054 0.234545 0.633042
O O4 0.335013 0.273824 0.755607
O O5 0.933033 0.208700 0.500000
O O6 0.923861 0.273112 0.755708
O O7 0.000000 0.191409 0.667491
O O8 0.934219 0.000000 0.680393
O O9 0.568235 0.247315 0.873852
O O10 0.575504 0.500000 0.000000
O O11 0.500000 0.355226 0.000000
O O12 0.838139 0.748313 0.206288
O O13 0.749814 0.754340 0.205332
O O14 0.795584 0.000000 0.215055
O O15 0.794603 0.838333 0.000000
O O16 0.500000 0.783743 0.297933
O O17 0.555238 0.000000 0.245850
O O18 0.122461 0.500000 0.830659
O O19 0.106600 0.286215 0.000000
O O20 0.714609 0.500000 0.830389
O O21 0.694509 0.288851 0.000000
#
# Coordination Sequence:
#
# PCOD8197871 Si02
#       7
#     8   8   4   8   8   8   8
#     4  10  22  38  55  78 108 141 178 220 265 315
#     4   9  19  36  55  75 104 144 188 232 277 326
#     4   9  17  31  53  79 105 133 167 209 255 301
#     4   9  17  31  53  80 107 136 174 220 269 320
#     4  10  21  36  54  78 108 140 175 217 265 313
#     4  10  20  33  52  80 112 144 180 225 274 323
#     4   9  18  34  56  79 103 134 173 218 268 321
#
# _framework density 18.907126999999999
#
# number of rings (size 3 to 8) (size 9 to 14) (size 15 to 20)
#    0.000    2.538    0.000    2.077    1.077    6.769 
#    0.000    4.615    0.000    2.769    0.000    0.000 
#    0.000    0.000    0.000    0.000    0.000    0.000 
#
# Total GULP energy -644712.732894 kJ/mol
# GULP energy per Si atom -12398.321786 kJ/mol
# Density = 1.886409 g / cm^3
# Si number density = 18.907127 Si / 1000 Ang^3
#
#
#
# Elastic Constant Matrix: (Units=GPa)
#
#
# Indices 1 2 3 4 5 6 
#
# 1 108.2372 56.3718 52.5657 0.0000 0.0000 0.0000
# 2 56.3718 95.4660 39.5543 0.0000 0.0000 0.0000
# 3 52.5657 39.5543 84.4289 0.0000 0.0000 0.0000
# 4 0.0000 0.0000 0.0000 21.9326 0.0000 0.0000
# 5 0.0000 0.0000 0.0000 0.0000 13.7513 0.0000
# 6 0.0000 0.0000 0.0000 0.0000 0.0000 36.3801
#
#
#
# Elastic Compliance Matrix: (Units=1/GPa)
#
#
# Indices 1 2 3 4 5 6 
#
# 1 0.016023 -0.006611 -0.006878 0.000000 0.000000 0.000000
# 2 -0.006611 0.015726 -0.003251 0.000000 0.000000 0.000000
# 3 -0.006878 -0.003251 0.017650 0.000000 0.000000 0.000000
# 4 0.000000 0.000000 0.000000 0.045594 0.000000 0.000000
# 5 0.000000 0.000000 0.000000 0.000000 0.072720 0.000000
# 6 0.000000 0.000000 0.000000 0.000000 0.000000 0.027488
#
#
# Mechanical properties :
#
#
# Convention : Reuss Voigt Hill
#
# Bulk Modulus (GPa) = 62.82732 65.01285 63.92009
# Shear Modulus (GPa) = 21.36855 23.72216 22.54536
#
# Velocity S-wave (km/s) = 3.36547 3.54597 3.45690
# Velocity P-wave (km/s) = 6.95726 7.15718 7.05793
#
# Compressibility (1/GPa) = 0.01591664
#
# Stress axis : x y z
#
# Youngs Moduli (GPa) = 62.41092 63.58914 56.65709
#
# Poissons Ratio (x) = 0.42041 0.38972
# Poissons Ratio (y) = 0.41262 0.18421
# Poissons Ratio (z) = 0.42929 0.20674
#
# Static dielectric constant tensor:
#      x y z
#    x 3.424730 0.000000 0.000000 
#    y 0.000000 3.495540 0.000000 
#    z 0.000000 0.000000 3.344810 
# 
# 
# High freq. dielectric constant tensor:
#      x y z
#    x 1.730320 0.000000 0.000000 
#    y 0.000000 1.736690 0.000000 
#    z 0.000000 0.000000 1.717380 
# 
# From -- ./inp_files/19798.got.cif
#   From: 2010.03.12/outbox.cif.g09.slc.cpg/sg47_10_cif.got.tgz:19798.got - 2010.04.14 03:12:58.
