data_PCOD8197135
_publ_section_title
;
Structure prediction by ZEFSAII (Michael W. Deem and Ramdas Pophale) SiO2 
 PCOD8197135
Probable space group: P M M M
;
_chemical_formula_sum "Si O2"
_cell_formula_units_Z 64
_cell_length_a 19.523423
_cell_length_b 20.627347
_cell_length_c 9.330830
_cell_angle_alpha 90.000000
_cell_angle_beta 90.000000
_cell_angle_gamma 90.000000
_cell_volume 3757.678461
_symmetry_space_group_name_H-M "P M M M"
_symmetry_group_IT_number 47
_symmetry_cell_setting 'orthorhombic'
loop_
_space_group_symop_operation_xyz
x,y,z
-x,-y,z
x,-y,-z
-x,y,-z
-x,-y,-z
x,y,-z
-x,y,z
x,-y,z
loop_
_atom_site_type_symbol
_atom_site_label
_atom_site_fract_x
_atom_site_fract_y
_atom_site_fract_z
Si Si1 0.077933 0.275414 0.166638
Si Si2 0.714899 0.814581 0.666033
Si Si3 0.575849 0.245781 0.335337
Si Si4 0.786134 0.072960 0.168986
Si Si5 0.205492 0.684028 0.669942
Si Si6 0.073755 0.872454 0.830364
Si Si7 0.575092 0.374434 0.164682
Si Si8 0.282847 0.572873 0.165151
O O1 0.129506 0.317370 0.262711
O O2 0.086296 0.201312 0.217467
O O3 0.000000 0.299137 0.193311
O O4 0.097442 0.283361 0.000000
O O5 0.729677 0.828413 0.500000
O O6 0.633886 0.807292 0.698080
O O7 0.736081 0.876985 0.755716
O O8 0.755237 0.749940 0.715312
O O9 0.580399 0.266721 0.500000
O O10 0.500000 0.217911 0.297766
O O11 0.593070 0.309624 0.248442
O O12 0.863987 0.083498 0.225975
O O13 0.763718 0.000000 0.208140
O O14 0.782543 0.085540 0.000000
O O15 0.200521 0.677264 0.500000
O O16 0.245045 0.622086 0.730343
O O17 0.000000 0.896878 0.768544
O O18 0.069857 0.875274 0.000000
O O19 0.500000 0.402442 0.210506
O O20 0.635140 0.425866 0.194601
O O21 0.573557 0.354193 0.000000
O O22 0.257550 0.500000 0.198053
O O23 0.267371 0.591593 0.000000
#
# Coordination Sequence:
#
# PCOD8197135 Si02
#       8
#     8   8   8   8   8   8   8   8
#     4   9  17  31  53  78 102 132 169 207 251 301
#     4  10  20  33  50  74 100 131 168 206 253 301
#     4   9  17  31  51  73  98 127 164 210 253 296
#     4  10  20  32  49  74 101 132 169 207 250 298
#     4  11  21  33  52  78 104 133 171 212 255 300
#     4   8  14  26  45  70  99 129 162 199 237 281
#     4   9  17  29  47  73 103 134 168 205 248 297
#     4  10  21  35  51  73 103 140 176 209 250 300
#
# _framework density 17.031793
#
# number of rings (size 3 to 8) (size 9 to 14) (size 15 to 20)
#    0.000    2.500    2.500    1.125    0.000    2.250 
#    0.000    2.500    0.000    1.125    0.000    8.750 
#    0.000    0.000    0.000    0.000    0.000    0.000 
#
# Total GULP energy -793272.128326 kJ/mol
# GULP energy per Si atom -12394.877005 kJ/mol
# Density = 1.699303 g / cm^3
# Si number density = 17.031793 Si / 1000 Ang^3
#
#
#
# Elastic Constant Matrix: (Units=GPa)
#
#
# Indices 1 2 3 4 5 6 
#
# 1 105.9714 53.6956 43.5713 0.0000 0.0000 0.0000
# 2 53.6956 93.2219 43.4153 0.0000 0.0000 0.0000
# 3 43.5713 43.4153 54.2711 0.0000 0.0000 0.0000
# 4 0.0000 0.0000 0.0000 14.5753 0.0000 0.0000
# 5 0.0000 0.0000 0.0000 0.0000 23.1374 0.0000
# 6 0.0000 0.0000 0.0000 0.0000 0.0000 19.8781
#
#
#
# Elastic Compliance Matrix: (Units=1/GPa)
#
#
# Indices 1 2 3 4 5 6 
#
# 1 0.015403 -0.004961 -0.008397 0.000000 0.000000 0.000000
# 2 -0.004961 0.018695 -0.010972 0.000000 0.000000 0.000000
# 3 -0.008397 -0.010972 0.033945 0.000000 0.000000 0.000000
# 4 0.000000 0.000000 0.000000 0.068609 0.000000 0.000000
# 5 0.000000 0.000000 0.000000 0.000000 0.043220 0.000000
# 6 0.000000 0.000000 0.000000 0.000000 0.000000 0.050307
#
#
# Mechanical properties :
#
#
# Convention : Reuss Voigt Hill
#
# Bulk Modulus (GPa) = 51.59582 59.42542 55.51062
# Shear Modulus (GPa) = 17.52538 19.03699 18.28118
#
# Velocity S-wave (km/s) = 3.21125 3.34688 3.27977
# Velocity P-wave (km/s) = 6.64147 7.06414 6.85606
#
# Compressibility (1/GPa) = 0.01938142
#
# Stress axis : x y z
#
# Youngs Moduli (GPa) = 64.92217 53.49113 29.45932
#
# Poissons Ratio (x) = 0.26539 0.24738
# Poissons Ratio (y) = 0.32210 0.32323
# Poissons Ratio (z) = 0.54518 0.58691
#
# Static dielectric constant tensor:
#      x y z
#    x 3.615930 0.000000 0.000000 
#    y 0.000000 2.943840 0.000000 
#    z 0.000000 0.000000 3.028730 
# 
# 
# High freq. dielectric constant tensor:
#      x y z
#    x 1.667440 0.000000 0.000000 
#    y 0.000000 1.626710 0.000000 
#    z 0.000000 0.000000 1.642160 
# 
# From -- ./inp_files/9930.got.cif
#   From: 2010.03.12/outbox.cif.g09.slc.cpg/sg47_5_cif.got.tgz:9930.got - 2010.04.14 03:12:58.
