data_PCOD8197653
_publ_section_title
;
Structure prediction by ZEFSAII (Michael W. Deem and Ramdas Pophale) SiO2 
 PCOD8197653
Probable space group: P M M M
;
_chemical_formula_sum "Si O2"
_cell_formula_units_Z 56
_cell_length_a 9.066092
_cell_length_b 14.180626
_cell_length_c 26.012246
_cell_angle_alpha 90.000000
_cell_angle_beta 90.000000
_cell_angle_gamma 90.000000
_cell_volume 3344.208739
_symmetry_space_group_name_H-M "P M M M"
_symmetry_group_IT_number 47
_symmetry_cell_setting 'orthorhombic'
loop_
_space_group_symop_operation_xyz
x,y,z
-x,-y,z
x,-y,-z
-x,y,-z
-x,-y,-z
x,y,-z
-x,y,z
x,-y,z
loop_
_atom_site_type_symbol
_atom_site_label
_atom_site_fract_x
_atom_site_fract_y
_atom_site_fract_z
Si Si1 0.171443 0.893410 0.287294
Si Si2 0.329615 0.703325 0.441787
Si Si3 0.667400 0.895612 0.392270
Si Si4 0.675169 0.283323 0.255747
Si Si5 0.673484 0.392678 0.155449
Si Si6 0.167054 0.387971 0.056029
Si Si7 0.172238 0.390056 0.651101
O O1 0.220419 0.879058 0.345902
O O2 0.264815 0.823247 0.251394
O O3 0.000000 0.868081 0.283372
O O4 0.203098 0.000000 0.268773
O O5 0.285946 0.677895 0.500000
O O6 0.500000 0.678464 0.430810
O O7 0.301964 0.815457 0.434419
O O8 0.228300 0.641190 0.404806
O O9 0.500000 0.886907 0.370903
O O10 0.692113 0.000000 0.416660
O O11 0.500000 0.284099 0.260329
O O12 0.731114 0.336045 0.204734
O O13 0.740412 0.333234 0.305753
O O14 0.500000 0.386969 0.150821
O O15 0.727984 0.500000 0.162327
O O16 0.737970 0.346623 0.103164
O O17 0.177758 0.500000 0.056618
O O18 0.000000 0.354297 0.063944
O O19 0.224858 0.351773 0.000000
O O20 0.204655 0.500000 0.658695
O O21 0.000000 0.366911 0.655790
#
# Coordination Sequence:
#
# PCOD8197653 Si02
#       7
#     8   8   8   8   8   8   8
#     4  10  20  33  51  75 101 127 156 192 236 289
#     4  10  21  36  54  76  99 125 158 196 239 288
#     4   9  17  31  52  76 100 125 152 184 229 287
#     4  11  21  34  53  75 100 129 162 201 245 292
#     4   9  18  30  44  67  98 131 167 205 243 281
#     4   8  14  25  41  62  91 129 170 207 241 278
#     4  11  24  39  54  72  94 125 164 202 245 293
#
# _framework density 16.745366000000001
#
# number of rings (size 3 to 8) (size 9 to 14) (size 15 to 20)
#    0.000    2.286    1.429    2.143    0.000    4.857 
#    0.000    5.714    0.000    0.000    0.000    3.000 
#    0.000    0.571    0.000    6.286    0.000    4.857 
#
# Total GULP energy -694278.545094 kJ/mol
# GULP energy per Si atom -12397.831162 kJ/mol
# Density = 1.670725 g / cm^3
# Si number density = 16.745366 Si / 1000 Ang^3
#
#
#
# Elastic Constant Matrix: (Units=GPa)
#
#
# Indices 1 2 3 4 5 6 
#
# 1 65.4900 38.9957 43.0719 0.0000 0.0000 0.0000
# 2 38.9957 76.9941 42.4051 0.0000 0.0000 0.0000
# 3 43.0719 42.4051 116.2957 0.0000 0.0000 0.0000
# 4 0.0000 0.0000 0.0000 12.5186 0.0000 0.0000
# 5 0.0000 0.0000 0.0000 0.0000 13.3979 0.0000
# 6 0.0000 0.0000 0.0000 0.0000 0.0000 24.5032
#
#
#
# Elastic Compliance Matrix: (Units=1/GPa)
#
#
# Indices 1 2 3 4 5 6 
#
# 1 0.024557 -0.009295 -0.005706 0.000000 0.000000 0.000000
# 2 -0.009295 0.019770 -0.003766 0.000000 0.000000 0.000000
# 3 -0.005706 -0.003766 0.012085 0.000000 0.000000 0.000000
# 4 0.000000 0.000000 0.000000 0.079881 0.000000 0.000000
# 5 0.000000 0.000000 0.000000 0.000000 0.074639 0.000000
# 6 0.000000 0.000000 0.000000 0.000000 0.000000 0.040811
#
#
# Mechanical properties :
#
#
# Convention : Reuss Voigt Hill
#
# Bulk Modulus (GPa) = 52.97127 56.41389 54.69258
# Shear Modulus (GPa) = 16.91651 19.03775 17.97713
#
# Velocity S-wave (km/s) = 3.18184 3.37545 3.28007
# Velocity P-wave (km/s) = 6.72316 6.99671 6.86130
#
# Compressibility (1/GPa) = 0.01887816
#
# Stress axis : x y z
#
# Youngs Moduli (GPa) = 40.72206 50.58179 82.74544
#
# Poissons Ratio (x) = 0.47015 0.47212
# Poissons Ratio (y) = 0.37851 0.31164
# Poissons Ratio (z) = 0.23235 0.19050
#
# Static dielectric constant tensor:
#      x y z
#    x 3.184970 0.000000 0.000000 
#    y 0.000000 3.219510 0.000000 
#    z 0.000000 0.000000 3.258350 
# 
# 
# High freq. dielectric constant tensor:
#      x y z
#    x 1.649070 0.000000 0.000000 
#    y 0.000000 1.628250 0.000000 
#    z 0.000000 0.000000 1.631200 
# 
# From -- ./inp_files/34378.got.cif
#   From: 2010.03.12/outbox.cif.g09.slc.cpg/sg47_18_cif.got.tgz:34378.got - 2010.04.14 03:12:58.
