data_PCOD8197064
_publ_section_title
;
Structure prediction by ZEFSAII (Michael W. Deem and Ramdas Pophale) SiO2 
 PCOD8197064
Probable space group: P M M M
;
_chemical_formula_sum "Si O2"
_cell_formula_units_Z 48
_cell_length_a 9.854330
_cell_length_b 30.708504
_cell_length_c 9.237821
_cell_angle_alpha 90.000000
_cell_angle_beta 90.000000
_cell_angle_gamma 90.000000
_cell_volume 2795.473015
_symmetry_space_group_name_H-M "P M M M"
_symmetry_group_IT_number 47
_symmetry_cell_setting 'orthorhombic'
loop_
_space_group_symop_operation_xyz
x,y,z
-x,-y,z
x,-y,-z
-x,y,-z
-x,-y,-z
x,y,-z
-x,y,z
x,-y,z
loop_
_atom_site_type_symbol
_atom_site_label
_atom_site_fract_x
_atom_site_fract_y
_atom_site_fract_z
Si Si1 0.657468 0.384420 0.330363
Si Si2 0.661678 0.217662 0.338692
Si Si3 0.661405 0.700910 0.162315
Si Si4 0.348753 0.878094 0.672775
Si Si5 0.155119 0.449095 0.165536
Si Si6 0.848076 0.951662 0.327801
O O1 0.681098 0.378709 0.500000
O O2 0.500000 0.393361 0.294358
O O3 0.710440 0.340652 0.253297
O O4 0.744217 0.424670 0.273105
O O5 0.720046 0.225585 0.500000
O O6 0.500000 0.219646 0.344916
O O7 0.720749 0.255089 0.234307
O O8 0.704818 0.169833 0.279768
O O9 0.500000 0.703030 0.161479
O O10 0.719367 0.697198 0.000000
O O11 0.351428 0.879799 0.500000
O O12 0.500000 0.886539 0.733497
O O13 0.251465 0.915268 0.739119
O O14 0.176567 0.500000 0.191964
O O15 0.000000 0.436026 0.200088
O O16 0.190625 0.436959 0.000000
O O17 0.845838 0.948981 0.500000
O O18 0.000000 0.942499 0.270960
O O19 0.800740 0.000000 0.278493
#
# Coordination Sequence:
#
# PCOD8197064 Si02
#       6
#     8   8   8   8   8   8
#     4  10  20  32  48  73 102 128 156 193 234 273
#     4   8  13  22  36  54  78 107 138 173 213 256
#     4   9  16  26  42  64  89 117 149 183 220 265
#     4   8  13  20  31  48  69  96 130 164 199 242
#     4   9  19  36  55  73  95 126 162 196 232 276
#     4   8  13  20  29  43  67  99 130 159 196 243
#
# _framework density 17.170618000000001
#
# number of rings (size 3 to 8) (size 9 to 14) (size 15 to 20)
#    0.000    3.333    0.000    3.000    0.000    4.333 
#    0.000    4.167    0.000    1.000    0.000    2.333 
#    0.000    0.667    0.000    8.333    0.000    9.667 
#
# Total GULP energy -594930.134290 kJ/mol
# GULP energy per Si atom -12394.377798 kJ/mol
# Density = 1.713154 g / cm^3
# Si number density = 17.170618 Si / 1000 Ang^3
#
#
#
# Elastic Constant Matrix: (Units=GPa)
#
#
# Indices 1 2 3 4 5 6 
#
# 1 56.1390 58.3682 32.9707 0.0000 0.0000 0.0000
# 2 58.3682 136.6883 57.1807 0.0000 0.0000 0.0000
# 3 32.9707 57.1807 76.3022 0.0000 0.0000 0.0000
# 4 0.0000 0.0000 0.0000 8.2749 0.0000 0.0000
# 5 0.0000 0.0000 0.0000 0.0000 14.1408 0.0000
# 6 0.0000 0.0000 0.0000 0.0000 0.0000 5.7768
#
#
#
# Elastic Compliance Matrix: (Units=1/GPa)
#
#
# Indices 1 2 3 4 5 6 
#
# 1 0.033537 -0.012030 -0.005476 0.000000 0.000000 0.000000
# 2 -0.012030 0.014972 -0.006022 0.000000 0.000000 0.000000
# 3 -0.005476 -0.006022 0.019985 0.000000 0.000000 0.000000
# 4 0.000000 0.000000 0.000000 0.120847 0.000000 0.000000
# 5 0.000000 0.000000 0.000000 0.000000 0.070718 0.000000
# 6 0.000000 0.000000 0.000000 0.000000 0.000000 0.173105
#
#
# Mechanical properties :
#
#
# Convention : Reuss Voigt Hill
#
# Bulk Modulus (GPa) = 46.64687 62.90766 54.77726
# Shear Modulus (GPa) = 10.25925 13.67916 11.96921
#
# Velocity S-wave (km/s) = 2.44701 2.82558 2.64308
# Velocity P-wave (km/s) = 5.93376 6.88197 6.42538
#
# Compressibility (1/GPa) = 0.02143767
#
# Stress axis : x y z
#
# Youngs Moduli (GPa) = 29.81800 66.79156 50.03798
#
# Poissons Ratio (x) = 0.80349 0.27402
# Poissons Ratio (y) = 0.35871 0.30132
# Poissons Ratio (z) = 0.16329 0.40220
#
# Static dielectric constant tensor:
#      x y z
#    x 2.978840 0.000000 0.000000 
#    y 0.000000 3.495900 0.000000 
#    z 0.000000 0.000000 2.966620 
# 
# 
# High freq. dielectric constant tensor:
#      x y z
#    x 1.621790 0.000000 0.000000 
#    y 0.000000 1.678020 0.000000 
#    z 0.000000 0.000000 1.628170 
# 
# From -- ./inp_files/2441.got.cif
#   From: 2010.03.12/outbox.cif.g09.slc.cpg/sg47_2_cif.got.tgz:2441.got - 2010.04.14 03:12:58.
