data_PCOD8197398
_publ_section_title
;
Structure prediction by ZEFSAII (Michael W. Deem and Ramdas Pophale) SiO2 
 PCOD8197398
Probable space group: P M M M
;
_chemical_formula_sum "Si O2"
_cell_formula_units_Z 48
_cell_length_a 9.325718
_cell_length_b 20.369444
_cell_length_c 14.300312
_cell_angle_alpha 90.000000
_cell_angle_beta 90.000000
_cell_angle_gamma 90.000000
_cell_volume 2716.482842
_symmetry_space_group_name_H-M "P M M M"
_symmetry_group_IT_number 47
_symmetry_cell_setting 'orthorhombic'
loop_
_space_group_symop_operation_xyz
x,y,z
-x,-y,z
x,-y,-z
-x,y,-z
-x,-y,-z
x,y,-z
-x,y,z
x,-y,z
loop_
_atom_site_type_symbol
_atom_site_label
_atom_site_fract_x
_atom_site_fract_y
_atom_site_fract_z
Si Si1 0.833934 0.073245 0.725805
Si Si2 0.336474 0.576152 0.607819
Si Si3 0.170237 0.680763 0.278461
Si Si4 0.665980 0.274454 0.893778
Si Si5 0.334089 0.877168 0.105432
Si Si6 0.829655 0.806581 0.395419
O O1 0.756648 0.078276 0.825175
O O2 0.772148 0.126447 0.652477
O O3 0.000000 0.087532 0.744194
O O4 0.809641 0.000000 0.684991
O O5 0.300889 0.590668 0.500000
O O6 0.500000 0.596765 0.630188
O O7 0.313538 0.500000 0.630628
O O8 0.226305 0.615959 0.671024
O O9 0.235366 0.682744 0.174516
O O10 0.224132 0.744271 0.336267
O O11 0.000000 0.677648 0.271543
O O12 0.500000 0.285408 0.868147
O O13 0.708612 0.198618 0.881882
O O14 0.695650 0.297336 0.000000
O O15 0.500000 0.887555 0.128480
O O16 0.300039 0.900011 0.000000
O O17 0.764962 0.802392 0.500000
O O18 0.000000 0.807213 0.400475
#
# Coordination Sequence:
#
# PCOD8197398 Si02
#       6
#     8   8   8   8   8   8
#     4  10  20  33  49  70  97 131 171 214 259 306
#     4   9  19  36  56  79 110 147 182 213 249 299
#     4  11  20  31  53  82 110 138 168 212 265 310
#     4   9  18  33  53  76 102 134 173 214 256 309
#     4   9  18  33  52  72  96 128 165 208 259 312
#     4   9  18  32  48  70 100 131 167 210 254 302
#
# _framework density 17.669906000000001
#
# number of rings (size 3 to 8) (size 9 to 14) (size 15 to 20)
#    0.000    2.500    1.667    2.500    0.000    3.000 
#    0.000    5.833    0.000    2.000    0.000    4.667 
#    0.000    0.000    0.000    0.000    0.000    0.000 
#
# Total GULP energy -595223.788920 kJ/mol
# GULP energy per Si atom -12400.495603 kJ/mol
# Density = 1.762969 g / cm^3
# Si number density = 17.669906 Si / 1000 Ang^3
#
#
#
# Elastic Constant Matrix: (Units=GPa)
#
#
# Indices 1 2 3 4 5 6 
#
# 1 59.2221 38.4875 46.3938 0.0000 0.0000 0.0000
# 2 38.4875 84.4503 51.1063 0.0000 0.0000 0.0000
# 3 46.3938 51.1063 114.3273 0.0000 0.0000 0.0000
# 4 0.0000 0.0000 0.0000 30.1107 0.0000 0.0000
# 5 0.0000 0.0000 0.0000 0.0000 27.4844 0.0000
# 6 0.0000 0.0000 0.0000 0.0000 0.0000 25.9314
#
#
#
# Elastic Compliance Matrix: (Units=1/GPa)
#
#
# Indices 1 2 3 4 5 6 
#
# 1 0.028343 -0.008166 -0.007851 0.000000 0.000000 0.000000
# 2 -0.008166 0.018585 -0.004994 0.000000 0.000000 0.000000
# 3 -0.007851 -0.004994 0.014165 0.000000 0.000000 0.000000
# 4 0.000000 0.000000 0.000000 0.033211 0.000000 0.000000
# 5 0.000000 0.000000 0.000000 0.000000 0.036384 0.000000
# 6 0.000000 0.000000 0.000000 0.000000 0.000000 0.038563
#
#
# Mechanical properties :
#
#
# Convention : Reuss Voigt Hill
#
# Bulk Modulus (GPa) = 52.43588 58.88609 55.66098
# Shear Modulus (GPa) = 22.97465 24.83944 23.90705
#
# Velocity S-wave (km/s) = 3.60976 3.75340 3.68228
# Velocity P-wave (km/s) = 6.86393 7.22371 7.04611
#
# Compressibility (1/GPa) = 0.01907091
#
# Stress axis : x y z
#
# Youngs Moduli (GPa) = 35.28213 53.80663 70.59478
#
# Poissons Ratio (x) = 0.43937 0.55426
# Poissons Ratio (y) = 0.28810 0.35257
# Poissons Ratio (z) = 0.27701 0.26872
#
# Static dielectric constant tensor:
#      x y z
#    x 3.042540 0.000000 0.000000 
#    y 0.000000 3.156220 0.000000 
#    z 0.000000 0.000000 3.339670 
# 
# 
# High freq. dielectric constant tensor:
#      x y z
#    x 1.665850 0.000000 0.000000 
#    y 0.000000 1.671640 0.000000 
#    z 0.000000 0.000000 1.685210 
# 
# From -- ./inp_files/6339.got.cif
#   From: 2010.03.12/outbox.cif.g09.slc.cpg/sg47_4_cif.got.tgz:6339.got - 2010.04.14 03:12:58.
