data_PCOD8197104
_publ_section_title
;
Structure prediction by ZEFSAII (Michael W. Deem and Ramdas Pophale) SiO2 
 PCOD8197104
Probable space group: P M M M
;
_chemical_formula_sum "Si O2"
_cell_formula_units_Z 44
_cell_length_a 9.085248
_cell_length_b 7.626792
_cell_length_c 29.998317
_cell_angle_alpha 90.000000
_cell_angle_beta 90.000000
_cell_angle_gamma 90.000000
_cell_volume 2078.622286
_symmetry_space_group_name_H-M "P M M M"
_symmetry_group_IT_number 47
_symmetry_cell_setting 'orthorhombic'
loop_
_space_group_symop_operation_xyz
x,y,z
-x,-y,z
x,-y,-z
-x,y,-z
-x,-y,-z
x,y,-z
-x,y,z
x,-y,z
loop_
_atom_site_type_symbol
_atom_site_label
_atom_site_fract_x
_atom_site_fract_y
_atom_site_fract_z
Si Si1 0.165141 0.707544 0.804018
Si Si2 0.839457 0.700095 0.365503
Si Si3 0.326176 0.704179 0.106273
Si Si4 0.334243 0.793394 0.450285
Si Si5 0.664891 0.709526 0.282083
Si Si6 0.169499 0.000000 0.947321
O O1 0.158210 0.500000 0.801080
O O2 0.261421 0.765193 0.846313
O O3 0.241957 0.782665 0.759633
O O4 0.000000 0.785108 0.807983
O O5 0.860336 0.500000 0.351824
O O6 0.771256 0.706480 0.414520
O O7 0.736338 0.786336 0.327639
O O8 0.000000 0.792532 0.365872
O O9 0.500000 0.737437 0.106589
O O10 0.289981 0.500000 0.096308
O O11 0.250240 0.823715 0.069045
O O12 0.282135 0.739104 0.500000
O O13 0.500000 0.725603 0.442265
O O14 0.327914 0.000000 0.444623
O O15 0.500000 0.784619 0.278901
O O16 0.660988 0.500000 0.281911
O O17 0.000000 0.000000 0.931124
O O18 0.179755 0.000000 0.000000
#
# Coordination Sequence:
#
# PCOD8197104 Si02
#       6
#     8   8   8   8   8   4
#     4   9  16  28  50  80 113 148 186 228 275 330
#     4  10  20  32  48  74 106 136 168 210 261 317
#     4  10  21  38  62  91 122 159 204 251 300 358
#     4   9  19  36  55  72  92 124 167 212 260 317
#     4   9  16  27  46  73 105 141 180 219 263 319
#     4  11  25  43  63  89 123 163 205 253 308 361
#
# _framework density 21.167867999999999
#
# number of rings (size 3 to 8) (size 9 to 14) (size 15 to 20)
#    0.000    2.455    0.000    3.000    0.000    8.727 
#    0.000    4.545    2.000    0.000    0.000    0.000 
#    0.000    0.000    0.000    0.000    0.000    0.000 
#
# Total GULP energy -545513.741591 kJ/mol
# GULP energy per Si atom -12398.039582 kJ/mol
# Density = 2.111969 g / cm^3
# Si number density = 21.167868 Si / 1000 Ang^3
#
#
#
# Elastic Constant Matrix: (Units=GPa)
#
#
# Indices 1 2 3 4 5 6 
#
# 1 186.4398 32.6636 87.0566 0.0000 0.0000 0.0000
# 2 32.6636 47.4822 28.4477 0.0000 0.0000 0.0000
# 3 87.0566 28.4477 147.5920 0.0000 0.0000 0.0000
# 4 0.0000 0.0000 0.0000 -55.8992 0.0000 0.0000
# 5 0.0000 0.0000 0.0000 0.0000 42.6507 0.0000
# 6 0.0000 0.0000 0.0000 0.0000 0.0000 12.2563
#
#
#
# Elastic Compliance Matrix: (Units=1/GPa)
#
#
# Indices 1 2 3 4 5 6 
#
# 1 0.007747 -0.002930 -0.004005 0.000000 0.000000 0.000000
# 2 -0.002930 0.024918 -0.003075 0.000000 0.000000 0.000000
# 3 -0.004005 -0.003075 0.009730 0.000000 0.000000 0.000000
# 4 0.000000 0.000000 0.000000 -0.017889 0.000000 0.000000
# 5 0.000000 0.000000 0.000000 0.000000 0.023446 0.000000
# 6 0.000000 0.000000 0.000000 0.000000 0.000000 0.081591
#
#
# Mechanical properties :
#
#
# Convention : Reuss Voigt Hill
#
# Bulk Modulus (GPa) = 44.68942 75.31665 60.00304
# Shear Modulus (GPa) = 31.84293 15.35795 23.60044
#
# Velocity S-wave (km/s) = 3.88274 2.69649 3.34266
# Velocity P-wave (km/s) = 6.42329 6.73444 6.58070
#
# Compressibility (1/GPa) = 0.02237666
#
# Stress axis : x y z
#
# Youngs Moduli (GPa) = 129.08260 40.13145 102.77181
#
# Poissons Ratio (x) = 0.11758 0.41158
# Poissons Ratio (y) = 0.37819 0.31599
# Poissons Ratio (z) = 0.51695 0.12339
#
# Static dielectric constant tensor:
#      x y z
#    x 4.113300 0.000000 0.000000 
#    y 0.000000 3.420810 0.000000 
#    z 0.000000 0.000000 3.908700 
# 
# 
# High freq. dielectric constant tensor:
#      x y z
#    x 1.841820 0.000000 0.000000 
#    y 0.000000 1.799910 0.000000 
#    z 0.000000 0.000000 1.833460 
# 
# From -- ./inp_files/33888.got.cif
#   From: 2010.03.12/outbox.cif.g09.slc.cpg/sg47_17_cif.got.tgz:33888.got - 2010.04.14 03:12:58.
