data_PCOD8197983
_publ_section_title
;
Structure prediction by ZEFSAII (Michael W. Deem and Ramdas Pophale) SiO2 
 PCOD8197983
Probable space group: P M M M
;
_chemical_formula_sum "Si O2"
_cell_formula_units_Z 32
_cell_length_a 14.590083
_cell_length_b 13.833929
_cell_length_c 9.115705
_cell_angle_alpha 90.000000
_cell_angle_beta 90.000000
_cell_angle_gamma 90.000000
_cell_volume 1839.897237
_symmetry_space_group_name_H-M "P M M M"
_symmetry_group_IT_number 47
_symmetry_cell_setting 'orthorhombic'
loop_
_space_group_symop_operation_xyz
x,y,z
-x,-y,z
x,-y,-z
-x,y,-z
-x,-y,-z
x,y,-z
-x,y,z
x,-y,z
loop_
_atom_site_type_symbol
_atom_site_label
_atom_site_fract_x
_atom_site_fract_y
_atom_site_fract_z
Si Si1 0.184031 0.889952 0.326954
Si Si2 0.606249 0.614520 0.000000
Si Si3 0.898081 0.614289 0.664677
Si Si4 0.000000 0.114849 0.833317
Si Si5 0.251947 0.275470 0.838609
O O1 0.174996 0.880807 0.500000
O O2 0.090230 0.849955 0.253913
O O3 0.263970 0.819342 0.265202
O O4 0.206182 0.000000 0.280736
O O5 0.653261 0.663013 0.145040
O O6 0.622893 0.500000 0.000000
O O7 0.500000 0.640996 0.000000
O O8 0.875049 0.650687 0.500000
O O9 0.894001 0.500000 0.670129
O O10 0.824853 0.654122 0.776994
O O11 0.000000 0.649763 0.709960
O O12 0.000000 0.000000 0.831878
O O13 0.000000 0.154527 0.000000
O O14 0.220614 0.239469 0.000000
#
# Coordination Sequence:
#
# PCOD8197983 Si02
#       5
#     8   4   8   4   8
#     4  10  20  34  51  74 110 153 191 227 267 314
#     4   9  20  40  62  84 107 132 170 228 293 341
#     4   9  18  32  49  72 108 149 182 216 262 321
#     4   9  17  29  47  71 107 152 197 234 260 294
#     4  10  21  32  54  81 104 140 182 225 272 324
#
# _framework density 17.392275999999999
#
# number of rings (size 3 to 8) (size 9 to 14) (size 15 to 20)
#    0.750    1.750    0.000    3.375    1.750    3.500 
#    0.000    1.250    0.000    4.500    0.000   10.500 
#    0.000    0.000    0.000    0.000    0.000    0.000 
#
# Total GULP energy -396560.102106 kJ/mol
# GULP energy per Si atom -12392.503191 kJ/mol
# Density = 1.735269 g / cm^3
# Si number density = 17.392276 Si / 1000 Ang^3
#
#
#
# Elastic Constant Matrix: (Units=GPa)
#
#
# Indices 1 2 3 4 5 6 
#
# 1 104.6845 58.2086 47.1111 0.0000 0.0000 0.0000
# 2 58.2086 82.3157 31.0661 0.0000 0.0000 0.0000
# 3 47.1111 31.0661 94.3231 0.0000 0.0000 0.0000
# 4 0.0000 0.0000 0.0000 33.9001 0.0000 0.0000
# 5 0.0000 0.0000 0.0000 0.0000 6.8611 0.0000
# 6 0.0000 0.0000 0.0000 0.0000 0.0000 22.6575
#
#
#
# Elastic Compliance Matrix: (Units=1/GPa)
#
#
# Indices 1 2 3 4 5 6 
#
# 1 0.017899 -0.010601 -0.005448 0.000000 0.000000 0.000000
# 2 -0.010601 0.020151 -0.001342 0.000000 0.000000 0.000000
# 3 -0.005448 -0.001342 0.013765 0.000000 0.000000 0.000000
# 4 0.000000 0.000000 0.000000 0.029498 0.000000 0.000000
# 5 0.000000 0.000000 0.000000 0.000000 0.145748 0.000000
# 6 0.000000 0.000000 0.000000 0.000000 0.000000 0.044135
#
#
# Mechanical properties :
#
#
# Convention : Reuss Voigt Hill
#
# Bulk Modulus (GPa) = 58.71157 61.56609 60.13883
# Shear Modulus (GPa) = 16.04324 22.34626 19.19475
#
# Velocity S-wave (km/s) = 3.04046 3.58835 3.32571
# Velocity P-wave (km/s) = 6.79385 7.25560 7.02852
#
# Compressibility (1/GPa) = 0.01703242
#
# Stress axis : x y z
#
# Youngs Moduli (GPa) = 55.86938 49.62499 72.64686
#
# Poissons Ratio (x) = 0.52606 0.39581
# Poissons Ratio (y) = 0.59226 0.09751
# Poissons Ratio (z) = 0.30440 0.06661
#
# Static dielectric constant tensor:
#      x y z
#    x 2.886400 0.000000 0.000000 
#    y 0.000000 3.379080 0.000000 
#    z 0.000000 0.000000 3.262670 
# 
# 
# High freq. dielectric constant tensor:
#      x y z
#    x 1.622300 0.000000 0.000000 
#    y 0.000000 1.691110 0.000000 
#    z 0.000000 0.000000 1.672220 
# 
# From -- ./inp_files/5380.got.cif
#   From: 2010.03.12/outbox.cif.g09.slc.cpg/sg47_3_cif.got.tgz:5380.got - 2010.04.14 03:12:58.
