data_PCOD8197140
_publ_section_title
;
Structure prediction by ZEFSAII (Michael W. Deem and Ramdas Pophale) SiO2 
 PCOD8197140
Probable space group: P M M M
;
_chemical_formula_sum "Si O2"
_cell_formula_units_Z 64
_cell_length_a 14.420367
_cell_length_b 28.836796
_cell_length_c 9.110089
_cell_angle_alpha 90.000000
_cell_angle_beta 90.000000
_cell_angle_gamma 90.000000
_cell_volume 3788.313732
_symmetry_space_group_name_H-M "P M M M"
_symmetry_group_IT_number 47
_symmetry_cell_setting 'orthorhombic'
loop_
_space_group_symop_operation_xyz
x,y,z
-x,-y,z
x,-y,-z
-x,y,-z
-x,-y,-z
x,y,-z
-x,y,z
x,-y,z
loop_
_atom_site_type_symbol
_atom_site_label
_atom_site_fract_x
_atom_site_fract_y
_atom_site_fract_z
Si Si1 0.240872 0.051885 0.829718
Si Si2 0.393455 0.098203 0.331117
Si Si3 0.389907 0.550625 0.834759
Si Si4 0.892932 0.765804 0.171876
Si Si5 0.102063 0.870444 0.826549
Si Si6 0.608197 0.192667 0.168849
Si Si7 0.394477 0.359402 0.672877
Si Si8 0.277257 0.271307 0.325736
O O1 0.334527 0.055887 0.734889
O O2 0.169162 0.089702 0.764232
O O3 0.200519 0.000000 0.809088
O O4 0.263062 0.061648 0.000000
O O5 0.368174 0.107907 0.500000
O O6 0.500000 0.084148 0.313755
O O7 0.367969 0.142920 0.235207
O O8 0.500000 0.550531 0.829932
O O9 0.354080 0.500000 0.778489
O O10 0.352629 0.592476 0.734852
O O11 0.354565 0.558923 0.000000
O O12 0.863469 0.818604 0.213666
O O13 0.827250 0.730843 0.262225
O O14 0.000000 0.756759 0.215273
O O15 0.878323 0.756930 0.000000
O O16 0.000000 0.878480 0.758246
O O17 0.095246 0.875158 0.000000
O O18 0.500000 0.203932 0.183254
O O19 0.662753 0.229954 0.261718
O O20 0.641342 0.193511 0.000000
O O21 0.394789 0.363478 0.500000
O O22 0.500000 0.349971 0.729511
O O23 0.326466 0.318684 0.726208
O O24 0.274184 0.267327 0.500000
#
# Coordination Sequence:
#
# PCOD8197140 Si02
#       8
#     8   8   8   8   8   8   8   8
#     4  10  20  32  49  74  98 119 146 181 221 268
#     4  10  21  36  52  68  88 118 155 192 229 269
#     4   8  14  25  41  61  86 119 161 206 245 278
#     4   9  18  33  52  71  91 120 160 201 237 278
#     4   8  15  30  51  72  93 116 143 178 220 267
#     4  10  20  33  50  71  94 122 156 192 231 277
#     4   9  18  30  42  61  93 131 167 200 234 275
#     4  11  21  31  46  69  99 131 160 194 236 281
#
# _framework density 16.894061000000001
#
# number of rings (size 3 to 8) (size 9 to 14) (size 15 to 20)
#    0.000    2.625    0.000    3.375    0.000    5.250 
#    0.000    5.000    0.000    1.125    0.000    0.875 
#    0.000    0.500    0.000    5.500    0.000    4.250 
#
# Total GULP energy -793411.071225 kJ/mol
# GULP energy per Si atom -12397.047988 kJ/mol
# Density = 1.685561 g / cm^3
# Si number density = 16.894061 Si / 1000 Ang^3
#
#
#
# Elastic Constant Matrix: (Units=GPa)
#
#
# Indices 1 2 3 4 5 6 
#
# 1 73.4064 62.5299 37.9721 0.0000 0.0000 0.0000
# 2 62.5299 100.9170 33.8092 0.0000 0.0000 0.0000
# 3 37.9721 33.8092 48.5604 0.0000 0.0000 0.0000
# 4 0.0000 0.0000 0.0000 26.5124 0.0000 0.0000
# 5 0.0000 0.0000 0.0000 0.0000 22.0432 0.0000
# 6 0.0000 0.0000 0.0000 0.0000 0.0000 18.1783
#
#
#
# Elastic Compliance Matrix: (Units=1/GPa)
#
#
# Indices 1 2 3 4 5 6 
#
# 1 0.037204 -0.017354 -0.017010 0.000000 0.000000 0.000000
# 2 -0.017354 0.021018 -0.001064 0.000000 0.000000 0.000000
# 3 -0.017010 -0.001064 0.034634 0.000000 0.000000 0.000000
# 4 0.000000 0.000000 0.000000 0.037718 0.000000 0.000000
# 5 0.000000 0.000000 0.000000 0.000000 0.045365 0.000000
# 6 0.000000 0.000000 0.000000 0.000000 0.000000 0.055011
#
#
# Mechanical properties :
#
#
# Convention : Reuss Voigt Hill
#
# Bulk Modulus (GPa) = 45.44970 54.61180 50.03075
# Shear Modulus (GPa) = 16.17391 19.25161 17.71276
#
# Velocity S-wave (km/s) = 3.09750 3.37938 3.24151
# Velocity P-wave (km/s) = 6.30507 6.90096 6.60973
#
# Compressibility (1/GPa) = 0.02200235
#
# Stress axis : x y z
#
# Youngs Moduli (GPa) = 26.87863 47.57789 28.87300
#
# Poissons Ratio (x) = 0.82566 0.49113
# Poissons Ratio (y) = 0.46645 0.03071
# Poissons Ratio (z) = 0.45720 0.05060
#
# Static dielectric constant tensor:
#      x y z
#    x 3.213770 0.000000 0.000000 
#    y 0.000000 3.339650 0.000000 
#    z 0.000000 0.000000 3.061520 
# 
# 
# High freq. dielectric constant tensor:
#      x y z
#    x 1.632460 0.000000 0.000000 
#    y 0.000000 1.642120 0.000000 
#    z 0.000000 0.000000 1.641630 
# 
# From -- ./inp_files/7923.got.cif
#   From: 2010.03.12/outbox.cif.g09.slc.cpg/sg47_4_cif.got.tgz:7923.got - 2010.04.14 03:12:58.
