data_PCOD8197520
_publ_section_title
;
Structure prediction by ZEFSAII (Michael W. Deem and Ramdas Pophale) SiO2 
 PCOD8197520
Probable space group: P M M M
;
_chemical_formula_sum "Si O2"
_cell_formula_units_Z 44
_cell_length_a 28.321123
_cell_length_b 9.054918
_cell_length_c 9.558957
_cell_angle_alpha 90.000000
_cell_angle_beta 90.000000
_cell_angle_gamma 90.000000
_cell_volume 2451.350995
_symmetry_space_group_name_H-M "P M M M"
_symmetry_group_IT_number 47
_symmetry_cell_setting 'orthorhombic'
loop_
_space_group_symop_operation_xyz
x,y,z
-x,-y,z
x,-y,-z
-x,y,-z
-x,-y,-z
x,y,-z
-x,y,z
x,-y,z
loop_
_atom_site_type_symbol
_atom_site_label
_atom_site_fract_x
_atom_site_fract_y
_atom_site_fract_z
Si Si1 0.137554 0.176504 0.842560
Si Si2 0.777799 0.175163 0.345119
Si Si3 0.328319 0.169669 0.335984
Si Si4 0.947615 0.824400 0.656876
Si Si5 0.500000 0.166538 0.166272
Si Si6 0.406633 0.327173 0.838406
O O1 0.184165 0.238327 0.764609
O O2 0.091194 0.239204 0.763847
O O3 0.137477 0.000000 0.842379
O O4 0.137481 0.238490 0.000000
O O5 0.788790 0.239164 0.500000
O O6 0.725027 0.219158 0.298177
O O7 0.781361 0.000000 0.352547
O O8 0.337823 0.190500 0.500000
O O9 0.361912 0.275524 0.249159
O O10 0.337126 0.000000 0.292121
O O11 0.936215 0.767908 0.500000
O O12 0.000000 0.770710 0.702725
O O13 0.945839 0.000000 0.658069
O O14 0.546697 0.247972 0.222266
O O15 0.500000 0.000000 0.224047
O O16 0.500000 0.171436 0.000000
O O17 0.414055 0.500000 0.818867
O O18 0.398121 0.285124 0.000000
#
# Coordination Sequence:
#
# PCOD8197520 Si02
#       6
#     8   8   8   8   4   8
#     4   9  15  20  28  45  67  90 121 166 217 263
#     4   8  14  25  39  53  72 100 133 171 216 265
#     4   9  18  32  49  69  92 119 154 195 236 277
#     4   8  13  20  28  37  53  84 126 167 208 258
#     4   9  17  31  52  75  98 127 162 196 230 269
#     4  10  20  33  50  73 100 128 157 190 230 277
#
# _framework density 17.949287000000002
#
# number of rings (size 3 to 8) (size 9 to 14) (size 15 to 20)
#    0.000    3.182    0.000    3.000    0.000    5.818 
#    0.000    4.091    0.000    2.727    0.000    0.000 
#    0.000    0.000    0.000    0.000    0.000    0.909 
#
# Total GULP energy -545411.939546 kJ/mol
# GULP energy per Si atom -12395.725899 kJ/mol
# Density = 1.790843 g / cm^3
# Si number density = 17.949287 Si / 1000 Ang^3
#
#
#
# Elastic Constant Matrix: (Units=GPa)
#
#
# Indices 1 2 3 4 5 6 
#
# 1 170.0776 34.4323 87.5615 0.0000 0.0000 0.0000
# 2 34.4323 38.4933 24.1001 0.0000 0.0000 0.0000
# 3 87.5615 24.1001 101.5209 0.0000 0.0000 0.0000
# 4 0.0000 0.0000 0.0000 13.4969 0.0000 0.0000
# 5 0.0000 0.0000 0.0000 0.0000 31.9406 0.0000
# 6 0.0000 0.0000 0.0000 0.0000 0.0000 1.6120
#
#
#
# Elastic Compliance Matrix: (Units=1/GPa)
#
#
# Indices 1 2 3 4 5 6 
#
# 1 0.011252 -0.004685 -0.008593 0.000000 0.000000 0.000000
# 2 -0.004685 0.032465 -0.003666 0.000000 0.000000 0.000000
# 3 -0.008593 -0.003666 0.018131 0.000000 0.000000 0.000000
# 4 0.000000 0.000000 0.000000 0.074091 0.000000 0.000000
# 5 0.000000 0.000000 0.000000 0.000000 0.031308 0.000000
# 6 0.000000 0.000000 0.000000 0.000000 0.000000 0.620340
#
#
# Mechanical properties :
#
#
# Convention : Reuss Voigt Hill
#
# Bulk Modulus (GPa) = 35.76425 66.91997 51.34211
# Shear Modulus (GPa) = 6.01834 20.34309 13.18072
#
# Velocity S-wave (km/s) = 1.83310 3.37020 2.71279
# Velocity P-wave (km/s) = 4.94457 7.24625 6.20310
#
# Compressibility (1/GPa) = 0.02796088
#
# Stress axis : x y z
#
# Youngs Moduli (GPa) = 88.87392 30.80281 55.15287
#
# Poissons Ratio (x) = 0.14432 0.47390
# Poissons Ratio (y) = 0.41639 0.20218
# Poissons Ratio (z) = 0.76365 0.11292
#
# Static dielectric constant tensor:
#      x y z
#    x 3.624980 0.000000 0.000000 
#    y 0.000000 2.724780 0.000000 
#    z 0.000000 0.000000 3.362430 
# 
# 
# High freq. dielectric constant tensor:
#      x y z
#    x 1.712380 0.000000 0.000000 
#    y 0.000000 1.631250 0.000000 
#    z 0.000000 0.000000 1.683550 
# 
# From -- ./inp_files/2198.got.cif
#   From: 2010.03.12/outbox.cif.g09.slc.cpg/sg47_2_cif.got.tgz:2198.got - 2010.04.14 03:12:58.
