data_PCOD8197306
_publ_section_title
;
Structure prediction by ZEFSAII (Michael W. Deem and Ramdas Pophale) SiO2 
 PCOD8197306
Probable space group: P M M M
;
_chemical_formula_sum "Si O2"
_cell_formula_units_Z 52
_cell_length_a 9.087786
_cell_length_b 15.346192
_cell_length_c 23.059195
_cell_angle_alpha 90.000000
_cell_angle_beta 90.000000
_cell_angle_gamma 90.000000
_cell_volume 3215.902410
_symmetry_space_group_name_H-M "P M M M"
_symmetry_group_IT_number 47
_symmetry_cell_setting 'orthorhombic'
loop_
_space_group_symop_operation_xyz
x,y,z
-x,-y,z
x,-y,-z
-x,y,-z
-x,-y,-z
x,y,-z
-x,y,z
x,-y,z
loop_
_atom_site_type_symbol
_atom_site_label
_atom_site_fract_x
_atom_site_fract_y
_atom_site_fract_z
Si Si1 0.836361 0.000000 0.568011
Si Si2 0.327815 0.596540 0.325343
Si Si3 0.171265 0.660506 0.435002
Si Si4 0.333127 0.170759 0.599718
Si Si5 0.674799 0.900565 0.176887
Si Si6 0.335122 0.768599 0.728922
Si Si7 0.164874 0.103236 0.936581
O O1 0.745699 0.081443 0.588777
O O2 0.850633 0.000000 0.500000
O O3 0.000000 0.000000 0.595745
O O4 0.500000 0.616526 0.337152
O O5 0.304715 0.500000 0.298436
O O6 0.247308 0.598652 0.387519
O O7 0.265038 0.671051 0.281044
O O8 0.191971 0.621598 0.500000
O O9 0.244305 0.755193 0.433786
O O10 0.000000 0.669271 0.419501
O O11 0.500000 0.168880 0.576164
O O12 0.330795 0.182942 0.668240
O O13 0.500000 0.900985 0.179071
O O14 0.743075 0.832157 0.224001
O O15 0.726570 0.865148 0.114174
O O16 0.732043 0.000000 0.188817
O O17 0.500000 0.754466 0.751642
O O18 0.000000 0.137204 0.923477
O O19 0.165243 0.000000 0.938658
O O20 0.217249 0.138580 0.000000
#
# Coordination Sequence:
#
# PCOD8197306 Si02
#       7
#     4   8   8   8   8   8   8
#     4  11  23  35  45  61  87 115 146 187 232 271
#     4   9  18  33  51  68  86 112 147 184 221 267
#     4  10  20  33  48  66  90 114 135 171 227 282
#     4  10  20  33  50  66  83 113 151 187 221 265
#     4   9  16  25  41  63  88 118 148 178 212 255
#     4   8  16  30  46  65  88 112 141 181 224 261
#     4   8  14  25  39  56  84 120 152 181 211 242
#
# _framework density 16.169644999999999
#
# number of rings (size 3 to 8) (size 9 to 14) (size 15 to 20)
#    0.000    2.846    0.000    3.000    1.077    4.615 
#    0.000    6.923    0.000    0.000    0.000    0.000 
#    0.000    0.615    0.000    7.692    0.000    1.538 
#
# Total GULP energy -644276.154729 kJ/mol
# GULP energy per Si atom -12389.926052 kJ/mol
# Density = 1.613284 g / cm^3
# Si number density = 16.169645 Si / 1000 Ang^3
#
#
#
# Elastic Constant Matrix: (Units=GPa)
#
#
# Indices 1 2 3 4 5 6 
#
# 1 56.4724 27.2620 23.2039 0.0000 0.0000 0.0000
# 2 27.2620 101.2101 44.3116 0.0000 0.0000 0.0000
# 3 23.2039 44.3116 91.0268 0.0000 0.0000 0.0000
# 4 0.0000 0.0000 0.0000 10.8097 0.0000 0.0000
# 5 0.0000 0.0000 0.0000 0.0000 11.4299 0.0000
# 6 0.0000 0.0000 0.0000 0.0000 0.0000 8.8052
#
#
#
# Elastic Compliance Matrix: (Units=1/GPa)
#
#
# Indices 1 2 3 4 5 6 
#
# 1 0.021116 -0.004234 -0.003322 0.000000 0.000000 0.000000
# 2 -0.004234 0.013405 -0.005447 0.000000 0.000000 0.000000
# 3 -0.003322 -0.005447 0.014484 0.000000 0.000000 0.000000
# 4 0.000000 0.000000 0.000000 0.092509 0.000000 0.000000
# 5 0.000000 0.000000 0.000000 0.000000 0.087490 0.000000
# 6 0.000000 0.000000 0.000000 0.000000 0.000000 0.113569
#
#
# Mechanical properties :
#
#
# Convention : Reuss Voigt Hill
#
# Bulk Modulus (GPa) = 43.47502 48.69605 46.08554
# Shear Modulus (GPa) = 13.28921 16.47109 14.88015
#
# Velocity S-wave (km/s) = 2.86992 3.19508 3.03686
# Velocity P-wave (km/s) = 6.15850 6.61759 6.39217
#
# Compressibility (1/GPa) = 0.02300171
#
# Stress axis : x y z
#
# Youngs Moduli (GPa) = 47.35640 74.59700 69.04198
#
# Poissons Ratio (x) = 0.31581 0.22936
# Poissons Ratio (y) = 0.20048 0.37604
# Poissons Ratio (z) = 0.15732 0.40629
#
# Static dielectric constant tensor:
#      x y z
#    x 3.087960 0.000000 0.000000 
#    y 0.000000 2.967420 0.000000 
#    z 0.000000 0.000000 3.196280 
# 
# 
# High freq. dielectric constant tensor:
#      x y z
#    x 1.612730 0.000000 0.000000 
#    y 0.000000 1.603220 0.000000 
#    z 0.000000 0.000000 1.604570 
# 
# From -- ./inp_files/31992.got.cif
#   From: 2010.03.12/outbox.cif.g09.slc.cpg/sg47_16_cif.got.tgz:31992.got - 2010.04.14 03:12:58.
