data_PCOD8197629
_publ_section_title
;
Structure prediction by ZEFSAII (Michael W. Deem and Ramdas Pophale) SiO2 
 PCOD8197629
Probable space group: P M M M
;
_chemical_formula_sum "Si O2"
_cell_formula_units_Z 44
_cell_length_a 13.958047
_cell_length_b 19.356243
_cell_length_c 9.429926
_cell_angle_alpha 90.000000
_cell_angle_beta 90.000000
_cell_angle_gamma 90.000000
_cell_volume 2547.733553
_symmetry_space_group_name_H-M "P M M M"
_symmetry_group_IT_number 47
_symmetry_cell_setting 'orthorhombic'
loop_
_space_group_symop_operation_xyz
x,y,z
-x,-y,z
x,-y,-z
-x,y,-z
-x,-y,-z
x,y,-z
-x,y,z
x,-y,z
loop_
_atom_site_type_symbol
_atom_site_label
_atom_site_fract_x
_atom_site_fract_y
_atom_site_fract_z
Si Si1 0.386466 0.921830 0.000000
Si Si2 0.887271 0.500000 0.661531
Si Si3 0.386569 0.075588 0.500000
Si Si4 0.723918 0.308104 0.670949
Si Si5 0.611566 0.420130 0.838307
Si Si6 0.386596 0.828659 0.254013
Si Si7 0.888337 0.363987 0.167574
O O1 0.350275 0.873564 0.875570
O O2 0.500000 0.930520 0.000000
O O3 0.342189 0.000000 0.000000
O O4 0.843141 0.500000 0.500000
O O5 0.855702 0.565706 0.754203
O O6 0.000000 0.500000 0.645202
O O7 0.500000 0.067066 0.500000
O O8 0.349934 0.119712 0.628548
O O9 0.338412 0.000000 0.500000
O O10 0.733487 0.307472 0.500000
O O11 0.669657 0.376666 0.722924
O O12 0.664850 0.243905 0.730270
O O13 0.827515 0.305275 0.749651
O O14 0.500000 0.405308 0.815541
O O15 0.635252 0.500000 0.809943
O O16 0.640518 0.399921 0.000000
O O17 0.500000 0.814073 0.254550
O O18 0.000000 0.347649 0.189369
O O19 0.863528 0.368461 0.000000
#
# Coordination Sequence:
#
# PCOD8197629 Si02
#       7
#     4   4   4   8   8   8   8
#     4   9  18  32  52  78 108 144 183 220 258 306
#     4   9  17  33  57  81 102 125 158 211 275 329
#     4   9  16  30  52  74 106 148 179 206 248 308
#     4  12  24  35  52  78 110 143 179 224 274 327
#     4   9  20  38  56  73  98 139 189 231 266 307
#     4  10  20  33  50  78 113 146 181 216 258 311
#     4  10  22  39  58  78 102 135 177 225 277 333
#
# _framework density 17.270251999999999
#
# number of rings (size 3 to 8) (size 9 to 14) (size 15 to 20)
#    0.000    2.091    0.909    3.000    3.818    5.818 
#    0.000    0.909    0.000    0.000    0.000    0.000 
#    0.000    4.364    0.000    0.000    0.000    0.000 
#
# Total GULP energy -545134.457834 kJ/mol
# GULP energy per Si atom -12389.419496 kJ/mol
# Density = 1.723094 g / cm^3
# Si number density = 17.270252 Si / 1000 Ang^3
#
#
#
# Elastic Constant Matrix: (Units=GPa)
#
#
# Indices 1 2 3 4 5 6 
#
# 1 68.7226 49.4578 41.8627 0.0000 0.0000 0.0000
# 2 49.4578 110.5630 65.2174 0.0000 0.0000 0.0000
# 3 41.8627 65.2174 158.6040 0.0000 0.0000 0.0000
# 4 0.0000 0.0000 0.0000 38.1412 0.0000 0.0000
# 5 0.0000 0.0000 0.0000 0.0000 23.9314 0.0000
# 6 0.0000 0.0000 0.0000 0.0000 0.0000 7.2143
#
#
#
# Elastic Compliance Matrix: (Units=1/GPa)
#
#
# Indices 1 2 3 4 5 6 
#
# 1 0.022095 -0.008507 -0.002334 0.000000 0.000000 0.000000
# 2 -0.008507 0.015216 -0.004011 0.000000 0.000000 0.000000
# 3 -0.002334 -0.004011 0.008571 0.000000 0.000000 0.000000
# 4 0.000000 0.000000 0.000000 0.026218 0.000000 0.000000
# 5 0.000000 0.000000 0.000000 0.000000 0.041786 0.000000
# 6 0.000000 0.000000 0.000000 0.000000 0.000000 0.138614
#
#
# Mechanical properties :
#
#
# Convention : Reuss Voigt Hill
#
# Bulk Modulus (GPa) = 61.81540 72.32949 67.07245
# Shear Modulus (GPa) = 17.38541 25.94749 21.66645
#
# Velocity S-wave (km/s) = 3.17624 3.88033 3.54581
# Velocity P-wave (km/s) = 7.02297 7.87705 7.46224
#
# Compressibility (1/GPa) = 0.01617720
#
# Stress axis : x y z
#
# Youngs Moduli (GPa) = 45.25855 65.71884 116.67902
#
# Poissons Ratio (x) = 0.55908 0.27231
# Poissons Ratio (y) = 0.38502 0.46806
# Poissons Ratio (z) = 0.10563 0.26363
#
# Static dielectric constant tensor:
#      x y z
#    x 3.059560 0.000000 0.000000 
#    y 0.000000 3.370310 0.000000 
#    z 0.000000 0.000000 3.373940 
# 
# 
# High freq. dielectric constant tensor:
#      x y z
#    x 1.634620 0.000000 0.000000 
#    y 0.000000 1.659660 0.000000 
#    z 0.000000 0.000000 1.687220 
# 
# From -- ./inp_files/6227.got.cif
#   From: 2010.03.12/outbox.cif.g09.slc.cpg/sg47_4_cif.got.tgz:6227.got - 2010.04.14 03:12:58.
