data_PCOD8197103
_publ_section_title
;
Structure prediction by ZEFSAII (Michael W. Deem and Ramdas Pophale) SiO2 
 PCOD8197103
Probable space group: P M M M
;
_chemical_formula_sum "Si O2"
_cell_formula_units_Z 44
_cell_length_a 9.026519
_cell_length_b 9.254328
_cell_length_c 28.290216
_cell_angle_alpha 90.000000
_cell_angle_beta 90.000000
_cell_angle_gamma 90.000000
_cell_volume 2363.205301
_symmetry_space_group_name_H-M "P M M M"
_symmetry_group_IT_number 47
_symmetry_cell_setting 'orthorhombic'
loop_
_space_group_symop_operation_xyz
x,y,z
-x,-y,z
x,-y,-z
-x,y,-z
-x,-y,-z
x,y,-z
-x,y,z
x,-y,z
loop_
_atom_site_type_symbol
_atom_site_label
_atom_site_fract_x
_atom_site_fract_y
_atom_site_fract_z
Si Si1 0.166479 0.328451 0.319552
Si Si2 0.673803 0.331365 0.414696
Si Si3 0.828242 0.332780 0.134325
Si Si4 0.826858 0.830030 0.500000
Si Si5 0.668151 0.830922 0.946153
Si Si6 0.332747 0.327687 0.772365
O O1 0.162093 0.500000 0.316501
O O2 0.261979 0.279516 0.364548
O O3 0.243030 0.265108 0.272440
O O4 0.000000 0.266106 0.323682
O O5 0.500000 0.299579 0.415563
O O6 0.706817 0.500000 0.423904
O O7 0.753466 0.238160 0.454118
O O8 0.790671 0.500000 0.126943
O O9 0.781456 0.251663 0.087094
O O10 0.740904 0.269727 0.179483
O O11 0.000000 0.306841 0.144041
O O12 0.000000 0.793246 0.500000
O O13 0.796796 0.000000 0.500000
O O14 0.500000 0.785514 0.933898
O O15 0.689704 0.000000 0.938430
O O16 0.705341 0.788502 0.000000
O O17 0.500000 0.269429 0.769777
O O18 0.328572 0.500000 0.771384
#
# Coordination Sequence:
#
# PCOD8197103 Si02
#       6
#     8   8   8   4   8   8
#     4   9  16  27  46  73 104 135 166 204 250 296
#     4  10  20  34  54  80 106 133 170 213 253 297
#     4  10  20  32  48  74 106 136 167 205 249 298
#     4  11  24  39  54  74 102 137 174 211 256 308
#     4   9  19  36  55  73  95 127 168 211 254 302
#     4   9  16  27  45  70 101 135 169 205 246 293
#
# _framework density 18.618781999999999
#
# number of rings (size 3 to 8) (size 9 to 14) (size 15 to 20)
#    0.000    2.455    0.000    3.273    0.000    9.455 
#    0.000    2.727    0.000    1.091    0.000    0.000 
#    0.000    0.000    0.000    0.000    0.000    0.000 
#
# Total GULP energy -545658.643702 kJ/mol
# GULP energy per Si atom -12401.332811 kJ/mol
# Density = 1.857640 g / cm^3
# Si number density = 18.618782 Si / 1000 Ang^3
#
#
#
# Elastic Constant Matrix: (Units=GPa)
#
#
# Indices 1 2 3 4 5 6 
#
# 1 133.6321 41.2865 80.8605 0.0000 0.0000 0.0000
# 2 41.2865 35.6598 45.3740 0.0000 0.0000 0.0000
# 3 80.8605 45.3740 160.5457 0.0000 0.0000 0.0000
# 4 0.0000 0.0000 0.0000 -10.8783 0.0000 0.0000
# 5 0.0000 0.0000 0.0000 0.0000 40.1959 0.0000
# 6 0.0000 0.0000 0.0000 0.0000 0.0000 22.2607
#
#
#
# Elastic Compliance Matrix: (Units=1/GPa)
#
#
# Indices 1 2 3 4 5 6 
#
# 1 0.012816 -0.010345 -0.003531 0.000000 0.000000 0.000000
# 2 -0.010345 0.052141 -0.009526 0.000000 0.000000 0.000000
# 3 -0.003531 -0.009526 0.010699 0.000000 0.000000 0.000000
# 4 0.000000 0.000000 0.000000 -0.091926 0.000000 0.000000
# 5 0.000000 0.000000 0.000000 0.000000 0.024878 0.000000
# 6 0.000000 0.000000 0.000000 0.000000 0.000000 0.044922
#
#
# Mechanical properties :
#
#
# Convention : Reuss Voigt Hill
#
# Bulk Modulus (GPa) = 34.65923 73.87552 54.26738
# Shear Modulus (GPa) = 45.47385 21.13676 33.30530
#
# Velocity S-wave (km/s) = 4.94739 3.37299 4.23401
# Velocity P-wave (km/s) = 7.16178 7.41171 7.28782
#
# Compressibility (1/GPa) = 0.02885234
#
# Stress axis : x y z
#
# Youngs Moduli (GPa) = 78.02622 19.17862 93.46236
#
# Poissons Ratio (x) = 0.19841 0.33003
# Poissons Ratio (y) = 0.80721 0.89031
# Poissons Ratio (z) = 0.27552 0.18269
#
# Static dielectric constant tensor:
#      x y z
#    x 3.577490 0.000000 0.000000 
#    y 0.000000 2.953310 0.000000 
#    z 0.000000 0.000000 3.641550 
# 
# 
# High freq. dielectric constant tensor:
#      x y z
#    x 1.738250 0.000000 0.000000 
#    y 0.000000 1.670370 0.000000 
#    z 0.000000 0.000000 1.740620 
# 
# From -- ./inp_files/13635.got.cif
#   From: 2010.03.12/outbox.cif.g09.slc.cpg/sg47_7_cif.got.tgz:13635.got - 2010.04.14 03:12:58.
