data_PCOD8197686
_publ_section_title
;
Structure prediction by ZEFSAII (Michael W. Deem and Ramdas Pophale) SiO2 
 PCOD8197686
Probable space group: P M M M
;
_chemical_formula_sum "Si O2"
_cell_formula_units_Z 40
_cell_length_a 12.796497
_cell_length_b 18.173689
_cell_length_c 9.212923
_cell_angle_alpha 90.000000
_cell_angle_beta 90.000000
_cell_angle_gamma 90.000000
_cell_volume 2142.553289
_symmetry_space_group_name_H-M "P M M M"
_symmetry_group_IT_number 47
_symmetry_cell_setting 'orthorhombic'
loop_
_space_group_symop_operation_xyz
x,y,z
-x,-y,z
x,-y,-z
-x,y,-z
-x,-y,-z
x,y,-z
-x,y,z
x,-y,z
loop_
_atom_site_type_symbol
_atom_site_label
_atom_site_fract_x
_atom_site_fract_y
_atom_site_fract_z
Si Si1 0.804708 0.584131 0.667699
Si Si2 0.000000 0.324079 0.327679
Si Si3 0.806019 0.913975 0.168780
Si Si4 0.614476 0.181904 0.827808
Si Si5 0.000000 0.844655 0.327365
Si Si6 0.619289 0.347450 0.169724
O O1 0.786171 0.602594 0.500000
O O2 0.839280 0.500000 0.689988
O O3 0.896452 0.635598 0.733352
O O4 0.696017 0.597533 0.748670
O O5 0.000000 0.239885 0.274983
O O6 0.000000 0.330861 0.500000
O O7 0.701469 0.874695 0.228188
O O8 0.899973 0.885511 0.265341
O O9 0.790961 0.000000 0.192864
O O10 0.827801 0.895544 0.000000
O O11 0.500000 0.158564 0.767027
O O12 0.641827 0.264327 0.775587
O O13 0.609740 0.181122 0.000000
O O14 0.000000 0.850738 0.500000
O O15 0.500000 0.369593 0.205617
O O16 0.641130 0.354436 0.000000
#
# Coordination Sequence:
#
# PCOD8197686 Si02
#       6
#     8   4   8   8   4   8
#     4  10  20  34  53  75  99 127 160 202 250 296
#     4   9  19  36  55  74  96 125 164 206 248 293
#     4  10  20  33  51  76 104 131 161 202 249 292
#     4   8  15  30  52  76 100 128 165 205 243 286
#     4  11  22  35  53  73  96 131 170 204 240 289
#     4   9  18  33  52  73 100 134 167 200 240 286
#
# _framework density 18.669315000000001
#
# number of rings (size 3 to 8) (size 9 to 14) (size 15 to 20)
#    0.000    2.600    0.000    3.300    0.000    4.400 
#    0.000    5.500    0.000    3.000    0.000    1.400 
#    0.000    0.000    0.000    0.000    0.000    0.000 
#
# Total GULP energy -495977.889882 kJ/mol
# GULP energy per Si atom -12399.447247 kJ/mol
# Density = 1.862682 g / cm^3
# Si number density = 18.669315 Si / 1000 Ang^3
#
#
#
# Elastic Constant Matrix: (Units=GPa)
#
#
# Indices 1 2 3 4 5 6 
#
# 1 113.8689 28.5795 31.0542 0.0000 0.0000 0.0000
# 2 28.5795 52.7553 18.8584 0.0000 0.0000 0.0000
# 3 31.0542 18.8584 36.7997 0.0000 0.0000 0.0000
# 4 0.0000 0.0000 0.0000 24.1899 0.0000 0.0000
# 5 0.0000 0.0000 0.0000 0.0000 6.7296 0.0000
# 6 0.0000 0.0000 0.0000 0.0000 0.0000 44.5321
#
#
#
# Elastic Compliance Matrix: (Units=1/GPa)
#
#
# Indices 1 2 3 4 5 6 
#
# 1 0.011913 -0.003502 -0.008259 0.000000 0.000000 0.000000
# 2 -0.003502 0.024236 -0.009465 0.000000 0.000000 0.000000
# 3 -0.008259 -0.009465 0.038994 0.000000 0.000000 0.000000
# 4 0.000000 0.000000 0.000000 0.041340 0.000000 0.000000
# 5 0.000000 0.000000 0.000000 0.000000 0.148597 0.000000
# 6 0.000000 0.000000 0.000000 0.000000 0.000000 0.022456
#
#
# Mechanical properties :
#
#
# Convention : Reuss Voigt Hill
#
# Bulk Modulus (GPa) = 30.58835 40.04536 35.31685
# Shear Modulus (GPa) = 14.66777 23.41911 19.04344
#
# Velocity S-wave (km/s) = 2.80601 3.54562 3.19727
# Velocity P-wave (km/s) = 5.18827 6.18533 5.70861
#
# Compressibility (1/GPa) = 0.03269219
#
# Stress axis : x y z
#
# Youngs Moduli (GPa) = 83.94040 41.26121 25.64495
#
# Poissons Ratio (x) = 0.14448 0.21180
# Poissons Ratio (y) = 0.29392 0.24273
# Poissons Ratio (z) = 0.69325 0.39054
#
# Static dielectric constant tensor:
#      x y z
#    x 3.232860 0.000000 0.000000 
#    y 0.000000 3.513310 0.000000 
#    z 0.000000 0.000000 3.049100 
# 
# 
# High freq. dielectric constant tensor:
#      x y z
#    x 1.739760 0.000000 0.000000 
#    y 0.000000 1.730720 0.000000 
#    z 0.000000 0.000000 1.685450 
# 
# From -- ./inp_files/4122.got.cif
#   From: 2010.03.12/outbox.cif.g09.slc.cpg/sg47_3_cif.got.tgz:4122.got - 2010.04.14 03:12:58.
