data_PCOD8197102
_publ_section_title
;
Structure prediction by ZEFSAII (Michael W. Deem and Ramdas Pophale) SiO2 
 PCOD8197102
Probable space group: P M M M
;
_chemical_formula_sum "Si O2"
_cell_formula_units_Z 44
_cell_length_a 9.354130
_cell_length_b 28.275692
_cell_length_c 9.083232
_cell_angle_alpha 90.000000
_cell_angle_beta 90.000000
_cell_angle_gamma 90.000000
_cell_volume 2402.464895
_symmetry_space_group_name_H-M "P M M M"
_symmetry_group_IT_number 47
_symmetry_cell_setting 'orthorhombic'
loop_
_space_group_symop_operation_xyz
x,y,z
-x,-y,z
x,-y,-z
-x,y,-z
-x,-y,-z
x,y,-z
-x,y,z
x,-y,z
loop_
_atom_site_type_symbol
_atom_site_label
_atom_site_fract_x
_atom_site_fract_y
_atom_site_fract_z
Si Si1 0.163916 0.945646 0.169694
Si Si2 0.661199 0.133140 0.325236
Si Si3 0.832681 0.583348 0.828348
Si Si4 0.666778 0.500000 0.673512
Si Si5 0.169547 0.324099 0.336547
Si Si6 0.840614 0.779128 0.324697
O O1 0.264147 0.914227 0.270725
O O2 0.000000 0.936020 0.212960
O O3 0.203635 0.000000 0.199774
O O4 0.190153 0.932831 0.000000
O O5 0.666312 0.133205 0.500000
O O6 0.500000 0.134079 0.265874
O O7 0.739908 0.179656 0.261026
O O8 0.740112 0.545999 0.740106
O O9 0.781983 0.635264 0.776202
O O10 0.000000 0.574950 0.794221
O O11 0.800351 0.578017 0.000000
O O12 0.500000 0.500000 0.714757
O O13 0.691470 0.500000 0.500000
O O14 0.231717 0.335108 0.500000
O O15 0.221930 0.272565 0.278499
O O16 0.000000 0.321579 0.347107
O O17 0.846547 0.780984 0.500000
O O18 0.000000 0.786995 0.260139
#
# Coordination Sequence:
#
# PCOD8197102 Si02
#       6
#     8   8   8   4   8   8
#     4   9  19  36  55  73  94 124 165 210 254 301
#     4  10  20  32  48  74 106 136 166 202 246 296
#     4  10  20  34  54  80 107 134 165 203 251 303
#     4  11  24  39  54  74 100 133 174 213 250 296
#     4   8  14  27  49  74  98 128 168 210 247 285
#     4   8  14  27  48  71  96 130 170 208 245 285
#
# _framework density 18.314523999999999
#
# number of rings (size 3 to 8) (size 9 to 14) (size 15 to 20)
#    0.000    2.818    0.000    3.273    0.000    5.091 
#    0.000    4.545    0.000    6.545    0.000    0.000 
#    0.000    0.000    0.000    0.000    0.000    0.000 
#
# Total GULP energy -545474.879293 kJ/mol
# GULP energy per Si atom -12397.156348 kJ/mol
# Density = 1.827284 g / cm^3
# Si number density = 18.314524 Si / 1000 Ang^3
#
#
#
# Elastic Constant Matrix: (Units=GPa)
#
#
# Indices 1 2 3 4 5 6 
#
# 1 93.5311 71.1534 37.1905 0.0000 0.0000 0.0000
# 2 71.1534 146.8291 42.1930 0.0000 0.0000 0.0000
# 3 37.1905 42.1930 51.5882 0.0000 0.0000 0.0000
# 4 0.0000 0.0000 0.0000 -1.1313 0.0000 0.0000
# 5 0.0000 0.0000 0.0000 0.0000 20.3355 0.0000
# 6 0.0000 0.0000 0.0000 0.0000 0.0000 0.5182
#
#
#
# Elastic Compliance Matrix: (Units=1/GPa)
#
#
# Indices 1 2 3 4 5 6 
#
# 1 0.019251 -0.006982 -0.008168 0.000000 0.000000 0.000000
# 2 -0.006982 0.011435 -0.004319 0.000000 0.000000 0.000000
# 3 -0.008168 -0.004319 0.028805 0.000000 0.000000 0.000000
# 4 0.000000 0.000000 0.000000 -0.883971 0.000000 0.000000
# 5 0.000000 0.000000 0.000000 0.000000 0.049175 0.000000
# 6 0.000000 0.000000 0.000000 0.000000 0.000000 1.929844
#
#
# Mechanical properties :
#
#
# Convention : Reuss Voigt Hill
#
# Bulk Modulus (GPa) = 48.65407 65.89135 57.27271
# Shear Modulus (GPa) = 4.16553 13.37192 8.76873
#
# Velocity S-wave (km/s) = 1.50976 2.70502 2.19049
# Velocity P-wave (km/s) = 5.44635 6.76845 6.14307
#
# Compressibility (1/GPa) = 0.02055326
#
# Stress axis : x y z
#
# Youngs Moduli (GPa) = 51.94607 87.44884 34.71591
#
# Poissons Ratio (x) = 0.61055 0.28355
# Poissons Ratio (y) = 0.36268 0.14995
# Poissons Ratio (z) = 0.42428 0.37773
#
# Static dielectric constant tensor:
#      x y z
#    x 3.288630 0.000000 0.000000 
#    y 0.000000 3.736890 0.000000 
#    z 0.000000 0.000000 3.142560 
# 
# 
# High freq. dielectric constant tensor:
#      x y z
#    x 1.686100 0.000000 0.000000 
#    y 0.000000 1.728730 0.000000 
#    z 0.000000 0.000000 1.686270 
# 
# From -- ./inp_files/2250.got.cif
#   From: 2010.03.12/outbox.cif.g09.slc.cpg/sg47_2_cif.got.tgz:2250.got - 2010.04.14 03:12:58.
