data_PCOD8197435
_publ_section_title
;
Structure prediction by ZEFSAII (Michael W. Deem and Ramdas Pophale) SiO2 
 PCOD8197435
Probable space group: P M M M
;
_chemical_formula_sum "Si O2"
_cell_formula_units_Z 48
_cell_length_a 18.386133
_cell_length_b 9.064061
_cell_length_c 16.056632
_cell_angle_alpha 90.000000
_cell_angle_beta 90.000000
_cell_angle_gamma 90.000000
_cell_volume 2675.886392
_symmetry_space_group_name_H-M "P M M M"
_symmetry_group_IT_number 47
_symmetry_cell_setting 'orthorhombic'
loop_
_space_group_symop_operation_xyz
x,y,z
-x,-y,z
x,-y,-z
-x,y,-z
-x,-y,-z
x,y,-z
-x,y,z
x,-y,z
loop_
_atom_site_type_symbol
_atom_site_label
_atom_site_fract_x
_atom_site_fract_y
_atom_site_fract_z
Si Si1 0.168332 0.673355 0.837501
Si Si2 0.706203 0.825883 0.248684
Si Si3 0.585979 0.834291 0.500000
Si Si4 0.796624 0.830535 0.591820
Si Si5 0.584935 0.672115 0.331783
Si Si6 0.918962 0.327149 0.326558
Si Si7 0.082671 0.324711 0.000000
O O1 0.185527 0.500000 0.842001
O O2 0.244913 0.759491 0.826019
O O3 0.114960 0.714338 0.762420
O O4 0.127570 0.730704 0.919938
O O5 0.741301 0.779724 0.337129
O O6 0.627284 0.747443 0.253820
O O7 0.697148 0.000000 0.235690
O O8 0.500000 0.846955 0.500000
O O9 0.611087 0.748161 0.417640
O O10 0.620621 0.000000 0.500000
O O11 0.762682 0.800256 0.500000
O O12 0.872054 0.742714 0.599495
O O13 0.816411 0.000000 0.604421
O O14 0.500000 0.698292 0.315394
O O15 0.603862 0.500000 0.337389
O O16 0.920109 0.500000 0.340286
O O17 0.000000 0.261419 0.329682
O O18 0.077430 0.500000 0.000000
O O19 0.000000 0.260460 0.000000
#
# Coordination Sequence:
#
# PCOD8197435 Si02
#       7
#     8   8   4   8   8   8   4
#     4   9  17  31  50  73 101 129 160 198 244 298
#     4  10  20  33  50  69  95 131 168 205 248 299
#     4   9  17  29  45  67  97 131 166 205 250 299
#     4   9  19  33  45  60  84 118 161 203 240 281
#     4  10  20  33  49  72 100 129 166 212 258 301
#     4   9  17  29  45  65  90 119 152 195 242 285
#     4   9  16  28  53  85 108 131 166 205 247 302
#
# _framework density 17.937981000000001
#
# number of rings (size 3 to 8) (size 9 to 14) (size 15 to 20)
#    0.000    2.667    0.000    1.750    1.167    5.667 
#    0.000    2.083    0.000    2.000    0.000    0.583 
#    0.000    4.667    0.000    0.000    0.000    0.000 
#
# Total GULP energy -595117.433204 kJ/mol
# GULP energy per Si atom -12398.279858 kJ/mol
# Density = 1.789715 g / cm^3
# Si number density = 17.937981 Si / 1000 Ang^3
#
#
#
# Elastic Constant Matrix: (Units=GPa)
#
#
# Indices 1 2 3 4 5 6 
#
# 1 87.0061 41.3504 32.8463 0.0000 0.0000 0.0000
# 2 41.3504 67.9086 24.5906 0.0000 0.0000 0.0000
# 3 32.8463 24.5906 75.9263 0.0000 0.0000 0.0000
# 4 0.0000 0.0000 0.0000 17.8528 0.0000 0.0000
# 5 0.0000 0.0000 0.0000 0.0000 29.2340 0.0000
# 6 0.0000 0.0000 0.0000 0.0000 0.0000 25.1854
#
#
#
# Elastic Compliance Matrix: (Units=1/GPa)
#
#
# Indices 1 2 3 4 5 6 
#
# 1 0.017525 -0.008979 -0.004673 0.000000 0.000000 0.000000
# 2 -0.008979 0.021283 -0.003009 0.000000 0.000000 0.000000
# 3 -0.004673 -0.003009 0.016167 0.000000 0.000000 0.000000
# 4 0.000000 0.000000 0.000000 0.056014 0.000000 0.000000
# 5 0.000000 0.000000 0.000000 0.000000 0.034207 0.000000
# 6 0.000000 0.000000 0.000000 0.000000 0.000000 0.039706
#
#
# Mechanical properties :
#
#
# Convention : Reuss Voigt Hill
#
# Bulk Modulus (GPa) = 46.18377 47.60174 46.89276
# Shear Modulus (GPa) = 22.17890 23.25803 22.71846
#
# Velocity S-wave (km/s) = 3.52009 3.60471 3.56265
# Velocity P-wave (km/s) = 6.50566 6.62720 6.56671
#
# Compressibility (1/GPa) = 0.02165263
#
# Stress axis : x y z
#
# Youngs Moduli (GPa) = 57.06109 46.98695 61.85518
#
# Poissons Ratio (x) = 0.42189 0.28908
# Poissons Ratio (y) = 0.51235 0.18609
# Poissons Ratio (z) = 0.26667 0.14136
#
# Static dielectric constant tensor:
#      x y z
#    x 3.460980 0.000000 0.000000 
#    y 0.000000 3.229280 0.000000 
#    z 0.000000 0.000000 3.192450 
# 
# 
# High freq. dielectric constant tensor:
#      x y z
#    x 1.699220 0.000000 0.000000 
#    y 0.000000 1.687180 0.000000 
#    z 0.000000 0.000000 1.660390 
# 
# From -- ./inp_files/21124.got.cif
#   From: 2010.03.12/outbox.cif.g09.slc.cpg/sg47_11_cif.got.tgz:21124.got - 2010.04.14 03:12:58.
