data_PCOD8197582
_publ_section_title
;
Structure prediction by ZEFSAII (Michael W. Deem and Ramdas Pophale) SiO2 
 PCOD8197582
Probable space group: P M M M
;
_chemical_formula_sum "Si O2"
_cell_formula_units_Z 48
_cell_length_a 9.069761
_cell_length_b 31.135750
_cell_length_c 9.094899
_cell_angle_alpha 90.000000
_cell_angle_beta 90.000000
_cell_angle_gamma 90.000000
_cell_volume 2568.343190
_symmetry_space_group_name_H-M "P M M M"
_symmetry_group_IT_number 47
_symmetry_cell_setting 'orthorhombic'
loop_
_space_group_symop_operation_xyz
x,y,z
-x,-y,z
x,-y,-z
-x,y,-z
-x,-y,-z
x,y,-z
-x,y,z
x,-y,z
loop_
_atom_site_type_symbol
_atom_site_label
_atom_site_fract_x
_atom_site_fract_y
_atom_site_fract_z
Si Si1 0.328951 0.167699 0.830583
Si Si2 0.329335 0.668849 0.327759
Si Si3 0.825737 0.000000 0.339825
Si Si4 0.173556 0.254510 0.831238
Si Si5 0.166793 0.907499 0.324496
Si Si6 0.324597 0.583523 0.834108
Si Si7 0.676002 0.500000 0.333715
O O1 0.500000 0.176279 0.802171
O O2 0.241758 0.209688 0.777248
O O3 0.278921 0.127210 0.736606
O O4 0.294338 0.157868 0.000000
O O5 0.305335 0.662500 0.500000
O O6 0.500000 0.677163 0.289191
O O7 0.235056 0.708603 0.272399
O O8 0.269398 0.626221 0.247812
O O9 0.783606 0.045222 0.260680
O O10 0.749465 0.000000 0.500000
O O11 0.000000 0.000000 0.361360
O O12 0.000000 0.251654 0.811476
O O13 0.218637 0.263993 0.000000
O O14 0.175067 0.908301 0.500000
O O15 0.000000 0.896525 0.273324
O O16 0.500000 0.581943 0.834222
O O17 0.262139 0.541998 0.749200
O O18 0.262632 0.583513 0.000000
O O19 0.500000 0.500000 0.333121
O O20 0.736119 0.500000 0.500000
#
# Coordination Sequence:
#
# PCOD8197582 Si02
#       7
#     8   8   4   8   8   8   4
#     4  10  21  36  53  74 102 135 168 204 250 302
#     4  10  20  33  50  74 103 133 165 204 252 302
#     4   7  12  26  48  73 100 130 166 207 248 291
#     4  10  21  37  56  75  95 125 166 208 250 299
#     4   9  17  31  53  78 102 131 169 211 252 295
#     4   9  16  26  42  65  95 132 171 208 248 296
#     4   9  15  23  37  61  96 133 168 209 254 297
#
# _framework density 18.689091000000001
#
# number of rings (size 3 to 8) (size 9 to 14) (size 15 to 20)
#    0.000    2.667    0.000    3.250    0.000    7.000 
#    0.000    0.833    0.000    4.000    0.000    0.583 
#    0.000    4.667    0.000    0.000    0.000    0.000 
#
# Total GULP energy -595074.873911 kJ/mol
# GULP energy per Si atom -12397.393206 kJ/mol
# Density = 1.864655 g / cm^3
# Si number density = 18.689091 Si / 1000 Ang^3
#
#
#
# Elastic Constant Matrix: (Units=GPa)
#
#
# Indices 1 2 3 4 5 6 
#
# 1 50.1892 44.0723 29.1752 0.0000 0.0000 0.0000
# 2 44.0723 173.8330 67.0390 0.0000 0.0000 0.0000
# 3 29.1752 67.0390 88.5480 0.0000 0.0000 0.0000
# 4 0.0000 0.0000 0.0000 27.6857 0.0000 0.0000
# 5 0.0000 0.0000 0.0000 0.0000 21.4162 0.0000
# 6 0.0000 0.0000 0.0000 0.0000 0.0000 -9.2499
#
#
#
# Elastic Compliance Matrix: (Units=1/GPa)
#
#
# Indices 1 2 3 4 5 6 
#
# 1 0.027285 -0.004874 -0.005300 0.000000 0.000000 0.000000
# 2 -0.004874 0.008995 -0.005205 0.000000 0.000000 0.000000
# 3 -0.005300 -0.005205 0.016980 0.000000 0.000000 0.000000
# 4 0.000000 0.000000 0.000000 0.036120 0.000000 0.000000
# 5 0.000000 0.000000 0.000000 0.000000 0.046694 0.000000
# 6 0.000000 0.000000 0.000000 0.000000 0.000000 -0.108109
#
#
# Mechanical properties :
#
#
# Convention : Reuss Voigt Hill
#
# Bulk Modulus (GPa) = 44.43704 65.90481 55.17092
# Shear Modulus (GPa) = 75.50173 19.45597 47.47885
#
# Velocity S-wave (km/s) = 6.36290 3.23001 5.04576
# Velocity P-wave (km/s) = 8.82103 7.01790 7.97062
#
# Compressibility (1/GPa) = 0.02250375
#
# Stress axis : x y z
#
# Youngs Moduli (GPa) = 36.64969 111.16752 58.89272
#
# Poissons Ratio (x) = 0.54179 0.31215
# Poissons Ratio (y) = 0.17862 0.30651
# Poissons Ratio (z) = 0.19425 0.57858
#
# Static dielectric constant tensor:
#      x y z
#    x 3.037020 0.000000 0.000000 
#    y 0.000000 3.733430 0.000000 
#    z 0.000000 0.000000 3.353700 
# 
# 
# High freq. dielectric constant tensor:
#      x y z
#    x 1.684840 0.000000 0.000000 
#    y 0.000000 1.746630 0.000000 
#    z 0.000000 0.000000 1.715510 
# 
# From -- ./inp_files/2766.got.cif
#   From: 2010.03.12/outbox.cif.g09.slc.cpg/sg47_2_cif.got.tgz:2766.got - 2010.04.14 03:12:58.
