data_PCOD8197792
_publ_section_title
;
Structure prediction by ZEFSAII (Michael W. Deem and Ramdas Pophale) SiO2 
 PCOD8197792
Probable space group: P M M M
;
_chemical_formula_sum "Si O2"
_cell_formula_units_Z 64
_cell_length_a 14.643576
_cell_length_b 9.441004
_cell_length_c 24.762736
_cell_angle_alpha 90.000000
_cell_angle_beta 90.000000
_cell_angle_gamma 90.000000
_cell_volume 3423.449728
_symmetry_space_group_name_H-M "P M M M"
_symmetry_group_IT_number 47
_symmetry_cell_setting 'orthorhombic'
loop_
_space_group_symop_operation_xyz
x,y,z
-x,-y,z
x,-y,-z
-x,y,-z
-x,-y,-z
x,y,-z
-x,y,z
x,-y,z
loop_
_atom_site_type_symbol
_atom_site_label
_atom_site_fract_x
_atom_site_fract_y
_atom_site_fract_z
Si Si1 0.899461 0.838587 0.101817
Si Si2 0.603397 0.168467 0.836680
Si Si3 0.741621 0.837093 0.744321
Si Si4 0.707995 0.166086 0.058459
Si Si5 0.105385 0.664902 0.438456
Si Si6 0.746190 0.162830 0.620659
Si Si7 0.102733 0.337700 0.208926
Si Si8 0.601798 0.656217 0.436357
O O1 0.816783 0.802716 0.061550
O O2 0.889587 0.732021 0.150762
O O3 0.000000 0.819452 0.074174
O O4 0.888818 0.000000 0.123212
O O5 0.500000 0.228474 0.832700
O O6 0.660796 0.217598 0.784027
O O7 0.651660 0.231453 0.891030
O O8 0.601098 0.000000 0.839109
O O9 0.714077 0.817434 0.682345
O O10 0.832003 0.744113 0.750431
O O11 0.764647 0.000000 0.758022
O O12 0.689929 0.000000 0.059071
O O13 0.675168 0.227706 0.000000
O O14 0.136147 0.700494 0.500000
O O15 0.121593 0.500000 0.426956
O O16 0.162170 0.753322 0.394797
O O17 0.000000 0.705122 0.430557
O O18 0.662947 0.218906 0.585846
O O19 0.764081 0.000000 0.606728
O O20 0.133781 0.500000 0.204009
O O21 0.000000 0.325830 0.231707
O O22 0.600959 0.668104 0.500000
O O23 0.500000 0.676547 0.413389
O O24 0.638958 0.500000 0.419292
#
# Coordination Sequence:
#
# PCOD8197792 Si02
#       8
#     8   8   8   8   8   8   8   8
#     4   9  16  28  48  72 102 138 167 199 252 313
#     4   9  17  31  51  72  98 134 173 215 264 313
#     4  10  21  37  53  73 104 142 178 210 257 319
#     4   9  16  26  45  76 107 132 167 215 261 310
#     4   9  19  37  59  80 106 145 187 221 259 314
#     4  11  23  34  51  81 112 140 175 223 273 320
#     4  10  20  33  52  77 101 129 170 216 256 299
#     4   9  19  37  59  80 105 141 181 218 261 317
#
# _framework density 18.694593000000001
#
# number of rings (size 3 to 8) (size 9 to 14) (size 15 to 20)
#    0.000    2.500    1.250    1.875    0.000    5.750 
#    0.000    7.500    0.000    0.750    0.000    1.750 
#    0.000    1.000    0.000    0.000    0.000    0.000 
#
# Total GULP energy -793246.865708 kJ/mol
# GULP energy per Si atom -12394.482277 kJ/mol
# Density = 1.865204 g / cm^3
# Si number density = 18.694593 Si / 1000 Ang^3
#
#
#
# Elastic Constant Matrix: (Units=GPa)
#
#
# Indices 1 2 3 4 5 6 
#
# 1 116.2863 41.8820 53.4728 0.0000 0.0000 0.0000
# 2 41.8820 65.3907 35.4132 0.0000 0.0000 0.0000
# 3 53.4728 35.4132 85.7801 0.0000 0.0000 0.0000
# 4 0.0000 0.0000 0.0000 4.7248 0.0000 0.0000
# 5 0.0000 0.0000 0.0000 0.0000 5.5937 0.0000
# 6 0.0000 0.0000 0.0000 0.0000 0.0000 10.2277
#
#
#
# Elastic Compliance Matrix: (Units=1/GPa)
#
#
# Indices 1 2 3 4 5 6 
#
# 1 0.013293 -0.005186 -0.006146 0.000000 0.000000 0.000000
# 2 -0.005186 0.021719 -0.005734 0.000000 0.000000 0.000000
# 3 -0.006146 -0.005734 0.017856 0.000000 0.000000 0.000000
# 4 0.000000 0.000000 0.000000 0.211650 0.000000 0.000000
# 5 0.000000 0.000000 0.000000 0.000000 0.178774 0.000000
# 6 0.000000 0.000000 0.000000 0.000000 0.000000 0.097773
#
#
# Mechanical properties :
#
#
# Convention : Reuss Voigt Hill
#
# Bulk Modulus (GPa) = 53.36829 58.77701 56.07265
# Shear Modulus (GPa) = 8.59931 13.22185 10.91058
#
# Velocity S-wave (km/s) = 2.14706 2.66231 2.41845
# Velocity P-wave (km/s) = 5.89542 6.39996 6.15286
#
# Compressibility (1/GPa) = 0.01873772
#
# Stress axis : x y z
#
# Youngs Moduli (GPa) = 75.22616 46.04173 56.00385
#
# Poissons Ratio (x) = 0.23877 0.34418
# Poissons Ratio (y) = 0.39011 0.32112
# Poissons Ratio (z) = 0.46232 0.26400
#
# Static dielectric constant tensor:
#      x y z
#    x 3.673400 0.000000 0.000000 
#    y 0.000000 3.203570 0.000000 
#    z 0.000000 0.000000 3.413730 
# 
# 
# High freq. dielectric constant tensor:
#      x y z
#    x 1.733180 0.000000 0.000000 
#    y 0.000000 1.692610 0.000000 
#    z 0.000000 0.000000 1.717820 
# 
# From -- ./inp_files/25564.got.cif
#   From: 2010.03.12/outbox.cif.g09.slc.cpg/sg47_13_cif.got.tgz:25564.got - 2010.04.14 03:12:58.
