data_PCOD8197347
_publ_section_title
;
Structure prediction by ZEFSAII (Michael W. Deem and Ramdas Pophale) SiO2 
 PCOD8197347
Probable space group: P M M M
;
_chemical_formula_sum "Si O2"
_cell_formula_units_Z 56
_cell_length_a 9.230989
_cell_length_b 18.901068
_cell_length_c 18.710341
_cell_angle_alpha 90.000000
_cell_angle_beta 90.000000
_cell_angle_gamma 90.000000
_cell_volume 3264.497052
_symmetry_space_group_name_H-M "P M M M"
_symmetry_group_IT_number 47
_symmetry_cell_setting 'orthorhombic'
loop_
_space_group_symop_operation_xyz
x,y,z
-x,-y,z
x,-y,-z
-x,y,-z
-x,-y,-z
x,y,-z
-x,y,z
x,-y,z
loop_
_atom_site_type_symbol
_atom_site_label
_atom_site_fract_x
_atom_site_fract_y
_atom_site_fract_z
Si Si1 0.167793 0.847764 0.580355
Si Si2 0.161371 0.574588 0.084652
Si Si3 0.332638 0.920840 0.699909
Si Si4 0.828133 0.421166 0.579920
Si Si5 0.831016 0.289915 0.330125
Si Si6 0.827546 0.727784 0.082217
Si Si7 0.671041 0.787672 0.790743
O O1 0.228872 0.850304 0.500000
O O2 0.247929 0.906746 0.626845
O O3 0.196175 0.769617 0.610447
O O4 0.000000 0.866974 0.582227
O O5 0.240930 0.500000 0.108438
O O6 0.232533 0.649462 0.107040
O O7 0.000000 0.572329 0.117029
O O8 0.149909 0.576645 0.000000
O O9 0.500000 0.911430 0.681304
O O10 0.287016 0.865236 0.761068
O O11 0.297392 0.000000 0.727438
O O12 0.767094 0.405993 0.500000
O O13 0.780447 0.500000 0.604793
O O14 0.771036 0.363416 0.636632
O O15 0.000000 0.415478 0.576657
O O16 0.738562 0.273000 0.259665
O O17 0.000000 0.294456 0.308659
O O18 0.743751 0.783935 0.131149
O O19 0.000000 0.732704 0.093395
O O20 0.787631 0.743818 0.000000
O O21 0.500000 0.776350 0.796397
#
# Coordination Sequence:
#
# PCOD8197347 Si02
#       7
#     8   8   8   8   8   8   8
#     4   9  17  28  44  69  97 121 147 182 225 271
#     4   7  10  19  38  64  90 113 139 172 207 243
#     4   9  19  35  51  66  87 118 154 187 219 260
#     4   8  13  22  40  67  93 117 154 204 244 266
#     4   9  16  28  46  65  89 122 156 189 227 270
#     4   9  17  30  50  74  96 118 147 185 226 267
#     4  10  20  33  49  68  90 117 149 185 225 270
#
# _framework density 17.154252
#
# number of rings (size 3 to 8) (size 9 to 14) (size 15 to 20)
#    0.000    3.286    0.000    2.571    0.000    3.429 
#    0.000    2.143    0.000    6.857    0.000    6.000 
#    0.000    0.000    0.000    0.000    0.000    0.000 
#
# Total GULP energy -693824.015690 kJ/mol
# GULP energy per Si atom -12389.714566 kJ/mol
# Density = 1.711521 g / cm^3
# Si number density = 17.154252 Si / 1000 Ang^3
#
#
#
# Elastic Constant Matrix: (Units=GPa)
#
#
# Indices 1 2 3 4 5 6 
#
# 1 40.0995 33.5386 41.4938 0.0000 0.0000 0.0000
# 2 33.5386 111.9694 60.1483 0.0000 0.0000 0.0000
# 3 41.4938 60.1483 107.4811 0.0000 0.0000 0.0000
# 4 0.0000 0.0000 0.0000 19.0766 0.0000 0.0000
# 5 0.0000 0.0000 0.0000 0.0000 15.3061 0.0000
# 6 0.0000 0.0000 0.0000 0.0000 0.0000 16.5306
#
#
#
# Elastic Compliance Matrix: (Units=1/GPa)
#
#
# Indices 1 2 3 4 5 6 
#
# 1 0.044012 -0.005799 -0.013746 0.000000 0.000000 0.000000
# 2 -0.005799 0.013534 -0.005335 0.000000 0.000000 0.000000
# 3 -0.013746 -0.005335 0.017596 0.000000 0.000000 0.000000
# 4 0.000000 0.000000 0.000000 0.052420 0.000000 0.000000
# 5 0.000000 0.000000 0.000000 0.000000 0.065333 0.000000
# 6 0.000000 0.000000 0.000000 0.000000 0.000000 0.060494
#
#
# Mechanical properties :
#
#
# Convention : Reuss Voigt Hill
#
# Bulk Modulus (GPa) = 39.39763 58.87905 49.13834
# Shear Modulus (GPa) = 16.04569 18.47396 17.25982
#
# Velocity S-wave (km/s) = 3.06171 3.28522 3.17543
# Velocity P-wave (km/s) = 5.95947 6.98485 6.49243
#
# Compressibility (1/GPa) = 0.02538224
#
# Stress axis : x y z
#
# Youngs Moduli (GPa) = 22.72109 73.88831 56.83022
#
# Poissons Ratio (x) = 0.42848 0.78118
# Poissons Ratio (y) = 0.13176 0.30319
# Poissons Ratio (z) = 0.31232 0.39420
#
# Static dielectric constant tensor:
#      x y z
#    x 2.864950 0.000000 0.000000 
#    y 0.000000 3.496410 0.000000 
#    z 0.000000 0.000000 3.082200 
# 
# 
# High freq. dielectric constant tensor:
#      x y z
#    x 1.622740 0.000000 0.000000 
#    y 0.000000 1.664930 0.000000 
#    z 0.000000 0.000000 1.644870 
# 
# From -- ./inp_files/9814.got.cif
#   From: 2010.03.12/outbox.cif.g09.slc.cpg/sg47_5_cif.got.tgz:9814.got - 2010.04.14 03:12:58.
