data_PCOD8197124
_publ_section_title
;
Structure prediction by ZEFSAII (Michael W. Deem and Ramdas Pophale) SiO2 
 PCOD8197124
Probable space group: P M M M
;
_chemical_formula_sum "Si O2"
_cell_formula_units_Z 44
_cell_length_a 18.964682
_cell_length_b 9.286228
_cell_length_c 13.972634
_cell_angle_alpha 90.000000
_cell_angle_beta 90.000000
_cell_angle_gamma 90.000000
_cell_volume 2460.725618
_symmetry_space_group_name_H-M "P M M M"
_symmetry_group_IT_number 47
_symmetry_cell_setting 'orthorhombic'
loop_
_space_group_symop_operation_xyz
x,y,z
-x,-y,z
x,-y,-z
-x,y,-z
-x,-y,-z
x,y,-z
-x,y,z
x,-y,z
loop_
_atom_site_type_symbol
_atom_site_label
_atom_site_fract_x
_atom_site_fract_y
_atom_site_fract_z
Si Si1 0.580780 0.331626 0.500000
Si Si2 0.920100 0.668454 0.722337
Si Si3 0.809344 0.167001 0.608339
Si Si4 0.417847 0.670454 0.292903
Si Si5 0.818549 0.665661 0.108790
Si Si6 0.292595 0.168954 0.779281
O O1 0.591623 0.500000 0.500000
O O2 0.500000 0.290556 0.500000
O O3 0.609748 0.273785 0.398332
O O4 0.917298 0.500000 0.701055
O O5 0.879461 0.746308 0.636239
O O6 0.884727 0.706053 0.824371
O O7 0.000000 0.725425 0.725646
O O8 0.786804 0.207684 0.500000
O O9 0.745683 0.207934 0.679202
O O10 0.828204 0.000000 0.617556
O O11 0.500000 0.708450 0.275909
O O12 0.406284 0.500000 0.281296
O O13 0.369691 0.757021 0.218185
O O14 0.796054 0.500000 0.124469
O O15 0.752033 0.765648 0.133574
O O16 0.841742 0.695067 0.000000
O O17 0.301484 0.000000 0.795177
#
# Coordination Sequence:
#
# PCOD8197124 Si02
#       6
#     4   8   8   8   8   8
#     4   7  12  24  41  63  91 123 158 193 230 273
#     4   9  18  32  50  75 103 125 154 200 247 290
#     4   9  19  34  48  65  95 136 175 203 232 278
#     4   9  17  30  48  70  98 131 166 203 243 289
#     4   9  18  34  55  75  96 125 160 197 243 301
#     4  10  20  32  49  72  99 130 164 206 248 288
#
# _framework density 17.880904999999998
#
# number of rings (size 3 to 8) (size 9 to 14) (size 15 to 20)
#    0.000    3.000    0.000    1.636    1.273    2.909 
#    0.000    3.636    0.000    2.182    0.000    8.909 
#    0.000    0.000    0.000    0.000    0.000    0.000 
#
# Total GULP energy -545334.719720 kJ/mol
# GULP energy per Si atom -12393.970903 kJ/mol
# Density = 1.784021 g / cm^3
# Si number density = 17.880905 Si / 1000 Ang^3
#
#
#
# Elastic Constant Matrix: (Units=GPa)
#
#
# Indices 1 2 3 4 5 6 
#
# 1 90.4982 36.6947 12.2412 0.0000 0.0000 0.0000
# 2 36.6947 49.7122 16.5868 0.0000 0.0000 0.0000
# 3 12.2412 16.5868 60.2015 0.0000 0.0000 0.0000
# 4 0.0000 0.0000 0.0000 22.1834 0.0000 0.0000
# 5 0.0000 0.0000 0.0000 0.0000 18.2781 0.0000
# 6 0.0000 0.0000 0.0000 0.0000 0.0000 23.4202
#
#
#
# Elastic Compliance Matrix: (Units=1/GPa)
#
#
# Indices 1 2 3 4 5 6 
#
# 1 0.015770 -0.011641 0.000001 0.000000 0.000000 0.000000
# 2 -0.011641 0.030745 -0.006104 0.000000 0.000000 0.000000
# 3 0.000001 -0.006104 0.018293 0.000000 0.000000 0.000000
# 4 0.000000 0.000000 0.000000 0.045079 0.000000 0.000000
# 5 0.000000 0.000000 0.000000 0.000000 0.054710 0.000000
# 6 0.000000 0.000000 0.000000 0.000000 0.000000 0.042698
#
#
# Mechanical properties :
#
#
# Convention : Reuss Voigt Hill
#
# Bulk Modulus (GPa) = 34.10702 36.82857 35.46779
# Shear Modulus (GPa) = 19.79765 21.76896 20.78331
#
# Velocity S-wave (km/s) = 3.33106 3.49297 3.41298
# Velocity P-wave (km/s) = 5.82328 6.07529 5.95062
#
# Compressibility (1/GPa) = 0.02931948
#
# Stress axis : x y z
#
# Youngs Moduli (GPa) = 63.41231 32.52582 54.66721
#
# Poissons Ratio (x) = 0.37862 -0.00003
# Poissons Ratio (y) = 0.73816 0.33368
# Poissons Ratio (z) = -0.00004 0.19853
#
# Static dielectric constant tensor:
#      x y z
#    x 3.219600 0.000000 0.000000 
#    y 0.000000 3.136730 0.000000 
#    z 0.000000 0.000000 3.280170 
# 
# 
# High freq. dielectric constant tensor:
#      x y z
#    x 1.685630 0.000000 0.000000 
#    y 0.000000 1.679770 0.000000 
#    z 0.000000 0.000000 1.676660 
# 
# From -- ./inp_files/8942.got.cif
#   From: 2010.03.12/outbox.cif.g09.slc.cpg/sg47_5_cif.got.tgz:8942.got - 2010.04.14 03:12:58.
