data_PCOD8197258
_publ_section_title
;
Structure prediction by ZEFSAII (Michael W. Deem and Ramdas Pophale) SiO2 
 PCOD8197258
Probable space group: P M M M
;
_chemical_formula_sum "Si O2"
_cell_formula_units_Z 64
_cell_length_a 25.823755
_cell_length_b 9.346866
_cell_length_c 14.335557
_cell_angle_alpha 90.000000
_cell_angle_beta 90.000000
_cell_angle_gamma 90.000000
_cell_volume 3460.190275
_symmetry_space_group_name_H-M "P M M M"
_symmetry_group_IT_number 47
_symmetry_cell_setting 'orthorhombic'
loop_
_space_group_symop_operation_xyz
x,y,z
-x,-y,z
x,-y,-z
-x,y,-z
-x,-y,-z
x,y,-z
-x,y,z
x,-y,z
loop_
_atom_site_type_symbol
_atom_site_label
_atom_site_fract_x
_atom_site_fract_y
_atom_site_fract_z
Si Si1 0.144765 0.836322 0.790691
Si Si2 0.058899 0.332359 0.894395
Si Si3 0.293078 0.659921 0.610443
Si Si4 0.392517 0.832738 0.608690
Si Si5 0.349583 0.332530 0.893287
Si Si6 0.194632 0.837059 0.395339
Si Si7 0.248984 0.833792 0.108675
Si Si8 0.442137 0.664133 0.760114
O O1 0.095923 0.746342 0.822691
O O2 0.147963 0.819336 0.678173
O O3 0.197808 0.780227 0.837562
O O4 0.135548 0.000000 0.820202
O O5 0.066898 0.500000 0.882134
O O6 0.000000 0.289325 0.870957
O O7 0.072492 0.286175 0.000000
O O8 0.294885 0.652546 0.500000
O O9 0.295792 0.500000 0.653581
O O10 0.341142 0.753043 0.646099
O O11 0.240478 0.736420 0.641330
O O12 0.403422 0.803875 0.500000
O O13 0.438818 0.764138 0.668406
O O14 0.386884 0.000000 0.629123
O O15 0.339048 0.500000 0.884204
O O16 0.298793 0.252579 0.853104
O O17 0.400839 0.285305 0.837455
O O18 0.359106 0.286536 0.000000
O O19 0.175742 0.795548 0.500000
O O20 0.215468 0.000000 0.394318
O O21 0.259325 0.000000 0.128417
O O22 0.240023 0.801641 0.000000
O O23 0.500000 0.681522 0.801700
O O24 0.431846 0.500000 0.730591
#
# Coordination Sequence:
#
# PCOD8197258 Si02
#       8
#     8   8   8   8   8   8   8   8
#     4  10  20  32  51  80 109 142 183 222 261 307
#     4   9  19  36  56  79 109 143 178 220 271 322
#     4   9  17  30  49  73 100 131 170 213 256 305
#     4  10  21  36  54  75 101 134 170 209 255 311
#     4   9  19  36  56  77 101 132 170 209 254 312
#     4   9  18  32  48  71 108 148 183 219 260 305
#     4   9  18  32  49  73 106 137 165 206 260 312
#     4  10  22  38  55  77 102 129 167 216 265 312
#
# _framework density 18.496092000000001
#
# number of rings (size 3 to 8) (size 9 to 14) (size 15 to 20)
#    0.000    2.625    0.000    1.500    1.750    5.500 
#    0.000    4.375    0.000    0.375    0.000    5.250 
#    0.000    0.000    0.000    0.000    0.000    0.000 
#
# Total GULP energy -793586.277650 kJ/mol
# GULP energy per Si atom -12399.785588 kJ/mol
# Density = 1.845399 g / cm^3
# Si number density = 18.496092 Si / 1000 Ang^3
#
#
#
# Elastic Constant Matrix: (Units=GPa)
#
#
# Indices 1 2 3 4 5 6 
#
# 1 123.5420 52.7350 59.9563 0.0000 0.0000 0.0000
# 2 52.7350 73.1018 35.4637 0.0000 0.0000 0.0000
# 3 59.9563 35.4637 77.7132 0.0000 0.0000 0.0000
# 4 0.0000 0.0000 0.0000 23.3256 0.0000 0.0000
# 5 0.0000 0.0000 0.0000 0.0000 29.1613 0.0000
# 6 0.0000 0.0000 0.0000 0.0000 0.0000 25.8469
#
#
#
# Elastic Compliance Matrix: (Units=1/GPa)
#
#
# Indices 1 2 3 4 5 6 
#
# 1 0.015158 -0.006757 -0.008611 0.000000 0.000000 0.000000
# 2 -0.006757 0.020582 -0.004179 0.000000 0.000000 0.000000
# 3 -0.008611 -0.004179 0.021418 0.000000 0.000000 0.000000
# 4 0.000000 0.000000 0.000000 0.042871 0.000000 0.000000
# 5 0.000000 0.000000 0.000000 0.000000 0.034292 0.000000
# 6 0.000000 0.000000 0.000000 0.000000 0.000000 0.038689
#
#
# Mechanical properties :
#
#
# Convention : Reuss Voigt Hill
#
# Bulk Modulus (GPa) = 55.36010 63.40747 59.38378
# Shear Modulus (GPa) = 22.92268 24.08023 23.50145
#
# Velocity S-wave (km/s) = 3.52422 3.61211 3.56844
# Velocity P-wave (km/s) = 6.82319 7.19392 7.01100
#
# Compressibility (1/GPa) = 0.01806355
#
# Stress axis : x y z
#
# Youngs Moduli (GPa) = 65.97310 48.58727 46.68981
#
# Poissons Ratio (x) = 0.32832 0.40203
# Poissons Ratio (y) = 0.44581 0.19511
# Poissons Ratio (z) = 0.56807 0.20304
#
# Static dielectric constant tensor:
#      x y z
#    x 3.244030 0.000000 0.000000 
#    y 0.000000 3.423390 0.000000 
#    z 0.000000 0.000000 3.418920 
# 
# 
# High freq. dielectric constant tensor:
#      x y z
#    x 1.698550 0.000000 0.000000 
#    y 0.000000 1.714940 0.000000 
#    z 0.000000 0.000000 1.717340 
# 
# From -- ./inp_files/7839.got.cif
#   From: 2010.03.12/outbox.cif.g09.slc.cpg/sg47_4_cif.got.tgz:7839.got - 2010.04.14 03:12:58.
