data_PCOD8197828
_publ_section_title
;
Structure prediction by ZEFSAII (Michael W. Deem and Ramdas Pophale) SiO2 
 PCOD8197828
Probable space group: P M M M
;
_chemical_formula_sum "Si O2"
_cell_formula_units_Z 44
_cell_length_a 9.095050
_cell_length_b 8.971875
_cell_length_c 28.522231
_cell_angle_alpha 90.000000
_cell_angle_beta 90.000000
_cell_angle_gamma 90.000000
_cell_volume 2327.404116
_symmetry_space_group_name_H-M "P M M M"
_symmetry_group_IT_number 47
_symmetry_cell_setting 'orthorhombic'
loop_
_space_group_symop_operation_xyz
x,y,z
-x,-y,z
x,-y,-z
-x,y,-z
-x,-y,-z
x,y,-z
-x,y,z
x,-y,z
loop_
_atom_site_type_symbol
_atom_site_label
_atom_site_fract_x
_atom_site_fract_y
_atom_site_fract_z
Si Si1 0.664744 0.823184 0.948526
Si Si2 0.824465 0.168154 0.500000
Si Si3 0.169687 0.175327 0.686258
Si Si4 0.327408 0.327457 0.771792
Si Si5 0.828608 0.825613 0.142574
Si Si6 0.825096 0.667717 0.592044
O O1 0.500000 0.765318 0.937362
O O2 0.775602 0.767382 0.908372
O O3 0.664780 0.000000 0.949559
O O4 0.715191 0.763746 0.000000
O O5 0.762115 0.250392 0.453936
O O6 0.000000 0.170458 0.500000
O O7 0.764915 0.000000 0.500000
O O8 0.265924 0.235066 0.728513
O O9 0.229673 0.247522 0.638356
O O10 0.000000 0.218306 0.695330
O O11 0.189851 0.000000 0.681998
O O12 0.500000 0.300623 0.775159
O O13 0.287507 0.500000 0.764736
O O14 0.255664 0.269505 0.819179
O O15 0.000000 0.793711 0.147291
O O16 0.792668 0.000000 0.149818
O O17 0.763354 0.500000 0.593044
O O18 0.000000 0.668547 0.590192
#
# Coordination Sequence:
#
# PCOD8197828 Si02
#       6
#     8   4   8   8   8   8
#     4   8  14  26  46  73 105 140 175 210 250 297
#     4   9  15  23  37  61  96 135 174 215 256 299
#     4  10  20  34  53  77 103 131 166 209 258 310
#     4  11  24  39  54  73  98 131 171 212 256 308
#     4  10  20  33  52  79 107 135 169 210 257 307
#     4   9  16  26  42  66  98 135 171 208 254 306
#
# _framework density 18.905180999999999
#
# number of rings (size 3 to 8) (size 9 to 14) (size 15 to 20)
#    0.000    2.455    0.000    3.545    0.000    9.455 
#    0.000    1.818    0.000    0.545    0.000    4.455 
#    0.000    5.091    0.000    0.000    0.000    0.000 
#
# Total GULP energy -545575.611152 kJ/mol
# GULP energy per Si atom -12399.445708 kJ/mol
# Density = 1.886215 g / cm^3
# Si number density = 18.905181 Si / 1000 Ang^3
#
#
#
# Elastic Constant Matrix: (Units=GPa)
#
#
# Indices 1 2 3 4 5 6 
#
# 1 53.1427 33.9455 40.5873 0.0000 0.0000 0.0000
# 2 33.9455 89.9181 54.4139 0.0000 0.0000 0.0000
# 3 40.5873 54.4139 158.0423 0.0000 0.0000 0.0000
# 4 0.0000 0.0000 0.0000 0.0083 0.0000 0.0000
# 5 0.0000 0.0000 0.0000 0.0000 -25.8509 0.0000
# 6 0.0000 0.0000 0.0000 0.0000 0.0000 19.2804
#
#
#
# Elastic Compliance Matrix: (Units=1/GPa)
#
#
# Indices 1 2 3 4 5 6 
#
# 1 0.026942 -0.007559 -0.004317 0.000000 0.000000 0.000000
# 2 -0.007559 0.016169 -0.003626 0.000000 0.000000 0.000000
# 3 -0.004317 -0.003626 0.008684 0.000000 0.000000 0.000000
# 4 0.000000 0.000000 0.000000120.560676 0.000000 0.000000
# 5 0.000000 0.000000 0.000000 0.000000 -0.038683 0.000000
# 6 0.000000 0.000000 0.000000 0.000000 0.000000 0.051866
#
#
# Mechanical properties :
#
#
# Convention : Reuss Voigt Hill
#
# Bulk Modulus (GPa) = 48.09294 62.11071 55.10182
# Shear Modulus (GPa) = 0.04144 10.16466 5.10305
#
# Velocity S-wave (km/s) = 0.14821 2.32128 1.64473
# Velocity P-wave (km/s) = 5.05208 6.33321 5.72857
#
# Compressibility (1/GPa) = 0.02079307
#
# Stress axis : x y z
#
# Youngs Moduli (GPa) = 37.11620 61.84683 115.15017
#
# Poissons Ratio (x) = 0.46750 0.49706
# Poissons Ratio (y) = 0.28056 0.41750
# Poissons Ratio (z) = 0.16022 0.22424
#
# Static dielectric constant tensor:
#      x y z
#    x 3.190810 0.000000 0.000000 
#    y 0.000000 3.407570 0.000000 
#    z 0.000000 0.000000 3.866770 
# 
# 
# High freq. dielectric constant tensor:
#      x y z
#    x 1.699510 0.000000 0.000000 
#    y 0.000000 1.722780 0.000000 
#    z 0.000000 0.000000 1.756500 
# 
# From -- ./inp_files/33932.got.cif
#   From: 2010.03.12/outbox.cif.g09.slc.cpg/sg47_17_cif.got.tgz:33932.got - 2010.04.14 03:12:58.
