data_PCOD8197829
_publ_section_title
;
Structure prediction by ZEFSAII (Michael W. Deem and Ramdas Pophale) SiO2 
 PCOD8197829
Probable space group: P M M M
;
_chemical_formula_sum "Si O2"
_cell_formula_units_Z 36
_cell_length_a 8.905381
_cell_length_b 23.285146
_cell_length_c 9.006629
_cell_angle_alpha 90.000000
_cell_angle_beta 90.000000
_cell_angle_gamma 90.000000
_cell_volume 1867.642481
_symmetry_space_group_name_H-M "P M M M"
_symmetry_group_IT_number 47
_symmetry_cell_setting 'orthorhombic'
loop_
_space_group_symop_operation_xyz
x,y,z
-x,-y,z
x,-y,-z
-x,y,-z
-x,-y,-z
x,y,-z
-x,y,z
x,-y,z
loop_
_atom_site_type_symbol
_atom_site_label
_atom_site_fract_x
_atom_site_fract_y
_atom_site_fract_z
Si Si1 0.175958 0.220369 0.329139
Si Si2 0.678506 0.674357 0.831946
Si Si3 0.678445 0.000000 0.667311
Si Si4 0.673859 0.114416 0.825669
Si Si5 0.678410 0.563180 0.666599
O O1 0.219385 0.209566 0.500000
O O2 0.255438 0.277748 0.274747
O O3 0.230509 0.167263 0.232176
O O4 0.000000 0.227919 0.307136
O O5 0.500000 0.677796 0.822848
O O6 0.738889 0.612341 0.776793
O O7 0.734569 0.683944 0.000000
O O8 0.737679 0.943349 0.750289
O O9 0.500000 0.000000 0.670429
O O10 0.741247 0.000000 0.500000
O O11 0.500000 0.124804 0.784638
O O12 0.696388 0.108071 0.000000
O O13 0.737681 0.575464 0.500000
O O14 0.500000 0.563975 0.666046
O O15 0.734601 0.500000 0.719850
#
# Coordination Sequence:
#
# PCOD8197829 Si02
#       5
#     8   8   4   8   8
#     4  11  24  39  54  74 102 138 179 220 262 308
#     4  10  20  33  52  79 107 136 172 213 259 311
#     4   9  17  31  54  83 112 141 172 208 252 301
#     4  10  20  35  57  84 111 138 171 212 258 308
#     4   8  14  26  46  73 104 136 169 207 253 304
#
# _framework density 19.275637
#
# number of rings (size 3 to 8) (size 9 to 14) (size 15 to 20)
#    0.000    2.333    0.000    3.667    0.000    8.889 
#    0.000    2.778    0.000    4.000    0.000    4.667 
#    0.000    0.000    0.000    0.000    0.000    0.000 
#
# Total GULP energy -446397.806729 kJ/mol
# GULP energy per Si atom -12399.939076 kJ/mol
# Density = 1.923176 g / cm^3
# Si number density = 19.275637 Si / 1000 Ang^3
#
#
#
# Elastic Constant Matrix: (Units=GPa)
#
#
# Indices 1 2 3 4 5 6 
#
# 1 21.9270 22.7021 23.4341 0.0000 0.0000 0.0000
# 2 22.7021 144.4802 45.8491 0.0000 0.0000 0.0000
# 3 23.4341 45.8491 94.1325 0.0000 0.0000 0.0000
# 4 0.0000 0.0000 0.0000 35.6866 0.0000 0.0000
# 5 0.0000 0.0000 0.0000 0.0000 20.5080 0.0000
# 6 0.0000 0.0000 0.0000 0.0000 0.0000 -11.4687
#
#
#
# Elastic Compliance Matrix: (Units=1/GPa)
#
#
# Indices 1 2 3 4 5 6 
#
# 1 0.066445 -0.006140 -0.013551 0.000000 0.000000 0.000000
# 2 -0.006140 0.008754 -0.002735 0.000000 0.000000 0.000000
# 3 -0.013551 -0.002735 0.015329 0.000000 0.000000 0.000000
# 4 0.000000 0.000000 0.000000 0.028022 0.000000 0.000000
# 5 0.000000 0.000000 0.000000 0.000000 0.048761 0.000000
# 6 0.000000 0.000000 0.000000 0.000000 0.000000 -0.087194
#
#
# Mechanical properties :
#
#
# Convention : Reuss Voigt Hill
#
# Bulk Modulus (GPa) = 21.89332 49.39002 35.64167
# Shear Modulus (GPa) = 35.66435 20.18215 27.92325
#
# Velocity S-wave (km/s) = 4.30610 3.23929 3.81022
# Velocity P-wave (km/s) = 6.00882 6.29836 6.15529
#
# Compressibility (1/GPa) = 0.04567604
#
# Stress axis : x y z
#
# Youngs Moduli (GPa) = 15.04994 114.23084 65.23582
#
# Poissons Ratio (x) = 0.70142 0.88399
# Poissons Ratio (y) = 0.09241 0.17844
# Poissons Ratio (z) = 0.20394 0.31245
#
# Static dielectric constant tensor:
#      x y z
#    x 3.099170 0.000000 0.000000 
#    y 0.000000 3.902920 0.000000 
#    z 0.000000 0.000000 3.719320 
# 
# 
# High freq. dielectric constant tensor:
#      x y z
#    x 1.702230 0.000000 0.000000 
#    y 0.000000 1.770440 0.000000 
#    z 0.000000 0.000000 1.761180 
# 
# From -- ./inp_files/1425.got.cif
#   From: 2010.03.12/outbox.cif.g09.slc.cpg/sg47_1_cif.got.tgz:1425.got - 2010.04.14 03:12:58.
