data_PCOD8197946
_publ_section_title
;
Structure prediction by ZEFSAII (Michael W. Deem and Ramdas Pophale) SiO2 
 PCOD8197946
Probable space group: P M M M
;
_chemical_formula_sum "Si O2"
_cell_formula_units_Z 40
_cell_length_a 19.047674
_cell_length_b 12.669079
_cell_length_c 8.940613
_cell_angle_alpha 90.000000
_cell_angle_beta 90.000000
_cell_angle_gamma 90.000000
_cell_volume 2157.517318
_symmetry_space_group_name_H-M "P M M M"
_symmetry_group_IT_number 47
_symmetry_cell_setting 'orthorhombic'
loop_
_space_group_symop_operation_xyz
x,y,z
-x,-y,z
x,-y,-z
-x,y,-z
-x,-y,-z
x,y,-z
-x,y,z
x,-y,z
loop_
_atom_site_type_symbol
_atom_site_label
_atom_site_fract_x
_atom_site_fract_y
_atom_site_fract_z
Si Si1 0.421506 0.000000 0.321531
Si Si2 0.917414 0.287968 0.826871
Si Si3 0.578465 0.382926 0.321981
Si Si4 0.330772 0.193182 0.321885
Si Si5 0.179338 0.877541 0.322929
Si Si6 0.916497 0.500000 0.669282
O O1 0.381019 0.101751 0.259810
O O2 0.500000 0.000000 0.256323
O O3 0.422913 0.000000 0.500000
O O4 0.883836 0.184391 0.754277
O O5 0.887934 0.394841 0.750340
O O6 0.000000 0.277725 0.800928
O O7 0.897735 0.293818 0.000000
O O8 0.579476 0.381029 0.500000
O O9 0.500000 0.350325 0.267970
O O10 0.597035 0.500000 0.262921
O O11 0.637406 0.302965 0.259221
O O12 0.330651 0.190736 0.500000
O O13 0.251892 0.174192 0.264158
O O14 0.171941 0.866358 0.500000
O O15 0.176306 0.000000 0.275010
O O16 0.888046 0.500000 0.500000
O O17 0.000000 0.500000 0.674782
#
# Coordination Sequence:
#
# PCOD8197946 Si02
#       6
#     4   8   8   8   8   4
#     4   9  14  20  36  60  84 119 166 210 257 311
#     4  10  21  37  57  80 106 136 172 215 260 310
#     4   8  13  21  34  54  84 123 162 201 251 311
#     4   9  15  25  38  57  90 128 165 209 260 314
#     4  10  20  34  50  70 103 142 178 223 274 318
#     4   9  17  33  59  87 111 133 162 203 252 307
#
# _framework density 18.539828
#
# number of rings (size 3 to 8) (size 9 to 14) (size 15 to 20)
#    0.000    2.800    1.000    2.100    0.000    5.600 
#    1.800    2.000    0.000    0.000    0.000    0.000 
#    0.000    4.000    0.000    2.200    0.000    2.000 
#
# Total GULP energy -495856.323230 kJ/mol
# GULP energy per Si atom -12396.408081 kJ/mol
# Density = 1.849763 g / cm^3
# Si number density = 18.539828 Si / 1000 Ang^3
#
#
#
# Elastic Constant Matrix: (Units=GPa)
#
#
# Indices 1 2 3 4 5 6 
#
# 1 68.4704 64.6224 30.9125 0.0000 0.0000 0.0000
# 2 64.6224 165.8331 44.4972 0.0000 0.0000 0.0000
# 3 30.9125 44.4972 47.1313 0.0000 0.0000 0.0000
# 4 0.0000 0.0000 0.0000 15.0025 0.0000 0.0000
# 5 0.0000 0.0000 0.0000 0.0000 5.7164 0.0000
# 6 0.0000 0.0000 0.0000 0.0000 0.0000 35.3057
#
#
#
# Elastic Compliance Matrix: (Units=1/GPa)
#
#
# Indices 1 2 3 4 5 6 
#
# 1 0.026279 -0.007521 -0.010135 0.000000 0.000000 0.000000
# 2 -0.007521 0.010229 -0.004724 0.000000 0.000000 0.000000
# 3 -0.010135 -0.004724 0.032325 0.000000 0.000000 0.000000
# 4 0.000000 0.000000 0.000000 0.066656 0.000000 0.000000
# 5 0.000000 0.000000 0.000000 0.000000 0.174934 0.000000
# 6 0.000000 0.000000 0.000000 0.000000 0.000000 0.028324
#
#
# Mechanical properties :
#
#
# Convention : Reuss Voigt Hill
#
# Bulk Modulus (GPa) = 41.54227 62.38879 51.96553
# Shear Modulus (GPa) = 12.77041 20.63178 16.70109
#
# Velocity S-wave (km/s) = 2.62737 3.33954 3.00463
# Velocity P-wave (km/s) = 5.62670 6.97096 6.33459
#
# Compressibility (1/GPa) = 0.02407187
#
# Stress axis : x y z
#
# Youngs Moduli (GPa) = 38.05346 97.76604 30.93602
#
# Poissons Ratio (x) = 0.73529 0.31354
# Poissons Ratio (y) = 0.28620 0.14614
# Poissons Ratio (z) = 0.38568 0.46185
#
# Static dielectric constant tensor:
#      x y z
#    x 3.407390 0.000000 0.000000 
#    y 0.000000 3.706450 0.000000 
#    z 0.000000 0.000000 2.867760 
# 
# 
# High freq. dielectric constant tensor:
#      x y z
#    x 1.711890 0.000000 0.000000 
#    y 0.000000 1.735190 0.000000 
#    z 0.000000 0.000000 1.660170 
# 
# From -- ./inp_files/10710.got.cif
#   From: 2010.03.12/outbox.cif.g09.slc.cpg/sg47_6_cif.got.tgz:10710.got - 2010.04.14 03:12:58.
