data_PCOD8197283
_publ_section_title
;
Structure prediction by ZEFSAII (Michael W. Deem and Ramdas Pophale) SiO2 
 PCOD8197283
Probable space group: P M M M
;
_chemical_formula_sum "Si O2"
_cell_formula_units_Z 52
_cell_length_a 26.962912
_cell_length_b 8.932829
_cell_length_c 14.095985
_cell_angle_alpha 90.000000
_cell_angle_beta 90.000000
_cell_angle_gamma 90.000000
_cell_volume 3395.089626
_symmetry_space_group_name_H-M "P M M M"
_symmetry_group_IT_number 47
_symmetry_cell_setting 'orthorhombic'
loop_
_space_group_symop_operation_xyz
x,y,z
-x,-y,z
x,-y,-z
-x,y,-z
-x,-y,-z
x,y,-z
-x,y,z
x,-y,z
loop_
_atom_site_type_symbol
_atom_site_label
_atom_site_fract_x
_atom_site_fract_y
_atom_site_fract_z
Si Si1 0.620044 0.326720 0.262821
Si Si2 0.296565 0.177345 0.390740
Si Si3 0.098202 0.168785 0.386783
Si Si4 0.442346 0.836222 0.603096
Si Si5 0.000000 0.331299 0.386936
Si Si6 0.443754 0.175266 0.109715
Si Si7 0.804567 0.667507 0.612248
O O1 0.633600 0.500000 0.251553
O O2 0.665197 0.240428 0.313091
O O3 0.573564 0.301449 0.332118
O O4 0.601091 0.261538 0.162519
O O5 0.308169 0.228698 0.500000
O O6 0.243189 0.237164 0.357906
O O7 0.296409 0.000000 0.384410
O O8 0.098619 0.170184 0.500000
O O9 0.048808 0.248609 0.347719
O O10 0.146252 0.254426 0.345753
O O11 0.099052 0.000000 0.348059
O O12 0.416591 0.821477 0.500000
O O13 0.500000 0.827549 0.589693
O O14 0.427228 0.000000 0.646410
O O15 0.000000 0.500000 0.348060
O O16 0.000000 0.329630 0.500000
O O17 0.500000 0.219639 0.144027
O O18 0.436228 0.000000 0.126722
O O19 0.438262 0.217284 0.000000
O O20 0.809300 0.660835 0.500000
O O21 0.800077 0.500000 0.654208
#
# Coordination Sequence:
#
# PCOD8197283 Si02
#       7
#     8   8   8   8   4   8   8
#     4  12  23  31  44  67  91 111 131 162 204 244
#     4  10  20  33  47  61  80 110 146 178 206 241
#     4   9  15  22  32  46  65  91 124 161 203 251
#     4   9  18  32  47  61  80 109 141 167 192 229
#     4   9  15  21  29  43  63  87 119 163 212 251
#     4   9  19  37  58  74  87 107 135 164 196 240
#     4   9  16  26  39  54  73  97 127 166 210 250
#
# _framework density 15.316236999999999
#
# number of rings (size 3 to 8) (size 9 to 14) (size 15 to 20)
#    0.000    2.385    0.000    4.846    0.000   10.462 
#    0.000    1.538    0.000    0.000    0.000    0.000 
#    0.000    0.000    0.000    0.000    0.000    0.000 
#
# Total GULP energy -644354.889449 kJ/mol
# GULP energy per Si atom -12391.440182 kJ/mol
# Density = 1.528138 g / cm^3
# Si number density = 15.316237 Si / 1000 Ang^3
#
#
#
# Elastic Constant Matrix: (Units=GPa)
#
#
# Indices 1 2 3 4 5 6 
#
# 1 114.7273 57.9598 34.1125 0.0000 0.0000 0.0000
# 2 57.9598 107.0258 23.8116 0.0000 0.0000 0.0000
# 3 34.1125 23.8116 44.3056 0.0000 0.0000 0.0000
# 4 0.0000 0.0000 0.0000 -2.6781 0.0000 0.0000
# 5 0.0000 0.0000 0.0000 0.0000 -137.4061 0.0000
# 6 0.0000 0.0000 0.0000 0.0000 0.0000 28.2802
#
#
#
# Elastic Compliance Matrix: (Units=1/GPa)
#
#
# Indices 1 2 3 4 5 6 
#
# 1 0.013928 -0.005857 -0.007576 0.000000 0.000000 0.000000
# 2 -0.005857 0.013076 -0.002518 0.000000 0.000000 0.000000
# 3 -0.007576 -0.002518 0.029756 0.000000 0.000000 0.000000
# 4 0.000000 0.000000 0.000000 -0.373403 0.000000 0.000000
# 5 0.000000 0.000000 0.000000 0.000000 -0.007278 0.000000
# 6 0.000000 0.000000 0.000000 0.000000 0.000000 0.035360
#
#
# Mechanical properties :
#
#
# Convention : Reuss Voigt Hill
#
# Bulk Modulus (GPa) = 40.22723 55.31405 47.77064
# Shear Modulus (GPa) = -20.13105 -12.34913 -16.24009
#
# Velocity S-wave (km/s) = -3.62934 -2.84258 -3.25979
# Velocity P-wave (km/s) = 2.95950 5.04176 4.13388
#
# Compressibility (1/GPa) = 0.02485878
#
# Stress axis : x y z
#
# Youngs Moduli (GPa) = 71.79859 76.47817 33.60614
#
# Poissons Ratio (x) = 0.44794 0.25459
# Poissons Ratio (y) = 0.42053 0.08461
# Poissons Ratio (z) = 0.54392 0.19255
#
# Static dielectric constant tensor:
#      x y z
#    x 3.067480 0.000000 0.000000 
#    y 0.000000 3.106190 0.000000 
#    z 0.000000 0.000000 2.574720 
# 
# 
# High freq. dielectric constant tensor:
#      x y z
#    x 1.590360 0.000000 0.000000 
#    y 0.000000 1.596910 0.000000 
#    z 0.000000 0.000000 1.518360 
# 
# From -- ./inp_files/25706.got.cif
#   From: 2010.03.12/outbox.cif.g09.slc.cpg/sg47_13_cif.got.tgz:25706.got - 2010.04.14 03:12:58.
