data_PCOD8197316
_publ_section_title
;
Structure prediction by ZEFSAII (Michael W. Deem and Ramdas Pophale) SiO2 
 PCOD8197316
Probable space group: P M M M
;
_chemical_formula_sum "Si O2"
_cell_formula_units_Z 52
_cell_length_a 25.010638
_cell_length_b 14.328780
_cell_length_c 7.923499
_cell_angle_alpha 90.000000
_cell_angle_beta 90.000000
_cell_angle_gamma 90.000000
_cell_volume 2839.559626
_symmetry_space_group_name_H-M "P M M M"
_symmetry_group_IT_number 47
_symmetry_cell_setting 'orthorhombic'
loop_
_space_group_symop_operation_xyz
x,y,z
-x,-y,z
x,-y,-z
-x,y,-z
-x,-y,-z
x,y,-z
-x,y,z
x,-y,z
loop_
_atom_site_type_symbol
_atom_site_label
_atom_site_fract_x
_atom_site_fract_y
_atom_site_fract_z
Si Si1 0.159872 0.105605 0.201163
Si Si2 0.368990 0.107898 0.310721
Si Si3 0.228628 0.603858 0.698972
Si Si4 0.440347 0.110684 0.000000
Si Si5 0.266353 0.793682 0.806596
Si Si6 0.058195 0.212217 0.193943
Si Si7 0.106664 0.604125 0.302117
O O1 0.211448 0.162364 0.266308
O O2 0.106129 0.152600 0.279215
O O3 0.163491 0.000000 0.267675
O O4 0.158076 0.109823 0.000000
O O5 0.393129 0.120160 0.500000
O O6 0.410583 0.145408 0.170173
O O7 0.314769 0.166591 0.302220
O O8 0.355196 0.000000 0.274453
O O9 0.233075 0.617360 0.500000
O O10 0.248788 0.500000 0.750151
O O11 0.264669 0.681444 0.790621
O O12 0.167627 0.616607 0.758926
O O13 0.500000 0.153687 0.000000
O O14 0.443750 0.000000 0.000000
O O15 0.275420 0.823065 0.000000
O O16 0.069618 0.322356 0.206899
O O17 0.000000 0.190311 0.277763
O O18 0.054966 0.183837 0.000000
O O19 0.102439 0.622244 0.500000
O O20 0.086663 0.500000 0.256936
#
# Coordination Sequence:
#
# PCOD8197316 Si02
#       7
#     8   8   8   4   8   8   8
#     4   9  18  31  47  68  92 123 161 201 253 311
#     4  10  20  33  51  78 112 150 189 226 267 312
#     4   9  18  32  49  70  97 128 163 205 255 315
#     4   9  18  34  54  78 113 153 192 232 266 301
#     4  11  19  30  51  75 104 136 168 214 264 313
#     4  10  20  33  48  67  89 114 153 205 254 304
#     4   9  18  33  51  68  89 119 153 192 244 309
#
# _framework density 18.312698999999999
#
# number of rings (size 3 to 8) (size 9 to 14) (size 15 to 20)
#    0.000    2.385    2.308    1.846    0.000    2.462 
#    0.000    6.154    0.000    1.385    0.000    1.077 
#    0.000    1.231    0.000    3.231    0.000    0.154 
#
# Total GULP energy -644661.657126 kJ/mol
# GULP energy per Si atom -12397.339560 kJ/mol
# Density = 1.827102 g / cm^3
# Si number density = 18.312699 Si / 1000 Ang^3
#
#
#
# Elastic Constant Matrix: (Units=GPa)
#
#
# Indices 1 2 3 4 5 6 
#
# 1 118.9565 46.2904 35.3192 0.0000 0.0000 0.0000
# 2 46.2904 100.1931 15.3414 0.0000 0.0000 0.0000
# 3 35.3192 15.3414 58.6315 0.0000 0.0000 0.0000
# 4 0.0000 0.0000 0.0000 18.7284 0.0000 0.0000
# 5 0.0000 0.0000 0.0000 0.0000 14.5952 0.0000
# 6 0.0000 0.0000 0.0000 0.0000 0.0000 16.2871
#
#
#
# Elastic Compliance Matrix: (Units=1/GPa)
#
#
# Indices 1 2 3 4 5 6 
#
# 1 0.011989 -0.004618 -0.006014 0.000000 0.000000 0.000000
# 2 -0.004618 0.012176 -0.000404 0.000000 0.000000 0.000000
# 3 -0.006014 -0.000404 0.020784 0.000000 0.000000 0.000000
# 4 0.000000 0.000000 0.000000 0.053395 0.000000 0.000000
# 5 0.000000 0.000000 0.000000 0.000000 0.068516 0.000000
# 6 0.000000 0.000000 0.000000 0.000000 0.000000 0.061398
#
#
# Mechanical properties :
#
#
# Convention : Reuss Voigt Hill
#
# Bulk Modulus (GPa) = 43.71132 52.40924 48.06028
# Shear Modulus (GPa) = 19.38312 21.97747 20.68029
#
# Velocity S-wave (km/s) = 3.25692 3.46804 3.36413
# Velocity P-wave (km/s) = 6.16965 6.68712 6.43359
#
# Compressibility (1/GPa) = 0.02287737
#
# Stress axis : x y z
#
# Youngs Moduli (GPa) = 83.40894 82.12679 48.11388
#
# Poissons Ratio (x) = 0.37929 0.28934
# Poissons Ratio (y) = 0.38521 0.01944
# Poissons Ratio (z) = 0.50160 0.03318
#
# Static dielectric constant tensor:
#      x y z
#    x 3.306130 0.000000 0.000000 
#    y 0.000000 3.349090 0.000000 
#    z 0.000000 0.000000 3.167150 
# 
# 
# High freq. dielectric constant tensor:
#      x y z
#    x 1.679610 0.000000 0.000000 
#    y 0.000000 1.697890 0.000000 
#    z 0.000000 0.000000 1.698380 
# 
# From -- ./inp_files/6976.got.cif
#   From: 2010.03.12/outbox.cif.g09.slc.cpg/sg47_4_cif.got.tgz:6976.got - 2010.04.14 03:12:58.
