data_PCOD8197613
_publ_section_title
;
Structure prediction by ZEFSAII (Michael W. Deem and Ramdas Pophale) SiO2 
 PCOD8197613
Probable space group: P M M M
;
_chemical_formula_sum "Si O2"
_cell_formula_units_Z 52
_cell_length_a 23.552123
_cell_length_b 13.326775
_cell_length_c 8.974836
_cell_angle_alpha 90.000000
_cell_angle_beta 90.000000
_cell_angle_gamma 90.000000
_cell_volume 2816.966275
_symmetry_space_group_name_H-M "P M M M"
_symmetry_group_IT_number 47
_symmetry_cell_setting 'orthorhombic'
loop_
_space_group_symop_operation_xyz
x,y,z
-x,-y,z
x,-y,-z
-x,y,-z
-x,-y,-z
x,y,-z
-x,y,z
x,-y,z
loop_
_atom_site_type_symbol
_atom_site_label
_atom_site_fract_x
_atom_site_fract_y
_atom_site_fract_z
Si Si1 0.326484 0.885226 0.825771
Si Si2 0.437605 0.118800 0.668520
Si Si3 0.500000 0.619964 0.669223
Si Si4 0.172205 0.619212 0.832530
Si Si5 0.062455 0.619259 0.332601
Si Si6 0.611953 0.381310 0.167991
Si Si7 0.720747 0.293515 0.675967
O O1 0.388978 0.841686 0.781152
O O2 0.279989 0.820587 0.737420
O O3 0.319754 0.000000 0.774500
O O4 0.317413 0.872498 0.000000
O O5 0.419446 0.146316 0.500000
O O6 0.500000 0.166223 0.705226
O O7 0.442715 0.000000 0.686702
O O8 0.500000 0.500000 0.676766
O O9 0.500000 0.658377 0.500000
O O10 0.556715 0.663942 0.747839
O O11 0.172901 0.500000 0.829044
O O12 0.111355 0.661203 0.776139
O O13 0.220227 0.657782 0.722181
O O14 0.182678 0.658975 0.000000
O O15 0.073641 0.658917 0.500000
O O16 0.064071 0.500000 0.332892
O O17 0.000000 0.655707 0.277372
O O18 0.605763 0.500000 0.163067
O O19 0.669328 0.355672 0.253840
O O20 0.614920 0.337912 0.000000
O O21 0.715128 0.295298 0.500000
#
# Coordination Sequence:
#
# PCOD8197613 Si02
#       7
#     8   8   4   8   8   8   8
#     4  10  21  37  55  73  95 123 157 201 253 307
#     4   8  14  27  48  71  93 116 143 180 231 292
#     4   9  17  31  51  73  96 123 158 199 245 297
#     4  10  20  33  50  74 106 141 175 212 251 293
#     4   8  14  26  45  70 102 140 178 211 243 283
#     4  10  20  35  54  74  98 127 160 202 250 297
#     4  12  24  36  52  73  98 130 168 209 251 301
#
# _framework density 18.459575000000001
#
# number of rings (size 3 to 8) (size 9 to 14) (size 15 to 20)
#    0.000    2.385    0.000    4.385    0.000    6.154 
#    1.385    3.077    0.000    0.000    0.000    0.000 
#    0.000    0.615    0.000    6.462    0.000    3.077 
#
# Total GULP energy -644760.389578 kJ/mol
# GULP energy per Si atom -12399.238261 kJ/mol
# Density = 1.841756 g / cm^3
# Si number density = 18.459575 Si / 1000 Ang^3
#
#
#
# Elastic Constant Matrix: (Units=GPa)
#
#
# Indices 1 2 3 4 5 6 
#
# 1 128.9227 20.2905 61.5389 0.0000 0.0000 0.0000
# 2 20.2905 17.3222 17.3778 0.0000 0.0000 0.0000
# 3 61.5389 17.3778 136.2261 0.0000 0.0000 0.0000
# 4 0.0000 0.0000 0.0000 20.7076 0.0000 0.0000
# 5 0.0000 0.0000 0.0000 0.0000 31.7875 0.0000
# 6 0.0000 0.0000 0.0000 0.0000 0.0000 13.6075
#
#
#
# Elastic Compliance Matrix: (Units=1/GPa)
#
#
# Indices 1 2 3 4 5 6 
#
# 1 0.011004 -0.009062 -0.003815 0.000000 0.000000 0.000000
# 2 -0.009062 0.073665 -0.005303 0.000000 0.000000 0.000000
# 3 -0.003815 -0.005303 0.009741 0.000000 0.000000 0.000000
# 4 0.000000 0.000000 0.000000 0.048292 0.000000 0.000000
# 5 0.000000 0.000000 0.000000 0.000000 0.031459 0.000000
# 6 0.000000 0.000000 0.000000 0.000000 0.000000 0.073489
#
#
# Mechanical properties :
#
#
# Convention : Reuss Voigt Hill
#
# Bulk Modulus (GPa) = 17.22701 53.43170 35.32935
# Shear Modulus (GPa) = 16.48212 25.43809 20.96011
#
# Velocity S-wave (km/s) = 2.99135 3.71623 3.37331
# Velocity P-wave (km/s) = 4.61340 6.88636 5.86111
#
# Compressibility (1/GPa) = 0.05804839
#
# Stress axis : x y z
#
# Youngs Moduli (GPa) = 90.87773 13.57499 102.66336
#
# Poissons Ratio (x) = 0.12302 0.39164
# Poissons Ratio (y) = 0.82356 0.54445
# Poissons Ratio (z) = 0.34668 0.07199
#
# Static dielectric constant tensor:
#      x y z
#    x 3.574300 0.000000 0.000000 
#    y 0.000000 3.258830 0.000000 
#    z 0.000000 0.000000 3.556680 
# 
# 
# High freq. dielectric constant tensor:
#      x y z
#    x 1.704350 0.000000 0.000000 
#    y 0.000000 1.692610 0.000000 
#    z 0.000000 0.000000 1.725400 
# 
# From -- ./inp_files/12514.got.cif
#   From: 2010.03.12/outbox.cif.g09.slc.cpg/sg47_7_cif.got.tgz:12514.got - 2010.04.14 03:12:58.
