data_PCOD8197203
_publ_section_title
;
Structure prediction by ZEFSAII (Michael W. Deem and Ramdas Pophale) SiO2 
 PCOD8197203
Probable space group: P M M M
;
_chemical_formula_sum "Si O2"
_cell_formula_units_Z 44
_cell_length_a 8.961292
_cell_length_b 9.206626
_cell_length_c 28.344770
_cell_angle_alpha 90.000000
_cell_angle_beta 90.000000
_cell_angle_gamma 90.000000
_cell_volume 2338.536040
_symmetry_space_group_name_H-M "P M M M"
_symmetry_group_IT_number 47
_symmetry_cell_setting 'orthorhombic'
loop_
_space_group_symop_operation_xyz
x,y,z
-x,-y,z
x,-y,-z
-x,y,-z
-x,-y,-z
x,y,-z
-x,y,z
x,-y,z
loop_
_atom_site_type_symbol
_atom_site_label
_atom_site_fract_x
_atom_site_fract_y
_atom_site_fract_z
Si Si1 0.322808 0.663231 0.551750
Si Si2 0.177323 0.664185 0.000000
Si Si3 0.174243 0.169538 0.907690
Si Si4 0.327336 0.170368 0.357704
Si Si5 0.174402 0.666620 0.273624
Si Si6 0.324223 0.334040 0.176457
O O1 0.263960 0.714414 0.500000
O O2 0.500000 0.667040 0.551179
O O3 0.266327 0.500000 0.562082
O O4 0.262830 0.767724 0.592921
O O5 0.235838 0.747550 0.953796
O O6 0.240401 0.500000 0.000000
O O7 0.000000 0.664547 0.000000
O O8 0.263287 0.227394 0.863103
O O9 0.000000 0.200868 0.899815
O O10 0.206137 0.000000 0.914552
O O11 0.500000 0.214198 0.350529
O O12 0.231376 0.234078 0.315577
O O13 0.304991 0.000000 0.358802
O O14 0.213105 0.500000 0.285573
O O15 0.255210 0.716176 0.225906
O O16 0.000000 0.691043 0.266445
O O17 0.500000 0.316856 0.179967
O O18 0.277604 0.500000 0.164756
#
# Coordination Sequence:
#
# PCOD8197203 Si02
#       6
#     8   4   8   8   8   8
#     4   8  14  26  46  72 101 134 172 212 253 299
#     4   9  17  31  54  81 108 141 180 220 258 299
#     4  10  20  34  54  81 112 144 177 214 258 308
#     4  10  20  32  49  76 108 140 172 209 257 310
#     4  10  21  37  57  78 100 132 175 219 262 310
#     4  10  21  37  57  80 105 135 173 217 264 312
#
# _framework density 18.815187999999999
#
# number of rings (size 3 to 8) (size 9 to 14) (size 15 to 20)
#    0.000    2.455    0.000    3.000    0.000    6.545 
#    0.000    2.273    0.000    3.273    0.000    3.818 
#    0.000    0.000    0.000    0.000    0.000    0.000 
#
# Total GULP energy -545639.008975 kJ/mol
# GULP energy per Si atom -12400.886568 kJ/mol
# Density = 1.877236 g / cm^3
# Si number density = 18.815188 Si / 1000 Ang^3
#
#
#
# Elastic Constant Matrix: (Units=GPa)
#
#
# Indices 1 2 3 4 5 6 
#
# 1 50.3446 37.5207 45.7962 0.0000 0.0000 0.0000
# 2 37.5207 98.3159 77.4070 0.0000 0.0000 0.0000
# 3 45.7962 77.4070 165.8251 0.0000 0.0000 0.0000
# 4 0.0000 0.0000 0.0000 11.6448 0.0000 0.0000
# 5 0.0000 0.0000 0.0000 0.0000 27.5179 0.0000
# 6 0.0000 0.0000 0.0000 0.0000 0.0000 23.9536
#
#
#
# Elastic Compliance Matrix: (Units=1/GPa)
#
#
# Indices 1 2 3 4 5 6 
#
# 1 0.029845 -0.007748 -0.004626 0.000000 0.000000 0.000000
# 2 -0.007748 0.018093 -0.006306 0.000000 0.000000 0.000000
# 3 -0.004626 -0.006306 0.010252 0.000000 0.000000 0.000000
# 4 0.000000 0.000000 0.000000 0.085875 0.000000 0.000000
# 5 0.000000 0.000000 0.000000 0.000000 0.036340 0.000000
# 6 0.000000 0.000000 0.000000 0.000000 0.000000 0.041747
#
#
# Mechanical properties :
#
#
# Convention : Reuss Voigt Hill
#
# Bulk Modulus (GPa) = 48.00655 70.65928 59.33291
# Shear Modulus (GPa) = 18.76482 22.87403 20.81943
#
# Velocity S-wave (km/s) = 3.16147 3.49050 3.33005
# Velocity P-wave (km/s) = 6.23672 7.34035 6.81093
#
# Compressibility (1/GPa) = 0.02083049
#
# Stress axis : x y z
#
# Youngs Moduli (GPa) = 33.50606 55.26934 97.54582
#
# Poissons Ratio (x) = 0.42823 0.45121
# Poissons Ratio (y) = 0.25961 0.61513
# Poissons Ratio (z) = 0.15499 0.34853
#
# Static dielectric constant tensor:
#      x y z
#    x 3.147460 0.000000 0.000000 
#    y 0.000000 3.483910 0.000000 
#    z 0.000000 0.000000 3.772760 
# 
# 
# High freq. dielectric constant tensor:
#      x y z
#    x 1.698750 0.000000 0.000000 
#    y 0.000000 1.730940 0.000000 
#    z 0.000000 0.000000 1.748240 
# 
# From -- ./inp_files/2175.got.cif
#   From: 2010.03.12/outbox.cif.g09.slc.cpg/sg47_2_cif.got.tgz:2175.got - 2010.04.14 03:12:58.
