data_PCOD8197528
_publ_section_title
;
Structure prediction by ZEFSAII (Michael W. Deem and Ramdas Pophale) SiO2 
 PCOD8197528
Probable space group: P M M M
;
_chemical_formula_sum "Si O2"
_cell_formula_units_Z 52
_cell_length_a 28.007463
_cell_length_b 9.336605
_cell_length_c 11.610563
_cell_angle_alpha 90.000000
_cell_angle_beta 90.000000
_cell_angle_gamma 90.000000
_cell_volume 3036.099749
_symmetry_space_group_name_H-M "P M M M"
_symmetry_group_IT_number 47
_symmetry_cell_setting 'orthorhombic'
loop_
_space_group_symop_operation_xyz
x,y,z
-x,-y,z
x,-y,-z
-x,y,-z
-x,-y,-z
x,y,-z
-x,y,z
x,-y,z
loop_
_atom_site_type_symbol
_atom_site_label
_atom_site_fract_x
_atom_site_fract_y
_atom_site_fract_z
Si Si1 0.725626 0.834142 0.500000
Si Si2 0.500000 0.330784 0.126050
Si Si3 0.055508 0.164943 0.868231
Si Si4 0.782873 0.837004 0.135342
Si Si5 0.134619 0.331409 0.744436
Si Si6 0.603394 0.332858 0.135192
Si Si7 0.175889 0.666127 0.500000
Si Si8 0.686758 0.166869 0.743769
O O1 0.774848 0.749896 0.500000
O O2 0.693501 0.795193 0.390144
O O3 0.740261 0.000000 0.500000
O O4 0.500000 0.500000 0.110793
O O5 0.550514 0.287321 0.184874
O O6 0.500000 0.259822 0.000000
O O7 0.084044 0.264477 0.779955
O O8 0.000000 0.190521 0.843895
O O9 0.069410 0.000000 0.846585
O O10 0.068067 0.206043 0.000000
O O11 0.824901 0.734683 0.175184
O O12 0.733773 0.780340 0.189540
O O13 0.793464 0.000000 0.175622
O O14 0.777736 0.827365 0.000000
O O15 0.132981 0.500000 0.765755
O O16 0.144647 0.293180 0.611457
O O17 0.612711 0.500000 0.153998
O O18 0.641082 0.248163 0.210032
O O19 0.607821 0.294172 0.000000
O O20 0.189514 0.500000 0.500000
O O21 0.678218 0.000000 0.765167
#
# Coordination Sequence:
#
# PCOD8197528 Si02
#       8
#     4   4   8   8   8   8   4   8
#     4  10  20  36  56  72  92 132 181 215 245 294
#     4   7  12  26  47  70  97 130 168 205 244 297
#     4   9  19  37  59  81 106 136 169 206 250 301
#     4  10  20  33  50  73 102 134 165 202 251 304
#     4  11  22  35  53  77 104 135 170 210 253 297
#     4   9  17  30  50  75 102 133 167 205 252 305
#     4  10  22  38  53  73 103 136 172 214 254 292
#     4  10  20  33  50  73 100 130 168 212 255 299
#
# _framework density 17.127237000000001
#
# number of rings (size 3 to 8) (size 9 to 14) (size 15 to 20)
#    0.000    2.385    1.538    2.769    0.000    5.538 
#    0.000    1.538    0.000    4.154    0.000    3.231 
#    0.000    0.000    0.000    0.000    0.000    0.000 
#
# Total GULP energy -644664.876288 kJ/mol
# GULP energy per Si atom -12397.401467 kJ/mol
# Density = 1.708825 g / cm^3
# Si number density = 17.127237 Si / 1000 Ang^3
#
#
#
# Elastic Constant Matrix: (Units=GPa)
#
#
# Indices 1 2 3 4 5 6 
#
# 1 127.5144 52.1136 55.9749 0.0000 0.0000 0.0000
# 2 52.1136 57.1917 38.2917 0.0000 0.0000 0.0000
# 3 55.9749 38.2917 91.2853 0.0000 0.0000 0.0000
# 4 0.0000 0.0000 0.0000 25.7332 0.0000 0.0000
# 5 0.0000 0.0000 0.0000 0.0000 9.9667 0.0000
# 6 0.0000 0.0000 0.0000 0.0000 0.0000 35.5858
#
#
#
# Elastic Compliance Matrix: (Units=1/GPa)
#
#
# Indices 1 2 3 4 5 6 
#
# 1 0.013651 -0.009503 -0.004384 0.000000 0.000000 0.000000
# 2 -0.009503 0.030930 -0.007147 0.000000 0.000000 0.000000
# 3 -0.004384 -0.007147 0.016641 0.000000 0.000000 0.000000
# 4 0.000000 0.000000 0.000000 0.038860 0.000000 0.000000
# 5 0.000000 0.000000 0.000000 0.000000 0.100334 0.000000
# 6 0.000000 0.000000 0.000000 0.000000 0.000000 0.028101
#
#
# Mechanical properties :
#
#
# Convention : Reuss Voigt Hill
#
# Bulk Modulus (GPa) = 52.21190 63.19463 57.70326
# Shear Modulus (GPa) = 18.05256 22.89787 20.47521
#
# Velocity S-wave (km/s) = 3.25010 3.66037 3.46132
# Velocity P-wave (km/s) = 6.68095 7.40551 7.05254
#
# Compressibility (1/GPa) = 0.01915272
#
# Stress axis : x y z
#
# Youngs Moduli (GPa) = 73.25702 32.33156 60.09345
#
# Poissons Ratio (x) = 0.30726 0.26345
# Poissons Ratio (y) = 0.69618 0.42948
# Poissons Ratio (z) = 0.32116 0.23107
#
# Static dielectric constant tensor:
#      x y z
#    x 3.319220 0.000000 0.000000 
#    y 0.000000 3.134460 0.000000 
#    z 0.000000 0.000000 5.408770 
# 
# 
# High freq. dielectric constant tensor:
#      x y z
#    x 1.667810 0.000000 0.000000 
#    y 0.000000 1.651910 0.000000 
#    z 0.000000 0.000000 1.651410 
# 
# From -- ./inp_files/19917.got.cif
#   From: 2010.03.12/outbox.cif.g09.slc.cpg/sg47_10_cif.got.tgz:19917.got - 2010.04.14 03:12:58.
