data_PCOD8197957
_publ_section_title
;
Structure prediction by ZEFSAII (Michael W. Deem and Ramdas Pophale) SiO2 
 PCOD8197957
Probable space group: P M M M
;
_chemical_formula_sum "Si O2"
_cell_formula_units_Z 52
_cell_length_a 8.948303
_cell_length_b 13.761494
_cell_length_c 23.672842
_cell_angle_alpha 90.000000
_cell_angle_beta 90.000000
_cell_angle_gamma 90.000000
_cell_volume 2915.121537
_symmetry_space_group_name_H-M "P M M M"
_symmetry_group_IT_number 47
_symmetry_cell_setting 'orthorhombic'
loop_
_space_group_symop_operation_xyz
x,y,z
-x,-y,z
x,-y,-z
-x,y,-z
-x,-y,-z
x,y,-z
-x,y,z
x,-y,z
loop_
_atom_site_type_symbol
_atom_site_label
_atom_site_fract_x
_atom_site_fract_y
_atom_site_fract_z
Si Si1 0.676308 0.391392 0.563515
Si Si2 0.324172 0.219821 0.834355
Si Si3 0.829390 0.610150 0.772171
Si Si4 0.331493 0.500000 0.066880
Si Si5 0.825539 0.110287 0.261772
Si Si6 0.176463 0.302328 0.935182
Si Si7 0.169307 0.717705 0.339706
O O1 0.727497 0.364739 0.500000
O O2 0.500000 0.390384 0.567972
O O3 0.735366 0.500000 0.578859
O O4 0.737521 0.309399 0.605238
O O5 0.500000 0.208226 0.840946
O O6 0.283780 0.322244 0.805852
O O7 0.261218 0.131967 0.796424
O O8 0.248425 0.217505 0.896599
O O9 0.781169 0.500000 0.783698
O O10 0.815969 0.631187 0.705568
O O11 0.000000 0.630391 0.791998
O O12 0.500000 0.500000 0.091811
O O13 0.242341 0.595174 0.087114
O O14 0.337539 0.500000 0.000000
O O15 0.769939 0.181707 0.311797
O O16 0.000000 0.130159 0.250049
O O17 0.793918 0.000000 0.280399
O O18 0.000000 0.305254 0.927477
O O19 0.221301 0.281736 0.000000
O O20 0.000000 0.732356 0.359535
#
# Coordination Sequence:
#
# PCOD8197957 Si02
#       7
#     8   8   8   4   8   8   8
#     4   9  18  31  46  68 103 146 182 207 238 286
#     4  11  22  33  49  75 104 129 160 206 255 302
#     4   9  18  32  48  67  97 135 170 205 246 297
#     4   9  17  29  45  67  95 127 165 207 246 283
#     4   9  19  38  60  77  97 127 163 205 256 314
#     4  10  20  34  51  69  94 133 175 207 242 296
#     4   9  17  30  50  76  99 123 164 212 255 294
#
# _framework density 17.838021000000001
#
# number of rings (size 3 to 8) (size 9 to 14) (size 15 to 20)
#    0.000    2.538    0.000    3.923    1.077    6.154 
#    0.000    0.769    0.000    0.923    0.000    6.462 
#    0.000    0.000    0.000    0.000    0.000    0.000 
#
# Total GULP energy -644711.574884 kJ/mol
# GULP energy per Si atom -12398.299517 kJ/mol
# Density = 1.779742 g / cm^3
# Si number density = 17.838021 Si / 1000 Ang^3
#
#
#
# Elastic Constant Matrix: (Units=GPa)
#
#
# Indices 1 2 3 4 5 6 
#
# 1 79.0348 25.2563 39.4322 0.0000 0.0000 0.0000
# 2 25.2563 88.1730 41.5026 0.0000 0.0000 0.0000
# 3 39.4322 41.5026 104.1424 0.0000 0.0000 0.0000
# 4 0.0000 0.0000 0.0000 21.8403 0.0000 0.0000
# 5 0.0000 0.0000 0.0000 0.0000 29.6468 0.0000
# 6 0.0000 0.0000 0.0000 0.0000 0.0000 19.6310
#
#
#
# Elastic Compliance Matrix: (Units=1/GPa)
#
#
# Indices 1 2 3 4 5 6 
#
# 1 0.015915 -0.002120 -0.005181 0.000000 0.000000 0.000000
# 2 -0.002120 0.014242 -0.004873 0.000000 0.000000 0.000000
# 3 -0.005181 -0.004873 0.013506 0.000000 0.000000 0.000000
# 4 0.000000 0.000000 0.000000 0.045787 0.000000 0.000000
# 5 0.000000 0.000000 0.000000 0.000000 0.033730 0.000000
# 6 0.000000 0.000000 0.000000 0.000000 0.000000 0.050940
#
#
# Mechanical properties :
#
#
# Convention : Reuss Voigt Hill
#
# Bulk Modulus (GPa) = 51.77344 53.74804 52.76074
# Shear Modulus (GPa) = 24.40121 25.23422 24.81772
#
# Velocity S-wave (km/s) = 3.70257 3.76524 3.73404
# Velocity P-wave (km/s) = 6.88229 7.00709 6.94497
#
# Compressibility (1/GPa) = 0.01931492
#
# Stress axis : x y z
#
# Youngs Moduli (GPa) = 62.83330 70.21315 74.04080
#
# Poissons Ratio (x) = 0.14885 0.38362
# Poissons Ratio (y) = 0.13320 0.36081
# Poissons Ratio (z) = 0.32555 0.34216
#
# Static dielectric constant tensor:
#      x y z
#    x 3.203230 0.000000 0.000000 
#    y 0.000000 3.162390 0.000000 
#    z 0.000000 0.000000 3.343680 
# 
# 
# High freq. dielectric constant tensor:
#      x y z
#    x 1.686420 0.000000 0.000000 
#    y 0.000000 1.661260 0.000000 
#    z 0.000000 0.000000 1.688190 
# 
# From -- ./inp_files/31960.got.cif
#   From: 2010.03.12/outbox.cif.g09.slc.cpg/sg47_16_cif.got.tgz:31960.got - 2010.04.14 03:12:58.
