data_PCOD8197452
_publ_section_title
;
Structure prediction by ZEFSAII (Michael W. Deem and Ramdas Pophale) SiO2 
 PCOD8197452
Probable space group: P M M M
;
_chemical_formula_sum "Si O2"
_cell_formula_units_Z 64
_cell_length_a 14.001730
_cell_length_b 9.454028
_cell_length_c 28.267351
_cell_angle_alpha 90.000000
_cell_angle_beta 90.000000
_cell_angle_gamma 90.000000
_cell_volume 3741.826916
_symmetry_space_group_name_H-M "P M M M"
_symmetry_group_IT_number 47
_symmetry_cell_setting 'orthorhombic'
loop_
_space_group_symop_operation_xyz
x,y,z
-x,-y,z
x,-y,-z
-x,y,-z
-x,-y,-z
x,y,-z
-x,y,z
x,-y,z
loop_
_atom_site_type_symbol
_atom_site_label
_atom_site_fract_x
_atom_site_fract_y
_atom_site_fract_z
Si Si1 0.789706 0.166518 0.367096
Si Si2 0.389996 0.163158 0.127952
Si Si3 0.394528 0.832207 0.686154
Si Si4 0.282757 0.663891 0.944362
Si Si5 0.108814 0.336379 0.554456
Si Si6 0.105611 0.167899 0.727449
Si Si7 0.894743 0.842092 0.056144
Si Si8 0.289717 0.831716 0.778227
O O1 0.680584 0.210632 0.354701
O O2 0.818902 0.245073 0.414650
O O3 0.858309 0.215791 0.324232
O O4 0.798601 0.000000 0.375710
O O5 0.500000 0.180437 0.142157
O O6 0.369111 0.256920 0.081736
O O7 0.325975 0.223703 0.171128
O O8 0.365894 0.000000 0.116521
O O9 0.500000 0.770159 0.674755
O O10 0.358547 0.772805 0.736791
O O11 0.398609 0.000000 0.689554
O O12 0.282632 0.500000 0.930976
O O13 0.183384 0.731040 0.925549
O O14 0.296993 0.687772 0.000000
O O15 0.134617 0.308529 0.500000
O O16 0.122196 0.500000 0.567266
O O17 0.000000 0.289473 0.564604
O O18 0.180814 0.219712 0.767636
O O19 0.000000 0.232202 0.737235
O O20 0.101316 0.000000 0.728493
O O21 0.000000 0.797897 0.075030
O O22 0.869066 0.000000 0.074599
O O23 0.896146 0.842462 0.000000
O O24 0.294812 0.000000 0.777916
#
# Coordination Sequence:
#
# PCOD8197452 Si02
#       8
#     8   8   8   8   8   8   8   8
#     4   9  16  25  42  69  94 117 150 191 229 264
#     4  10  20  33  50  70  90 115 152 198 239 272
#     4   8  13  23  42  68  95 119 145 183 230 274
#     4  10  21  35  50  69  94 124 155 186 224 275
#     4   9  18  31  44  59  84 120 157 190 228 275
#     4   8  13  22  39  66  98 123 142 174 221 269
#     4   8  14  27  49  74  96 117 143 178 217 254
#     4   8  14  25  42  65  91 119 150 181 219 272
#
# _framework density 17.103943999999998
#
# number of rings (size 3 to 8) (size 9 to 14) (size 15 to 20)
#    0.000    3.250    0.000    3.375    0.000    4.000 
#    0.000    3.750    0.000    6.000    0.000    2.625 
#    0.000    0.000    0.000    0.000    0.000    0.000 
#
# Total GULP energy -793183.068191 kJ/mol
# GULP energy per Si atom -12393.485440 kJ/mol
# Density = 1.706501 g / cm^3
# Si number density = 17.103944 Si / 1000 Ang^3
#
#
#
# Elastic Constant Matrix: (Units=GPa)
#
#
# Indices 1 2 3 4 5 6 
#
# 1 136.5561 36.4783 56.3942 0.0000 0.0000 0.0000
# 2 36.4783 51.5575 40.0484 0.0000 0.0000 0.0000
# 3 56.3942 40.0484 80.1496 0.0000 0.0000 0.0000
# 4 0.0000 0.0000 0.0000 8.6206 0.0000 0.0000
# 5 0.0000 0.0000 0.0000 0.0000 27.2064 0.0000
# 6 0.0000 0.0000 0.0000 0.0000 0.0000 13.5035
#
#
#
# Elastic Compliance Matrix: (Units=1/GPa)
#
#
# Indices 1 2 3 4 5 6 
#
# 1 0.010560 -0.002778 -0.006042 0.000000 0.000000 0.000000
# 2 -0.002778 0.032430 -0.014249 0.000000 0.000000 0.000000
# 3 -0.006042 -0.014249 0.023848 0.000000 0.000000 0.000000
# 4 0.000000 0.000000 0.000000 0.116001 0.000000 0.000000
# 5 0.000000 0.000000 0.000000 0.000000 0.036756 0.000000
# 6 0.000000 0.000000 0.000000 0.000000 0.000000 0.074055
#
#
# Mechanical properties :
#
#
# Convention : Reuss Voigt Hill
#
# Bulk Modulus (GPa) = 48.31248 59.34497 53.82873
# Shear Modulus (GPa) = 14.42208 18.88892 16.65550
#
# Velocity S-wave (km/s) = 2.90694 3.32680 3.12393
# Velocity P-wave (km/s) = 6.29085 7.03767 6.67471
#
# Compressibility (1/GPa) = 0.02069859
#
# Stress axis : x y z
#
# Youngs Moduli (GPa) = 94.69288 30.83544 41.93218
#
# Poissons Ratio (x) = 0.08567 0.25336
# Poissons Ratio (y) = 0.26310 0.59751
# Poissons Ratio (z) = 0.57215 0.43939
#
# Static dielectric constant tensor:
#      x y z
#    x 3.585210 0.000000 0.000000 
#    y 0.000000 2.784150 0.000000 
#    z 0.000000 0.000000 3.038400 
# 
# 
# High freq. dielectric constant tensor:
#      x y z
#    x 1.668110 0.000000 0.000000 
#    y 0.000000 1.613700 0.000000 
#    z 0.000000 0.000000 1.641540 
# 
# From -- ./inp_files/25844.got.cif
#   From: 2010.03.12/outbox.cif.g09.slc.cpg/sg47_13_cif.got.tgz:25844.got - 2010.04.14 03:12:58.
