data_PCOD8197264
_publ_section_title
;
Structure prediction by ZEFSAII (Michael W. Deem and Ramdas Pophale) SiO2 
 PCOD8197264
Probable space group: P M M M
;
_chemical_formula_sum "Si O2"
_cell_formula_units_Z 64
_cell_length_a 24.927099
_cell_length_b 9.536298
_cell_length_c 14.739216
_cell_angle_alpha 90.000000
_cell_angle_beta 90.000000
_cell_angle_gamma 90.000000
_cell_volume 3503.692115
_symmetry_space_group_name_H-M "P M M M"
_symmetry_group_IT_number 47
_symmetry_cell_setting 'orthorhombic'
loop_
_space_group_symop_operation_xyz
x,y,z
-x,-y,z
x,-y,-z
-x,y,-z
-x,-y,-z
x,y,-z
-x,y,z
x,-y,z
loop_
_atom_site_type_symbol
_atom_site_label
_atom_site_fract_x
_atom_site_fract_y
_atom_site_fract_z
Si Si1 0.562194 0.841278 0.894681
Si Si2 0.771071 0.746345 0.599226
Si Si3 0.111940 0.159014 0.402236
Si Si4 0.361655 0.668119 0.770113
Si Si5 0.062615 0.164321 0.780810
Si Si6 0.142796 0.664156 0.106021
Si Si7 0.243861 0.346331 0.790189
Si Si8 0.654563 0.843379 0.601608
O O1 0.500000 0.818996 0.872196
O O2 0.594820 0.726283 0.839146
O O3 0.579424 0.000000 0.868609
O O4 0.573490 0.814134 0.000000
O O5 0.771472 0.669542 0.500000
O O6 0.824091 0.839464 0.611195
O O7 0.769254 0.638167 0.682756
O O8 0.719228 0.845413 0.606530
O O9 0.096757 0.231003 0.500000
O O10 0.081711 0.228489 0.316585
O O11 0.092357 0.000000 0.406466
O O12 0.364981 0.500000 0.763972
O O13 0.302763 0.721784 0.803999
O O14 0.372161 0.732099 0.670198
O O15 0.091427 0.249735 0.860448
O O16 0.000000 0.190428 0.792216
O O17 0.077403 0.000000 0.788964
O O18 0.134776 0.500000 0.129904
O O19 0.195796 0.730097 0.155529
O O20 0.149641 0.688827 0.000000
O O21 0.246890 0.500000 0.833012
O O22 0.635656 0.802462 0.500000
O O23 0.634860 0.000000 0.626505
#
# Coordination Sequence:
#
# PCOD8197264 Si02
#       8
#     8   8   8   8   8   8   8   8
#     4   9  19  37  59  81 107 141 181 223 264 308
#     4   9  15  25  45  72  99 130 168 209 249 297
#     4   9  16  27  46  72 100 129 160 195 242 302
#     4  10  20  32  51  81 113 144 176 214 264 316
#     4  10  21  36  54  76 100 126 160 208 261 309
#     4  10  21  38  57  73  94 129 171 212 256 308
#     4   9  18  32  48  72 105 138 170 204 251 308
#     4   9  17  29  47  73 106 144 183 220 258 302
#
# _framework density 18.266445000000001
#
# number of rings (size 3 to 8) (size 9 to 14) (size 15 to 20)
#    0.000    2.625    1.250    1.125    0.000    4.000 
#    0.000    7.500    0.000    0.750    0.000    3.500 
#    0.000    0.000    0.000    0.000    0.000    0.000 
#
# Total GULP energy -792996.166210 kJ/mol
# GULP energy per Si atom -12390.565097 kJ/mol
# Density = 1.822487 g / cm^3
# Si number density = 18.266445 Si / 1000 Ang^3
#
#
#
# Elastic Constant Matrix: (Units=GPa)
#
#
# Indices 1 2 3 4 5 6 
#
# 1 83.1324 40.0103 62.4494 0.0000 0.0000 0.0000
# 2 40.0103 72.3481 48.6879 0.0000 0.0000 0.0000
# 3 62.4494 48.6879 122.2012 0.0000 0.0000 0.0000
# 4 0.0000 0.0000 0.0000 26.1942 0.0000 0.0000
# 5 0.0000 0.0000 0.0000 0.0000 29.4665 0.0000
# 6 0.0000 0.0000 0.0000 0.0000 0.0000 22.6190
#
#
#
# Elastic Compliance Matrix: (Units=1/GPa)
#
#
# Indices 1 2 3 4 5 6 
#
# 1 0.021324 -0.006093 -0.008470 0.000000 0.000000 0.000000
# 2 -0.006093 0.020627 -0.005105 0.000000 0.000000 0.000000
# 3 -0.008470 -0.005105 0.014545 0.000000 0.000000 0.000000
# 4 0.000000 0.000000 0.000000 0.038176 0.000000 0.000000
# 5 0.000000 0.000000 0.000000 0.000000 0.033937 0.000000
# 6 0.000000 0.000000 0.000000 0.000000 0.000000 0.044211
#
#
# Mechanical properties :
#
#
# Convention : Reuss Voigt Hill
#
# Bulk Modulus (GPa) = 58.26903 64.44187 61.35545
# Shear Modulus (GPa) = 22.94899 24.09157 23.52028
#
# Velocity S-wave (km/s) = 3.54834 3.63560 3.59224
# Velocity P-wave (km/s) = 6.98258 7.27866 7.13216
#
# Compressibility (1/GPa) = 0.01716178
#
# Stress axis : x y z
#
# Youngs Moduli (GPa) = 46.89572 48.48091 68.75028
#
# Poissons Ratio (x) = 0.29538 0.58230
# Poissons Ratio (y) = 0.28572 0.35094
# Poissons Ratio (z) = 0.39720 0.24747
#
# Static dielectric constant tensor:
#      x y z
#    x 3.230790 0.000000 0.000000 
#    y 0.000000 3.060100 0.000000 
#    z 0.000000 0.000000 3.517300 
# 
# 
# High freq. dielectric constant tensor:
#      x y z
#    x 1.692770 0.000000 0.000000 
#    y 0.000000 1.678230 0.000000 
#    z 0.000000 0.000000 1.715910 
# 
# From -- ./inp_files/25593.got.cif
#   From: 2010.03.12/outbox.cif.g09.slc.cpg/sg47_13_cif.got.tgz:25593.got - 2010.04.14 03:12:58.
