data_PCOD8197959
_publ_section_title
;
Structure prediction by ZEFSAII (Michael W. Deem and Ramdas Pophale) SiO2 
 PCOD8197959
Probable space group: P M M M
;
_chemical_formula_sum "Si O2"
_cell_formula_units_Z 64
_cell_length_a 14.803309
_cell_length_b 25.144640
_cell_length_c 9.335431
_cell_angle_alpha 90.000000
_cell_angle_beta 90.000000
_cell_angle_gamma 90.000000
_cell_volume 3474.870307
_symmetry_space_group_name_H-M "P M M M"
_symmetry_group_IT_number 47
_symmetry_cell_setting 'orthorhombic'
loop_
_space_group_symop_operation_xyz
x,y,z
-x,-y,z
x,-y,-z
-x,y,-z
-x,-y,-z
x,y,-z
-x,y,z
x,-y,z
loop_
_atom_site_type_symbol
_atom_site_label
_atom_site_fract_x
_atom_site_fract_y
_atom_site_fract_z
Si Si1 0.162256 0.156498 0.839671
Si Si2 0.397437 0.685156 0.832496
Si Si3 0.773373 0.346048 0.328663
Si Si4 0.212671 0.058720 0.331094
Si Si5 0.636579 0.195208 0.838233
Si Si6 0.100439 0.267342 0.165821
Si Si7 0.100754 0.559120 0.330081
Si Si8 0.403471 0.902791 0.664404
O O1 0.151558 0.104731 0.739108
O O2 0.257864 0.185068 0.823574
O O3 0.094115 0.204032 0.798504
O O4 0.145361 0.135531 0.000000
O O5 0.500000 0.665682 0.801730
O O6 0.327046 0.650873 0.738361
O O7 0.387476 0.746150 0.783301
O O8 0.373410 0.678816 0.000000
O O9 0.767191 0.342183 0.500000
O O10 0.828090 0.295453 0.269337
O O11 0.826143 0.398591 0.274176
O O12 0.204188 0.064944 0.500000
O O13 0.317531 0.063826 0.278636
O O14 0.179299 0.000000 0.283164
O O15 0.584115 0.153038 0.743069
O O16 0.602332 0.188424 0.000000
O O17 0.000000 0.290787 0.191444
O O18 0.131022 0.274959 0.000000
O O19 0.098926 0.560327 0.500000
O O20 0.128237 0.500000 0.276329
O O21 0.000000 0.573447 0.272779
O O22 0.385441 0.889540 0.500000
O O23 0.500000 0.933700 0.684208
#
# Coordination Sequence:
#
# PCOD8197959 Si02
#       8
#     8   8   8   8   8   8   8   8
#     4   9  17  31  50  70  93 122 160 202 245 298
#     4  10  20  34  51  70 100 145 188 220 258 310
#     4  11  21  32  52  82 114 141 173 221 266 308
#     4   9  18  31  46  64  87 119 158 199 250 308
#     4   9  16  29  47  64  87 122 164 204 242 290
#     4  10  20  35  55  78 107 141 171 203 254 320
#     4   8  15  30  52  78 109 144 179 214 258 313
#     4   9  17  27  40  61  88 116 149 194 247 299
#
# _framework density 18.417953000000001
#
# number of rings (size 3 to 8) (size 9 to 14) (size 15 to 20)
#    0.000    2.625    1.250    1.500    0.000    3.250 
#    0.000    1.250    0.000    2.250    0.000   13.125 
#    0.000    0.000    0.000    0.000    0.000    0.000 
#
# Total GULP energy -793133.653206 kJ/mol
# GULP energy per Si atom -12392.713331 kJ/mol
# Density = 1.837603 g / cm^3
# Si number density = 18.417953 Si / 1000 Ang^3
#
#
#
# Elastic Constant Matrix: (Units=GPa)
#
#
# Indices 1 2 3 4 5 6 
#
# 1 84.5032 42.2609 33.1321 0.0000 0.0000 0.0000
# 2 42.2609 106.9139 40.3059 0.0000 0.0000 0.0000
# 3 33.1321 40.3059 53.4945 0.0000 0.0000 0.0000
# 4 0.0000 0.0000 0.0000 11.4804 0.0000 0.0000
# 5 0.0000 0.0000 0.0000 0.0000 19.9890 0.0000
# 6 0.0000 0.0000 0.0000 0.0000 0.0000 14.1643
#
#
#
# Elastic Compliance Matrix: (Units=1/GPa)
#
#
# Indices 1 2 3 4 5 6 
#
# 1 0.016646 -0.003762 -0.007476 0.000000 0.000000 0.000000
# 2 -0.003762 0.013914 -0.008154 0.000000 0.000000 0.000000
# 3 -0.007476 -0.008154 0.029467 0.000000 0.000000 0.000000
# 4 0.000000 0.000000 0.000000 0.087105 0.000000 0.000000
# 5 0.000000 0.000000 0.000000 0.000000 0.050027 0.000000
# 6 0.000000 0.000000 0.000000 0.000000 0.000000 0.070600
#
#
# Mechanical properties :
#
#
# Convention : Reuss Voigt Hill
#
# Bulk Modulus (GPa) = 47.06963 52.92324 49.99644
# Shear Modulus (GPa) = 15.94263 17.74093 16.84178
#
# Velocity S-wave (km/s) = 2.94530 3.10698 3.02722
# Velocity P-wave (km/s) = 6.09740 6.45508 6.27879
#
# Compressibility (1/GPa) = 0.02124512
#
# Stress axis : x y z
#
# Youngs Moduli (GPa) = 60.07397 71.86888 33.93588
#
# Poissons Ratio (x) = 0.27034 0.25369
# Poissons Ratio (y) = 0.22597 0.27671
# Poissons Ratio (z) = 0.44909 0.58602
#
# Static dielectric constant tensor:
#      x y z
#    x 3.492780 0.000000 0.000000 
#    y 0.000000 3.397350 0.000000 
#    z 0.000000 0.000000 3.218520 
# 
# 
# High freq. dielectric constant tensor:
#      x y z
#    x 1.711140 0.000000 0.000000 
#    y 0.000000 1.694190 0.000000 
#    z 0.000000 0.000000 1.693020 
# 
# From -- ./inp_files/7931.got.cif
#   From: 2010.03.12/outbox.cif.g09.slc.cpg/sg47_4_cif.got.tgz:7931.got - 2010.04.14 03:12:58.
