data_PCOD8197599
_publ_section_title
;
Structure prediction by ZEFSAII (Michael W. Deem and Ramdas Pophale) SiO2 
 PCOD8197599
Probable space group: P M M M
;
_chemical_formula_sum "Si O2"
_cell_formula_units_Z 40
_cell_length_a 25.767126
_cell_length_b 9.077520
_cell_length_c 9.200652
_cell_angle_alpha 90.000000
_cell_angle_beta 90.000000
_cell_angle_gamma 90.000000
_cell_volume 2152.047239
_symmetry_space_group_name_H-M "P M M M"
_symmetry_group_IT_number 47
_symmetry_cell_setting 'orthorhombic'
loop_
_space_group_symop_operation_xyz
x,y,z
-x,-y,z
x,-y,-z
-x,y,-z
-x,-y,-z
x,y,-z
-x,y,z
x,-y,z
loop_
_atom_site_type_symbol
_atom_site_label
_atom_site_fract_x
_atom_site_fract_y
_atom_site_fract_z
Si Si1 0.000000 0.826823 0.330471
Si Si2 0.192738 0.674534 0.660610
Si Si3 0.500000 0.666418 0.827077
Si Si4 0.307923 0.332793 0.328375
Si Si5 0.906609 0.326069 0.167802
Si Si6 0.601938 0.171457 0.168653
O O1 0.949479 0.757838 0.258859
O O2 0.000000 0.787582 0.500000
O O3 0.000000 0.000000 0.302360
O O4 0.180312 0.739886 0.500000
O O5 0.192948 0.500000 0.648967
O O6 0.249999 0.723693 0.713059
O O7 0.149512 0.727937 0.774804
O O8 0.500000 0.500000 0.768758
O O9 0.551381 0.746500 0.767292
O O10 0.500000 0.673937 0.000000
O O11 0.315772 0.325037 0.500000
O O12 0.316992 0.500000 0.273139
O O13 0.347383 0.223776 0.252001
O O14 0.914237 0.500000 0.190024
O O15 0.911457 0.281750 0.000000
O O16 0.593479 0.000000 0.195612
O O17 0.609665 0.208822 0.000000
#
# Coordination Sequence:
#
# PCOD8197599 Si02
#       6
#     4   8   4   8   8   8
#     4  11  24  39  54  74 102 139 180 215 252 304
#     4   8  15  30  52  76 102 133 169 209 252 298
#     4   9  17  31  52  75  98 129 170 214 260 307
#     4   9  18  33  53  77 104 134 170 211 253 299
#     4  10  20  34  55  83 109 133 167 212 260 308
#     4  10  20  33  50  74 104 136 170 209 254 306
#
# _framework density 18.586952
#
# number of rings (size 3 to 8) (size 9 to 14) (size 15 to 20)
#    0.000    2.600    0.000    3.300    0.000    6.800 
#    0.000    3.500    0.000    4.200    0.000    0.000 
#    0.000    0.000    0.000    0.000    0.000    0.000 
#
# Total GULP energy -495970.146843 kJ/mol
# GULP energy per Si atom -12399.253671 kJ/mol
# Density = 1.854465 g / cm^3
# Si number density = 18.586952 Si / 1000 Ang^3
#
#
#
# Elastic Constant Matrix: (Units=GPa)
#
#
# Indices 1 2 3 4 5 6 
#
# 1 175.9280 59.6808 72.9561 0.0000 0.0000 0.0000
# 2 59.6808 66.2946 42.5584 0.0000 0.0000 0.0000
# 3 72.9561 42.5584 85.1257 0.0000 0.0000 0.0000
# 4 0.0000 0.0000 0.0000 24.1081 0.0000 0.0000
# 5 0.0000 0.0000 0.0000 0.0000 35.5667 0.0000
# 6 0.0000 0.0000 0.0000 0.0000 0.0000 -0.1522
#
#
#
# Elastic Compliance Matrix: (Units=1/GPa)
#
#
# Indices 1 2 3 4 5 6 
#
# 1 0.009858 -0.005082 -0.005908 0.000000 0.000000 0.000000
# 2 -0.005082 0.024833 -0.008060 0.000000 0.000000 0.000000
# 3 -0.005908 -0.008060 0.020840 0.000000 0.000000 0.000000
# 4 0.000000 0.000000 0.000000 0.041480 0.000000 0.000000
# 5 0.000000 0.000000 0.000000 0.000000 0.028116 0.000000
# 6 0.000000 0.000000 0.000000 0.000000 0.000000 -6.568974
#
#
# Mechanical properties :
#
#
# Convention : Reuss Voigt Hill
#
# Bulk Modulus (GPa) = 57.36629 75.30432 66.33530
# Shear Modulus (GPa) = -0.78126 22.04805 10.63340
#
# Velocity S-wave (km/s) = -0.64903 3.44788 2.39443
# Velocity P-wave (km/s) = 5.51082 7.51352 6.58871
#
# Compressibility (1/GPa) = 0.01743184
#
# Stress axis : x y z
#
# Youngs Moduli (GPa) = 101.43876 40.26865 47.98373
#
# Poissons Ratio (x) = 0.20464 0.28350
# Poissons Ratio (y) = 0.51550 0.38675
# Poissons Ratio (z) = 0.59932 0.32456
#
# Static dielectric constant tensor:
#      x y z
#    x 3.785300 0.000000 0.000000 
#    y 0.000000 3.209290 0.000000 
#    z 0.000000 0.000000 3.335270 
# 
# 
# High freq. dielectric constant tensor:
#      x y z
#    x 1.739740 0.000000 0.000000 
#    y 0.000000 1.699120 0.000000 
#    z 0.000000 0.000000 1.708140 
# 
# From -- ./inp_files/13074.got.cif
#   From: 2010.03.12/outbox.cif.g09.slc.cpg/sg47_7_cif.got.tgz:13074.got - 2010.04.14 03:12:58.
