data_PCOD8197530
_publ_section_title
;
Structure prediction by ZEFSAII (Michael W. Deem and Ramdas Pophale) SiO2 
 PCOD8197530
Probable space group: P M M M
;
_chemical_formula_sum "Si O2"
_cell_formula_units_Z 48
_cell_length_a 9.074540
_cell_length_b 30.998012
_cell_length_c 8.924860
_cell_angle_alpha 90.000000
_cell_angle_beta 90.000000
_cell_angle_gamma 90.000000
_cell_volume 2510.497965
_symmetry_space_group_name_H-M "P M M M"
_symmetry_group_IT_number 47
_symmetry_cell_setting 'orthorhombic'
loop_
_space_group_symop_operation_xyz
x,y,z
-x,-y,z
x,-y,-z
-x,y,-z
-x,-y,-z
x,y,-z
-x,y,z
x,-y,z
loop_
_atom_site_type_symbol
_atom_site_label
_atom_site_fract_x
_atom_site_fract_y
_atom_site_fract_z
Si Si1 0.833498 0.500000 0.321374
Si Si2 0.666549 0.415582 0.678769
Si Si3 0.831278 0.831972 0.175311
Si Si4 0.170326 0.921022 0.675293
Si Si5 0.674088 0.000000 0.829163
Si Si6 0.672732 0.245778 0.327039
Si Si7 0.166182 0.668378 0.321727
O O1 0.833569 0.500000 0.500000
O O2 0.750284 0.542241 0.259956
O O3 0.000000 0.500000 0.259659
O O4 0.667013 0.415320 0.500000
O O5 0.500000 0.415934 0.740086
O O6 0.748822 0.373311 0.742110
O O7 0.780487 0.875330 0.257787
O O8 0.726181 0.793973 0.228716
O O9 0.000000 0.820517 0.216550
O O10 0.810806 0.839306 0.000000
O O11 0.201742 0.920332 0.500000
O O12 0.267457 0.957680 0.748804
O O13 0.000000 0.930558 0.711346
O O14 0.500000 0.000000 0.817909
O O15 0.729013 0.000000 0.000000
O O16 0.713719 0.237109 0.500000
O O17 0.500000 0.252386 0.305521
O O18 0.752167 0.288645 0.265781
O O19 0.166413 0.666740 0.500000
O O20 0.000000 0.668322 0.258834
#
# Coordination Sequence:
#
# PCOD8197530 Si02
#       7
#     4   8   8   8   4   8   8
#     4   9  15  21  29  43  67 103 148 193 238 293
#     4   9  15  22  32  48  73 106 146 193 244 297
#     4  10  21  37  57  80 105 135 171 211 257 308
#     4  10  21  38  61  86 110 140 180 222 263 309
#     4  11  24  39  56  82 116 151 184 219 262 310
#     4  10  20  33  50  73 100 131 167 207 253 305
#     4   9  16  26  41  60  83 114 154 200 247 296
#
# _framework density 19.119714999999999
#
# number of rings (size 3 to 8) (size 9 to 14) (size 15 to 20)
#    0.000    2.333    0.000    3.250    0.000   10.333 
#    0.000    0.000    0.000    0.000    0.000    0.000 
#    0.000    0.000    0.000    0.750    0.000   14.667 
#
# Total GULP energy -595332.467735 kJ/mol
# GULP energy per Si atom -12402.759744 kJ/mol
# Density = 1.907620 g / cm^3
# Si number density = 19.119715 Si / 1000 Ang^3
#
#
#
# Elastic Constant Matrix: (Units=GPa)
#
#
# Indices 1 2 3 4 5 6 
#
# 1 130.8237 83.1093 32.1248 0.0000 0.0000 0.0000
# 2 83.1093 176.0026 43.9608 0.0000 0.0000 0.0000
# 3 32.1248 43.9608 51.6181 0.0000 0.0000 0.0000
# 4 0.0000 0.0000 0.0000 -20.1986 0.0000 0.0000
# 5 0.0000 0.0000 0.0000 0.0000 18.7022 0.0000
# 6 0.0000 0.0000 0.0000 0.0000 0.0000 62.4283
#
#
#
# Elastic Compliance Matrix: (Units=1/GPa)
#
#
# Indices 1 2 3 4 5 6 
#
# 1 0.011312 -0.004551 -0.003164 0.000000 0.000000 0.000000
# 2 -0.004551 0.009048 -0.004873 0.000000 0.000000 0.000000
# 3 -0.003164 -0.004873 0.025493 0.000000 0.000000 0.000000
# 4 0.000000 0.000000 0.000000 -0.049508 0.000000 0.000000
# 5 0.000000 0.000000 0.000000 0.000000 0.053470 0.000000
# 6 0.000000 0.000000 0.000000 0.000000 0.000000 0.016018
#
#
# Mechanical properties :
#
#
# Convention : Reuss Voigt Hill
#
# Bulk Modulus (GPa) = 48.36641 75.20379 61.78510
# Shear Modulus (GPa) = 51.07152 25.46968 38.27060
#
# Velocity S-wave (km/s) = 5.17392 3.65378 4.47881
# Velocity P-wave (km/s) = 7.81307 7.56430 7.68969
#
# Compressibility (1/GPa) = 0.02067551
#
# Stress axis : x y z
#
# Youngs Moduli (GPa) = 88.40003 110.51979 39.22716
#
# Poissons Ratio (x) = 0.50302 0.12411
# Poissons Ratio (y) = 0.40234 0.19117
# Poissons Ratio (z) = 0.27970 0.53860
#
# Static dielectric constant tensor:
#      x y z
#    x 3.601260 0.000000 0.000000 
#    y 0.000000 3.645770 0.000000 
#    z 0.000000 0.000000 3.064650 
# 
# 
# High freq. dielectric constant tensor:
#      x y z
#    x 1.752080 0.000000 0.000000 
#    y 0.000000 1.761850 0.000000 
#    z 0.000000 0.000000 1.695550 
# 
# From -- ./inp_files/2552.got.cif
#   From: 2010.03.12/outbox.cif.g09.slc.cpg/sg47_2_cif.got.tgz:2552.got - 2010.04.14 03:12:58.
