data_PCOD8197181
_publ_section_title
;
Structure prediction by ZEFSAII (Michael W. Deem and Ramdas Pophale) SiO2 
 PCOD8197181
Probable space group: P M M M
;
_chemical_formula_sum "Si O2"
_cell_formula_units_Z 48
_cell_length_a 9.512366
_cell_length_b 9.367274
_cell_length_c 31.028311
_cell_angle_alpha 90.000000
_cell_angle_beta 90.000000
_cell_angle_gamma 90.000000
_cell_volume 2764.775750
_symmetry_space_group_name_H-M "P M M M"
_symmetry_group_IT_number 47
_symmetry_cell_setting 'orthorhombic'
loop_
_space_group_symop_operation_xyz
x,y,z
-x,-y,z
x,-y,-z
-x,y,-z
-x,-y,-z
x,y,-z
-x,y,z
x,-y,z
loop_
_atom_site_type_symbol
_atom_site_label
_atom_site_fract_x
_atom_site_fract_y
_atom_site_fract_z
Si Si1 0.660373 0.835860 0.949904
Si Si2 0.160511 0.829797 0.638398
Si Si3 0.344216 0.330472 0.196301
Si Si4 0.161048 0.669233 0.117379
Si Si5 0.166853 0.159782 0.454416
Si Si6 0.665605 0.337542 0.707693
O O1 0.500000 0.793540 0.938910
O O2 0.765923 0.736158 0.924086
O O3 0.687609 0.000000 0.937558
O O4 0.690896 0.810459 0.000000
O O5 0.214186 0.770098 0.591201
O O6 0.257878 0.764736 0.674644
O O7 0.000000 0.782902 0.647075
O O8 0.173712 0.000000 0.639173
O O9 0.500000 0.269060 0.186050
O O10 0.351210 0.500000 0.195270
O O11 0.235512 0.272320 0.160782
O O12 0.295367 0.283726 0.244094
O O13 0.174956 0.500000 0.113715
O O14 0.000000 0.718597 0.118972
O O15 0.213585 0.237462 0.500000
O O16 0.000000 0.152428 0.452562
O O17 0.227846 0.000000 0.456177
O O18 0.500000 0.326135 0.700405
O O19 0.716572 0.500000 0.700695
#
# Coordination Sequence:
#
# PCOD8197181 Si02
#       6
#     8   8   8   8   8   8
#     4   9  19  36  55  73  95 127 166 200 228 266
#     4   9  17  28  44  69  96 118 146 188 234 277
#     4   8  15  30  50  68  88 119 159 197 229 266
#     4  10  20  32  49  76 104 125 150 190 238 282
#     4   7  10  19  37  60  85 113 145 182 224 268
#     4   9  18  32  49  68  90 120 158 193 226 272
#
# _framework density 17.361263999999998
#
# number of rings (size 3 to 8) (size 9 to 14) (size 15 to 20)
#    0.000    3.333    0.000    3.500    0.000    3.333 
#    0.000    5.000    0.000    2.000    0.000    5.833 
#    0.000    0.000    0.000    0.000    0.000    0.000 
#
# Total GULP energy -594648.028925 kJ/mol
# GULP energy per Si atom -12388.500603 kJ/mol
# Density = 1.732175 g / cm^3
# Si number density = 17.361264 Si / 1000 Ang^3
#
#
#
# Elastic Constant Matrix: (Units=GPa)
#
#
# Indices 1 2 3 4 5 6 
#
# 1 82.1118 26.4428 71.2019 0.0000 0.0000 0.0000
# 2 26.4428 24.5511 33.6844 0.0000 0.0000 0.0000
# 3 71.2019 33.6844 143.5318 0.0000 0.0000 0.0000
# 4 0.0000 0.0000 0.0000 26.8743 0.0000 0.0000
# 5 0.0000 0.0000 0.0000 0.0000 5.3754 0.0000
# 6 0.0000 0.0000 0.0000 0.0000 0.0000 24.3495
#
#
#
# Elastic Compliance Matrix: (Units=1/GPa)
#
#
# Indices 1 2 3 4 5 6 
#
# 1 0.024331 -0.014226 -0.008731 0.000000 0.000000 0.000000
# 2 -0.014226 0.068393 -0.008993 0.000000 0.000000 0.000000
# 3 -0.008731 -0.008993 0.013409 0.000000 0.000000 0.000000
# 4 0.000000 0.000000 0.000000 0.037210 0.000000 0.000000
# 5 0.000000 0.000000 0.000000 0.000000 0.186034 0.000000
# 6 0.000000 0.000000 0.000000 0.000000 0.000000 0.041069
#
#
# Mechanical properties :
#
#
# Convention : Reuss Voigt Hill
#
# Bulk Modulus (GPa) = 23.67931 56.98365 40.33148
# Shear Modulus (GPa) = 11.15016 19.24421 15.19718
#
# Velocity S-wave (km/s) = 2.53700 3.33296 2.96184
# Velocity P-wave (km/s) = 4.71706 6.90688 5.91421
#
# Compressibility (1/GPa) = 0.04223095
#
# Stress axis : x y z
#
# Youngs Moduli (GPa) = 41.09982 14.62143 74.57710
#
# Poissons Ratio (x) = 0.20801 0.65115
# Poissons Ratio (y) = 0.58470 0.67069
# Poissons Ratio (z) = 0.35885 0.13149
#
# Static dielectric constant tensor:
#      x y z
#    x 3.100810 0.000000 0.000000 
#    y 0.000000 2.815890 0.000000 
#    z 0.000000 0.000000 3.659600 
# 
# 
# High freq. dielectric constant tensor:
#      x y z
#    x 1.649960 0.000000 0.000000 
#    y 0.000000 1.625180 0.000000 
#    z 0.000000 0.000000 1.694120 
# 
# From -- ./inp_files/2478.got.cif
#   From: 2010.03.12/outbox.cif.g09.slc.cpg/sg47_2_cif.got.tgz:2478.got - 2010.04.14 03:12:58.
