data_PCOD8197780
_publ_section_title
;
Structure prediction by ZEFSAII (Michael W. Deem and Ramdas Pophale) SiO2 
 PCOD8197780
Probable space group: P M M M
;
_chemical_formula_sum "Si O2"
_cell_formula_units_Z 48
_cell_length_a 7.810357
_cell_length_b 22.018364
_cell_length_c 14.248313
_cell_angle_alpha 90.000000
_cell_angle_beta 90.000000
_cell_angle_gamma 90.000000
_cell_volume 2450.300673
_symmetry_space_group_name_H-M "P M M M"
_symmetry_group_IT_number 47
_symmetry_cell_setting 'orthorhombic'
loop_
_space_group_symop_operation_xyz
x,y,z
-x,-y,z
x,-y,-z
-x,y,-z
-x,-y,-z
x,y,-z
-x,y,z
x,-y,z
loop_
_atom_site_type_symbol
_atom_site_label
_atom_site_fract_x
_atom_site_fract_y
_atom_site_fract_z
Si Si1 0.197881 0.198216 0.104116
Si Si2 0.201950 0.500000 0.393129
Si Si3 0.797597 0.857745 0.293129
Si Si4 0.699225 0.622778 0.706630
Si Si5 0.695209 0.668439 0.898433
Si Si6 0.196521 0.260478 0.398531
Si Si7 0.500000 0.928249 0.391875
O O1 0.238994 0.146111 0.180964
O O2 0.298448 0.260100 0.125897
O O3 0.000000 0.216385 0.111440
O O4 0.244328 0.173005 0.000000
O O5 0.274360 0.500000 0.500000
O O6 0.268530 0.557337 0.336196
O O7 0.000000 0.500000 0.395857
O O8 0.733466 0.792500 0.331882
O O9 0.674803 0.907452 0.340102
O O10 0.000000 0.872270 0.313009
O O11 0.500000 0.637766 0.709619
O O12 0.776337 0.629092 0.812799
O O13 0.786705 0.672514 0.642075
O O14 0.500000 0.648725 0.908417
O O15 0.786792 0.655713 0.000000
O O16 0.290010 0.257735 0.500000
O O17 0.000000 0.246409 0.413523
O O18 0.500000 0.905317 0.500000
O O19 0.500000 0.000000 0.387952
#
# Coordination Sequence:
#
# PCOD8197780 Si02
#       7
#     8   4   8   8   8   8   4
#     4   9  17  30  53  87 122 155 192 237 292 352
#     4  11  25  43  58  71  98 144 191 233 284 353
#     4  10  21  38  61  89 124 159 198 249 304 356
#     4  11  22  35  55  80 107 141 184 236 287 341
#     4   9  18  32  51  79 114 148 181 224 285 350
#     4  10  20  33  51  79 113 147 183 230 290 346
#     4  11  26  44  63  89 121 160 209 254 292 353
#
# _framework density 19.589433
#
# number of rings (size 3 to 8) (size 9 to 14) (size 15 to 20)
#    0.000    2.000    1.667    1.750    2.333    5.000 
#    0.000    1.250    0.000    3.500    0.000    2.333 
#    0.000    0.000    0.000    0.000    0.000    0.000 
#
# Total GULP energy -594808.467894 kJ/mol
# GULP energy per Si atom -12391.843081 kJ/mol
# Density = 1.954485 g / cm^3
# Si number density = 19.589433 Si / 1000 Ang^3
#
#
#
# Elastic Constant Matrix: (Units=GPa)
#
#
# Indices 1 2 3 4 5 6 
#
# 1 49.1377 18.5941 36.9355 0.0000 0.0000 0.0000
# 2 18.5941 83.7412 55.9719 0.0000 0.0000 0.0000
# 3 36.9355 55.9719 186.3546 0.0000 0.0000 0.0000
# 4 0.0000 0.0000 0.0000 29.4786 0.0000 0.0000
# 5 0.0000 0.0000 0.0000 0.0000 21.8071 0.0000
# 6 0.0000 0.0000 0.0000 0.0000 0.0000 77.7851
#
#
#
# Elastic Compliance Matrix: (Units=1/GPa)
#
#
# Indices 1 2 3 4 5 6 
#
# 1 0.024404 -0.002735 -0.004016 0.000000 0.000000 0.000000
# 2 -0.002735 0.015247 -0.004038 0.000000 0.000000 0.000000
# 3 -0.004016 -0.004038 0.007375 0.000000 0.000000 0.000000
# 4 0.000000 0.000000 0.000000 0.033923 0.000000 0.000000
# 5 0.000000 0.000000 0.000000 0.000000 0.045857 0.000000
# 6 0.000000 0.000000 0.000000 0.000000 0.000000 0.012856
#
#
# Mechanical properties :
#
#
# Convention : Reuss Voigt Hill
#
# Bulk Modulus (GPa) = 39.29189 60.24852 49.77020
# Shear Modulus (GPa) = 29.46008 39.66296 34.56152
#
# Velocity S-wave (km/s) = 3.88219 4.50456 4.20491
# Velocity P-wave (km/s) = 6.34007 7.60770 7.00263
#
# Compressibility (1/GPa) = 0.02545055
#
# Stress axis : x y z
#
# Youngs Moduli (GPa) = 40.97658 65.58463 135.59920
#
# Poissons Ratio (x) = 0.17936 0.54450
# Poissons Ratio (y) = 0.11206 0.54749
# Poissons Ratio (z) = 0.16454 0.26480
#
# Static dielectric constant tensor:
#      x y z
#    x 3.495540 0.000000 0.000000 
#    y 0.000000 3.140840 0.000000 
#    z 0.000000 0.000000 4.314000 
# 
# 
# High freq. dielectric constant tensor:
#      x y z
#    x 1.756160 0.000000 0.000000 
#    y 0.000000 1.718250 0.000000 
#    z 0.000000 0.000000 1.791300 
# 
# From -- ./inp_files/21058.got.cif
#   From: 2010.03.12/outbox.cif.g09.slc.cpg/sg47_11_cif.got.tgz:21058.got - 2010.04.14 03:12:58.
