data_PCOD8197886
_publ_section_title
;
Structure prediction by ZEFSAII (Michael W. Deem and Ramdas Pophale) SiO2 
 PCOD8197886
Probable space group: P M M M
;
_chemical_formula_sum "Si O2"
_cell_formula_units_Z 48
_cell_length_a 9.150790
_cell_length_b 18.420789
_cell_length_c 13.070576
_cell_angle_alpha 90.000000
_cell_angle_beta 90.000000
_cell_angle_gamma 90.000000
_cell_volume 2203.238660
_symmetry_space_group_name_H-M "P M M M"
_symmetry_group_IT_number 47
_symmetry_cell_setting 'orthorhombic'
loop_
_space_group_symop_operation_xyz
x,y,z
-x,-y,z
x,-y,-z
-x,y,-z
-x,-y,-z
x,y,-z
-x,y,z
x,-y,z
loop_
_atom_site_type_symbol
_atom_site_label
_atom_site_fract_x
_atom_site_fract_y
_atom_site_fract_z
Si Si1 0.166337 0.080978 0.378342
Si Si2 0.667998 0.500000 0.620578
Si Si3 0.167317 0.358274 0.309156
Si Si4 0.834556 0.000000 0.877949
Si Si5 0.334077 0.861041 0.877801
Si Si6 0.834779 0.277874 0.114045
Si Si7 0.662719 0.780867 0.619820
O O1 0.185213 0.078292 0.500000
O O2 0.270551 0.144537 0.331212
O O3 0.000000 0.101413 0.350613
O O4 0.204702 0.000000 0.333794
O O5 0.500000 0.500000 0.654523
O O6 0.684982 0.500000 0.500000
O O7 0.743378 0.429285 0.664875
O O8 0.176518 0.348033 0.186373
O O9 0.234578 0.288242 0.363333
O O10 0.000000 0.367175 0.345841
O O11 0.758214 0.071879 0.832201
O O12 0.000000 0.000000 0.840061
O O13 0.821734 0.000000 0.000000
O O14 0.500000 0.868984 0.841479
O O15 0.269083 0.784530 0.838324
O O16 0.320512 0.861408 0.000000
O O17 0.000000 0.247089 0.112480
O O18 0.785220 0.300884 0.000000
O O19 0.651937 0.793185 0.500000
O O20 0.500000 0.768058 0.665649
#
# Coordination Sequence:
#
# PCOD8197886 Si02
#       7
#     8   4   8   4   8   8   8
#     4   8  14  26  46  73 106 146 192 240 288 339
#     4  11  25  45  68  95 128 160 187 225 282 343
#     4  11  23  39  63  91 118 152 194 237 285 343
#     4   9  15  23  39  65  99 141 188 239 296 353
#     4   9  16  26  44  72 104 140 186 240 295 348
#     4   9  19  37  59  83 113 150 193 240 291 346
#     4  10  20  33  52  81 117 155 192 234 288 348
#
# _framework density 21.786110000000001
#
# number of rings (size 3 to 8) (size 9 to 14) (size 15 to 20)
#    0.000    2.500    0.000    3.000    0.000    8.333 
#    0.000    2.083    1.833    2.500    0.000    0.000 
#    0.000    0.000    0.000    0.000    0.000    0.000 
#
# Total GULP energy -595292.933067 kJ/mol
# GULP energy per Si atom -12401.936106 kJ/mol
# Density = 2.173652 g / cm^3
# Si number density = 21.786110 Si / 1000 Ang^3
#
#
#
# Elastic Constant Matrix: (Units=GPa)
#
#
# Indices 1 2 3 4 5 6 
#
# 1 181.4804 105.7754 33.3803 0.0000 0.0000 0.0000
# 2 105.7754 180.5730 40.8525 0.0000 0.0000 0.0000
# 3 33.3803 40.8525 34.7774 0.0000 0.0000 0.0000
# 4 0.0000 0.0000 0.0000 32.1769 0.0000 0.0000
# 5 0.0000 0.0000 0.0000 0.0000 17.8965 0.0000
# 6 0.0000 0.0000 0.0000 0.0000 0.0000 34.5708
#
#
#
# Elastic Compliance Matrix: (Units=1/GPa)
#
#
# Indices 1 2 3 4 5 6 
#
# 1 0.008619 -0.004327 -0.003190 0.000000 0.000000 0.000000
# 2 -0.004327 0.009715 -0.007259 0.000000 0.000000 0.000000
# 3 -0.003190 -0.007259 0.040342 0.000000 0.000000 0.000000
# 4 0.000000 0.000000 0.000000 0.031078 0.000000 0.000000
# 5 0.000000 0.000000 0.000000 0.000000 0.055877 0.000000
# 6 0.000000 0.000000 0.000000 0.000000 0.000000 0.028926
#
#
# Mechanical properties :
#
#
# Convention : Reuss Voigt Hill
#
# Bulk Modulus (GPa) = 34.33434 84.09413 59.21423
# Shear Modulus (GPa) = 23.38452 31.38368 27.38410
#
# Velocity S-wave (km/s) = 3.27978 3.79956 3.54920
# Velocity P-wave (km/s) = 5.48968 7.61134 6.63585
#
# Compressibility (1/GPa) = 0.02912536
#
# Stress axis : x y z
#
# Youngs Moduli (GPa) = 116.02256 102.93524 24.78790
#
# Poissons Ratio (x) = 0.44542 0.07907
# Poissons Ratio (y) = 0.50205 0.17992
# Poissons Ratio (z) = 0.37007 0.74716
#
# Static dielectric constant tensor:
#      x y z
#    x 4.108890 0.000000 0.000000 
#    y 0.000000 3.808100 0.000000 
#    z 0.000000 0.000000 4.010440 
# 
# 
# High freq. dielectric constant tensor:
#      x y z
#    x 1.859710 0.000000 0.000000 
#    y 0.000000 1.838840 0.000000 
#    z 0.000000 0.000000 1.880580 
# 
# From -- ./inp_files/21105.got.cif
#   From: 2010.03.12/outbox.cif.g09.slc.cpg/sg47_11_cif.got.tgz:21105.got - 2010.04.14 03:12:58.
