data_PCOD8197195
_publ_section_title
;
Structure prediction by ZEFSAII (Michael W. Deem and Ramdas Pophale) SiO2 
 PCOD8197195
Probable space group: P M M M
;
_chemical_formula_sum "Si O2"
_cell_formula_units_Z 44
_cell_length_a 9.358929
_cell_length_b 28.354273
_cell_length_c 8.927079
_cell_angle_alpha 90.000000
_cell_angle_beta 90.000000
_cell_angle_gamma 90.000000
_cell_volume 2368.939924
_symmetry_space_group_name_H-M "P M M M"
_symmetry_group_IT_number 47
_symmetry_cell_setting 'orthorhombic'
loop_
_space_group_symop_operation_xyz
x,y,z
-x,-y,z
x,-y,-z
-x,y,-z
-x,-y,-z
x,y,-z
-x,y,z
x,-y,z
loop_
_atom_site_type_symbol
_atom_site_label
_atom_site_fract_x
_atom_site_fract_y
_atom_site_fract_z
Si Si1 0.333436 0.359134 0.675437
Si Si2 0.330922 0.905556 0.172275
Si Si3 0.836299 0.275745 0.824145
Si Si4 0.330123 0.000000 0.331056
Si Si5 0.164625 0.178273 0.324507
Si Si6 0.839761 0.551942 0.677864
O O1 0.301259 0.352426 0.500000
O O2 0.500000 0.360289 0.710283
O O3 0.264098 0.316702 0.765032
O O4 0.267382 0.408079 0.737670
O O5 0.500000 0.901195 0.190084
O O6 0.261005 0.862344 0.257065
O O7 0.273312 0.953841 0.245574
O O8 0.283833 0.905186 0.000000
O O9 0.786740 0.227426 0.747436
O O10 0.000000 0.287562 0.781769
O O11 0.815665 0.269959 0.000000
O O12 0.500000 0.000000 0.331536
O O13 0.269575 0.000000 0.500000
O O14 0.192353 0.181378 0.500000
O O15 0.000000 0.167517 0.286355
O O16 0.837305 0.551416 0.500000
O O17 0.792346 0.500000 0.736998
O O18 0.000000 0.563425 0.734732
#
# Coordination Sequence:
#
# PCOD8197195 Si02
#       6
#     8   8   8   4   8   8
#     4  10  20  32  49  76 107 137 169 208 256 307
#     4  10  20  34  54  80 109 141 176 214 258 309
#     4  10  21  37  56  75  97 131 173 213 256 308
#     4   9  17  31  52  77 106 141 180 220 260 303
#     4  10  21  37  57  80 105 134 170 214 263 312
#     4   8  14  26  46  72 101 134 172 212 253 299
#
# _framework density 18.573709000000001
#
# number of rings (size 3 to 8) (size 9 to 14) (size 15 to 20)
#    0.000    2.455    0.000    3.000    0.000    6.545 
#    0.000    2.273    0.000    3.273    0.000    3.818 
#    0.000    0.000    0.000    0.000    0.000    0.000 
#
# Total GULP energy -545635.428414 kJ/mol
# GULP energy per Si atom -12400.805191 kJ/mol
# Density = 1.853143 g / cm^3
# Si number density = 18.573709 Si / 1000 Ang^3
#
#
#
# Elastic Constant Matrix: (Units=GPa)
#
#
# Indices 1 2 3 4 5 6 
#
# 1 63.8304 65.1992 39.6415 0.0000 0.0000 0.0000
# 2 65.1992 172.8078 62.3771 0.0000 0.0000 0.0000
# 3 39.6415 62.3771 73.7515 0.0000 0.0000 0.0000
# 4 0.0000 0.0000 0.0000 -42.4029 0.0000 0.0000
# 5 0.0000 0.0000 0.0000 0.0000 24.2448 0.0000
# 6 0.0000 0.0000 0.0000 0.0000 0.0000 33.9262
#
#
#
# Elastic Compliance Matrix: (Units=1/GPa)
#
#
# Indices 1 2 3 4 5 6 
#
# 1 0.029268 -0.007721 -0.009201 0.000000 0.000000 0.000000
# 2 -0.007721 0.010367 -0.004618 0.000000 0.000000 0.000000
# 3 -0.009201 -0.004618 0.022410 0.000000 0.000000 0.000000
# 4 0.000000 0.000000 0.000000 -0.023583 0.000000 0.000000
# 5 0.000000 0.000000 0.000000 0.000000 0.041246 0.000000
# 6 0.000000 0.000000 0.000000 0.000000 0.000000 0.029476
#
#
# Mechanical properties :
#
#
# Convention : Reuss Voigt Hill
#
# Bulk Modulus (GPa) = 52.72982 71.64725 62.18854
# Shear Modulus (GPa) = 31.52897 12.69841 22.11369
#
# Velocity S-wave (km/s) = 4.12455 2.61756 3.45424
# Velocity P-wave (km/s) = 7.15078 6.91330 7.03304
#
# Compressibility (1/GPa) = 0.01896460
#
# Stress axis : x y z
#
# Youngs Moduli (GPa) = 34.16752 96.46182 44.62264
#
# Poissons Ratio (x) = 0.74481 0.41057
# Poissons Ratio (y) = 0.26382 0.20606
# Poissons Ratio (z) = 0.31437 0.44544
#
# Static dielectric constant tensor:
#      x y z
#    x 3.305240 0.000000 0.000000 
#    y 0.000000 5.602500 0.000000 
#    z 0.000000 0.000000 3.340840 
# 
# 
# High freq. dielectric constant tensor:
#      x y z
#    x 1.704720 0.000000 0.000000 
#    y 0.000000 1.738410 0.000000 
#    z 0.000000 0.000000 1.710210 
# 
# From -- ./inp_files/2086.got.cif
#   From: 2010.03.12/outbox.cif.g09.slc.cpg/sg47_2_cif.got.tgz:2086.got - 2010.04.14 03:12:58.
