data_PCOD8197292
_publ_section_title
;
Structure prediction by ZEFSAII (Michael W. Deem and Ramdas Pophale) SiO2 
 PCOD8197292
Probable space group: P M M M
;
_chemical_formula_sum "Si O2"
_cell_formula_units_Z 36
_cell_length_a 18.805446
_cell_length_b 11.944361
_cell_length_c 9.673741
_cell_angle_alpha 90.000000
_cell_angle_beta 90.000000
_cell_angle_gamma 90.000000
_cell_volume 2172.906376
_symmetry_space_group_name_H-M "P M M M"
_symmetry_group_IT_number 47
_symmetry_cell_setting 'orthorhombic'
loop_
_space_group_symop_operation_xyz
x,y,z
-x,-y,z
x,-y,-z
-x,y,-z
-x,-y,-z
x,y,-z
-x,y,z
x,-y,z
loop_
_atom_site_type_symbol
_atom_site_label
_atom_site_fract_x
_atom_site_fract_y
_atom_site_fract_z
Si Si1 0.825392 0.632991 0.660157
Si Si2 0.915644 0.210901 0.160508
Si Si3 0.418560 0.633642 0.000000
Si Si4 0.084418 0.000000 0.340595
Si Si5 0.421736 0.633664 0.500000
Si Si6 0.328977 0.366803 0.745617
O O1 0.834502 0.672184 0.500000
O O2 0.829673 0.500000 0.666892
O O3 0.886098 0.679880 0.761247
O O4 0.750788 0.678344 0.722857
O O5 0.000000 0.218826 0.161813
O O6 0.888461 0.106328 0.252376
O O7 0.889302 0.202693 0.000000
O O8 0.370136 0.680115 0.122784
O O9 0.423611 0.500000 0.000000
O O10 0.500000 0.680849 0.000000
O O11 0.113974 0.000000 0.500000
O O12 0.000000 0.000000 0.346945
O O13 0.425623 0.500000 0.500000
O O14 0.500000 0.685893 0.500000
O O15 0.378967 0.680799 0.372260
O O16 0.325699 0.500000 0.745816
#
# Coordination Sequence:
#
# PCOD8197292 Si02
#       6
#     8   8   4   4   4   8
#     4  10  20  33  47  65  94 133 171 203 237 281
#     4  10  21  35  52  74  97 123 157 198 243 288
#     4   9  16  24  36  56  81 112 153 196 235 278
#     4   9  17  33  57  79  97 117 146 189 242 293
#     4   9  14  22  38  56  77 110 153 196 233 270
#     4   9  16  26  38  56  83 117 156 195 234 277
#
# _framework density 16.567671000000001
#
# number of rings (size 3 to 8) (size 9 to 14) (size 15 to 20)
#    0.000    2.556    1.111    1.667    1.556    6.222 
#    0.000    2.222    0.000    0.000    0.000    0.000 
#    0.000    0.000    0.000    6.000    0.000    2.778 
#
# Total GULP energy -445983.640434 kJ/mol
# GULP energy per Si atom -12388.434457 kJ/mol
# Density = 1.652996 g / cm^3
# Si number density = 16.567671 Si / 1000 Ang^3
#
#
#
# Elastic Constant Matrix: (Units=GPa)
#
#
# Indices 1 2 3 4 5 6 
#
# 1 56.0048 20.9399 47.4234 0.0000 0.0000 0.0000
# 2 20.9399 31.1830 33.1872 0.0000 0.0000 0.0000
# 3 47.4234 33.1872 170.6911 0.0000 0.0000 0.0000
# 4 0.0000 0.0000 0.0000 21.2968 0.0000 0.0000
# 5 0.0000 0.0000 0.0000 0.0000 32.2089 0.0000
# 6 0.0000 0.0000 0.0000 0.0000 0.0000 1.4684
#
#
#
# Elastic Compliance Matrix: (Units=1/GPa)
#
#
# Indices 1 2 3 4 5 6 
#
# 1 0.026827 -0.012713 -0.004982 0.000000 0.000000 0.000000
# 2 -0.012713 0.046461 -0.005501 0.000000 0.000000 0.000000
# 3 -0.004982 -0.005501 0.008312 0.000000 0.000000 0.000000
# 4 0.000000 0.000000 0.000000 0.046955 0.000000 0.000000
# 5 0.000000 0.000000 0.000000 0.000000 0.031047 0.000000
# 6 0.000000 0.000000 0.000000 0.000000 0.000000 0.680994
#
#
# Mechanical properties :
#
#
# Convention : Reuss Voigt Hill
#
# Bulk Modulus (GPa) = 28.40252 51.22000 39.81126
# Shear Modulus (GPa) = 5.56344 21.41674 13.49009
#
# Velocity S-wave (km/s) = 1.83447 3.59929 2.85659
# Velocity P-wave (km/s) = 4.65485 6.94665 5.91285
#
# Compressibility (1/GPa) = 0.03520814
#
# Stress axis : x y z
#
# Youngs Moduli (GPa) = 37.27534 21.52361 120.30537
#
# Poissons Ratio (x) = 0.27363 0.59933
# Poissons Ratio (y) = 0.47389 0.66181
# Poissons Ratio (z) = 0.18569 0.11840
#
# Static dielectric constant tensor:
#      x y z
#    x 3.162640 0.000000 0.000000 
#    y 0.000000 2.590450 0.000000 
#    z 0.000000 0.000000 3.457860 
# 
# 
# High freq. dielectric constant tensor:
#      x y z
#    x 1.635980 0.000000 0.000000 
#    y 0.000000 1.567690 0.000000 
#    z 0.000000 0.000000 1.663460 
# 
# From -- ./inp_files/10610.got.cif
#   From: 2010.03.12/outbox.cif.g09.slc.cpg/sg47_6_cif.got.tgz:10610.got - 2010.04.14 03:12:58.
