data_PCOD8197713
_publ_section_title
;
Structure prediction by ZEFSAII (Michael W. Deem and Ramdas Pophale) SiO2 
 PCOD8197713
Probable space group: P M M M
;
_chemical_formula_sum "Si O2"
_cell_formula_units_Z 48
_cell_length_a 9.264669
_cell_length_b 7.648076
_cell_length_c 34.213240
_cell_angle_alpha 90.000000
_cell_angle_beta 90.000000
_cell_angle_gamma 90.000000
_cell_volume 2424.243873
_symmetry_space_group_name_H-M "P M M M"
_symmetry_group_IT_number 47
_symmetry_cell_setting 'orthorhombic'
loop_
_space_group_symop_operation_xyz
x,y,z
-x,-y,z
x,-y,-z
-x,y,-z
-x,-y,-z
x,y,-z
-x,y,z
x,-y,z
loop_
_atom_site_type_symbol
_atom_site_label
_atom_site_fract_x
_atom_site_fract_y
_atom_site_fract_z
Si Si1 0.665814 0.700317 0.454440
Si Si2 0.169351 0.700217 0.264800
Si Si3 0.338781 0.707505 0.187855
Si Si4 0.841715 0.699926 0.883459
Si Si5 0.827893 0.000000 0.589763
Si Si6 0.170401 0.000000 0.677828
Si Si7 0.662343 0.793739 0.956185
O O1 0.694993 0.731386 0.500000
O O2 0.500000 0.745303 0.444528
O O3 0.700373 0.500000 0.443111
O O4 0.770796 0.825166 0.430540
O O5 0.207499 0.500000 0.275893
O O6 0.251978 0.764103 0.226262
O O7 0.222429 0.824406 0.300016
O O8 0.000000 0.721806 0.256399
O O9 0.500000 0.786690 0.189586
O O10 0.346741 0.500000 0.184825
O O11 0.258696 0.788430 0.149751
O O12 0.861896 0.500000 0.871602
O O13 0.771478 0.707808 0.926069
O O14 0.000000 0.790547 0.884262
O O15 0.767750 0.000000 0.634054
O O16 0.000000 0.000000 0.587524
O O17 0.000000 0.000000 0.675668
O O18 0.500000 0.728574 0.947152
O O19 0.670537 0.000000 0.952021
O O20 0.706829 0.736235 0.000000
#
# Coordination Sequence:
#
# PCOD8197713 Si02
#       7
#     8   8   8   8   4   4   8
#     4   9  19  37  59  81 109 151 200 243 287 344
#     4   9  17  33  56  75  97 135 178 218 262 316
#     4   9  17  31  52  76 101 128 160 204 258 308
#     4  10  20  33  51  77 105 131 164 204 246 300
#     4  11  22  34  53  84 120 152 186 237 295 344
#     4   9  20  36  52  77 110 144 183 221 266 334
#     4   9  19  36  54  71  96 131 168 205 247 297
#
# _framework density 19.799987999999999
#
# number of rings (size 3 to 8) (size 9 to 14) (size 15 to 20)
#    0.000    2.667    0.000    2.500    0.000    6.333 
#    1.500    7.083    0.000    2.000    0.000    0.000 
#    0.000    0.000    0.000    0.000    0.000    0.000 
#
# Total GULP energy -595102.816951 kJ/mol
# GULP energy per Si atom -12397.975353 kJ/mol
# Density = 1.975492 g / cm^3
# Si number density = 19.799988 Si / 1000 Ang^3
#
#
#
# Elastic Constant Matrix: (Units=GPa)
#
#
# Indices 1 2 3 4 5 6 
#
# 1 120.2336 40.5148 78.0348 0.0000 0.0000 0.0000
# 2 40.5148 76.6498 55.6051 0.0000 0.0000 0.0000
# 3 78.0348 55.6051 151.7839 0.0000 0.0000 0.0000
# 4 0.0000 0.0000 0.0000 19.2313 0.0000 0.0000
# 5 0.0000 0.0000 0.0000 0.0000 21.5638 0.0000
# 6 0.0000 0.0000 0.0000 0.0000 0.0000 18.8230
#
#
#
# Elastic Compliance Matrix: (Units=1/GPa)
#
#
# Indices 1 2 3 4 5 6 
#
# 1 0.012889 -0.002732 -0.005626 0.000000 0.000000 0.000000
# 2 -0.002732 0.018347 -0.005317 0.000000 0.000000 0.000000
# 3 -0.005626 -0.005317 0.011428 0.000000 0.000000 0.000000
# 4 0.000000 0.000000 0.000000 0.051999 0.000000 0.000000
# 5 0.000000 0.000000 0.000000 0.000000 0.046374 0.000000
# 6 0.000000 0.000000 0.000000 0.000000 0.000000 0.053126
#
#
# Mechanical properties :
#
#
# Convention : Reuss Voigt Hill
#
# Bulk Modulus (GPa) = 65.29115 77.44187 71.36651
# Shear Modulus (GPa) = 22.06358 23.55780 22.81069
#
# Velocity S-wave (km/s) = 3.34177 3.45307 3.39788
# Velocity P-wave (km/s) = 6.92364 7.42262 7.17747
#
# Compressibility (1/GPa) = 0.01531601
#
# Stress axis : x y z
#
# Youngs Moduli (GPa) = 77.58677 54.50354 87.50064
#
# Poissons Ratio (x) = 0.14888 0.49225
# Poissons Ratio (y) = 0.21193 0.46525
# Poissons Ratio (z) = 0.43648 0.28980
#
# Static dielectric constant tensor:
#      x y z
#    x 3.674320 0.000000 0.000000 
#    y 0.000000 3.437610 0.000000 
#    z 0.000000 0.000000 3.737780 
# 
# 
# High freq. dielectric constant tensor:
#      x y z
#    x 1.765200 0.000000 0.000000 
#    y 0.000000 1.762870 0.000000 
#    z 0.000000 0.000000 1.769870 
# 
# From -- ./inp_files/34090.got.cif
#   From: 2010.03.12/outbox.cif.g09.slc.cpg/sg47_18_cif.got.tgz:34090.got - 2010.04.14 03:12:58.
