data_PCOD8197094
_publ_section_title
;
Structure prediction by ZEFSAII (Michael W. Deem and Ramdas Pophale) SiO2 
 PCOD8197094
Probable space group: P M M M
;
_chemical_formula_sum "Si O2"
_cell_formula_units_Z 52
_cell_length_a 15.057839
_cell_length_b 9.062527
_cell_length_c 22.122842
_cell_angle_alpha 90.000000
_cell_angle_beta 90.000000
_cell_angle_gamma 90.000000
_cell_volume 3018.928869
_symmetry_space_group_name_H-M "P M M M"
_symmetry_group_IT_number 47
_symmetry_cell_setting 'orthorhombic'
loop_
_space_group_symop_operation_xyz
x,y,z
-x,-y,z
x,-y,-z
-x,y,-z
-x,-y,-z
x,y,-z
-x,y,z
x,-y,z
loop_
_atom_site_type_symbol
_atom_site_label
_atom_site_fract_x
_atom_site_fract_y
_atom_site_fract_z
Si Si1 0.287492 0.167513 0.720035
Si Si2 0.902085 0.170001 0.234302
Si Si3 0.500000 0.174084 0.068645
Si Si4 0.330153 0.830582 0.856146
Si Si5 0.602215 0.326595 0.620054
Si Si6 0.605369 0.834113 0.500000
Si Si7 0.899226 0.840263 0.000000
Si Si8 0.154265 0.673577 0.881940
O O1 0.182591 0.214265 0.724129
O O2 0.339033 0.181782 0.783723
O O3 0.335825 0.277615 0.674896
O O4 0.295145 0.000000 0.695858
O O5 0.902625 0.265620 0.173859
O O6 0.000000 0.192080 0.265751
O O7 0.888230 0.000000 0.215171
O O8 0.416238 0.226002 0.108045
O O9 0.500000 0.000000 0.063214
O O10 0.500000 0.241213 0.000000
O O11 0.256212 0.717424 0.876862
O O12 0.306658 0.000000 0.873374
O O13 0.500000 0.280896 0.633123
O O14 0.610615 0.500000 0.610888
O O15 0.639339 0.249610 0.559578
O O16 0.500000 0.834167 0.500000
O O17 0.643666 0.000000 0.500000
O O18 0.880275 0.742039 0.942728
O O19 0.000000 0.883254 0.000000
O O20 0.847435 0.000000 0.000000
O O21 0.143078 0.500000 0.884001
#
# Coordination Sequence:
#
# PCOD8197094 Si02
#       8
#     8   8   4   8   8   4   4   8
#     4   9  18  31  50  76 103 133 172 213 253 299
#     4   9  18  35  56  75  98 130 168 209 254 304
#     4   9  18  32  53  77  93 120 172 221 256 296
#     4   9  19  35  53  73  97 129 169 212 254 300
#     4  10  20  32  48  73 108 145 177 209 251 299
#     4   9  17  31  51  75 102 137 178 215 251 292
#     4  11  23  37  53  70  89 118 155 193 240 303
#     4  11  22  34  50  73 100 124 152 196 252 308
#
# _framework density 17.224653
#
# number of rings (size 3 to 8) (size 9 to 14) (size 15 to 20)
#    0.000    2.385    0.000    3.692    2.154    7.077 
#    0.000    0.385    0.000    0.462    0.000    0.538 
#    0.000    4.308    0.000    0.000    0.000    0.000 
#
# Total GULP energy -644522.684417 kJ/mol
# GULP energy per Si atom -12394.667008 kJ/mol
# Density = 1.718545 g / cm^3
# Si number density = 17.224653 Si / 1000 Ang^3
#
#
#
# Elastic Constant Matrix: (Units=GPa)
#
#
# Indices 1 2 3 4 5 6 
#
# 1 95.1265 30.3414 50.8137 0.0000 0.0000 0.0000
# 2 30.3414 99.8275 47.4940 0.0000 0.0000 0.0000
# 3 50.8137 47.4940 97.1907 0.0000 0.0000 0.0000
# 4 0.0000 0.0000 0.0000 11.5977 0.0000 0.0000
# 5 0.0000 0.0000 0.0000 0.0000 53.6267 0.0000
# 6 0.0000 0.0000 0.0000 0.0000 0.0000 27.0315
#
#
#
# Elastic Compliance Matrix: (Units=1/GPa)
#
#
# Indices 1 2 3 4 5 6 
#
# 1 0.014671 -0.001055 -0.007155 0.000000 0.000000 0.000000
# 2 -0.001055 0.013128 -0.005863 0.000000 0.000000 0.000000
# 3 -0.007155 -0.005863 0.016895 0.000000 0.000000 0.000000
# 4 0.000000 0.000000 0.000000 0.086224 0.000000 0.000000
# 5 0.000000 0.000000 0.000000 0.000000 0.018647 0.000000
# 6 0.000000 0.000000 0.000000 0.000000 0.000000 0.036994
#
#
# Mechanical properties :
#
#
# Convention : Reuss Voigt Hill
#
# Bulk Modulus (GPa) = 60.43413 61.04921 60.74167
# Shear Modulus (GPa) = 22.70456 29.35088 26.02772
#
# Velocity S-wave (km/s) = 3.63456 4.13244 3.89147
# Velocity P-wave (km/s) = 7.26467 7.63474 7.45200
#
# Compressibility (1/GPa) = 0.01654694
#
# Stress axis : x y z
#
# Youngs Moduli (GPa) = 68.16350 76.17582 59.18954
#
# Poissons Ratio (x) = 0.08037 0.42348
# Poissons Ratio (y) = 0.07192 0.34705
# Poissons Ratio (z) = 0.48768 0.44665
#
# Static dielectric constant tensor:
#      x y z
#    x 3.360230 0.000000 0.000000 
#    y 0.000000 3.137310 0.000000 
#    z 0.000000 0.000000 3.553420 
# 
# 
# High freq. dielectric constant tensor:
#      x y z
#    x 1.658180 0.000000 0.000000 
#    y 0.000000 1.662030 0.000000 
#    z 0.000000 0.000000 1.647720 
# 
# From -- ./inp_files/30940.got.cif
#   From: 2010.03.12/outbox.cif.g09.slc.cpg/sg47_16_cif.got.tgz:30940.got - 2010.04.14 03:12:58.
