data_PCOD8197674
_publ_section_title
;
Structure prediction by ZEFSAII (Michael W. Deem and Ramdas Pophale) SiO2 
 PCOD8197674
Probable space group: P M M M
;
_chemical_formula_sum "Si O2"
_cell_formula_units_Z 44
_cell_length_a 9.112228
_cell_length_b 15.107470
_cell_length_c 17.554357
_cell_angle_alpha 90.000000
_cell_angle_beta 90.000000
_cell_angle_gamma 90.000000
_cell_volume 2416.580377
_symmetry_space_group_name_H-M "P M M M"
_symmetry_group_IT_number 47
_symmetry_cell_setting 'orthorhombic'
loop_
_space_group_symop_operation_xyz
x,y,z
-x,-y,z
x,-y,-z
-x,y,-z
-x,-y,-z
x,y,-z
-x,y,z
x,-y,z
loop_
_atom_site_type_symbol
_atom_site_label
_atom_site_fract_x
_atom_site_fract_y
_atom_site_fract_z
Si Si1 0.835776 0.096153 0.202796
Si Si2 0.173785 0.395456 0.500000
Si Si3 0.165145 0.902380 0.383385
Si Si4 0.325912 0.727719 0.381198
Si Si5 0.674503 0.401489 0.084172
Si Si6 0.672426 0.265660 0.205975
O O1 0.832839 0.095351 0.293236
O O2 0.729377 0.172440 0.173079
O O3 0.000000 0.115208 0.173557
O O4 0.782231 0.000000 0.172485
O O5 0.209198 0.500000 0.500000
O O6 0.246361 0.351512 0.574480
O O7 0.000000 0.378176 0.500000
O O8 0.271326 0.823605 0.412536
O O9 0.000000 0.883046 0.412719
O O10 0.216532 0.000000 0.413592
O O11 0.500000 0.721700 0.393773
O O12 0.279975 0.715774 0.292876
O O13 0.500000 0.402467 0.089305
O O14 0.736108 0.500000 0.097731
O O15 0.740641 0.340283 0.150814
O O16 0.722661 0.367689 0.000000
O O17 0.500000 0.262730 0.199777
#
# Coordination Sequence:
#
# PCOD8197674 Si02
#       6
#     8   4   8   8   8   8
#     4   8  14  25  42  65  94 129 164 194 229 276
#     4  11  25  43  58  69  88 125 169 206 240 285
#     4   8  14  27  48  72  99 131 163 194 231 280
#     4  10  20  33  51  76 103 127 155 199 250 292
#     4   8  14  26  45  69  97 127 157 191 234 285
#     4   9  17  28  47  76 101 123 156 197 238 279
#
# _framework density 18.207547000000002
#
# number of rings (size 3 to 8) (size 9 to 14) (size 15 to 20)
#    0.000    3.182    0.000    2.455    0.000    2.909 
#    0.000    5.909    0.000    4.364    0.000    5.091 
#    0.000    0.000    0.000    0.000    0.000    0.000 
#
# Total GULP energy -545193.503976 kJ/mol
# GULP energy per Si atom -12390.761454 kJ/mol
# Density = 1.816611 g / cm^3
# Si number density = 18.207547 Si / 1000 Ang^3
#
#
#
# Elastic Constant Matrix: (Units=GPa)
#
#
# Indices 1 2 3 4 5 6 
#
# 1 55.3232 54.1209 30.2094 0.0000 0.0000 0.0000
# 2 54.1209 163.9036 71.1949 0.0000 0.0000 0.0000
# 3 30.2094 71.1949 86.3455 0.0000 0.0000 0.0000
# 4 0.0000 0.0000 0.0000 -8.3381 0.0000 0.0000
# 5 0.0000 0.0000 0.0000 0.0000 9.9757 0.0000
# 6 0.0000 0.0000 0.0000 0.0000 0.0000 29.0326
#
#
#
# Elastic Compliance Matrix: (Units=1/GPa)
#
#
# Indices 1 2 3 4 5 6 
#
# 1 0.027291 -0.007578 -0.003300 0.000000 0.000000 0.000000
# 2 -0.007578 0.011610 -0.006921 0.000000 0.000000 0.000000
# 3 -0.003300 -0.006921 0.018443 0.000000 0.000000 0.000000
# 4 0.000000 0.000000 0.000000 -0.119931 0.000000 0.000000
# 5 0.000000 0.000000 0.000000 0.000000 0.100243 0.000000
# 6 0.000000 0.000000 0.000000 0.000000 0.000000 0.034444
#
#
# Mechanical properties :
#
#
# Convention : Reuss Voigt Hill
#
# Bulk Modulus (GPa) = 45.98757 68.51364 57.25060
# Shear Modulus (GPa) = 43.49818 16.13717 29.81767
#
# Velocity S-wave (km/s) = 4.89306 2.98029 4.05118
# Velocity P-wave (km/s) = 7.56538 7.03945 7.30715
#
# Compressibility (1/GPa) = 0.02174501
#
# Stress axis : x y z
#
# Youngs Moduli (GPa) = 36.64228 86.13311 54.22160
#
# Poissons Ratio (x) = 0.65273 0.17892
# Poissons Ratio (y) = 0.27768 0.37529
# Poissons Ratio (z) = 0.12091 0.59617
#
# Static dielectric constant tensor:
#      x y z
#    x 3.198160 0.000000 0.000000 
#    y 0.000000 3.896940 0.000000 
#    z 0.000000 0.000000 3.309440 
# 
# 
# High freq. dielectric constant tensor:
#      x y z
#    x 1.680900 0.000000 0.000000 
#    y 0.000000 1.714780 0.000000 
#    z 0.000000 0.000000 1.680370 
# 
# From -- ./inp_files/26375.got.cif
#   From: 2010.03.12/outbox.cif.g09.slc.cpg/sg47_14_cif.got.tgz:26375.got - 2010.04.14 03:12:58.
