data_PCOD8197677
_publ_section_title
;
Structure prediction by ZEFSAII (Michael W. Deem and Ramdas Pophale) SiO2 
 PCOD8197677
Probable space group: P M M M
;
_chemical_formula_sum "Si O2"
_cell_formula_units_Z 48
_cell_length_a 9.329052
_cell_length_b 30.757536
_cell_length_c 9.436313
_cell_angle_alpha 90.000000
_cell_angle_beta 90.000000
_cell_angle_gamma 90.000000
_cell_volume 2707.642939
_symmetry_space_group_name_H-M "P M M M"
_symmetry_group_IT_number 47
_symmetry_cell_setting 'orthorhombic'
loop_
_space_group_symop_operation_xyz
x,y,z
-x,-y,z
x,-y,-z
-x,y,-z
-x,-y,-z
x,y,-z
-x,y,z
x,-y,z
loop_
_atom_site_type_symbol
_atom_site_label
_atom_site_fract_x
_atom_site_fract_y
_atom_site_fract_z
Si Si1 0.162175 0.296938 0.168486
Si Si2 0.665826 0.619436 0.166871
Si Si3 0.836849 0.550513 0.336535
Si Si4 0.332596 0.870496 0.336620
Si Si5 0.161513 0.047622 0.668409
Si Si6 0.666330 0.786729 0.165337
O O1 0.247382 0.338904 0.225122
O O2 0.242167 0.253820 0.223274
O O3 0.000000 0.297824 0.227787
O O4 0.163155 0.297156 0.000000
O O5 0.500000 0.625717 0.206599
O O6 0.726084 0.576625 0.240838
O O7 0.686938 0.613750 0.000000
O O8 0.810356 0.562263 0.500000
O O9 0.807126 0.500000 0.309201
O O10 0.000000 0.562188 0.293674
O O11 0.289982 0.863036 0.500000
O O12 0.500000 0.877515 0.317515
O O13 0.259375 0.913632 0.271363
O O14 0.279041 0.828972 0.248913
O O15 0.168232 0.048132 0.500000
O O16 0.000000 0.055603 0.721239
O O17 0.215117 0.000000 0.722233
O O18 0.500000 0.776823 0.196418
O O19 0.693190 0.795018 0.000000
#
# Coordination Sequence:
#
# PCOD8197677 Si02
#       6
#     8   8   8   8   8   8
#     4   9  17  30  49  71  93 120 157 197 233 272
#     4  10  20  33  51  76 103 129 160 200 243 285
#     4   9  19  36  55  74  99 132 167 201 239 285
#     4   9  17  28  43  65  90 113 141 181 224 263
#     4   8  14  25  41  61  85 113 144 178 218 263
#     4   9  17  30  47  65  88 119 151 182 222 274
#
# _framework density 17.727595000000001
#
# number of rings (size 3 to 8) (size 9 to 14) (size 15 to 20)
#    0.000    3.000    0.000    2.000    0.000    5.000 
#    0.000    5.000    0.000    3.500    0.000    3.500 
#    0.000    0.000    0.000    0.000    0.000    0.000 
#
# Total GULP energy -595117.869326 kJ/mol
# GULP energy per Si atom -12398.288944 kJ/mol
# Density = 1.768725 g / cm^3
# Si number density = 17.727595 Si / 1000 Ang^3
#
#
#
# Elastic Constant Matrix: (Units=GPa)
#
#
# Indices 1 2 3 4 5 6 
#
# 1 108.6475 84.4832 35.1410 0.0000 0.0000 0.0000
# 2 84.4832 152.3498 43.4424 0.0000 0.0000 0.0000
# 3 35.1410 43.4424 31.8457 0.0000 0.0000 0.0000
# 4 0.0000 0.0000 0.0000 27.4562 0.0000 0.0000
# 5 0.0000 0.0000 0.0000 0.0000 19.0290 0.0000
# 6 0.0000 0.0000 0.0000 0.0000 0.0000 41.3456
#
#
#
# Elastic Compliance Matrix: (Units=1/GPa)
#
#
# Indices 1 2 3 4 5 6 
#
# 1 0.018011 -0.007071 -0.010229 0.000000 0.000000 0.000000
# 2 -0.007071 0.013519 -0.010639 0.000000 0.000000 0.000000
# 3 -0.010229 -0.010639 0.057201 0.000000 0.000000 0.000000
# 4 0.000000 0.000000 0.000000 0.036422 0.000000 0.000000
# 5 0.000000 0.000000 0.000000 0.000000 0.052551 0.000000
# 6 0.000000 0.000000 0.000000 0.000000 0.000000 0.024186
#
#
# Mechanical properties :
#
#
# Convention : Reuss Voigt Hill
#
# Bulk Modulus (GPa) = 30.43761 68.77512 49.60637
# Shear Modulus (GPa) = 18.60688 26.21793 22.41240
#
# Velocity S-wave (km/s) = 3.24327 3.84986 3.55951
# Velocity P-wave (km/s) = 5.58855 7.65778 6.70349
#
# Compressibility (1/GPa) = 0.03285409
#
# Stress axis : x y z
#
# Youngs Moduli (GPa) = 55.52277 73.97262 17.48206
#
# Poissons Ratio (x) = 0.52305 0.17882
# Poissons Ratio (y) = 0.39259 0.18599
# Poissons Ratio (z) = 0.56792 0.78698
#
# Static dielectric constant tensor:
#      x y z
#    x 3.350940 0.000000 0.000000 
#    y 0.000000 3.544070 0.000000 
#    z 0.000000 0.000000 2.897240 
# 
# 
# High freq. dielectric constant tensor:
#      x y z
#    x 1.687130 0.000000 0.000000 
#    y 0.000000 1.699870 0.000000 
#    z 0.000000 0.000000 1.641290 
# 
# From -- ./inp_files/2460.got.cif
#   From: 2010.03.12/outbox.cif.g09.slc.cpg/sg47_2_cif.got.tgz:2460.got - 2010.04.14 03:12:58.
