data_PCOD8197224
_publ_section_title
;
Structure prediction by ZEFSAII (Michael W. Deem and Ramdas Pophale) SiO2 
 PCOD8197224
Probable space group: P M M M
;
_chemical_formula_sum "Si O2"
_cell_formula_units_Z 52
_cell_length_a 10.723432
_cell_length_b 9.087187
_cell_length_c 29.300694
_cell_angle_alpha 90.000000
_cell_angle_beta 90.000000
_cell_angle_gamma 90.000000
_cell_volume 2855.230501
_symmetry_space_group_name_H-M "P M M M"
_symmetry_group_IT_number 47
_symmetry_cell_setting 'orthorhombic'
loop_
_space_group_symop_operation_xyz
x,y,z
-x,-y,z
x,-y,-z
-x,y,-z
-x,-y,-z
x,y,-z
-x,y,z
x,-y,z
loop_
_atom_site_type_symbol
_atom_site_label
_atom_site_fract_x
_atom_site_fract_y
_atom_site_fract_z
Si Si1 0.147089 0.837703 0.199397
Si Si2 0.000000 0.825862 0.447509
Si Si3 0.854188 0.829715 0.299966
Si Si4 0.856023 0.673665 0.109611
Si Si5 0.644061 0.161293 0.549634
Si Si6 0.359406 0.169715 0.053707
Si Si7 0.792284 0.670888 0.388226
O O1 0.196351 0.786999 0.249238
O O2 0.185063 0.722695 0.160362
O O3 0.000000 0.850152 0.203752
O O4 0.200611 0.000000 0.186878
O O5 0.882776 0.763410 0.420563
O O6 0.000000 0.772405 0.500000
O O7 0.000000 0.000000 0.443887
O O8 0.786451 0.725808 0.336193
O O9 0.000000 0.797996 0.304560
O O10 0.824481 0.000000 0.309847
O O11 0.848336 0.500000 0.106496
O O12 0.754079 0.738852 0.075250
O O13 0.000000 0.725311 0.098706
O O14 0.705111 0.201193 0.500000
O O15 0.500000 0.147298 0.542111
O O16 0.662428 0.289232 0.587582
O O17 0.696598 0.000000 0.565221
O O18 0.500000 0.220012 0.069448
O O19 0.340339 0.000000 0.067048
O O20 0.348678 0.192521 0.000000
O O21 0.825574 0.500000 0.388817
#
# Coordination Sequence:
#
# PCOD8197224 Si02
#       7
#     8   4   8   8   8   8   8
#     4   8  15  29  50  74  98 131 174 216 254 295
#     4  11  23  37  51  67  95 135 171 201 236 287
#     4   9  17  31  51  72  98 134 172 206 243 297
#     4  10  20  32  49  78 113 145 176 217 271 325
#     4   9  19  37  58  74  89 119 164 204 239 289
#     4   9  19  36  56  77 103 140 187 233 273 317
#     4  12  23  32  48  76 105 130 156 196 252 303
#
# _framework density 18.21219
#
# number of rings (size 3 to 8) (size 9 to 14) (size 15 to 20)
#    0.000    2.385    0.769    4.385    0.000    5.538 
#    0.000    4.615    0.000    0.923    0.000    6.462 
#    0.000    0.000    0.000    0.000    0.000    0.000 
#
# Total GULP energy -644235.166819 kJ/mol
# GULP energy per Si atom -12389.137823 kJ/mol
# Density = 1.817074 g / cm^3
# Si number density = 18.212190 Si / 1000 Ang^3
#
#
#
# Elastic Constant Matrix: (Units=GPa)
#
#
# Indices 1 2 3 4 5 6 
#
# 1 66.3765 39.0824 43.6339 0.0000 0.0000 0.0000
# 2 39.0824 89.2993 53.4479 0.0000 0.0000 0.0000
# 3 43.6339 53.4479 105.3123 0.0000 0.0000 0.0000
# 4 0.0000 0.0000 0.0000 14.6656 0.0000 0.0000
# 5 0.0000 0.0000 0.0000 0.0000 40.7199 0.0000
# 6 0.0000 0.0000 0.0000 0.0000 0.0000 11.7587
#
#
#
# Elastic Compliance Matrix: (Units=1/GPa)
#
#
# Indices 1 2 3 4 5 6 
#
# 1 0.022892 -0.006236 -0.006320 0.000000 0.000000 0.000000
# 2 -0.006236 0.017783 -0.006441 0.000000 0.000000 0.000000
# 3 -0.006320 -0.006441 0.015383 0.000000 0.000000 0.000000
# 4 0.000000 0.000000 0.000000 0.068187 0.000000 0.000000
# 5 0.000000 0.000000 0.000000 0.000000 0.024558 0.000000
# 6 0.000000 0.000000 0.000000 0.000000 0.000000 0.085043
#
#
# Mechanical properties :
#
#
# Convention : Reuss Voigt Hill
#
# Bulk Modulus (GPa) = 55.36087 59.25737 57.30912
# Shear Modulus (GPa) = 17.99457 21.75045 19.87251
#
# Velocity S-wave (km/s) = 3.14674 3.45958 3.30686
# Velocity P-wave (km/s) = 6.60805 6.96894 6.79089
#
# Compressibility (1/GPa) = 0.01806330
#
# Stress axis : x y z
#
# Youngs Moduli (GPa) = 43.68364 56.23382 65.00641
#
# Poissons Ratio (x) = 0.35069 0.41082
# Poissons Ratio (y) = 0.27242 0.41873
# Poissons Ratio (z) = 0.27607 0.36222
#
# Static dielectric constant tensor:
#      x y z
#    x 3.696320 0.000000 0.000000 
#    y 0.000000 3.278990 0.000000 
#    z 0.000000 0.000000 3.597300 
# 
# 
# High freq. dielectric constant tensor:
#      x y z
#    x 1.678480 0.000000 0.000000 
#    y 0.000000 1.697540 0.000000 
#    z 0.000000 0.000000 1.711160 
# 
# From -- ./inp_files/33564.got.cif
#   From: 2010.03.12/outbox.cif.g09.slc.cpg/sg47_17_cif.got.tgz:33564.got - 2010.04.14 03:12:58.
