data_PCOD8197074
_publ_section_title
;
Structure prediction by ZEFSAII (Michael W. Deem and Ramdas Pophale) SiO2 
 PCOD8197074
Probable space group: P M M M
;
_chemical_formula_sum "Si O2"
_cell_formula_units_Z 44
_cell_length_a 28.547499
_cell_length_b 9.178560
_cell_length_c 9.130333
_cell_angle_alpha 90.000000
_cell_angle_beta 90.000000
_cell_angle_gamma 90.000000
_cell_volume 2392.374887
_symmetry_space_group_name_H-M "P M M M"
_symmetry_group_IT_number 47
_symmetry_cell_setting 'orthorhombic'
loop_
_space_group_symop_operation_xyz
x,y,z
-x,-y,z
x,-y,-z
-x,y,-z
-x,-y,-z
x,y,-z
-x,y,z
x,-y,z
loop_
_atom_site_type_symbol
_atom_site_label
_atom_site_fract_x
_atom_site_fract_y
_atom_site_fract_z
Si Si1 0.408618 0.169908 0.329278
Si Si2 0.051608 0.673037 0.335784
Si Si3 0.500000 0.664412 0.325776
Si Si4 0.316811 0.173198 0.165232
Si Si5 0.775504 0.170018 0.328856
Si Si6 0.141430 0.327016 0.833088
O O1 0.400243 0.200508 0.500000
O O2 0.453817 0.254192 0.267304
O O3 0.363542 0.231646 0.243854
O O4 0.416892 0.000000 0.299179
O O5 0.062541 0.729917 0.500000
O O6 0.051728 0.500000 0.335995
O O7 0.091194 0.730988 0.225007
O O8 0.000000 0.728881 0.285607
O O9 0.500000 0.500000 0.265982
O O10 0.500000 0.669412 0.500000
O O11 0.271394 0.230076 0.251644
O O12 0.317461 0.000000 0.168089
O O13 0.315033 0.233706 0.000000
O O14 0.770746 0.201332 0.500000
O O15 0.818949 0.257461 0.266209
O O16 0.782996 0.000000 0.295826
O O17 0.145027 0.500000 0.819399
O O18 0.147291 0.275030 0.000000
#
# Coordination Sequence:
#
# PCOD8197074 Si02
#       6
#     8   8   4   8   8   8
#     4   9  16  28  48  71  92 117 154 196 232 270
#     4   8  14  26  45  68  94 126 164 204 244 286
#     4   9  17  29  46  69  96 124 154 189 230 276
#     4   9  17  30  49  72  96 122 155 197 241 283
#     4  10  20  34  53  75  98 128 166 204 244 292
#     4  10  20  32  48  73 103 132 162 199 245 295
#
# _framework density 18.391766000000001
#
# number of rings (size 3 to 8) (size 9 to 14) (size 15 to 20)
#    0.000    2.818    0.000    2.455    0.000    5.818 
#    0.000    3.182    0.000    7.091    0.000    3.818 
#    0.000    0.000    0.000    0.000    0.000    0.000 
#
# Total GULP energy -545530.354233 kJ/mol
# GULP energy per Si atom -12398.417142 kJ/mol
# Density = 1.834991 g / cm^3
# Si number density = 18.391766 Si / 1000 Ang^3
#
#
#
# Elastic Constant Matrix: (Units=GPa)
#
#
# Indices 1 2 3 4 5 6 
#
# 1 178.6602 38.2844 71.4088 0.0000 0.0000 0.0000
# 2 38.2844 31.7646 26.6884 0.0000 0.0000 0.0000
# 3 71.4088 26.6884 99.9720 0.0000 0.0000 0.0000
# 4 0.0000 0.0000 0.0000 16.9363 0.0000 0.0000
# 5 0.0000 0.0000 0.0000 0.0000 17.0304 0.0000
# 6 0.0000 0.0000 0.0000 0.0000 0.0000 30.6234
#
#
#
# Elastic Compliance Matrix: (Units=1/GPa)
#
#
# Indices 1 2 3 4 5 6 
#
# 1 0.008876 -0.006924 -0.004492 0.000000 0.000000 0.000000
# 2 -0.006924 0.045986 -0.007330 0.000000 0.000000 0.000000
# 3 -0.004492 -0.007330 0.015168 0.000000 0.000000 0.000000
# 4 0.000000 0.000000 0.000000 0.059045 0.000000 0.000000
# 5 0.000000 0.000000 0.000000 0.000000 0.058719 0.000000
# 6 0.000000 0.000000 0.000000 0.000000 0.000000 0.032655
#
#
# Mechanical properties :
#
#
# Convention : Reuss Voigt Hill
#
# Bulk Modulus (GPa) = 30.73369 64.79554 47.76461
# Shear Modulus (GPa) = 18.60208 24.51905 21.56056
#
# Velocity S-wave (km/s) = 3.18376 3.65520 3.42759
# Velocity P-wave (km/s) = 5.50108 7.28843 6.45690
#
# Compressibility (1/GPa) = 0.03253759
#
# Stress axis : x y z
#
# Youngs Moduli (GPa) = 112.65959 21.74571 65.92770
#
# Poissons Ratio (x) = 0.15057 0.29613
# Poissons Ratio (y) = 0.78008 0.48328
# Poissons Ratio (z) = 0.50604 0.15941
#
# Static dielectric constant tensor:
#      x y z
#    x 3.736020 0.000000 0.000000 
#    y 0.000000 2.968050 0.000000 
#    z 0.000000 0.000000 3.440280 
# 
# 
# High freq. dielectric constant tensor:
#      x y z
#    x 1.733070 0.000000 0.000000 
#    y 0.000000 1.664180 0.000000 
#    z 0.000000 0.000000 1.708500 
# 
# From -- ./inp_files/2030.got.cif
#   From: 2010.03.12/outbox.cif.g09.slc.cpg/sg47_2_cif.got.tgz:2030.got - 2010.04.14 03:12:58.
