data_PCOD8197011
_publ_section_title
;
Structure prediction by ZEFSAII (Michael W. Deem and Ramdas Pophale) SiO2 
 PCOD8197011
Probable space group: P M M M
;
_chemical_formula_sum "Si O2"
_cell_formula_units_Z 52
_cell_length_a 9.347007
_cell_length_b 17.385828
_cell_length_c 17.941076
_cell_angle_alpha 90.000000
_cell_angle_beta 90.000000
_cell_angle_gamma 90.000000
_cell_volume 2915.522737
_symmetry_space_group_name_H-M "P M M M"
_symmetry_group_IT_number 47
_symmetry_cell_setting 'orthorhombic'
loop_
_space_group_symop_operation_xyz
x,y,z
-x,-y,z
x,-y,-z
-x,y,-z
-x,-y,-z
x,y,-z
-x,y,z
x,-y,z
loop_
_atom_site_type_symbol
_atom_site_label
_atom_site_fract_x
_atom_site_fract_y
_atom_site_fract_z
Si Si1 0.840625 0.590155 0.916105
Si Si2 0.338764 0.641653 0.786555
Si Si3 0.666318 0.724192 0.583855
Si Si4 0.659953 0.810063 0.273865
Si Si5 0.833293 0.587381 0.650071
Si Si6 0.170291 0.085241 0.000000
Si Si7 0.164259 0.091210 0.161914
O O1 0.813355 0.500000 0.911977
O O2 0.720482 0.633045 0.869324
O O3 0.000000 0.609802 0.886413
O O4 0.824456 0.620250 0.000000
O O5 0.500000 0.609421 0.780925
O O6 0.334603 0.731442 0.771046
O O7 0.237924 0.593755 0.731191
O O8 0.688140 0.755120 0.500000
O O9 0.500000 0.703995 0.600542
O O10 0.715954 0.790897 0.641799
O O11 0.756259 0.645913 0.593509
O O12 0.500000 0.843677 0.277655
O O13 0.754098 0.872573 0.231695
O O14 0.814539 0.500000 0.620691
O O15 0.000000 0.609185 0.656012
O O16 0.217570 0.123473 0.920293
O O17 0.000000 0.079740 0.000000
O O18 0.235867 0.000000 0.000000
O O19 0.000000 0.113671 0.173022
O O20 0.186438 0.000000 0.164383
#
# Coordination Sequence:
#
# PCOD8197011 Si02
#       7
#     8   8   8   8   8   4   8
#     4   9  18  32  48  66  90 122 163 211 258 300
#     4  10  20  33  48  67  94 128 167 207 247 295
#     4   9  19  36  55  73  97 131 169 207 247 296
#     4   9  19  34  50  72 100 128 160 200 246 293
#     4  10  20  32  48  72 100 128 160 203 253 302
#     4   7  12  26  47  71  99 127 156 191 228 271
#     4   9  17  31  53  78 102 130 165 202 239 286
#
# _framework density 17.835567000000001
#
# number of rings (size 3 to 8) (size 9 to 14) (size 15 to 20)
#    0.000    2.846    0.000    3.692    0.000    7.692 
#    1.385    2.692    0.000    1.846    0.000    3.231 
#    0.000    0.000    0.000    0.000    0.000    0.000 
#
# Total GULP energy -644398.349362 kJ/mol
# GULP energy per Si atom -12392.275949 kJ/mol
# Density = 1.779497 g / cm^3
# Si number density = 17.835567 Si / 1000 Ang^3
#
#
#
# Elastic Constant Matrix: (Units=GPa)
#
#
# Indices 1 2 3 4 5 6 
#
# 1 87.3190 31.2029 55.6665 0.0000 0.0000 0.0000
# 2 31.2029 39.3477 41.5561 0.0000 0.0000 0.0000
# 3 55.6665 41.5561 137.8664 0.0000 0.0000 0.0000
# 4 0.0000 0.0000 0.0000 18.7154 0.0000 0.0000
# 5 0.0000 0.0000 0.0000 0.0000 29.5926 0.0000
# 6 0.0000 0.0000 0.0000 0.0000 0.0000 25.9808
#
#
#
# Elastic Compliance Matrix: (Units=1/GPa)
#
#
# Indices 1 2 3 4 5 6 
#
# 1 0.017517 -0.009420 -0.004234 0.000000 0.000000 0.000000
# 2 -0.009420 0.042349 -0.008961 0.000000 0.000000 0.000000
# 3 -0.004234 -0.008961 0.011664 0.000000 0.000000 0.000000
# 4 0.000000 0.000000 0.000000 0.053432 0.000000 0.000000
# 5 0.000000 0.000000 0.000000 0.000000 0.033792 0.000000
# 6 0.000000 0.000000 0.000000 0.000000 0.000000 0.038490
#
#
# Mechanical properties :
#
#
# Convention : Reuss Voigt Hill
#
# Bulk Modulus (GPa) = 38.02264 57.93160 47.97712
# Shear Modulus (GPa) = 19.90115 23.93159 21.91637
#
# Velocity S-wave (km/s) = 3.34400 3.66702 3.50923
# Velocity P-wave (km/s) = 6.02283 7.10499 6.58617
#
# Compressibility (1/GPa) = 0.02630012
#
# Stress axis : x y z
#
# Youngs Moduli (GPa) = 57.08591 23.61327 85.73420
#
# Poissons Ratio (x) = 0.22244 0.36296
# Poissons Ratio (y) = 0.53776 0.76830
# Poissons Ratio (z) = 0.24168 0.21161
#
# Static dielectric constant tensor:
#      x y z
#    x 3.299420 0.000000 0.000000 
#    y 0.000000 2.939990 0.000000 
#    z 0.000000 0.000000 3.567590 
# 
# 
# High freq. dielectric constant tensor:
#      x y z
#    x 1.683990 0.000000 0.000000 
#    y 0.000000 1.655010 0.000000 
#    z 0.000000 0.000000 1.697060 
# 
# From -- ./inp_files/26720.got.cif
#   From: 2010.03.12/outbox.cif.g09.slc.cpg/sg47_14_cif.got.tgz:26720.got - 2010.04.14 03:12:58.
