data_PCOD8197166
_publ_section_title
;
Structure prediction by ZEFSAII (Michael W. Deem and Ramdas Pophale) SiO2 
 PCOD8197166
Probable space group: P M M M
;
_chemical_formula_sum "Si O2"
_cell_formula_units_Z 44
_cell_length_a 9.267924
_cell_length_b 28.459793
_cell_length_c 9.077683
_cell_angle_alpha 90.000000
_cell_angle_beta 90.000000
_cell_angle_gamma 90.000000
_cell_volume 2394.358704
_symmetry_space_group_name_H-M "P M M M"
_symmetry_group_IT_number 47
_symmetry_cell_setting 'orthorhombic'
loop_
_space_group_symop_operation_xyz
x,y,z
-x,-y,z
x,-y,-z
-x,y,-z
-x,-y,-z
x,y,-z
-x,y,z
x,-y,z
loop_
_atom_site_type_symbol
_atom_site_label
_atom_site_fract_x
_atom_site_fract_y
_atom_site_fract_z
Si Si1 0.663663 0.000000 0.324204
Si Si2 0.163181 0.910061 0.324633
Si Si3 0.168234 0.358935 0.327971
Si Si4 0.662077 0.551638 0.674957
Si Si5 0.665871 0.276133 0.827001
Si Si6 0.666815 0.819116 0.671134
O O1 0.746839 0.045730 0.263100
O O2 0.500000 0.000000 0.263809
O O3 0.662752 0.000000 0.500000
O O4 0.163431 0.911437 0.500000
O O5 0.238599 0.862400 0.269224
O O6 0.000000 0.912281 0.263524
O O7 0.203633 0.352659 0.500000
O O8 0.232987 0.407780 0.265109
O O9 0.236335 0.316229 0.240831
O O10 0.000000 0.359927 0.296225
O O11 0.665527 0.551302 0.500000
O O12 0.500000 0.562210 0.730770
O O13 0.712110 0.500000 0.732593
O O14 0.500000 0.286293 0.785061
O O15 0.715735 0.226512 0.760853
O O16 0.690152 0.274520 0.000000
O O17 0.696677 0.809112 0.500000
O O18 0.500000 0.831636 0.698998
#
# Coordination Sequence:
#
# PCOD8197166 Si02
#       6
#     4   8   8   8   8   8
#     4   9  15  23  37  59  90 125 156 187 228 278
#     4   9  16  25  39  62  92 123 154 190 232 279
#     4  10  20  32  49  75 104 133 164 199 242 291
#     4   8  14  26  46  72 100 129 161 197 237 282
#     4  10  21  36  53  72  95 127 167 208 249 293
#     4   9  17  30  48  69  93 122 157 197 240 285
#
# _framework density 18.376528
#
# number of rings (size 3 to 8) (size 9 to 14) (size 15 to 20)
#    0.000    2.818    0.000    2.455    0.000    6.545 
#    0.000    3.636    0.000    0.545    0.000    4.455 
#    0.000    5.091    0.000    0.000    0.000    0.000 
#
# Total GULP energy -545547.591034 kJ/mol
# GULP energy per Si atom -12398.808887 kJ/mol
# Density = 1.833470 g / cm^3
# Si number density = 18.376528 Si / 1000 Ang^3
#
#
#
# Elastic Constant Matrix: (Units=GPa)
#
#
# Indices 1 2 3 4 5 6 
#
# 1 121.8201 102.4868 33.7488 0.0000 0.0000 0.0000
# 2 102.4868 193.1401 43.2087 0.0000 0.0000 0.0000
# 3 33.7488 43.2087 31.6395 0.0000 0.0000 0.0000
# 4 0.0000 0.0000 0.0000 -3.6001 0.0000 0.0000
# 5 0.0000 0.0000 0.0000 0.0000 14.0370 0.0000
# 6 0.0000 0.0000 0.0000 0.0000 0.0000 18.3413
#
#
#
# Elastic Compliance Matrix: (Units=1/GPa)
#
#
# Indices 1 2 3 4 5 6 
#
# 1 0.016101 -0.006770 -0.007929 0.000000 0.000000 0.000000
# 2 -0.006770 0.010302 -0.006848 0.000000 0.000000 0.000000
# 3 -0.007929 -0.006848 0.049415 0.000000 0.000000 0.000000
# 4 0.000000 0.000000 0.000000 -0.277771 0.000000 0.000000
# 5 0.000000 0.000000 0.000000 0.000000 0.071241 0.000000
# 6 0.000000 0.000000 0.000000 0.000000 0.000000 0.054522
#
#
# Mechanical properties :
#
#
# Convention : Reuss Voigt Hill
#
# Bulk Modulus (GPa) = 30.55772 78.38761 54.47266
# Shear Modulus (GPa) = -225.33102 16.89932 -104.21585
#
# Velocity S-wave (km/s) = -11.08536 3.03580 -7.53887
# Velocity P-wave (km/s) = 12.13186 7.41870 6.78767
#
# Compressibility (1/GPa) = 0.03272496
#
# Stress axis : x y z
#
# Youngs Moduli (GPa) = 62.10823 97.07015 20.23671
#
# Poissons Ratio (x) = 0.65715 0.16046
# Poissons Ratio (y) = 0.42046 0.13857
# Poissons Ratio (z) = 0.49246 0.66470
#
# Static dielectric constant tensor:
#      x y z
#    x 3.484150 0.000000 0.000000 
#    y 0.000000 3.723030 0.000000 
#    z 0.000000 0.000000 2.843820 
# 
# 
# High freq. dielectric constant tensor:
#      x y z
#    x 1.715000 0.000000 0.000000 
#    y 0.000000 1.731580 0.000000 
#    z 0.000000 0.000000 1.653140 
# 
# From -- ./inp_files/2234.got.cif
#   From: 2010.03.12/outbox.cif.g09.slc.cpg/sg47_2_cif.got.tgz:2234.got - 2010.04.14 03:12:58.
