data_PCOD8197247
_publ_section_title
;
Structure prediction by ZEFSAII (Michael W. Deem and Ramdas Pophale) SiO2 
 PCOD8197247
Probable space group: P M M M
;
_chemical_formula_sum "Si O2"
_cell_formula_units_Z 52
_cell_length_a 18.645181
_cell_length_b 10.534072
_cell_length_c 14.574335
_cell_angle_alpha 90.000000
_cell_angle_beta 90.000000
_cell_angle_gamma 90.000000
_cell_volume 2862.540461
_symmetry_space_group_name_H-M "P M M M"
_symmetry_group_IT_number 47
_symmetry_cell_setting 'orthorhombic'
loop_
_space_group_symop_operation_xyz
x,y,z
-x,-y,z
x,-y,-z
-x,y,-z
-x,-y,-z
x,y,-z
-x,y,z
x,-y,z
loop_
_atom_site_type_symbol
_atom_site_label
_atom_site_fract_x
_atom_site_fract_y
_atom_site_fract_z
Si Si1 0.916071 0.647503 0.783305
Si Si2 0.584502 0.765687 0.726659
Si Si3 0.314600 0.355053 0.598829
Si Si4 0.334186 0.852364 0.897018
Si Si5 0.170687 0.143038 0.891423
Si Si6 0.584777 0.000000 0.397123
Si Si7 0.842934 0.650306 0.398980
O O1 0.891810 0.500000 0.800586
O O2 0.877881 0.744594 0.852174
O O3 0.897318 0.694710 0.680392
O O4 0.000000 0.660404 0.799501
O O5 0.500000 0.742228 0.725843
O O6 0.626219 0.650743 0.679046
O O7 0.610204 0.781114 0.830799
O O8 0.610563 0.880573 0.661733
O O9 0.342086 0.298728 0.500000
O O10 0.297620 0.500000 0.582984
O O11 0.236882 0.294938 0.624685
O O12 0.253039 0.829301 0.863531
O O13 0.353305 0.000000 0.895085
O O14 0.345490 0.798887 0.000000
O O15 0.148952 0.000000 0.857197
O O16 0.163162 0.146532 0.000000
O O17 0.500000 0.000000 0.404271
O O18 0.618150 0.000000 0.500000
O O19 0.866998 0.701259 0.500000
O O20 0.843905 0.500000 0.400691
#
# Coordination Sequence:
#
# PCOD8197247 Si02
#       7
#     8   8   8   8   8   4   8
#     4  10  20  32  50  80 112 137 163 202 253 303
#     4  11  20  30  47  71  99 130 159 199 255 303
#     4   9  18  32  50  71  95 129 172 210 243 288
#     4   9  18  34  54  74  96 124 165 212 251 295
#     4   9  19  36  56  75  97 132 174 212 252 300
#     4   9  18  30  41  61  95 127 151 182 234 294
#     4   8  15  30  51  73  99 132 169 207 245 290
#
# _framework density 18.165682
#
# number of rings (size 3 to 8) (size 9 to 14) (size 15 to 20)
#    0.000    2.692    0.769    3.231    0.000    2.769 
#    0.000    4.615    0.000    1.846    0.000    2.154 
#    0.000    0.000    0.000    0.000    0.000    0.000 
#
# Total GULP energy -644240.641400 kJ/mol
# GULP energy per Si atom -12389.243104 kJ/mol
# Density = 1.812434 g / cm^3
# Si number density = 18.165682 Si / 1000 Ang^3
#
#
#
# Elastic Constant Matrix: (Units=GPa)
#
#
# Indices 1 2 3 4 5 6 
#
# 1 48.4707 13.9230 22.3022 0.0000 0.0000 0.0000
# 2 13.9230 39.2472 16.4054 0.0000 0.0000 0.0000
# 3 22.3022 16.4054 77.3281 0.0000 0.0000 0.0000
# 4 0.0000 0.0000 0.0000 24.2097 0.0000 0.0000
# 5 0.0000 0.0000 0.0000 0.0000 26.6640 0.0000
# 6 0.0000 0.0000 0.0000 0.0000 0.0000 21.5377
#
#
#
# Elastic Compliance Matrix: (Units=1/GPa)
#
#
# Indices 1 2 3 4 5 6 
#
# 1 0.025204 -0.006477 -0.005895 0.000000 0.000000 0.000000
# 2 -0.006477 0.029623 -0.004417 0.000000 0.000000 0.000000
# 3 -0.005895 -0.004417 0.015569 0.000000 0.000000 0.000000
# 4 0.000000 0.000000 0.000000 0.041306 0.000000 0.000000
# 5 0.000000 0.000000 0.000000 0.000000 0.037504 0.000000
# 6 0.000000 0.000000 0.000000 0.000000 0.000000 0.046430
#
#
# Mechanical properties :
#
#
# Convention : Reuss Voigt Hill
#
# Bulk Modulus (GPa) = 27.15978 30.03414 28.59696
# Shear Modulus (GPa) = 20.70508 21.97663 21.34085
#
# Velocity S-wave (km/s) = 3.37974 3.48197 3.43124
# Velocity P-wave (km/s) = 5.49671 5.72144 5.61020
#
# Compressibility (1/GPa) = 0.03681915
#
# Stress axis : x y z
#
# Youngs Moduli (GPa) = 39.67635 33.75701 64.22987
#
# Poissons Ratio (x) = 0.21865 0.37863
# Poissons Ratio (y) = 0.25699 0.28368
# Poissons Ratio (z) = 0.23389 0.14909
#
# Static dielectric constant tensor:
#      x y z
#    x 3.216660 0.000000 0.000000 
#    y 0.000000 3.137300 0.000000 
#    z 0.000000 0.000000 3.580490 
# 
# 
# High freq. dielectric constant tensor:
#      x y z
#    x 1.694930 0.000000 0.000000 
#    y 0.000000 1.669830 0.000000 
#    z 0.000000 0.000000 1.712240 
# 
# From -- ./inp_files/19163.got.cif
#   From: 2010.03.12/outbox.cif.g09.slc.cpg/sg47_10_cif.got.tgz:19163.got - 2010.04.14 03:12:58.
