data_PCOD8197906
_publ_section_title
;
Structure prediction by ZEFSAII (Michael W. Deem and Ramdas Pophale) SiO2 
 PCOD8197906
Probable space group: P M M M
;
_chemical_formula_sum "Si O2"
_cell_formula_units_Z 40
_cell_length_a 16.751403
_cell_length_b 13.307941
_cell_length_c 9.514453
_cell_angle_alpha 90.000000
_cell_angle_beta 90.000000
_cell_angle_gamma 90.000000
_cell_volume 2121.025446
_symmetry_space_group_name_H-M "P M M M"
_symmetry_group_IT_number 47
_symmetry_cell_setting 'orthorhombic'
loop_
_space_group_symop_operation_xyz
x,y,z
-x,-y,z
x,-y,-z
-x,y,-z
-x,-y,-z
x,y,-z
-x,y,z
x,-y,z
loop_
_atom_site_type_symbol
_atom_site_label
_atom_site_fract_x
_atom_site_fract_y
_atom_site_fract_z
Si Si1 0.594481 0.500000 0.662735
Si Si2 0.844936 0.725736 0.838242
Si Si3 0.000000 0.389553 0.167203
Si Si4 0.667285 0.317611 0.164125
Si Si5 0.090000 0.884761 0.657866
Si Si6 0.409728 0.110802 0.166497
O O1 0.500000 0.500000 0.671220
O O2 0.623227 0.500000 0.500000
O O3 0.625010 0.599454 0.741034
O O4 0.919065 0.661904 0.777819
O O5 0.762061 0.667659 0.815315
O O6 0.845123 0.829805 0.754175
O O7 0.857316 0.752697 0.000000
O O8 0.000000 0.500000 0.232335
O O9 0.000000 0.392989 0.000000
O O10 0.643422 0.205377 0.218071
O O11 0.643463 0.332846 0.000000
O O12 0.095232 0.842771 0.500000
O O13 0.000000 0.869026 0.716414
O O14 0.114043 0.000000 0.661155
O O15 0.500000 0.128533 0.220101
O O16 0.379563 0.000000 0.221339
O O17 0.407794 0.108611 0.000000
#
# Coordination Sequence:
#
# PCOD8197906 Si02
#       6
#     4   8   4   8   8   8
#     4  11  25  43  61  82 113 152 188 226 276 331
#     4  10  20  33  53  81 108 139 179 228 283 332
#     4   9  18  32  50  69 100 140 173 213 274 337
#     4  10  21  35  57  87 114 142 184 233 279 331
#     4   9  18  33  52  73 103 147 192 230 271 322
#     4   8  14  27  49  77 108 139 171 214 271 328
#
# _framework density 18.858802000000001
#
# number of rings (size 3 to 8) (size 9 to 14) (size 15 to 20)
#    0.000    2.600    1.000    2.100    1.400    3.600 
#    0.000    3.000    0.000    1.200    0.000    2.800 
#    0.000    0.000    0.000    0.000    0.000    0.000 
#
# Total GULP energy -495761.022316 kJ/mol
# GULP energy per Si atom -12394.025558 kJ/mol
# Density = 1.881588 g / cm^3
# Si number density = 18.858802 Si / 1000 Ang^3
#
#
#
# Elastic Constant Matrix: (Units=GPa)
#
#
# Indices 1 2 3 4 5 6 
#
# 1 97.1860 57.4748 36.0707 0.0000 0.0000 0.0000
# 2 57.4748 136.7174 52.3760 0.0000 0.0000 0.0000
# 3 36.0707 52.3760 65.9326 0.0000 0.0000 0.0000
# 4 0.0000 0.0000 0.0000 128.9964 0.0000 0.0000
# 5 0.0000 0.0000 0.0000 0.0000 19.4172 0.0000
# 6 0.0000 0.0000 0.0000 0.0000 0.0000 25.9702
#
#
#
# Elastic Compliance Matrix: (Units=1/GPa)
#
#
# Indices 1 2 3 4 5 6 
#
# 1 0.014552 -0.004410 -0.004458 0.000000 0.000000 0.000000
# 2 -0.004410 0.011850 -0.007001 0.000000 0.000000 0.000000
# 3 -0.004458 -0.007001 0.023168 0.000000 0.000000 0.000000
# 4 0.000000 0.000000 0.000000 0.007752 0.000000 0.000000
# 5 0.000000 0.000000 0.000000 0.000000 0.051501 0.000000
# 6 0.000000 0.000000 0.000000 0.000000 0.000000 0.038506
#
#
# Mechanical properties :
#
#
# Convention : Reuss Voigt Hill
#
# Bulk Modulus (GPa) = 56.07960 65.74212 60.91086
# Shear Modulus (GPa) = 27.02545 45.13774 36.08160
#
# Velocity S-wave (km/s) = 3.78966 4.89761 4.37882
# Velocity P-wave (km/s) = 6.99642 8.18034 7.61143
#
# Compressibility (1/GPa) = 0.01783180
#
# Stress axis : x y z
#
# Youngs Moduli (GPa) = 68.71892 84.38622 43.16337
#
# Poissons Ratio (x) = 0.37211 0.19243
# Poissons Ratio (y) = 0.30302 0.30220
# Poissons Ratio (z) = 0.30637 0.59081
#
# Static dielectric constant tensor:
#      x y z
#    x 3.518580 0.000000 0.000000 
#    y 0.000000 3.734470 0.000000 
#    z 0.000000 0.000000 3.129360 
# 
# 
# High freq. dielectric constant tensor:
#      x y z
#    x 1.730650 0.000000 0.000000 
#    y 0.000000 1.740810 0.000000 
#    z 0.000000 0.000000 1.692370 
# 
# From -- ./inp_files/5798.got.cif
#   From: 2010.03.12/outbox.cif.g09.slc.cpg/sg47_3_cif.got.tgz:5798.got - 2010.04.14 03:12:58.
