data_PCOD8197799
_publ_section_title
;
Structure prediction by ZEFSAII (Michael W. Deem and Ramdas Pophale) SiO2 
 PCOD8197799
Probable space group: P M M M
;
_chemical_formula_sum "Si O2"
_cell_formula_units_Z 44
_cell_length_a 9.355227
_cell_length_b 28.324836
_cell_length_c 8.677812
_cell_angle_alpha 90.000000
_cell_angle_beta 90.000000
_cell_angle_gamma 90.000000
_cell_volume 2299.492360
_symmetry_space_group_name_H-M "P M M M"
_symmetry_group_IT_number 47
_symmetry_cell_setting 'orthorhombic'
loop_
_space_group_symop_operation_xyz
x,y,z
-x,-y,z
x,-y,-z
-x,y,-z
-x,-y,-z
x,y,-z
-x,y,z
x,-y,z
loop_
_atom_site_type_symbol
_atom_site_label
_atom_site_fract_x
_atom_site_fract_y
_atom_site_fract_z
Si Si1 0.659685 0.000000 0.315766
Si Si2 0.157963 0.913437 0.317170
Si Si3 0.160414 0.360722 0.317290
Si Si4 0.660362 0.552256 0.683295
Si Si5 0.664714 0.275795 0.820298
Si Si6 0.833003 0.807549 0.679120
O O1 0.736007 0.953020 0.250131
O O2 0.500000 0.000000 0.250668
O O3 0.661699 0.000000 0.500000
O O4 0.151194 0.916866 0.500000
O O5 0.208541 0.860880 0.271468
O O6 0.000000 0.923220 0.249784
O O7 0.154832 0.363235 0.500000
O O8 0.232732 0.408313 0.249080
O O9 0.252873 0.315918 0.271709
O O10 0.000000 0.356521 0.249688
O O11 0.660779 0.554092 0.500000
O O12 0.500000 0.562813 0.743664
O O13 0.709459 0.500000 0.738725
O O14 0.500000 0.275155 0.767201
O O15 0.735627 0.225735 0.782876
O O16 0.678612 0.286218 0.000000
O O17 0.798884 0.798511 0.500000
O O18 0.000000 0.797792 0.711372
#
# Coordination Sequence:
#
# PCOD8197799 Si02
#       6
#     4   8   8   8   8   8
#     4   9  15  21  33  59  94 127 158 191 228 274
#     4   8  14  25  41  62  91 125 156 189 233 284
#     4  10  20  33  52  78 104 131 165 204 245 289
#     4   8  14  26  46  73 104 135 164 195 235 284
#     4  11  24  38  51  70  97 130 167 205 248 298
#     4   9  18  33  53  76  99 125 162 205 247 293
#
# _framework density 19.134657000000001
#
# number of rings (size 3 to 8) (size 9 to 14) (size 15 to 20)
#    0.000    2.818    0.000    3.545    0.000    7.273 
#    0.000    3.636    0.000    0.545    0.000    4.455 
#    0.000    5.091    0.000    0.000    0.000    0.000 
#
# Total GULP energy -545456.161299 kJ/mol
# GULP energy per Si atom -12396.730939 kJ/mol
# Density = 1.909111 g / cm^3
# Si number density = 19.134657 Si / 1000 Ang^3
#
#
#
# Elastic Constant Matrix: (Units=GPa)
#
#
# Indices 1 2 3 4 5 6 
#
# 1 138.5889 90.1214 13.7857 0.0000 0.0000 0.0000
# 2 90.1214 158.7087 7.8704 0.0000 0.0000 0.0000
# 3 13.7857 7.8704 11.3973 0.0000 0.0000 0.0000
# 4 0.0000 0.0000 0.0000 -1.8209 0.0000 0.0000
# 5 0.0000 0.0000 0.0000 0.0000 15.9438 0.0000
# 6 0.0000 0.0000 0.0000 0.0000 0.0000 37.4983
#
#
#
# Elastic Compliance Matrix: (Units=1/GPa)
#
#
# Indices 1 2 3 4 5 6 
#
# 1 0.012574 -0.006612 -0.010643 0.000000 0.000000 0.000000
# 2 -0.006612 0.010001 0.001091 0.000000 0.000000 0.000000
# 3 -0.010643 0.001091 0.099859 0.000000 0.000000 0.000000
# 4 0.000000 0.000000 0.000000 -0.549172 0.000000 0.000000
# 5 0.000000 0.000000 0.000000 0.000000 0.062720 0.000000
# 6 0.000000 0.000000 0.000000 0.000000 0.000000 0.026668
#
#
# Mechanical properties :
#
#
# Convention : Reuss Voigt Hill
#
# Bulk Modulus (GPa) = 11.09787 59.13888 35.11837
# Shear Modulus (GPa) = -18.18278 23.45207 2.63464
#
# Velocity S-wave (km/s) = -3.08596 3.50470 1.17469
# Velocity P-wave (km/s) = 2.62394 6.88121 4.49811
#
# Compressibility (1/GPa) = 0.09010742
#
# Stress axis : x y z
#
# Youngs Moduli (GPa) = 79.52863 99.98532 10.01407
#
# Poissons Ratio (x) = 0.66113 0.10658
# Poissons Ratio (y) = 0.52587 -0.01093
# Poissons Ratio (z) = 0.84641 -0.10912
#
# Static dielectric constant tensor:
#      x y z
#    x 3.765270 0.000000 0.000000 
#    y 0.000000 3.806590 0.000000 
#    z 0.000000 0.000000 2.887530 
# 
# 
# High freq. dielectric constant tensor:
#      x y z
#    x 1.747500 0.000000 0.000000 
#    y 0.000000 1.762340 0.000000 
#    z 0.000000 0.000000 1.683660 
# 
# From -- ./inp_files/2231.got.cif
#   From: 2010.03.12/outbox.cif.g09.slc.cpg/sg47_2_cif.got.tgz:2231.got - 2010.04.14 03:12:58.
