data_PCOD8197025
_publ_section_title
;
Structure prediction by ZEFSAII (Michael W. Deem and Ramdas Pophale) SiO2 
 PCOD8197025
Probable space group: P M M M
;
_chemical_formula_sum "Si O2"
_cell_formula_units_Z 44
_cell_length_a 9.403859
_cell_length_b 30.200330
_cell_length_c 8.066820
_cell_angle_alpha 90.000000
_cell_angle_beta 90.000000
_cell_angle_gamma 90.000000
_cell_volume 2290.974017
_symmetry_space_group_name_H-M "P M M M"
_symmetry_group_IT_number 47
_symmetry_cell_setting 'orthorhombic'
loop_
_space_group_symop_operation_xyz
x,y,z
-x,-y,z
x,-y,-z
-x,y,-z
-x,-y,-z
x,y,-z
-x,y,z
x,-y,z
loop_
_atom_site_type_symbol
_atom_site_label
_atom_site_fract_x
_atom_site_fract_y
_atom_site_fract_z
Si Si1 0.168479 0.952205 0.187811
Si Si2 0.831030 0.395246 0.685002
Si Si3 0.830351 0.449742 0.000000
Si Si4 0.838224 0.859924 0.310769
Si Si5 0.162597 0.300539 0.803574
Si Si6 0.656936 0.780989 0.191852
O O1 0.222427 0.910104 0.293004
O O2 0.000000 0.953879 0.196648
O O3 0.226836 0.000000 0.255271
O O4 0.220471 0.945503 0.000000
O O5 0.778937 0.410174 0.500000
O O6 0.770189 0.426666 0.831740
O O7 0.779970 0.345121 0.717668
O O8 0.000000 0.396952 0.693108
O O9 0.775567 0.500000 0.000000
O O10 0.000000 0.447249 0.000000
O O11 0.832835 0.845477 0.500000
O O12 0.738999 0.827047 0.209933
O O13 0.000000 0.856995 0.241723
O O14 0.254505 0.259794 0.730909
O O15 0.000000 0.290919 0.753816
O O16 0.176730 0.306455 0.000000
O O17 0.500000 0.783832 0.274865
O O18 0.639582 0.771088 0.000000
#
# Coordination Sequence:
#
# PCOD8197025 Si02
#       6
#     8   8   4   8   8   8
#     4   8  14  26  46  71  96 122 155 197 242 287
#     4   9  16  26  42  65  93 127 167 207 247 296
#     4   9  16  26  40  62  97 135 167 203 248 297
#     4  10  20  32  48  72 101 132 165 200 242 295
#     4   9  16  29  49  69  93 127 165 206 251 297
#     4  10  21  35  51  72  98 130 167 206 251 301
#
# _framework density 19.205803
#
# number of rings (size 3 to 8) (size 9 to 14) (size 15 to 20)
#    0.000    2.818    0.909    1.636    0.000    3.636 
#    0.000    5.455    0.000    0.545    0.000    3.818 
#    0.000    1.455    0.000    1.636    0.000    1.818 
#
# Total GULP energy -545255.359646 kJ/mol
# GULP energy per Si atom -12392.167265 kJ/mol
# Density = 1.916209 g / cm^3
# Si number density = 19.205803 Si / 1000 Ang^3
#
#
#
# Elastic Constant Matrix: (Units=GPa)
#
#
# Indices 1 2 3 4 5 6 
#
# 1 58.8982 47.6654 18.0658 0.0000 0.0000 0.0000
# 2 47.6654 163.7977 50.4891 0.0000 0.0000 0.0000
# 3 18.0658 50.4891 71.5376 0.0000 0.0000 0.0000
# 4 0.0000 0.0000 0.0000 16.0785 0.0000 0.0000
# 5 0.0000 0.0000 0.0000 0.0000 7.7615 0.0000
# 6 0.0000 0.0000 0.0000 0.0000 0.0000 1.8534
#
#
#
# Elastic Compliance Matrix: (Units=1/GPa)
#
#
# Indices 1 2 3 4 5 6 
#
# 1 0.022309 -0.006078 -0.001345 0.000000 0.000000 0.000000
# 2 -0.006078 0.009458 -0.005141 0.000000 0.000000 0.000000
# 3 -0.001345 -0.005141 0.017946 0.000000 0.000000 0.000000
# 4 0.000000 0.000000 0.000000 0.062195 0.000000 0.000000
# 5 0.000000 0.000000 0.000000 0.000000 0.128841 0.000000
# 6 0.000000 0.000000 0.000000 0.000000 0.000000 0.539554
#
#
# Mechanical properties :
#
#
# Convention : Reuss Voigt Hill
#
# Bulk Modulus (GPa) = 40.66940 58.51937 49.59438
# Shear Modulus (GPa) = 6.14534 17.00622 11.57578
#
# Velocity S-wave (km/s) = 1.79072 2.97892 2.45770
# Velocity P-wave (km/s) = 5.04947 6.50905 5.82515
#
# Compressibility (1/GPa) = 0.02458851
#
# Stress axis : x y z
#
# Youngs Moduli (GPa) = 44.82419 105.72829 55.72208
#
# Poissons Ratio (x) = 0.64258 0.07492
# Poissons Ratio (y) = 0.27243 0.28644
# Poissons Ratio (z) = 0.06027 0.54350
#
# Static dielectric constant tensor:
#      x y z
#    x 3.109890 0.000000 0.000000 
#    y 0.000000 3.946590 0.000000 
#    z 0.000000 0.000000 3.478070 
# 
# 
# High freq. dielectric constant tensor:
#      x y z
#    x 1.678320 0.000000 0.000000 
#    y 0.000000 1.759350 0.000000 
#    z 0.000000 0.000000 1.739180 
# 
# From -- ./inp_files/2184.got.cif
#   From: 2010.03.12/outbox.cif.g09.slc.cpg/sg47_2_cif.got.tgz:2184.got - 2010.04.14 03:12:58.
