data_PCOD8197517
_publ_section_title
;
Structure prediction by ZEFSAII (Michael W. Deem and Ramdas Pophale) SiO2 
 PCOD8197517
Probable space group: P M M M
;
_chemical_formula_sum "Si O2"
_cell_formula_units_Z 44
_cell_length_a 8.889229
_cell_length_b 9.236743
_cell_length_c 28.334493
_cell_angle_alpha 90.000000
_cell_angle_beta 90.000000
_cell_angle_gamma 90.000000
_cell_volume 2326.475057
_symmetry_space_group_name_H-M "P M M M"
_symmetry_group_IT_number 47
_symmetry_cell_setting 'orthorhombic'
loop_
_space_group_symop_operation_xyz
x,y,z
-x,-y,z
x,-y,-z
-x,y,-z
-x,-y,-z
x,y,-z
-x,y,z
x,-y,z
loop_
_atom_site_type_symbol
_atom_site_label
_atom_site_fract_x
_atom_site_fract_y
_atom_site_fract_z
Si Si1 0.175919 0.165550 0.316713
Si Si2 0.676510 0.166629 0.414692
Si Si3 0.679056 0.162354 0.140304
Si Si4 0.826034 0.329809 0.500000
Si Si5 0.678948 0.662609 0.947910
Si Si6 0.325424 0.330311 0.767358
O O1 0.260438 0.213426 0.364050
O O2 0.228606 0.270661 0.275550
O O3 0.000000 0.185288 0.325313
O O4 0.216524 0.000000 0.303394
O O5 0.500000 0.193804 0.415082
O O6 0.751039 0.266081 0.453622
O O7 0.716396 0.000000 0.425664
O O8 0.500000 0.161571 0.138094
O O9 0.745853 0.232890 0.092423
O O10 0.733737 0.254689 0.185035
O O11 0.742942 0.000000 0.144781
O O12 0.799921 0.500000 0.500000
O O13 0.000000 0.287416 0.500000
O O14 0.500000 0.662413 0.945203
O O15 0.738533 0.500000 0.938975
O O16 0.730632 0.716582 0.000000
O O17 0.500000 0.294220 0.758218
O O18 0.297675 0.500000 0.772737
#
# Coordination Sequence:
#
# PCOD8197517 Si02
#       6
#     8   8   8   4   8   8
#     4  10  21  37  57  80 105 134 169 211 260 311
#     4  10  21  38  61  86 110 140 179 219 260 309
#     4   9  16  25  39  60  87 121 162 208 254 301
#     4  11  24  39  56  82 116 151 184 219 260 304
#     4   8  13  21  33  51  80 119 159 199 247 304
#     4  10  20  33  50  72  99 133 171 210 255 308
#
# _framework density 18.912731000000001
#
# number of rings (size 3 to 8) (size 9 to 14) (size 15 to 20)
#    0.000    2.455    0.000    3.273    0.000    8.364 
#    0.000    1.818    0.000    0.000    0.000    0.000 
#    0.000    0.727    0.000    7.636    0.000   10.545 
#
# Total GULP energy -545633.793237 kJ/mol
# GULP energy per Si atom -12400.768028 kJ/mol
# Density = 1.886969 g / cm^3
# Si number density = 18.912731 Si / 1000 Ang^3
#
#
#
# Elastic Constant Matrix: (Units=GPa)
#
#
# Indices 1 2 3 4 5 6 
#
# 1 53.6318 37.9929 46.7595 0.0000 0.0000 0.0000
# 2 37.9929 110.2926 83.7631 0.0000 0.0000 0.0000
# 3 46.7595 83.7631 166.8369 0.0000 0.0000 0.0000
# 4 0.0000 0.0000 0.0000 47.5398 0.0000 0.0000
# 5 0.0000 0.0000 0.0000 0.0000 -34.1256 0.0000
# 6 0.0000 0.0000 0.0000 0.0000 0.0000 20.9793
#
#
#
# Elastic Compliance Matrix: (Units=1/GPa)
#
#
# Indices 1 2 3 4 5 6 
#
# 1 0.026711 -0.005682 -0.004633 0.000000 0.000000 0.000000
# 2 -0.005682 0.015863 -0.006372 0.000000 0.000000 0.000000
# 3 -0.004633 -0.006372 0.010492 0.000000 0.000000 0.000000
# 4 0.000000 0.000000 0.000000 0.021035 0.000000 0.000000
# 5 0.000000 0.000000 0.000000 0.000000 -0.029303 0.000000
# 6 0.000000 0.000000 0.000000 0.000000 0.000000 0.047666
#
#
# Mechanical properties :
#
#
# Convention : Reuss Voigt Hill
#
# Bulk Modulus (GPa) = 50.78565 74.19913 62.49239
# Shear Modulus (GPa) = 37.76392 17.69509 27.72951
#
# Velocity S-wave (km/s) = 4.47334 3.06211 3.83323
# Velocity P-wave (km/s) = 7.32066 7.19858 7.25987
#
# Compressibility (1/GPa) = 0.01969060
#
# Stress axis : x y z
#
# Youngs Moduli (GPa) = 37.43834 63.03821 95.31457
#
# Poissons Ratio (x) = 0.35820 0.44162
# Poissons Ratio (y) = 0.21273 0.60733
# Poissons Ratio (z) = 0.17346 0.40167
#
# Static dielectric constant tensor:
#      x y z
#    x 3.108840 0.000000 0.000000 
#    y 0.000000 3.564760 0.000000 
#    z 0.000000 0.000000 3.687320 
# 
# 
# High freq. dielectric constant tensor:
#      x y z
#    x 1.695760 0.000000 0.000000 
#    y 0.000000 1.736680 0.000000 
#    z 0.000000 0.000000 1.752600 
# 
# From -- ./inp_files/13662.got.cif
#   From: 2010.03.12/outbox.cif.g09.slc.cpg/sg47_7_cif.got.tgz:13662.got - 2010.04.14 03:12:58.
