data_PCOD8197621
_publ_section_title
;
Structure prediction by ZEFSAII (Michael W. Deem and Ramdas Pophale) SiO2 
 PCOD8197621
Probable space group: P M M M
;
_chemical_formula_sum "Si O2"
_cell_formula_units_Z 52
_cell_length_a 10.556541
_cell_length_b 8.792315
_cell_length_c 30.792457
_cell_angle_alpha 90.000000
_cell_angle_beta 90.000000
_cell_angle_gamma 90.000000
_cell_volume 2858.046046
_symmetry_space_group_name_H-M "P M M M"
_symmetry_group_IT_number 47
_symmetry_cell_setting 'orthorhombic'
loop_
_space_group_symop_operation_xyz
x,y,z
-x,-y,z
x,-y,-z
-x,y,-z
-x,-y,-z
x,y,-z
-x,y,z
x,-y,z
loop_
_atom_site_type_symbol
_atom_site_label
_atom_site_fract_x
_atom_site_fract_y
_atom_site_fract_z
Si Si1 0.000000 0.820961 0.050015
Si Si2 0.650043 0.170656 0.833368
Si Si3 0.854946 0.682096 0.405944
Si Si4 0.350516 0.670092 0.252577
Si Si5 0.354324 0.820115 0.657256
Si Si6 0.148248 0.664164 0.500000
Si Si7 0.249504 0.321010 0.081601
Si Si8 0.642408 0.835255 0.000000
O O1 0.884326 0.757943 0.077089
O O2 0.000000 0.000000 0.051082
O O3 0.000000 0.761242 0.000000
O O4 0.500000 0.164452 0.830643
O O5 0.706677 0.243536 0.789282
O O6 0.688768 0.276264 0.873098
O O7 0.704602 0.000000 0.839053
O O8 0.846707 0.500000 0.405618
O O9 0.748283 0.749633 0.374963
O O10 0.818953 0.747592 0.454361
O O11 0.000000 0.731148 0.393156
O O12 0.500000 0.659510 0.247569
O O13 0.292640 0.500000 0.255546
O O14 0.313970 0.764169 0.295192
O O15 0.500000 0.769187 0.646226
O O16 0.343897 0.000000 0.655628
O O17 0.217572 0.500000 0.500000
O O18 0.000000 0.634591 0.500000
O O19 0.234905 0.500000 0.078999
O O20 0.334830 0.263975 0.042281
O O21 0.500000 0.884687 0.000000
O O22 0.718909 0.000000 0.000000
#
# Coordination Sequence:
#
# PCOD8197621 Si02
#       8
#     4   8   8   8   8   4   8   4
#     4  11  23  41  63  79 100 138 180 214 252 305
#     4  10  20  35  56  82 112 143 173 208 256 313
#     4   9  17  31  53  78 103 135 178 227 276 323
#     4   9  17  31  53  79 105 135 174 218 261 307
#     4  10  20  33  50  75 108 145 182 219 265 323
#     4   7  12  26  48  73 100 132 174 223 272 323
#     4  12  24  37  57  82 108 136 173 216 256 301
#     4  11  23  38  55  78 109 141 171 207 256 307
#
# _framework density 18.194248000000002
#
# number of rings (size 3 to 8) (size 9 to 14) (size 15 to 20)
#    0.000    2.077    0.769    4.615    0.000    6.769 
#    0.000    0.769    1.692    3.692    0.000    0.000 
#    0.000    0.000    0.000    0.000    0.000    0.000 
#
# Total GULP energy -644408.215419 kJ/mol
# GULP energy per Si atom -12392.465681 kJ/mol
# Density = 1.815284 g / cm^3
# Si number density = 18.194248 Si / 1000 Ang^3
#
#
#
# Elastic Constant Matrix: (Units=GPa)
#
#
# Indices 1 2 3 4 5 6 
#
# 1 67.5627 31.5797 50.1608 0.0000 0.0000 0.0000
# 2 31.5797 87.6990 41.8325 0.0000 0.0000 0.0000
# 3 50.1608 41.8325 156.2926 0.0000 0.0000 0.0000
# 4 0.0000 0.0000 0.0000 17.0657 0.0000 0.0000
# 5 0.0000 0.0000 0.0000 0.0000 24.2649 0.0000
# 6 0.0000 0.0000 0.0000 0.0000 0.0000 24.2002
#
#
#
# Elastic Compliance Matrix: (Units=1/GPa)
#
#
# Indices 1 2 3 4 5 6 
#
# 1 0.021206 -0.005032 -0.005459 0.000000 0.000000 0.000000
# 2 -0.005032 0.014266 -0.002203 0.000000 0.000000 0.000000
# 3 -0.005459 -0.002203 0.008740 0.000000 0.000000 0.000000
# 4 0.000000 0.000000 0.000000 0.058597 0.000000 0.000000
# 5 0.000000 0.000000 0.000000 0.000000 0.041212 0.000000
# 6 0.000000 0.000000 0.000000 0.000000 0.000000 0.041322
#
#
# Mechanical properties :
#
#
# Convention : Reuss Voigt Hill
#
# Bulk Modulus (GPa) = 53.12690 62.07781 57.60236
# Shear Modulus (GPa) = 23.04084 25.63824 24.33954
#
# Velocity S-wave (km/s) = 3.56248 3.75792 3.66151
# Velocity P-wave (km/s) = 6.79595 7.28168 7.04300
#
# Compressibility (1/GPa) = 0.01882286
#
# Stress axis : x y z
#
# Youngs Moduli (GPa) = 47.15608 70.09858 114.41643
#
# Poissons Ratio (x) = 0.35275 0.62461
# Poissons Ratio (y) = 0.23730 0.25209
# Poissons Ratio (z) = 0.25743 0.15444
#
# Static dielectric constant tensor:
#      x y z
#    x 3.100020 0.000000 0.000000 
#    y 0.000000 3.442200 0.000000 
#    z 0.000000 0.000000 3.713110 
# 
# 
# High freq. dielectric constant tensor:
#      x y z
#    x 1.674250 0.000000 0.000000 
#    y 0.000000 1.710540 0.000000 
#    z 0.000000 0.000000 1.715630 
# 
# From -- ./inp_files/34553.got.cif
#   From: 2010.03.12/outbox.cif.g09.slc.cpg/sg47_18_cif.got.tgz:34553.got - 2010.04.14 03:12:58.
