data_PCOD8197875
_publ_section_title
;
Structure prediction by ZEFSAII (Michael W. Deem and Ramdas Pophale) SiO2 
 PCOD8197875
Probable space group: P M M M
;
_chemical_formula_sum "Si O2"
_cell_formula_units_Z 44
_cell_length_a 14.205017
_cell_length_b 11.393530
_cell_length_c 15.545196
_cell_angle_alpha 90.000000
_cell_angle_beta 90.000000
_cell_angle_gamma 90.000000
_cell_volume 2515.916713
_symmetry_space_group_name_H-M "P M M M"
_symmetry_group_IT_number 47
_symmetry_cell_setting 'orthorhombic'
loop_
_space_group_symop_operation_xyz
x,y,z
-x,-y,z
x,-y,-z
-x,y,-z
-x,-y,-z
x,y,-z
-x,y,z
x,-y,z
loop_
_atom_site_type_symbol
_atom_site_label
_atom_site_fract_x
_atom_site_fract_y
_atom_site_fract_z
Si Si1 0.894623 0.139274 0.500000
Si Si2 0.791257 0.139148 0.672068
Si Si3 0.398109 0.138922 0.404554
Si Si4 0.111180 0.500000 0.901163
Si Si5 0.797233 0.734539 0.845140
Si Si6 0.893018 0.138334 0.000000
Si Si7 0.606272 0.635304 0.101453
O O1 0.845059 0.184152 0.586953
O O2 0.000000 0.188607 0.500000
O O3 0.891333 0.000000 0.500000
O O4 0.682437 0.177647 0.661133
O O5 0.827608 0.207932 0.754986
O O6 0.804560 0.000000 0.685962
O O7 0.379176 0.190876 0.500000
O O8 0.500000 0.182594 0.370249
O O9 0.396490 0.000000 0.412737
O O10 0.150653 0.388575 0.851769
O O11 0.000000 0.500000 0.897441
O O12 0.147402 0.500000 0.000000
O O13 0.684089 0.717233 0.852552
O O14 0.835531 0.821125 0.917429
O O15 0.000000 0.190930 0.000000
O O16 0.898192 0.000000 0.000000
O O17 0.500000 0.674146 0.128285
O O18 0.623099 0.500000 0.127845
O O19 0.619217 0.649455 0.000000
#
# Coordination Sequence:
#
# PCOD8197875 Si02
#       7
#     4   8   8   4   8   4   8
#     4   9  18  34  53  72 102 143 185 224 260 315
#     4  10  20  33  52  81 112 143 177 214 267 327
#     4   8  13  25  48  75 104 138 175 215 257 307
#     4  11  22  38  59  80 102 137 187 238 276 310
#     4  12  21  35  58  83 111 141 179 229 273 323
#     4  11  24  39  54  77 112 149 181 220 274 328
#     4   9  17  32  55  81 106 138 183 228 269 317
#
# _framework density 17.488655999999999
#
# number of rings (size 3 to 8) (size 9 to 14) (size 15 to 20)
#    0.000    2.091    3.636    2.182    0.000    2.182 
#    0.000    1.818    0.000    2.727    0.000    1.273 
#    0.000    2.909    0.000    0.000    0.000    0.000 
#
# Total GULP energy -545381.558810 kJ/mol
# GULP energy per Si atom -12395.035428 kJ/mol
# Density = 1.744885 g / cm^3
# Si number density = 17.488656 Si / 1000 Ang^3
#
#
#
# Elastic Constant Matrix: (Units=GPa)
#
#
# Indices 1 2 3 4 5 6 
#
# 1 119.9685 36.0274 56.8477 0.0000 0.0000 0.0000
# 2 36.0274 58.4212 44.2652 0.0000 0.0000 0.0000
# 3 56.8477 44.2652 133.6719 0.0000 0.0000 0.0000
# 4 0.0000 0.0000 0.0000 12.0715 0.0000 0.0000
# 5 0.0000 0.0000 0.0000 0.0000 12.1734 0.0000
# 6 0.0000 0.0000 0.0000 0.0000 0.0000 19.9341
#
#
#
# Elastic Compliance Matrix: (Units=1/GPa)
#
#
# Indices 1 2 3 4 5 6 
#
# 1 0.011232 -0.004415 -0.003315 0.000000 0.000000 0.000000
# 2 -0.004415 0.024586 -0.006264 0.000000 0.000000 0.000000
# 3 -0.003315 -0.006264 0.010965 0.000000 0.000000 0.000000
# 4 0.000000 0.000000 0.000000 0.082840 0.000000 0.000000
# 5 0.000000 0.000000 0.000000 0.000000 0.082146 0.000000
# 6 0.000000 0.000000 0.000000 0.000000 0.000000 0.050165
#
#
# Mechanical properties :
#
#
# Convention : Reuss Voigt Hill
#
# Bulk Modulus (GPa) = 53.20432 65.14915 59.17673
# Shear Modulus (GPa) = 16.88123 20.49722 18.68923
#
# Velocity S-wave (km/s) = 3.11025 3.42721 3.27257
# Velocity P-wave (km/s) = 6.58684 7.27970 6.94192
#
# Compressibility (1/GPa) = 0.01879547
#
# Stress axis : x y z
#
# Youngs Moduli (GPa) = 89.03043 40.67366 91.19964
#
# Poissons Ratio (x) = 0.17958 0.30230
# Poissons Ratio (y) = 0.39308 0.57127
# Poissons Ratio (z) = 0.29511 0.25478
#
# Static dielectric constant tensor:
#      x y z
#    x 3.729050 0.000000 0.000000 
#    y 0.000000 2.931780 0.000000 
#    z 0.000000 0.000000 3.121200 
# 
# 
# High freq. dielectric constant tensor:
#      x y z
#    x 1.697720 0.000000 0.000000 
#    y 0.000000 1.631230 0.000000 
#    z 0.000000 0.000000 1.664210 
# 
# From -- ./inp_files/17447.got.cif
#   From: 2010.03.12/outbox.cif.g09.slc.cpg/sg47_9_cif.got.tgz:17447.got - 2010.04.14 03:12:58.
