data_PCOD8197846
_publ_section_title
;
Structure prediction by ZEFSAII (Michael W. Deem and Ramdas Pophale) SiO2 
 PCOD8197846
Probable space group: P M M M
;
_chemical_formula_sum "Si O2"
_cell_formula_units_Z 48
_cell_length_a 32.763212
_cell_length_b 9.048663
_cell_length_c 7.934106
_cell_angle_alpha 90.000000
_cell_angle_beta 90.000000
_cell_angle_gamma 90.000000
_cell_volume 2352.170963
_symmetry_space_group_name_H-M "P M M M"
_symmetry_group_IT_number 47
_symmetry_cell_setting 'orthorhombic'
loop_
_space_group_symop_operation_xyz
x,y,z
-x,-y,z
x,-y,-z
-x,y,-z
-x,-y,-z
x,y,-z
-x,y,z
x,-y,z
loop_
_atom_site_type_symbol
_atom_site_label
_atom_site_fract_x
_atom_site_fract_y
_atom_site_fract_z
Si Si1 0.406307 0.174803 0.801847
Si Si2 0.548232 0.669863 0.500000
Si Si3 0.164097 0.830176 0.804375
Si Si4 0.673825 0.661695 0.806791
Si Si5 0.921633 0.165219 0.301540
Si Si6 0.000000 0.665274 0.701392
Si Si7 0.750317 0.832616 0.307325
O O1 0.437850 0.251041 0.673683
O O2 0.361754 0.230832 0.739862
O O3 0.407988 0.000000 0.775850
O O4 0.415659 0.214004 0.000000
O O5 0.563690 0.500000 0.500000
O O6 0.500000 0.677421 0.500000
O O7 0.121372 0.755377 0.747402
O O8 0.204239 0.762882 0.714320
O O9 0.160693 0.000000 0.747969
O O10 0.170824 0.808166 0.000000
O O11 0.672712 0.500000 0.716064
O O12 0.718054 0.734214 0.790397
O O13 0.664945 0.635391 0.000000
O O14 0.925691 0.158641 0.500000
O O15 0.959506 0.256155 0.225795
O O16 0.923613 0.000000 0.224041
O O17 0.000000 0.500000 0.771416
O O18 0.000000 0.668443 0.500000
O O19 0.737287 0.831834 0.500000
O O20 0.749772 0.000000 0.233875
#
# Coordination Sequence:
#
# PCOD8197846 Si02
#       7
#     8   4   8   8   8   4   8
#     4  10  22  41  66  94 125 164 211 262 313 364
#     4  11  25  43  65  95 131 171 211 255 311 374
#     4   9  17  30  49  72  98 130 169 214 262 312
#     4  10  21  37  57  82 114 152 192 236 289 347
#     4   9  16  28  48  71  93 119 157 204 251 303
#     4   9  17  29  46  69  94 120 152 193 246 306
#     4  10  20  33  52  79 109 142 181 225 273 328
#
# _framework density 20.406679
#
# number of rings (size 3 to 8) (size 9 to 14) (size 15 to 20)
#    0.000    2.333    0.000    2.500    1.167    7.000 
#    0.000    2.917    0.000    6.000    0.000    0.000 
#    0.000    0.000    0.000    0.000    0.000    0.000 
#
# Total GULP energy -594922.587124 kJ/mol
# GULP energy per Si atom -12394.220565 kJ/mol
# Density = 2.036023 g / cm^3
# Si number density = 20.406679 Si / 1000 Ang^3
#
#
#
# Elastic Constant Matrix: (Units=GPa)
#
#
# Indices 1 2 3 4 5 6 
#
# 1 146.5727 63.5745 32.2920 0.0000 0.0000 0.0000
# 2 63.5745 114.4358 31.8581 0.0000 0.0000 0.0000
# 3 32.2920 31.8581 53.5649 0.0000 0.0000 0.0000
# 4 0.0000 0.0000 0.0000 17.2638 0.0000 0.0000
# 5 0.0000 0.0000 0.0000 0.0000 27.9295 0.0000
# 6 0.0000 0.0000 0.0000 0.0000 0.0000 12.2298
#
#
#
# Elastic Compliance Matrix: (Units=1/GPa)
#
#
# Indices 1 2 3 4 5 6 
#
# 1 0.009391 -0.004363 -0.003066 0.000000 0.000000 0.000000
# 2 -0.004363 0.012500 -0.004804 0.000000 0.000000 0.000000
# 3 -0.003066 -0.004804 0.023375 0.000000 0.000000 0.000000
# 4 0.000000 0.000000 0.000000 0.057925 0.000000 0.000000
# 5 0.000000 0.000000 0.000000 0.000000 0.035804 0.000000
# 6 0.000000 0.000000 0.000000 0.000000 0.000000 0.081767
#
#
# Mechanical properties :
#
#
# Convention : Reuss Voigt Hill
#
# Bulk Modulus (GPa) = 48.08075 63.33583 55.70829
# Shear Modulus (GPa) = 19.82859 23.94122 21.88490
#
# Velocity S-wave (km/s) = 3.12055 3.42892 3.27836
# Velocity P-wave (km/s) = 6.04948 6.83966 6.45667
#
# Compressibility (1/GPa) = 0.02079834
#
# Stress axis : x y z
#
# Youngs Moduli (GPa) = 106.48930 80.00017 42.78163
#
# Poissons Ratio (x) = 0.34907 0.13117
# Poissons Ratio (y) = 0.46465 0.20552
# Poissons Ratio (z) = 0.32650 0.38432
#
# Static dielectric constant tensor:
#      x y z
#    x 3.875460 0.000000 0.000000 
#    y 0.000000 3.704760 0.000000 
#    z 0.000000 0.000000 3.490280 
# 
# 
# High freq. dielectric constant tensor:
#      x y z
#    x 1.811280 0.000000 0.000000 
#    y 0.000000 1.771330 0.000000 
#    z 0.000000 0.000000 1.784900 
# 
# From -- ./inp_files/13830.got.cif
#   From: 2010.03.12/outbox.cif.g09.slc.cpg/sg47_7_cif.got.tgz:13830.got - 2010.04.14 03:12:58.
