data_PCOD8197131
_publ_section_title
;
Structure prediction by ZEFSAII (Michael W. Deem and Ramdas Pophale) SiO2 
 PCOD8197131
Probable space group: P M M M
;
_chemical_formula_sum "Si O2"
_cell_formula_units_Z 56
_cell_length_a 23.299336
_cell_length_b 14.392258
_cell_length_c 8.902858
_cell_angle_alpha 90.000000
_cell_angle_beta 90.000000
_cell_angle_gamma 90.000000
_cell_volume 2985.395862
_symmetry_space_group_name_H-M "P M M M"
_symmetry_group_IT_number 47
_symmetry_cell_setting 'orthorhombic'
loop_
_space_group_symop_operation_xyz
x,y,z
-x,-y,z
x,-y,-z
-x,y,-z
-x,-y,-z
x,y,-z
-x,y,z
x,-y,z
loop_
_atom_site_type_symbol
_atom_site_label
_atom_site_fract_x
_atom_site_fract_y
_atom_site_fract_z
Si Si1 0.246325 0.891938 0.670839
Si Si2 0.659459 0.772132 0.823772
Si Si3 0.832921 0.609594 0.169502
Si Si4 0.716027 0.606454 0.322604
Si Si5 0.117523 0.100642 0.322158
Si Si6 0.064660 0.712190 0.677003
Si Si7 0.566779 0.105553 0.327004
O O1 0.254019 0.855215 0.500000
O O2 0.287568 0.837196 0.781143
O O3 0.181898 0.874546 0.730608
O O4 0.262214 0.000000 0.677812
O O5 0.666288 0.670968 0.746724
O O6 0.600733 0.820165 0.771733
O O7 0.657314 0.756866 0.000000
O O8 0.837025 0.500000 0.173968
O O9 0.777718 0.643129 0.263603
O O10 0.891773 0.645463 0.239620
O O11 0.826377 0.646749 0.000000
O O12 0.715760 0.615892 0.500000
O O13 0.704897 0.500000 0.272039
O O14 0.118571 0.092154 0.500000
O O15 0.074555 0.181305 0.269371
O O16 0.098243 0.000000 0.255455
O O17 0.075138 0.702943 0.500000
O O18 0.000000 0.683605 0.720666
O O19 0.585218 0.117063 0.500000
O O20 0.500000 0.127165 0.305887
O O21 0.580415 0.000000 0.274664
#
# Coordination Sequence:
#
# PCOD8197131 Si02
#       7
#     8   8   8   8   8   8   8
#     4   9  17  30  49  72 100 137 180 222 262 310
#     4  12  23  32  50  81 115 147 176 214 266 319
#     4  10  21  37  56  77 102 131 163 206 266 327
#     4  10  21  38  60  82 104 134 173 217 264 316
#     4   8  15  29  48  69  94 126 165 210 257 300
#     4  10  20  32  49  74 100 130 172 216 254 302
#     4   9  19  37  59  81 109 150 197 236 265 299
#
# _framework density 18.75798
#
# number of rings (size 3 to 8) (size 9 to 14) (size 15 to 20)
#    0.000    2.286    0.000    4.714    0.000    6.286 
#    0.000    3.571    0.000    1.714    0.000    4.000 
#    0.000    0.000    0.000    0.000    0.000    0.000 
#
# Total GULP energy -694369.681910 kJ/mol
# GULP energy per Si atom -12399.458606 kJ/mol
# Density = 1.871529 g / cm^3
# Si number density = 18.757980 Si / 1000 Ang^3
#
#
#
# Elastic Constant Matrix: (Units=GPa)
#
#
# Indices 1 2 3 4 5 6 
#
# 1 83.1330 48.6284 44.1325 0.0000 0.0000 0.0000
# 2 48.6284 70.2487 39.7867 0.0000 0.0000 0.0000
# 3 44.1325 39.7867 87.6059 0.0000 0.0000 0.0000
# 4 0.0000 0.0000 0.0000 20.8768 0.0000 0.0000
# 5 0.0000 0.0000 0.0000 0.0000 7.9703 0.0000
# 6 0.0000 0.0000 0.0000 0.0000 0.0000 142.9768
#
#
#
# Elastic Compliance Matrix: (Units=1/GPa)
#
#
# Indices 1 2 3 4 5 6 
#
# 1 0.022104 -0.012109 -0.005636 0.000000 0.000000 0.000000
# 2 -0.012109 0.025799 -0.005616 0.000000 0.000000 0.000000
# 3 -0.005636 -0.005616 0.016804 0.000000 0.000000 0.000000
# 4 0.000000 0.000000 0.000000 0.047900 0.000000 0.000000
# 5 0.000000 0.000000 0.000000 0.000000 0.125466 0.000000
# 6 0.000000 0.000000 0.000000 0.000000 0.000000 0.006994
#
#
# Mechanical properties :
#
#
# Convention : Reuss Voigt Hill
#
# Bulk Modulus (GPa) = 55.60360 56.23142 55.91751
# Shear Modulus (GPa) = 16.79066 41.59409 29.19238
#
# Velocity S-wave (km/s) = 2.99510 4.71404 3.94923
# Velocity P-wave (km/s) = 6.45506 7.72477 7.11828
#
# Compressibility (1/GPa) = 0.01798445
#
# Stress axis : x y z
#
# Youngs Moduli (GPa) = 45.24077 38.76192 59.50790
#
# Poissons Ratio (x) = 0.46938 0.33536
# Poissons Ratio (y) = 0.54783 0.33422
# Poissons Ratio (z) = 0.25496 0.21770
#
# Static dielectric constant tensor:
#      x y z
#    x 3.367360 0.000000 0.000000 
#    y 0.000000 3.791280 0.000000 
#    z 0.000000 0.000000 3.275530 
# 
# 
# High freq. dielectric constant tensor:
#      x y z
#    x 1.716550 0.000000 0.000000 
#    y 0.000000 1.734560 0.000000 
#    z 0.000000 0.000000 1.709180 
# 
# From -- ./inp_files/11263.got.cif
#   From: 2010.03.12/outbox.cif.g09.slc.cpg/sg47_6_cif.got.tgz:11263.got - 2010.04.14 03:12:58.
