data_PCOD8197257
_publ_section_title
;
Structure prediction by ZEFSAII (Michael W. Deem and Ramdas Pophale) SiO2 
 PCOD8197257
Probable space group: P M M M
;
_chemical_formula_sum "Si O2"
_cell_formula_units_Z 48
_cell_length_a 15.211300
_cell_length_b 17.514671
_cell_length_c 9.317050
_cell_angle_alpha 90.000000
_cell_angle_beta 90.000000
_cell_angle_gamma 90.000000
_cell_volume 2482.256986
_symmetry_space_group_name_H-M "P M M M"
_symmetry_group_IT_number 47
_symmetry_cell_setting 'orthorhombic'
loop_
_space_group_symop_operation_xyz
x,y,z
-x,-y,z
x,-y,-z
-x,y,-z
-x,-y,-z
x,y,-z
-x,y,z
x,-y,z
loop_
_atom_site_type_symbol
_atom_site_label
_atom_site_fract_x
_atom_site_fract_y
_atom_site_fract_z
Si Si1 0.000000 0.586379 0.330619
Si Si2 0.099099 0.089535 0.160593
Si Si3 0.814122 0.348978 0.669919
Si Si4 0.500000 0.408623 0.661825
Si Si5 0.402187 0.913935 0.329367
Si Si6 0.662210 0.587672 0.159044
Si Si7 0.762001 0.180058 0.330538
O O1 0.085749 0.634109 0.281338
O O2 0.000000 0.500000 0.265416
O O3 0.000000 0.579015 0.500000
O O4 0.159140 0.128209 0.277894
O O5 0.000000 0.118714 0.184374
O O6 0.103999 0.000000 0.184659
O O7 0.130686 0.110905 0.000000
O O8 0.802529 0.361356 0.500000
O O9 0.753686 0.407636 0.756082
O O10 0.781120 0.265882 0.721051
O O11 0.500000 0.500000 0.655245
O O12 0.500000 0.375234 0.500000
O O13 0.584978 0.375098 0.744691
O O14 0.401107 0.912916 0.500000
O O15 0.500000 0.891066 0.274206
O O16 0.330590 0.853183 0.269314
O O17 0.378822 0.000000 0.276217
O O18 0.638439 0.500000 0.138297
O O19 0.667063 0.625947 0.000000
O O20 0.762241 0.176149 0.500000
#
# Coordination Sequence:
#
# PCOD8197257 Si02
#       7
#     4   8   8   4   8   8   8
#     4   9  18  34  55  73  96 137 182 222 271 333
#     4   9  19  35  53  74 103 142 182 215 259 325
#     4  10  21  35  52  78 107 139 178 225 279 334
#     4   9  17  31  55  83 107 135 172 215 264 321
#     4   8  14  27  48  73 103 139 175 210 254 310
#     4  10  20  35  55  79 108 141 179 224 271 322
#     4  10  20  32  51  80 109 135 173 227 275 316
#
# _framework density 19.337240000000001
#
# number of rings (size 3 to 8) (size 9 to 14) (size 15 to 20)
#    0.000    2.667    0.000    2.750    1.167    4.667 
#    1.500    1.250    0.000    2.000    0.000    2.333 
#    0.000    0.000    0.000    0.000    0.000    0.000 
#
# Total GULP energy -594971.264972 kJ/mol
# GULP energy per Si atom -12395.234687 kJ/mol
# Density = 1.929323 g / cm^3
# Si number density = 19.337240 Si / 1000 Ang^3
#
#
#
# Elastic Constant Matrix: (Units=GPa)
#
#
# Indices 1 2 3 4 5 6 
#
# 1 143.1245 56.2977 46.8168 0.0000 0.0000 0.0000
# 2 56.2977 75.2980 14.6944 0.0000 0.0000 0.0000
# 3 46.8168 14.6944 51.4877 0.0000 0.0000 0.0000
# 4 0.0000 0.0000 0.0000 15.8726 0.0000 0.0000
# 5 0.0000 0.0000 0.0000 0.0000 17.5432 0.0000
# 6 0.0000 0.0000 0.0000 0.0000 0.0000 20.5067
#
#
#
# Elastic Compliance Matrix: (Units=1/GPa)
#
#
# Indices 1 2 3 4 5 6 
#
# 1 0.013400 -0.008092 -0.009875 0.000000 0.000000 0.000000
# 2 -0.008092 0.018950 0.001949 0.000000 0.000000 0.000000
# 3 -0.009875 0.001949 0.027845 0.000000 0.000000 0.000000
# 4 0.000000 0.000000 0.000000 0.063002 0.000000 0.000000
# 5 0.000000 0.000000 0.000000 0.000000 0.057002 0.000000
# 6 0.000000 0.000000 0.000000 0.000000 0.000000 0.048765
#
#
# Mechanical properties :
#
#
# Convention : Reuss Voigt Hill
#
# Bulk Modulus (GPa) = 35.51109 56.16977 45.84043
# Shear Modulus (GPa) = 18.49222 20.92460 19.70841
#
# Velocity S-wave (km/s) = 3.09577 3.29308 3.19595
# Velocity P-wave (km/s) = 5.58411 6.60073 6.11359
#
# Compressibility (1/GPa) = 0.02816022
#
# Stress axis : x y z
#
# Youngs Moduli (GPa) = 74.62777 52.77068 35.91325
#
# Poissons Ratio (x) = 0.42699 0.35464
# Poissons Ratio (y) = 0.60385 -0.07000
# Poissons Ratio (z) = 0.73694 -0.10286
#
# Static dielectric constant tensor:
#      x y z
#    x 3.829870 0.000000 0.000000 
#    y 0.000000 3.464450 0.000000 
#    z 0.000000 0.000000 3.339020 
# 
# 
# High freq. dielectric constant tensor:
#      x y z
#    x 1.766600 0.000000 0.000000 
#    y 0.000000 1.732520 0.000000 
#    z 0.000000 0.000000 1.722600 
# 
# From -- ./inp_files/6398.got.cif
#   From: 2010.03.12/outbox.cif.g09.slc.cpg/sg47_4_cif.got.tgz:6398.got - 2010.04.14 03:12:58.
