data_PCOD8197803
_publ_section_title
;
Structure prediction by ZEFSAII (Michael W. Deem and Ramdas Pophale) SiO2 
 PCOD8197803
Probable space group: P M M M
;
_chemical_formula_sum "Si O2"
_cell_formula_units_Z 48
_cell_length_a 9.293170
_cell_length_b 9.233096
_cell_length_c 30.644796
_cell_angle_alpha 90.000000
_cell_angle_beta 90.000000
_cell_angle_gamma 90.000000
_cell_volume 2629.468470
_symmetry_space_group_name_H-M "P M M M"
_symmetry_group_IT_number 47
_symmetry_cell_setting 'orthorhombic'
loop_
_space_group_symop_operation_xyz
x,y,z
-x,-y,z
x,-y,-z
-x,y,-z
-x,-y,-z
x,y,-z
-x,y,z
x,-y,z
loop_
_atom_site_type_symbol
_atom_site_label
_atom_site_fract_x
_atom_site_fract_y
_atom_site_fract_z
Si Si1 0.166745 0.828856 0.130976
Si Si2 0.833816 0.831006 0.718666
Si Si3 0.338327 0.670968 0.548314
Si Si4 0.331519 0.670110 0.207834
Si Si5 0.168289 0.160808 0.619402
Si Si6 0.338919 0.828124 0.048114
O O1 0.251999 0.747320 0.168302
O O2 0.227613 0.772529 0.084516
O O3 0.000000 0.787056 0.133553
O O4 0.190171 0.000000 0.136947
O O5 0.729740 0.732321 0.747183
O O6 0.798571 0.790111 0.668751
O O7 0.000000 0.796702 0.729926
O O8 0.802958 0.000000 0.727624
O O9 0.286883 0.721511 0.500000
O O10 0.500000 0.726761 0.556507
O O11 0.332726 0.500000 0.551106
O O12 0.236857 0.730697 0.585499
O O13 0.500000 0.705061 0.205053
O O14 0.300764 0.500000 0.205840
O O15 0.000000 0.160977 0.611175
O O16 0.230544 0.000000 0.611626
O O17 0.500000 0.772127 0.059235
O O18 0.338981 0.000000 0.047529
O O19 0.292118 0.770852 0.000000
#
# Coordination Sequence:
#
# PCOD8197803 Si02
#       6
#     8   8   8   8   8   8
#     4  10  20  33  52  78 105 135 171 210 254 302
#     4   9  19  37  58  78 102 132 166 205 252 306
#     4   9  19  35  52  72 102 139 176 213 252 295
#     4  11  24  38  52  74 103 134 170 211 254 301
#     4   9  19  35  54  78 106 133 164 206 254 303
#     4   8  14  26  46  73 104 136 169 206 249 297
#
# _framework density 18.254639999999998
#
# number of rings (size 3 to 8) (size 9 to 14) (size 15 to 20)
#    0.000    2.667    0.000    3.500    0.000    7.667 
#    0.000    9.167    0.000    0.500    0.000    3.500 
#    0.000    0.000    0.000    0.000    0.000    0.000 
#
# Total GULP energy -595082.394320 kJ/mol
# GULP energy per Si atom -12397.549882 kJ/mol
# Density = 1.821309 g / cm^3
# Si number density = 18.254640 Si / 1000 Ang^3
#
#
#
# Elastic Constant Matrix: (Units=GPa)
#
#
# Indices 1 2 3 4 5 6 
#
# 1 107.0270 48.4982 84.8794 0.0000 0.0000 0.0000
# 2 48.4982 49.9883 51.7088 0.0000 0.0000 0.0000
# 3 84.8794 51.7088 149.6751 0.0000 0.0000 0.0000
# 4 0.0000 0.0000 0.0000 -45.0375 0.0000 0.0000
# 5 0.0000 0.0000 0.0000 0.0000 40.4962 0.0000
# 6 0.0000 0.0000 0.0000 0.0000 0.0000 27.6675
#
#
#
# Elastic Compliance Matrix: (Units=1/GPa)
#
#
# Indices 1 2 3 4 5 6 
#
# 1 0.021076 -0.012580 -0.007606 0.000000 0.000000 0.000000
# 2 -0.012580 0.038638 -0.006214 0.000000 0.000000 0.000000
# 3 -0.007606 -0.006214 0.013141 0.000000 0.000000 0.000000
# 4 0.000000 0.000000 0.000000 -0.022204 0.000000 0.000000
# 5 0.000000 0.000000 0.000000 0.000000 0.024694 0.000000
# 6 0.000000 0.000000 0.000000 0.000000 0.000000 0.036143
#
#
# Mechanical properties :
#
#
# Convention : Reuss Voigt Hill
#
# Bulk Modulus (GPa) = 49.86391 75.20704 62.53548
# Shear Modulus (GPa) = 29.24418 12.73217 20.98817
#
# Velocity S-wave (km/s) = 4.00686 2.64384 3.39447
# Velocity P-wave (km/s) = 6.98438 7.11394 7.04946
#
# Compressibility (1/GPa) = 0.02005459
#
# Stress axis : x y z
#
# Youngs Moduli (GPa) = 47.44748 25.88125 76.09594
#
# Poissons Ratio (x) = 0.32559 0.57878
# Poissons Ratio (y) = 0.59689 0.47289
# Poissons Ratio (z) = 0.36088 0.16084
#
# Static dielectric constant tensor:
#      x y z
#    x 3.414250 0.000000 0.000000 
#    y 0.000000 3.158950 0.000000 
#    z 0.000000 0.000000 3.638530 
# 
# 
# High freq. dielectric constant tensor:
#      x y z
#    x 1.707480 0.000000 0.000000 
#    y 0.000000 1.681280 0.000000 
#    z 0.000000 0.000000 1.724380 
# 
# From -- ./inp_files/2483.got.cif
#   From: 2010.03.12/outbox.cif.g09.slc.cpg/sg47_2_cif.got.tgz:2483.got - 2010.04.14 03:12:58.
