data_PCOD8197569
_publ_section_title
;
Structure prediction by ZEFSAII (Michael W. Deem and Ramdas Pophale) SiO2 
 PCOD8197569
Probable space group: P M M M
;
_chemical_formula_sum "Si O2"
_cell_formula_units_Z 44
_cell_length_a 9.141627
_cell_length_b 8.954316
_cell_length_c 28.727379
_cell_angle_alpha 90.000000
_cell_angle_beta 90.000000
_cell_angle_gamma 90.000000
_cell_volume 2351.537549
_symmetry_space_group_name_H-M "P M M M"
_symmetry_group_IT_number 47
_symmetry_cell_setting 'orthorhombic'
loop_
_space_group_symop_operation_xyz
x,y,z
-x,-y,z
x,-y,-z
-x,y,-z
-x,-y,-z
x,y,-z
-x,y,z
x,-y,z
loop_
_atom_site_type_symbol
_atom_site_label
_atom_site_fract_x
_atom_site_fract_y
_atom_site_fract_z
Si Si1 0.335848 0.822510 0.448707
Si Si2 0.329782 0.674244 0.724638
Si Si3 0.174501 0.332726 0.900479
Si Si4 0.834414 0.177655 0.359912
Si Si5 0.839655 0.322516 0.000000
Si Si6 0.172475 0.828386 0.191327
O O1 0.283939 0.767148 0.500000
O O2 0.500000 0.763872 0.438669
O O3 0.227671 0.760566 0.409055
O O4 0.335616 0.000000 0.447776
O O5 0.500000 0.712904 0.727484
O O6 0.300658 0.500000 0.718090
O O7 0.262958 0.760257 0.681279
O O8 0.254178 0.726993 0.771709
O O9 0.230549 0.500000 0.888659
O O10 0.226027 0.221223 0.859959
O O11 0.000000 0.334203 0.904620
O O12 0.239506 0.277355 0.950996
O O13 0.000000 0.235158 0.354515
O O14 0.827426 0.000000 0.357941
O O15 0.855757 0.500000 0.000000
O O16 0.000000 0.247544 0.000000
O O17 0.000000 0.802989 0.197370
O O18 0.215437 0.000000 0.198971
#
# Coordination Sequence:
#
# PCOD8197569 Si02
#       6
#     8   8   8   8   4   8
#     4   8  14  26  46  73 105 140 174 205 239 282
#     4  11  24  39  54  72  94 125 167 210 252 301
#     4   8  13  23  41  65  95 131 167 202 240 283
#     4  10  20  33  52  79 107 134 165 203 249 298
#     4   7  10  18  35  61  92 127 166 201 234 278
#     4  10  20  33  50  74 102 130 162 201 248 301
#
# _framework density 18.711162000000002
#
# number of rings (size 3 to 8) (size 9 to 14) (size 15 to 20)
#    0.000    2.818    0.000    3.818    0.000    6.182 
#    0.000    2.273    0.000    3.273    0.000    4.455 
#    0.000    5.091    0.000    0.000    0.000    0.000 
#
# Total GULP energy -545279.667825 kJ/mol
# GULP energy per Si atom -12392.719723 kJ/mol
# Density = 1.866857 g / cm^3
# Si number density = 18.711162 Si / 1000 Ang^3
#
#
#
# Elastic Constant Matrix: (Units=GPa)
#
#
# Indices 1 2 3 4 5 6 
#
# 1 52.9403 22.4751 41.6956 0.0000 0.0000 0.0000
# 2 22.4751 21.3910 17.2947 0.0000 0.0000 0.0000
# 3 41.6956 17.2947 149.9201 0.0000 0.0000 0.0000
# 4 0.0000 0.0000 0.0000 -202.7295 0.0000 0.0000
# 5 0.0000 0.0000 0.0000 0.0000 -16.4500 0.0000
# 6 0.0000 0.0000 0.0000 0.0000 0.0000 18.4256
#
#
#
# Elastic Compliance Matrix: (Units=1/GPa)
#
#
# Indices 1 2 3 4 5 6 
#
# 1 0.039596 -0.036062 -0.006852 0.000000 0.000000 0.000000
# 2 -0.036062 0.084401 0.000293 0.000000 0.000000 0.000000
# 3 -0.006852 0.000293 0.008542 0.000000 0.000000 0.000000
# 4 0.000000 0.000000 0.000000 -0.004933 0.000000 0.000000
# 5 0.000000 0.000000 0.000000 0.000000 -0.060790 0.000000
# 6 0.000000 0.000000 0.000000 0.000000 0.000000 0.054272
#
#
# Mechanical properties :
#
#
# Convention : Reuss Voigt Hill
#
# Bulk Modulus (GPa) = 21.14323 43.02022 32.08173
# Shear Modulus (GPa) = 22.51274 -30.63169 -4.05948
#
# Velocity S-wave (km/s) = 3.47244 -4.05048 -1.47454
# Velocity P-wave (km/s) = 5.23464 1.08006 3.77942
#
# Compressibility (1/GPa) = 0.04729646
#
# Stress axis : x y z
#
# Youngs Moduli (GPa) = 25.25524 11.84816 117.06675
#
# Poissons Ratio (x) = 0.42727 0.80217
# Poissons Ratio (y) = 0.91076 -0.03432
# Poissons Ratio (z) = 0.17305 -0.00347
#
# Static dielectric constant tensor:
#      x y z
#    x 3.250180 0.000000 0.000000 
#    y 0.000000 3.147930 0.000000 
#    z 0.000000 0.000000 4.020880 
# 
# 
# High freq. dielectric constant tensor:
#      x y z
#    x 1.690930 0.000000 0.000000 
#    y 0.000000 1.692720 0.000000 
#    z 0.000000 0.000000 1.754190 
# 
# From -- ./inp_files/13666.got.cif
#   From: 2010.03.12/outbox.cif.g09.slc.cpg/sg47_7_cif.got.tgz:13666.got - 2010.04.14 03:12:58.
