data_PCOD8197367
_publ_section_title
;
Structure prediction by ZEFSAII (Michael W. Deem and Ramdas Pophale) SiO2 
 PCOD8197367
Probable space group: P M M M
;
_chemical_formula_sum "Si O2"
_cell_formula_units_Z 48
_cell_length_a 9.032433
_cell_length_b 8.854175
_cell_length_c 31.307063
_cell_angle_alpha 90.000000
_cell_angle_beta 90.000000
_cell_angle_gamma 90.000000
_cell_volume 2503.774301
_symmetry_space_group_name_H-M "P M M M"
_symmetry_group_IT_number 47
_symmetry_cell_setting 'orthorhombic'
loop_
_space_group_symop_operation_xyz
x,y,z
-x,-y,z
x,-y,-z
-x,y,-z
-x,-y,-z
x,y,-z
-x,y,z
x,-y,z
loop_
_atom_site_type_symbol
_atom_site_label
_atom_site_fract_x
_atom_site_fract_y
_atom_site_fract_z
Si Si1 0.667282 0.820009 0.667748
Si Si2 0.672184 0.676818 0.831259
Si Si3 0.667252 0.180089 0.500000
Si Si4 0.166989 0.320249 0.916399
Si Si5 0.167592 0.820728 0.248205
Si Si6 0.832701 0.180113 0.583896
Si Si7 0.332705 0.680272 0.000000
O O1 0.500000 0.757353 0.669033
O O2 0.755049 0.758538 0.708918
O O3 0.747630 0.757474 0.625441
O O4 0.666877 0.000000 0.667339
O O5 0.500000 0.715477 0.834197
O O6 0.700805 0.500000 0.825087
O O7 0.748443 0.737402 0.874391
O O8 0.741667 0.763638 0.791923
O O9 0.500000 0.242123 0.500000
O O10 0.750682 0.242251 0.541829
O O11 0.667502 0.000000 0.500000
O O12 0.167229 0.500000 0.917739
O O13 0.249754 0.256399 0.958165
O O14 0.000000 0.257124 0.915725
O O15 0.000000 0.758662 0.246476
O O16 0.168897 0.000000 0.248020
O O17 0.000000 0.242087 0.584350
O O18 0.832530 0.000000 0.583943
O O19 0.331763 0.500000 0.000000
O O20 0.500000 0.741772 0.000000
#
# Coordination Sequence:
#
# PCOD8197367 Si02
#       7
#     8   8   4   8   8   8   4
#     4   9  16  26  40  57  78 106 141 181 223 266
#     4  10  20  33  49  70  96 125 156 191 233 278
#     4   9  15  21  29  43  65  95 132 171 212 261
#     4   9  16  26  41  62  89 120 152 186 226 271
#     4  10  20  33  49  69  92 120 156 195 233 275
#     4   9  15  22  32  47  69  98 133 173 216 262
#     4   9  15  23  37  59  88 119 150 185 224 267
#
# _framework density 19.171057000000001
#
# number of rings (size 3 to 8) (size 9 to 14) (size 15 to 20)
#    0.000    2.667    0.000    3.000    0.000   10.000 
#    0.000    0.000    0.000    0.000    0.000    0.583 
#    0.000    4.667    0.000    0.750    0.000   14.667 
#
# Total GULP energy -595202.701727 kJ/mol
# GULP energy per Si atom -12400.056286 kJ/mol
# Density = 1.912742 g / cm^3
# Si number density = 19.171057 Si / 1000 Ang^3
#
#
#
# Elastic Constant Matrix: (Units=GPa)
#
#
# Indices 1 2 3 4 5 6 
#
# 1 167.4248 8.7846 84.5350 0.0000 0.0000 0.0000
# 2 8.7846 2.8386 8.1659 0.0000 0.0000 0.0000
# 3 84.5350 8.1659 191.1446 0.0000 0.0000 0.0000
# 4 0.0000 0.0000 0.0000 33.6718 0.0000 0.0000
# 5 0.0000 0.0000 0.0000 0.0000 49.0159 0.0000
# 6 0.0000 0.0000 0.0000 0.0000 0.0000 12.5007
#
#
#
# Elastic Compliance Matrix: (Units=1/GPa)
#
#
# Indices 1 2 3 4 5 6 
#
# 1 0.008383 -0.017418 -0.002963 0.000000 0.000000 0.000000
# 2 -0.017418 0.437837 -0.011002 0.000000 0.000000 0.000000
# 3 -0.002963 -0.011002 0.007012 0.000000 0.000000 0.000000
# 4 0.000000 0.000000 0.000000 0.029698 0.000000 0.000000
# 5 0.000000 0.000000 0.000000 0.000000 0.020402 0.000000
# 6 0.000000 0.000000 0.000000 0.000000 0.000000 0.079995
#
#
# Mechanical properties :
#
#
# Convention : Reuss Voigt Hill
#
# Bulk Modulus (GPa) = 2.56104 62.70878 32.63491
# Shear Modulus (GPa) = 6.44124 36.36585 21.40354
#
# Velocity S-wave (km/s) = 1.83499 4.36008 3.34496
# Velocity P-wave (km/s) = 2.41420 7.62419 5.65494
#
# Compressibility (1/GPa) = 0.39046610
#
# Stress axis : x y z
#
# Youngs Moduli (GPa) = 119.28999 2.28396 142.60887
#
# Poissons Ratio (x) = 0.03978 0.42259
# Poissons Ratio (y) = 2.07778 1.56894
# Poissons Ratio (z) = 0.35349 0.02513
#
# Static dielectric constant tensor:
#      x y z
#    x 3.815940 0.000000 0.000000 
#    y 0.000000 2.695330 0.000000 
#    z 0.000000 0.000000 3.751130 
# 
# 
# High freq. dielectric constant tensor:
#      x y z
#    x 1.768770 0.000000 0.000000 
#    y 0.000000 1.656850 0.000000 
#    z 0.000000 0.000000 1.767470 
# 
# From -- ./inp_files/34204.got.cif
#   From: 2010.03.12/outbox.cif.g09.slc.cpg/sg47_18_cif.got.tgz:34204.got - 2010.04.14 03:12:58.
