data_PCOD8197062
_publ_section_title
;
Structure prediction by ZEFSAII (Michael W. Deem and Ramdas Pophale) SiO2 
 PCOD8197062
Probable space group: P M M M
;
_chemical_formula_sum "Si O2"
_cell_formula_units_Z 36
_cell_length_a 23.032484
_cell_length_b 9.469628
_cell_length_c 9.431525
_cell_angle_alpha 90.000000
_cell_angle_beta 90.000000
_cell_angle_gamma 90.000000
_cell_volume 2057.101009
_symmetry_space_group_name_H-M "P M M M"
_symmetry_group_IT_number 47
_symmetry_cell_setting 'orthorhombic'
loop_
_space_group_symop_operation_xyz
x,y,z
-x,-y,z
x,-y,-z
-x,y,-z
-x,-y,-z
x,y,-z
-x,y,z
x,-y,z
loop_
_atom_site_type_symbol
_atom_site_label
_atom_site_fract_x
_atom_site_fract_y
_atom_site_fract_z
Si Si1 0.657999 0.166810 0.336744
Si Si2 0.432534 0.337820 0.162006
Si Si3 0.000000 0.659004 0.169337
Si Si4 0.766200 0.832044 0.842173
Si Si5 0.893685 0.157654 0.831197
O O1 0.660956 0.210692 0.500000
O O2 0.602398 0.237960 0.266870
O O3 0.716623 0.224757 0.262839
O O4 0.651768 0.000000 0.316758
O O5 0.500000 0.312458 0.192970
O O6 0.415914 0.500000 0.191100
O O7 0.417811 0.297504 0.000000
O O8 0.057120 0.737945 0.228837
O O9 0.000000 0.500000 0.228401
O O10 0.000000 0.660110 0.000000
O O11 0.829901 0.784551 0.785919
O O12 0.765826 0.000000 0.848575
O O13 0.754217 0.771084 0.000000
O O14 0.904814 0.000000 0.770340
O O15 0.896155 0.151108 0.000000
#
# Coordination Sequence:
#
# PCOD8197062 Si02
#       5
#     8   8   4   8   8
#     4  10  20  32  48  73 102 128 155 191 236 283
#     4   9  19  36  55  73  94 123 160 198 234 275
#     4   9  15  21  31  53  86 113 132 170 230 279
#     4   8  14  26  44  64  87 118 155 191 226 268
#     4   8  13  22  37  55  76 108 148 182 215 264
#
# _framework density 17.500357000000001
#
# number of rings (size 3 to 8) (size 9 to 14) (size 15 to 20)
#    0.000    3.222    0.000    3.000    0.000    4.000 
#    0.000    4.444    0.000    4.000    0.000    0.778 
#    0.000    6.222    0.000    0.000    0.000    0.000 
#
# Total GULP energy -446240.532051 kJ/mol
# GULP energy per Si atom -12395.570335 kJ/mol
# Density = 1.746053 g / cm^3
# Si number density = 17.500357 Si / 1000 Ang^3
#
#
#
# Elastic Constant Matrix: (Units=GPa)
#
#
# Indices 1 2 3 4 5 6 
#
# 1 138.2206 54.7543 65.6394 0.0000 0.0000 0.0000
# 2 54.7543 62.0485 36.0538 0.0000 0.0000 0.0000
# 3 65.6394 36.0538 82.2032 0.0000 0.0000 0.0000
# 4 0.0000 0.0000 0.0000 16.5540 0.0000 0.0000
# 5 0.0000 0.0000 0.0000 0.0000 3.5441 0.0000
# 6 0.0000 0.0000 0.0000 0.0000 0.0000 7.4241
#
#
#
# Elastic Compliance Matrix: (Units=1/GPa)
#
#
# Indices 1 2 3 4 5 6 
#
# 1 0.014040 -0.007885 -0.007753 0.000000 0.000000 0.000000
# 2 -0.007885 0.026056 -0.005132 0.000000 0.000000 0.000000
# 3 -0.007753 -0.005132 0.020607 0.000000 0.000000 0.000000
# 4 0.000000 0.000000 0.000000 0.060408 0.000000 0.000000
# 5 0.000000 0.000000 0.000000 0.000000 0.282162 0.000000
# 6 0.000000 0.000000 0.000000 0.000000 0.000000 0.134696
#
#
# Mechanical properties :
#
#
# Convention : Reuss Voigt Hill
#
# Bulk Modulus (GPa) = 52.18249 66.15191 59.16720
# Shear Modulus (GPa) = 8.53394 13.90609 11.22001
#
# Velocity S-wave (km/s) = 2.21066 2.82195 2.53480
# Velocity P-wave (km/s) = 6.03314 6.96421 6.51533
#
# Compressibility (1/GPa) = 0.01916352
#
# Stress axis : x y z
#
# Youngs Moduli (GPa) = 71.22560 38.37845 48.52831
#
# Poissons Ratio (x) = 0.30260 0.37623
# Poissons Ratio (y) = 0.56159 0.24906
# Poissons Ratio (z) = 0.55219 0.19697
#
# Static dielectric constant tensor:
#      x y z
#    x 3.567590 0.000000 0.000000 
#    y 0.000000 3.064060 0.000000 
#    z 0.000000 0.000000 2.953680 
# 
# 
# High freq. dielectric constant tensor:
#      x y z
#    x 1.693340 0.000000 0.000000 
#    y 0.000000 1.649030 0.000000 
#    z 0.000000 0.000000 1.634020 
# 
# From -- ./inp_files/1375.got.cif
#   From: 2010.03.12/outbox.cif.g09.slc.cpg/sg47_1_cif.got.tgz:1375.got - 2010.04.14 03:12:58.
