data_PCOD8197995
_publ_section_title
;
Structure prediction by ZEFSAII (Michael W. Deem and Ramdas Pophale) SiO2 
 PCOD8197995
Probable space group: P M M M
;
_chemical_formula_sum "Si O2"
_cell_formula_units_Z 52
_cell_length_a 14.319730
_cell_length_b 23.659059
_cell_length_c 8.897060
_cell_angle_alpha 90.000000
_cell_angle_beta 90.000000
_cell_angle_gamma 90.000000
_cell_volume 3014.246852
_symmetry_space_group_name_H-M "P M M M"
_symmetry_group_IT_number 47
_symmetry_cell_setting 'orthorhombic'
loop_
_space_group_symop_operation_xyz
x,y,z
-x,-y,z
x,-y,-z
-x,y,-z
-x,-y,-z
x,y,-z
-x,y,z
x,-y,z
loop_
_atom_site_type_symbol
_atom_site_label
_atom_site_fract_x
_atom_site_fract_y
_atom_site_fract_z
Si Si1 0.217540 0.271813 0.678113
Si Si2 0.394889 0.885773 0.326877
Si Si3 0.772018 0.062929 0.827188
Si Si4 0.605433 0.232978 0.824570
Si Si5 0.895286 0.621019 0.679805
Si Si6 0.888966 0.500000 0.335078
Si Si7 0.892936 0.169169 0.176730
O O1 0.215501 0.269380 0.500000
O O2 0.323845 0.273524 0.736126
O O3 0.170561 0.329171 0.739951
O O4 0.162952 0.217815 0.739189
O O5 0.377258 0.869752 0.500000
O O6 0.500000 0.909165 0.303827
O O7 0.321490 0.932434 0.272788
O O8 0.377317 0.830789 0.226874
O O9 0.849691 0.108477 0.777921
O O10 0.813479 0.000000 0.801953
O O11 0.743574 0.072255 0.000000
O O12 0.500000 0.252477 0.787228
O O13 0.627200 0.236432 0.000000
O O14 0.894303 0.617820 0.500000
O O15 0.860355 0.559533 0.745335
O O16 0.000000 0.634293 0.736632
O O17 0.842636 0.500000 0.500000
O O18 0.000000 0.500000 0.351284
O O19 0.000000 0.169669 0.230710
O O20 0.885001 0.179966 0.000000
#
# Coordination Sequence:
#
# PCOD8197995 Si02
#       7
#     8   8   8   8   8   4   8
#     4  11  20  30  49  77 105 129 157 199 248 293
#     4  10  20  34  53  76  99 123 152 192 246 300
#     4  10  21  36  53  72  95 127 166 203 240 287
#     4  10  20  34  52  72  96 127 161 197 239 292
#     4   8  14  24  40  67 102 137 168 197 233 278
#     4   7  10  20  38  60  94 137 172 198 227 271
#     4  10  21  36  52  70  95 129 167 203 241 286
#
# _framework density 17.251405999999999
#
# number of rings (size 3 to 8) (size 9 to 14) (size 15 to 20)
#    0.000    2.385    1.538    2.769    0.000    3.692 
#    0.000    3.077    0.000    0.000    0.000    4.846 
#    0.000   12.923    0.000    0.000    0.000    0.000 
#
# Total GULP energy -644567.062407 kJ/mol
# GULP energy per Si atom -12395.520431 kJ/mol
# Density = 1.721214 g / cm^3
# Si number density = 17.251406 Si / 1000 Ang^3
#
#
#
# Elastic Constant Matrix: (Units=GPa)
#
#
# Indices 1 2 3 4 5 6 
#
# 1 109.3447 63.6131 33.3262 0.0000 0.0000 0.0000
# 2 63.6131 138.4466 31.4844 0.0000 0.0000 0.0000
# 3 33.3262 31.4844 39.4698 0.0000 0.0000 0.0000
# 4 0.0000 0.0000 0.0000 0.3273 0.0000 0.0000
# 5 0.0000 0.0000 0.0000 0.0000 24.3300 0.0000
# 6 0.0000 0.0000 0.0000 0.0000 0.0000 24.5309
#
#
#
# Elastic Compliance Matrix: (Units=1/GPa)
#
#
# Indices 1 2 3 4 5 6 
#
# 1 0.014470 -0.004728 -0.008447 0.000000 0.000000 0.000000
# 2 -0.004728 0.010368 -0.004279 0.000000 0.000000 0.000000
# 3 -0.008447 -0.004279 0.035881 0.000000 0.000000 0.000000
# 4 0.000000 0.000000 0.000000 3.054863 0.000000 0.000000
# 5 0.000000 0.000000 0.000000 0.000000 0.041102 0.000000
# 6 0.000000 0.000000 0.000000 0.000000 0.000000 0.040765
#
#
# Mechanical properties :
#
#
# Convention : Reuss Voigt Hill
#
# Bulk Modulus (GPa) = 38.74010 60.45650 49.59830
# Shear Modulus (GPa) = 1.54275 20.42680 10.98478
#
# Velocity S-wave (km/s) = 0.94669 3.44476 2.52612
# Velocity P-wave (km/s) = 4.86825 7.13739 6.10910
#
# Compressibility (1/GPa) = 0.02581305
#
# Stress axis : x y z
#
# Youngs Moduli (GPa) = 69.10705 96.44684 27.87011
#
# Poissons Ratio (x) = 0.45599 0.23541
# Poissons Ratio (y) = 0.32673 0.11925
# Poissons Ratio (z) = 0.58372 0.41267
#
# Static dielectric constant tensor:
#      x y z
#    x 3.327340 0.000000 0.000000 
#    y 0.000000 3.402400 0.000000 
#    z 0.000000 0.000000 3.033220 
# 
# 
# High freq. dielectric constant tensor:
#      x y z
#    x 1.656950 0.000000 0.000000 
#    y 0.000000 1.657960 0.000000 
#    z 0.000000 0.000000 1.648160 
# 
# From -- ./inp_files/6961.got.cif
#   From: 2010.03.12/outbox.cif.g09.slc.cpg/sg47_4_cif.got.tgz:6961.got - 2010.04.14 03:12:58.
