data_PCOD8197744
_publ_section_title
;
Structure prediction by ZEFSAII (Michael W. Deem and Ramdas Pophale) SiO2 
 PCOD8197744
Probable space group: P M M M
;
_chemical_formula_sum "Si O2"
_cell_formula_units_Z 48
_cell_length_a 9.231996
_cell_length_b 30.653336
_cell_length_c 9.228032
_cell_angle_alpha 90.000000
_cell_angle_beta 90.000000
_cell_angle_gamma 90.000000
_cell_volume 2611.454390
_symmetry_space_group_name_H-M "P M M M"
_symmetry_group_IT_number 47
_symmetry_cell_setting 'orthorhombic'
loop_
_space_group_symop_operation_xyz
x,y,z
-x,-y,z
x,-y,-z
-x,y,-z
-x,-y,-z
x,y,-z
-x,y,z
x,-y,z
loop_
_atom_site_type_symbol
_atom_site_label
_atom_site_fract_x
_atom_site_fract_y
_atom_site_fract_z
Si Si1 0.827525 0.500000 0.163808
Si Si2 0.331936 0.656716 0.835539
Si Si3 0.665681 0.757331 0.167801
Si Si4 0.342249 0.000000 0.828938
Si Si5 0.672799 0.094284 0.834009
Si Si6 0.829266 0.415756 0.666291
Si Si7 0.833057 0.169843 0.329557
O O1 0.768272 0.542876 0.244845
O O2 0.000000 0.500000 0.167173
O O3 0.767992 0.500000 0.000000
O O4 0.500000 0.645968 0.814578
O O5 0.300639 0.706993 0.799618
O O6 0.240205 0.628342 0.724862
O O7 0.284210 0.646157 0.000000
O O8 0.500000 0.768519 0.208439
O O9 0.773031 0.785438 0.264343
O O10 0.692823 0.768240 0.000000
O O11 0.265266 0.045966 0.787452
O O12 0.500000 0.000000 0.754218
O O13 0.364348 0.000000 0.000000
O O14 0.500000 0.095740 0.815208
O O15 0.745860 0.128843 0.730092
O O16 0.714551 0.104978 0.000000
O O17 0.785106 0.422377 0.500000
O O18 0.000000 0.411512 0.685186
O O19 0.811208 0.171656 0.500000
O O20 0.000000 0.165030 0.285474
#
# Coordination Sequence:
#
# PCOD8197744 Si02
#       7
#     4   8   8   4   8   8   8
#     4   9  17  31  52  75 100 135 178 218 254 295
#     4   9  19  36  56  78 104 132 165 208 256 305
#     4   9  19  37  59  79  98 126 168 214 257 302
#     4   7  12  26  50  79 104 124 156 207 256 295
#     4   9  17  32  56  81 102 128 166 210 254 301
#     4  10  20  33  51  77 108 139 171 209 253 301
#     4  11  24  37  48  70 106 141 171 206 250 300
#
# _framework density 18.380564
#
# number of rings (size 3 to 8) (size 9 to 14) (size 15 to 20)
#    0.000    2.667    0.000    3.750    0.000    7.667 
#    0.000    6.250    0.000    6.500    0.000    0.000 
#    0.000    0.000    0.000    0.000    0.000    0.000 
#
# Total GULP energy -595059.950314 kJ/mol
# GULP energy per Si atom -12397.082298 kJ/mol
# Density = 1.833873 g / cm^3
# Si number density = 18.380564 Si / 1000 Ang^3
#
#
#
# Elastic Constant Matrix: (Units=GPa)
#
#
# Indices 1 2 3 4 5 6 
#
# 1 48.6344 46.0767 46.6902 0.0000 0.0000 0.0000
# 2 46.0767 130.6456 70.4471 0.0000 0.0000 0.0000
# 3 46.6902 70.4471 102.4047 0.0000 0.0000 0.0000
# 4 0.0000 0.0000 0.0000 8.1924 0.0000 0.0000
# 5 0.0000 0.0000 0.0000 0.0000 28.9245 0.0000
# 6 0.0000 0.0000 0.0000 0.0000 0.0000 223.7377
#
#
#
# Elastic Compliance Matrix: (Units=1/GPa)
#
#
# Indices 1 2 3 4 5 6 
#
# 1 0.040038 -0.006800 -0.013577 0.000000 0.000000 0.000000
# 2 -0.006800 0.013323 -0.006065 0.000000 0.000000 0.000000
# 3 -0.013577 -0.006065 0.020128 0.000000 0.000000 0.000000
# 4 0.000000 0.000000 0.000000 0.122064 0.000000 0.000000
# 5 0.000000 0.000000 0.000000 0.000000 0.034573 0.000000
# 6 0.000000 0.000000 0.000000 0.000000 0.000000 0.004470
#
#
# Mechanical properties :
#
#
# Convention : Reuss Voigt Hill
#
# Bulk Modulus (GPa) = 48.53168 67.56807 58.04987
# Shear Modulus (GPa) = 16.98677 60.06897 38.52787
#
# Velocity S-wave (km/s) = 3.04332 5.72291 4.58331
# Velocity P-wave (km/s) = 6.22978 8.97270 7.72397
#
# Compressibility (1/GPa) = 0.02060510
#
# Stress axis : x y z
#
# Youngs Moduli (GPa) = 24.97622 75.05951 49.68276
#
# Poissons Ratio (x) = 0.51038 0.67455
# Poissons Ratio (y) = 0.16983 0.30132
# Poissons Ratio (z) = 0.33911 0.45523
#
# Static dielectric constant tensor:
#      x y z
#    x 3.128060 0.000000 0.000000 
#    y 0.000000 3.600280 0.000000 
#    z 0.000000 0.000000 3.299810 
# 
# 
# High freq. dielectric constant tensor:
#      x y z
#    x 1.685520 0.000000 0.000000 
#    y 0.000000 1.732370 0.000000 
#    z 0.000000 0.000000 1.704600 
# 
# From -- ./inp_files/2582.got.cif
#   From: 2010.03.12/outbox.cif.g09.slc.cpg/sg47_2_cif.got.tgz:2582.got - 2010.04.14 03:12:58.
