data_PCOD8197845
_publ_section_title
;
Structure prediction by ZEFSAII (Michael W. Deem and Ramdas Pophale) SiO2 
 PCOD8197845
Probable space group: P M M M
;
_chemical_formula_sum "Si O2"
_cell_formula_units_Z 56
_cell_length_a 9.109405
_cell_length_b 14.584080
_cell_length_c 22.705025
_cell_angle_alpha 90.000000
_cell_angle_beta 90.000000
_cell_angle_gamma 90.000000
_cell_volume 3016.414595
_symmetry_space_group_name_H-M "P M M M"
_symmetry_group_IT_number 47
_symmetry_cell_setting 'orthorhombic'
loop_
_space_group_symop_operation_xyz
x,y,z
-x,-y,z
x,-y,-z
-x,y,-z
-x,-y,-z
x,y,-z
-x,y,z
x,-y,z
loop_
_atom_site_type_symbol
_atom_site_label
_atom_site_fract_x
_atom_site_fract_y
_atom_site_fract_z
Si Si1 0.329361 0.401617 0.387339
Si Si2 0.825499 0.272498 0.159806
Si Si3 0.331189 0.395861 0.931137
Si Si4 0.326884 0.790754 0.433629
Si Si5 0.160160 0.650184 0.719611
Si Si6 0.162945 0.853860 0.325779
Si Si7 0.669149 0.102206 0.788450
O O1 0.500000 0.389073 0.379170
O O2 0.292694 0.500000 0.418542
O O3 0.271056 0.314971 0.424651
O O4 0.266785 0.408489 0.321026
O O5 0.770482 0.321658 0.100997
O O6 0.779451 0.339115 0.213923
O O7 0.751510 0.172743 0.168076
O O8 0.000000 0.257565 0.157848
O O9 0.500000 0.379313 0.913416
O O10 0.284846 0.500000 0.914636
O O11 0.308392 0.379499 0.000000
O O12 0.286781 0.819882 0.500000
O O13 0.500000 0.798287 0.422062
O O14 0.244310 0.859537 0.389133
O O15 0.146837 0.749532 0.691679
O O16 0.000000 0.602986 0.720597
O O17 0.258523 0.904046 0.276258
O O18 0.000000 0.898468 0.330572
O O19 0.500000 0.133149 0.781681
O O20 0.679850 0.000000 0.816153
#
# Coordination Sequence:
#
# PCOD8197845 Si02
#       7
#     8   8   8   8   8   8   8
#     4   9  17  27  39  58  84 115 154 200 248 297
#     4  10  20  33  52  79 109 141 176 217 265 312
#     4   9  19  36  56  78 107 146 190 230 265 303
#     4   9  17  29  45  63  85 119 162 205 250 303
#     4   8  16  29  42  60  87 119 154 191 238 295
#     4   9  17  30  48  69  94 123 155 196 246 298
#     4  10  20  34  55  82 109 137 169 207 255 314
#
# _framework density 18.565087999999999
#
# number of rings (size 3 to 8) (size 9 to 14) (size 15 to 20)
#    0.000    2.857    0.000    2.571    0.000    7.143 
#    0.000    5.000    0.000    0.857    0.000   10.000 
#    0.000    0.000    0.000    0.000    0.000    0.000 
#
# Total GULP energy -693952.555152 kJ/mol
# GULP energy per Si atom -12392.009913 kJ/mol
# Density = 1.852283 g / cm^3
# Si number density = 18.565088 Si / 1000 Ang^3
#
#
#
# Elastic Constant Matrix: (Units=GPa)
#
#
# Indices 1 2 3 4 5 6 
#
# 1 83.6785 37.9304 38.6887 0.0000 0.0000 0.0000
# 2 37.9304 72.3929 34.1376 0.0000 0.0000 0.0000
# 3 38.6887 34.1376 83.8757 0.0000 0.0000 0.0000
# 4 0.0000 0.0000 0.0000 16.3054 0.0000 0.0000
# 5 0.0000 0.0000 0.0000 0.0000 25.6156 0.0000
# 6 0.0000 0.0000 0.0000 0.0000 0.0000 10.3317
#
#
#
# Elastic Compliance Matrix: (Units=1/GPa)
#
#
# Indices 1 2 3 4 5 6 
#
# 1 0.017415 -0.006604 -0.005345 0.000000 0.000000 0.000000
# 2 -0.006604 0.019599 -0.004930 0.000000 0.000000 0.000000
# 3 -0.005345 -0.004930 0.016395 0.000000 0.000000 0.000000
# 4 0.000000 0.000000 0.000000 0.061329 0.000000 0.000000
# 5 0.000000 0.000000 0.000000 0.000000 0.039039 0.000000
# 6 0.000000 0.000000 0.000000 0.000000 0.000000 0.096789
#
#
# Mechanical properties :
#
#
# Convention : Reuss Voigt Hill
#
# Bulk Modulus (GPa) = 50.89280 51.27338 51.08309
# Shear Modulus (GPa) = 17.18947 19.06324 18.12636
#
# Velocity S-wave (km/s) = 3.04617 3.20790 3.12808
# Velocity P-wave (km/s) = 6.31228 6.43420 6.37353
#
# Compressibility (1/GPa) = 0.01964915
#
# Stress axis : x y z
#
# Youngs Moduli (GPa) = 57.42021 51.02335 60.99558
#
# Poissons Ratio (x) = 0.33697 0.32603
# Poissons Ratio (y) = 0.37922 0.30074
# Poissons Ratio (z) = 0.30692 0.25157
#
# Static dielectric constant tensor:
#      x y z
#    x 3.551040 0.000000 0.000000 
#    y 0.000000 3.344180 0.000000 
#    z 0.000000 0.000000 3.343470 
# 
# 
# High freq. dielectric constant tensor:
#      x y z
#    x 1.721750 0.000000 0.000000 
#    y 0.000000 1.706890 0.000000 
#    z 0.000000 0.000000 1.697810 
# 
# From -- ./inp_files/29695.got.cif
#   From: 2010.03.12/outbox.cif.g09.slc.cpg/sg47_15_cif.got.tgz:29695.got - 2010.04.14 03:12:58.
