data_PCOD8197973
_publ_section_title
;
Structure prediction by ZEFSAII (Michael W. Deem and Ramdas Pophale) SiO2 
 PCOD8197973
Probable space group: P M M M
;
_chemical_formula_sum "Si O2"
_cell_formula_units_Z 48
_cell_length_a 13.702470
_cell_length_b 20.977671
_cell_length_c 9.035369
_cell_angle_alpha 90.000000
_cell_angle_beta 90.000000
_cell_angle_gamma 90.000000
_cell_volume 2597.179842
_symmetry_space_group_name_H-M "P M M M"
_symmetry_group_IT_number 47
_symmetry_cell_setting 'orthorhombic'
loop_
_space_group_symop_operation_xyz
x,y,z
-x,-y,z
x,-y,-z
-x,y,-z
-x,-y,-z
x,y,-z
-x,y,z
x,-y,z
loop_
_atom_site_type_symbol
_atom_site_label
_atom_site_fract_x
_atom_site_fract_y
_atom_site_fract_z
Si Si1 0.302359 0.250933 0.828037
Si Si2 0.615692 0.872568 0.668674
Si Si3 0.107982 0.190489 0.830608
Si Si4 0.384900 0.373632 0.329106
Si Si5 0.884038 0.931578 0.667553
Si Si6 0.383283 0.000000 0.170231
Si Si7 0.383945 0.500000 0.167069
O O1 0.353413 0.189773 0.758176
O O2 0.184480 0.247720 0.808481
O O3 0.334467 0.313976 0.745737
O O4 0.332177 0.254650 0.000000
O O5 0.654792 0.869158 0.500000
O O6 0.500000 0.875349 0.669613
O O7 0.657774 0.936786 0.746281
O O8 0.158109 0.128710 0.754889
O O9 0.000000 0.208589 0.766214
O O10 0.096690 0.171870 0.000000
O O11 0.355238 0.376582 0.500000
O O12 0.500000 0.366547 0.308611
O O13 0.345126 0.437522 0.251250
O O14 0.848170 0.925878 0.500000
O O15 0.000000 0.928420 0.677445
O O16 0.848587 0.000000 0.733963
O O17 0.500000 0.000000 0.176491
O O18 0.347396 0.000000 0.000000
O O19 0.500000 0.500000 0.168107
O O20 0.343191 0.500000 0.000000
#
# Coordination Sequence:
#
# PCOD8197973 Si02
#       7
#     8   8   8   8   8   4   4
#     4  11  22  34  50  74 101 133 172 213 255 302
#     4  10  20  34  51  71  97 129 165 206 253 304
#     4   9  19  35  51  68  93 126 165 210 259 309
#     4  10  20  34  53  79 112 145 173 204 244 292
#     4   8  14  26  45  67  88 112 147 195 252 310
#     4   9  17  31  51  71  92 123 164 209 253 298
#     4   9  17  31  53  81 112 145 176 203 235 284
#
# _framework density 18.481584999999999
#
# number of rings (size 3 to 8) (size 9 to 14) (size 15 to 20)
#    0.000    2.500    0.000    3.000    0.000    7.667 
#    1.500    1.667    0.000    0.000    0.000    0.583 
#    0.000    4.667    0.000    0.000    0.000    0.000 
#
# Total GULP energy -595046.065116 kJ/mol
# GULP energy per Si atom -12396.793023 kJ/mol
# Density = 1.843952 g / cm^3
# Si number density = 18.481585 Si / 1000 Ang^3
#
#
#
# Elastic Constant Matrix: (Units=GPa)
#
#
# Indices 1 2 3 4 5 6 
#
# 1 25.5233 39.0149 31.6306 0.0000 0.0000 0.0000
# 2 39.0149 171.8415 88.3105 0.0000 0.0000 0.0000
# 3 31.6306 88.3105 137.1713 0.0000 0.0000 0.0000
# 4 0.0000 0.0000 0.0000 40.2960 0.0000 0.0000
# 5 0.0000 0.0000 0.0000 0.0000 11.9898 0.0000
# 6 0.0000 0.0000 0.0000 0.0000 0.0000 18.2350
#
#
#
# Elastic Compliance Matrix: (Units=1/GPa)
#
#
# Indices 1 2 3 4 5 6 
#
# 1 0.065771 -0.010668 -0.008298 0.000000 0.000000 0.000000
# 2 -0.010668 0.010427 -0.004253 0.000000 0.000000 0.000000
# 3 -0.008298 -0.004253 0.011942 0.000000 0.000000 0.000000
# 4 0.000000 0.000000 0.000000 0.024816 0.000000 0.000000
# 5 0.000000 0.000000 0.000000 0.000000 0.083405 0.000000
# 6 0.000000 0.000000 0.000000 0.000000 0.000000 0.054840
#
#
# Mechanical properties :
#
#
# Convention : Reuss Voigt Hill
#
# Bulk Modulus (GPa) = 23.98015 72.49423 48.23719
# Shear Modulus (GPa) = 16.04938 25.80950 20.92944
#
# Velocity S-wave (km/s) = 2.95006 3.74103 3.36884
# Velocity P-wave (km/s) = 4.96056 7.61385 6.42564
#
# Compressibility (1/GPa) = 0.04170116
#
# Stress axis : x y z
#
# Youngs Moduli (GPa) = 15.20432 95.90484 83.74076
#
# Poissons Ratio (x) = 1.02313 0.69489
# Poissons Ratio (y) = 0.16220 0.35614
# Poissons Ratio (z) = 0.12617 0.40787
#
# Static dielectric constant tensor:
#      x y z
#    x 3.342190 0.000000 0.000000 
#    y 0.000000 3.584300 0.000000 
#    z 0.000000 0.000000 3.601260 
# 
# 
# High freq. dielectric constant tensor:
#      x y z
#    x 1.701570 0.000000 0.000000 
#    y 0.000000 1.704180 0.000000 
#    z 0.000000 0.000000 1.727110 
# 
# From -- ./inp_files/6542.got.cif
#   From: 2010.03.12/outbox.cif.g09.slc.cpg/sg47_4_cif.got.tgz:6542.got - 2010.04.14 03:12:58.
