data_PCOD8197322
_publ_section_title
;
Structure prediction by ZEFSAII (Michael W. Deem and Ramdas Pophale) SiO2 
 PCOD8197322
Probable space group: P M M M
;
_chemical_formula_sum "Si O2"
_cell_formula_units_Z 64
_cell_length_a 9.293450
_cell_length_b 20.743391
_cell_length_c 19.557938
_cell_angle_alpha 90.000000
_cell_angle_beta 90.000000
_cell_angle_gamma 90.000000
_cell_volume 3770.333661
_symmetry_space_group_name_H-M "P M M M"
_symmetry_group_IT_number 47
_symmetry_cell_setting 'orthorhombic'
loop_
_space_group_symop_operation_xyz
x,y,z
-x,-y,z
x,-y,-z
-x,y,-z
-x,-y,-z
x,y,-z
-x,y,z
x,-y,z
loop_
_atom_site_type_symbol
_atom_site_label
_atom_site_fract_x
_atom_site_fract_y
_atom_site_fract_z
Si Si1 0.334674 0.125004 0.577562
Si Si2 0.831396 0.928253 0.698964
Si Si3 0.663743 0.630238 0.075331
Si Si4 0.171269 0.317359 0.704667
Si Si5 0.665624 0.573020 0.216309
Si Si6 0.169467 0.239830 0.074996
Si Si7 0.332853 0.726260 0.577779
Si Si8 0.829680 0.190237 0.215304
O O1 0.307950 0.102900 0.500000
O O2 0.500000 0.115511 0.597971
O O3 0.238776 0.079896 0.624969
O O4 0.289698 0.199237 0.586871
O O5 0.766242 0.875084 0.751272
O O6 0.000000 0.917803 0.689517
O O7 0.797297 0.000000 0.727067
O O8 0.500000 0.654992 0.078951
O O9 0.694192 0.578553 0.134687
O O10 0.764292 0.690874 0.088597
O O11 0.695128 0.599775 0.000000
O O12 0.230036 0.380359 0.742239
O O13 0.234889 0.316076 0.628111
O O14 0.225762 0.253579 0.744783
O O15 0.000000 0.321473 0.701189
O O16 0.500000 0.590324 0.233193
O O17 0.701039 0.500000 0.237905
O O18 0.221230 0.192358 0.135842
O O19 0.000000 0.249745 0.079157
O O20 0.214836 0.212366 0.000000
O O21 0.301903 0.704168 0.500000
O O22 0.500000 0.715745 0.595632
O O23 0.000000 0.188361 0.219582
#
# Coordination Sequence:
#
# PCOD8197322 Si02
#       8
#     8   8   8   8   8   8   8   8
#     4   9  18  32  49  70  98 130 162 198 239 286
#     4  10  20  33  48  67  96 133 168 204 246 293
#     4   9  17  29  46  70  99 129 164 203 241 286
#     4  11  20  32  53  77 101 130 166 209 250 291
#     4  10  21  35  50  71 102 138 171 203 245 297
#     4   9  16  28  48  70  94 125 160 201 249 296
#     4   9  18  33  53  77 103 130 162 201 247 298
#     4   9  17  30  47  71  97 124 162 205 248 289
#
# _framework density 16.974623999999999
#
# number of rings (size 3 to 8) (size 9 to 14) (size 15 to 20)
#    0.000    2.500    2.500    1.125    0.000    1.500 
#    0.000    4.375    0.000    0.750    0.000    7.875 
#    0.000    0.000    0.000    4.250    0.000    4.500 
#
# Total GULP energy -793339.524587 kJ/mol
# GULP energy per Si atom -12395.930072 kJ/mol
# Density = 1.693599 g / cm^3
# Si number density = 16.974624 Si / 1000 Ang^3
#
#
#
# Elastic Constant Matrix: (Units=GPa)
#
#
# Indices 1 2 3 4 5 6 
#
# 1 44.9686 35.7566 41.4679 0.0000 0.0000 0.0000
# 2 35.7566 96.5175 59.7002 0.0000 0.0000 0.0000
# 3 41.4679 59.7002 116.9573 0.0000 0.0000 0.0000
# 4 0.0000 0.0000 0.0000 23.7909 0.0000 0.0000
# 5 0.0000 0.0000 0.0000 0.0000 23.2843 0.0000
# 6 0.0000 0.0000 0.0000 0.0000 0.0000 21.1369
#
#
#
# Elastic Compliance Matrix: (Units=1/GPa)
#
#
# Indices 1 2 3 4 5 6 
#
# 1 0.036978 -0.008169 -0.008941 0.000000 0.000000 0.000000
# 2 -0.008169 0.016946 -0.005754 0.000000 0.000000 0.000000
# 3 -0.008941 -0.005754 0.014657 0.000000 0.000000 0.000000
# 4 0.000000 0.000000 0.000000 0.042033 0.000000 0.000000
# 5 0.000000 0.000000 0.000000 0.000000 0.042947 0.000000
# 6 0.000000 0.000000 0.000000 0.000000 0.000000 0.047311
#
#
# Mechanical properties :
#
#
# Convention : Reuss Voigt Hill
#
# Bulk Modulus (GPa) = 43.75562 59.14365 51.44963
# Shear Modulus (GPa) = 19.66820 21.74368 20.70594
#
# Velocity S-wave (km/s) = 3.40764 3.58292 3.49638
# Velocity P-wave (km/s) = 6.42773 7.21349 6.83192
#
# Compressibility (1/GPa) = 0.02285420
#
# Stress axis : x y z
#
# Youngs Moduli (GPa) = 27.04293 59.01103 68.22582
#
# Poissons Ratio (x) = 0.48205 0.61002
# Poissons Ratio (y) = 0.22091 0.39255
# Poissons Ratio (z) = 0.24179 0.33953
#
# Static dielectric constant tensor:
#      x y z
#    x 3.027140 0.000000 0.000000 
#    y 0.000000 3.043320 0.000000 
#    z 0.000000 0.000000 3.435150 
# 
# 
# High freq. dielectric constant tensor:
#      x y z
#    x 1.642520 0.000000 0.000000 
#    y 0.000000 1.626650 0.000000 
#    z 0.000000 0.000000 1.662200 
# 
# From -- ./inp_files/9929.got.cif
#   From: 2010.03.12/outbox.cif.g09.slc.cpg/sg47_5_cif.got.tgz:9929.got - 2010.04.14 03:12:58.
