data_PCOD8197397
_publ_section_title
;
Structure prediction by ZEFSAII (Michael W. Deem and Ramdas Pophale) SiO2 
 PCOD8197397
Probable space group: P M M M
;
_chemical_formula_sum "Si O2"
_cell_formula_units_Z 56
_cell_length_a 9.486680
_cell_length_b 18.632492
_cell_length_c 18.497662
_cell_angle_alpha 90.000000
_cell_angle_beta 90.000000
_cell_angle_gamma 90.000000
_cell_volume 3269.655784
_symmetry_space_group_name_H-M "P M M M"
_symmetry_group_IT_number 47
_symmetry_cell_setting 'orthorhombic'
loop_
_space_group_symop_operation_xyz
x,y,z
-x,-y,z
x,-y,-z
-x,y,-z
-x,-y,-z
x,y,-z
-x,y,z
x,-y,z
loop_
_atom_site_type_symbol
_atom_site_label
_atom_site_fract_x
_atom_site_fract_y
_atom_site_fract_z
Si Si1 0.162586 0.581233 0.792839
Si Si2 0.159091 0.847168 0.209506
Si Si3 0.662878 0.645088 0.081957
Si Si4 0.664353 0.809828 0.080861
Si Si5 0.337731 0.791915 0.416533
Si Si6 0.837939 0.709867 0.695134
Si Si7 0.163731 0.081910 0.644969
O O1 0.188478 0.500000 0.766645
O O2 0.248289 0.594734 0.865754
O O3 0.210278 0.633410 0.727609
O O4 0.000000 0.596039 0.811363
O O5 0.255774 0.858669 0.139342
O O6 0.183125 0.768355 0.242297
O O7 0.198881 0.905628 0.270490
O O8 0.000000 0.857662 0.183181
O O9 0.500000 0.637596 0.103205
O O10 0.711556 0.727394 0.089767
O O11 0.688055 0.618816 0.000000
O O12 0.500000 0.817915 0.095488
O O13 0.702079 0.836535 0.000000
O O14 0.327587 0.770842 0.500000
O O15 0.500000 0.798771 0.391445
O O16 0.261916 0.728448 0.372280
O O17 0.260658 0.867999 0.404458
O O18 0.000000 0.708750 0.668412
O O19 0.000000 0.101956 0.630901
O O20 0.195668 0.000000 0.624225
#
# Coordination Sequence:
#
# PCOD8197397 Si02
#       7
#     8   8   8   8   8   8   8
#     4  10  20  33  49  70  97 128 164 209 255 294
#     4   9  16  28  48  71  92 120 162 205 241 279
#     4   9  18  31  45  64  94 131 168 205 247 297
#     4   9  17  28  43  65  92 123 161 205 249 289
#     4  10  21  35  53  79 106 130 158 195 236 278
#     4   9  18  33  51  72  97 126 163 202 241 291
#     4   9  19  35  53  75 105 137 164 191 230 284
#
# _framework density 17.127185000000001
#
# number of rings (size 3 to 8) (size 9 to 14) (size 15 to 20)
#    0.000    2.714    1.429    2.143    0.000    5.714 
#    0.000    4.286    0.000    0.857    0.000    6.000 
#    0.000    0.000    0.000    0.000    0.000    0.000 
#
# Total GULP energy -694364.566201 kJ/mol
# GULP energy per Si atom -12399.367254 kJ/mol
# Density = 1.708820 g / cm^3
# Si number density = 17.127185 Si / 1000 Ang^3
#
#
#
# Elastic Constant Matrix: (Units=GPa)
#
#
# Indices 1 2 3 4 5 6 
#
# 1 76.7267 31.4305 54.5574 0.0000 0.0000 0.0000
# 2 31.4305 65.5104 31.4034 0.0000 0.0000 0.0000
# 3 54.5574 31.4034 90.8084 0.0000 0.0000 0.0000
# 4 0.0000 0.0000 0.0000 17.3922 0.0000 0.0000
# 5 0.0000 0.0000 0.0000 0.0000 31.1109 0.0000
# 6 0.0000 0.0000 0.0000 0.0000 0.0000 18.5357
#
#
#
# Elastic Compliance Matrix: (Units=1/GPa)
#
#
# Indices 1 2 3 4 5 6 
#
# 1 0.024354 -0.005599 -0.012696 0.000000 0.000000 0.000000
# 2 -0.005599 0.019585 -0.003409 0.000000 0.000000 0.000000
# 3 -0.012696 -0.003409 0.019819 0.000000 0.000000 0.000000
# 4 0.000000 0.000000 0.000000 0.057497 0.000000 0.000000
# 5 0.000000 0.000000 0.000000 0.000000 0.032143 0.000000
# 6 0.000000 0.000000 0.000000 0.000000 0.000000 0.053950
#
#
# Mechanical properties :
#
#
# Convention : Reuss Voigt Hill
#
# Bulk Modulus (GPa) = 49.13851 51.98092 50.55971
# Shear Modulus (GPa) = 19.41448 21.11801 20.26625
#
# Velocity S-wave (km/s) = 3.37047 3.51524 3.44361
# Velocity P-wave (km/s) = 6.62566 6.84775 6.73762
#
# Compressibility (1/GPa) = 0.02035064
#
# Stress axis : x y z
#
# Youngs Moduli (GPa) = 41.06052 51.05897 50.45717
#
# Poissons Ratio (x) = 0.28587 0.64060
# Poissons Ratio (y) = 0.22989 0.17202
# Poissons Ratio (z) = 0.52130 0.17407
#
# Static dielectric constant tensor:
#      x y z
#    x 3.175720 0.000000 0.000000 
#    y 0.000000 3.069210 0.000000 
#    z 0.000000 0.000000 3.066800 
# 
# 
# High freq. dielectric constant tensor:
#      x y z
#    x 1.660790 0.000000 0.000000 
#    y 0.000000 1.636970 0.000000 
#    z 0.000000 0.000000 1.652370 
# 
# From -- ./inp_files/9790.got.cif
#   From: 2010.03.12/outbox.cif.g09.slc.cpg/sg47_5_cif.got.tgz:9790.got - 2010.04.14 03:12:58.
