data_PCOD8197090
_publ_section_title
;
Structure prediction by ZEFSAII (Michael W. Deem and Ramdas Pophale) SiO2 
 PCOD8197090
Probable space group: P M M M
;
_chemical_formula_sum "Si O2"
_cell_formula_units_Z 40
_cell_length_a 8.982213
_cell_length_b 7.645449
_cell_length_c 27.491710
_cell_angle_alpha 90.000000
_cell_angle_beta 90.000000
_cell_angle_gamma 90.000000
_cell_volume 1887.939614
_symmetry_space_group_name_H-M "P M M M"
_symmetry_group_IT_number 47
_symmetry_cell_setting 'orthorhombic'
loop_
_space_group_symop_operation_xyz
x,y,z
-x,-y,z
x,-y,-z
-x,y,-z
-x,-y,-z
x,y,-z
-x,y,z
x,-y,z
loop_
_atom_site_type_symbol
_atom_site_label
_atom_site_fract_x
_atom_site_fract_y
_atom_site_fract_z
Si Si1 0.828532 0.500000 0.442585
Si Si2 0.675691 0.797431 0.383404
Si Si3 0.168641 0.205517 0.715834
Si Si4 0.667497 0.708269 0.000000
Si Si5 0.167222 0.708942 0.095676
Si Si6 0.336604 0.700206 0.811498
O O1 0.813526 0.500000 0.500000
O O2 0.749448 0.676118 0.424037
O O3 0.000000 0.500000 0.425763
O O4 0.500000 0.767671 0.383263
O O5 0.739018 0.737230 0.331416
O O6 0.716252 0.000000 0.394454
O O7 0.242444 0.290593 0.762538
O O8 0.000000 0.274515 0.710441
O O9 0.172861 0.000000 0.722720
O O10 0.750077 0.780171 0.952193
O O11 0.668340 0.500000 0.000000
O O12 0.500000 0.781100 0.000000
O O13 0.165568 0.500000 0.096410
O O14 0.249246 0.787542 0.143382
O O15 0.000000 0.782672 0.095541
O O16 0.500000 0.789002 0.804950
O O17 0.360142 0.500000 0.825085
#
# Coordination Sequence:
#
# PCOD8197090 Si02
#       6
#     4   8   8   4   8   8
#     4  11  25  43  65  95 129 167 209 252 301 358
#     4  10  22  41  65  92 124 162 205 254 305 358
#     4  10  21  37  57  81 110 146 187 229 278 338
#     4   9  15  23  37  57  86 125 166 211 266 327
#     4   9  16  26  40  61  91 127 169 216 268 326
#     4  10  20  32  48  73 105 139 176 222 276 332
#
# _framework density 21.187118999999999
#
# number of rings (size 3 to 8) (size 9 to 14) (size 15 to 20)
#    0.000    2.200    0.000    3.000    1.400    8.400 
#    0.000    2.000    0.000    0.000    0.000    0.700 
#    0.000    5.600    0.000    0.000    0.000    0.000 
#
# Total GULP energy -496019.622911 kJ/mol
# GULP energy per Si atom -12400.490573 kJ/mol
# Density = 2.113890 g / cm^3
# Si number density = 21.187119 Si / 1000 Ang^3
#
#
#
# Elastic Constant Matrix: (Units=GPa)
#
#
# Indices 1 2 3 4 5 6 
#
# 1 194.0964 38.3263 84.0905 0.0000 0.0000 0.0000
# 2 38.3263 48.9445 36.7151 0.0000 0.0000 0.0000
# 3 84.0905 36.7151 150.3781 0.0000 0.0000 0.0000
# 4 0.0000 0.0000 0.0000 -37.9572 0.0000 0.0000
# 5 0.0000 0.0000 0.0000 0.0000 39.0986 0.0000
# 6 0.0000 0.0000 0.0000 0.0000 0.0000 18.5616
#
#
#
# Elastic Compliance Matrix: (Units=1/GPa)
#
#
# Indices 1 2 3 4 5 6 
#
# 1 0.007186 -0.003199 -0.003238 0.000000 0.000000 0.000000
# 2 -0.003199 0.026436 -0.004666 0.000000 0.000000 0.000000
# 3 -0.003238 -0.004666 0.009599 0.000000 0.000000 0.000000
# 4 0.000000 0.000000 0.000000 -0.026345 0.000000 0.000000
# 5 0.000000 0.000000 0.000000 0.000000 0.025576 0.000000
# 6 0.000000 0.000000 0.000000 0.000000 0.000000 0.053875
#
#
# Mechanical properties :
#
#
# Convention : Reuss Voigt Hill
#
# Bulk Modulus (GPa) = 47.57858 79.07584 63.32721
# Shear Modulus (GPa) = 39.82881 19.55974 29.69428
#
# Velocity S-wave (km/s) = 4.34044 3.04170 3.74776
# Velocity P-wave (km/s) = 6.90104 7.05263 6.97724
#
# Compressibility (1/GPa) = 0.02101786
#
# Stress axis : x y z
#
# Youngs Moduli (GPa) = 139.15268 37.82722 104.17216
#
# Poissons Ratio (x) = 0.12100 0.33727
# Poissons Ratio (y) = 0.44510 0.48604
# Poissons Ratio (z) = 0.45052 0.17649
#
# Static dielectric constant tensor:
#      x y z
#    x 4.180600 0.000000 0.000000 
#    y 0.000000 3.475520 0.000000 
#    z 0.000000 0.000000 3.806970 
# 
# 
# High freq. dielectric constant tensor:
#      x y z
#    x 1.850590 0.000000 0.000000 
#    y 0.000000 1.803360 0.000000 
#    z 0.000000 0.000000 1.834220 
# 
# From -- ./inp_files/33105.got.cif
#   From: 2010.03.12/outbox.cif.g09.slc.cpg/sg47_17_cif.got.tgz:33105.got - 2010.04.14 03:12:58.
