data_PCOD8197642
_publ_section_title
;
Structure prediction by ZEFSAII (Michael W. Deem and Ramdas Pophale) SiO2 
 PCOD8197642
Probable space group: P M M M
;
_chemical_formula_sum "Si O2"
_cell_formula_units_Z 64
_cell_length_a 28.358667
_cell_length_b 14.440741
_cell_length_c 9.275066
_cell_angle_alpha 90.000000
_cell_angle_beta 90.000000
_cell_angle_gamma 90.000000
_cell_volume 3798.326561
_symmetry_space_group_name_H-M "P M M M"
_symmetry_group_IT_number 47
_symmetry_cell_setting 'orthorhombic'
loop_
_space_group_symop_operation_xyz
x,y,z
-x,-y,z
x,-y,-z
-x,y,-z
-x,-y,-z
x,y,-z
-x,y,z
x,-y,z
loop_
_atom_site_type_symbol
_atom_site_label
_atom_site_fract_x
_atom_site_fract_y
_atom_site_fract_z
Si Si1 0.551634 0.390096 0.661958
Si Si2 0.861370 0.854333 0.160579
Si Si3 0.729829 0.272056 0.828862
Si Si4 0.826082 0.648554 0.156896
Si Si5 0.053249 0.205593 0.330519
Si Si6 0.770407 0.896778 0.333390
Si Si7 0.909818 0.599358 0.665795
Si Si8 0.358340 0.605789 0.169777
O O1 0.561253 0.354698 0.500000
O O2 0.500000 0.353893 0.714586
O O3 0.551217 0.500000 0.665682
O O4 0.593300 0.353504 0.764078
O O5 0.848952 0.748423 0.143252
O O6 0.911656 0.861804 0.242917
O O7 0.821186 0.902590 0.255718
O O8 0.864885 0.899585 0.000000
O O9 0.772767 0.340281 0.785088
O O10 0.734834 0.174624 0.745034
O O11 0.682938 0.325397 0.779318
O O12 0.731042 0.251295 0.000000
O O13 0.858297 0.589625 0.262612
O O14 0.825338 0.600173 0.000000
O O15 0.063633 0.194816 0.500000
O O16 0.059468 0.313448 0.280247
O O17 0.000000 0.175990 0.293380
O O18 0.777371 0.866477 0.500000
O O19 0.748188 0.000000 0.324472
O O20 0.899035 0.614326 0.500000
O O21 0.936008 0.500000 0.693499
O O22 0.348052 0.500000 0.221481
O O23 0.363849 0.608005 0.000000
#
# Coordination Sequence:
#
# PCOD8197642 Si02
#       8
#     8   8   8   8   8   8   8   8
#     4   8  14  25  40  58  83 118 161 206 246 280
#     4   9  17  30  48  67  86 109 137 170 208 254
#     4   9  18  31  46  66  93 124 155 188 227 270
#     4   8  15  27  41  56  75 104 140 173 209 253
#     4   9  17  29  45  63  84 112 142 174 217 264
#     4  10  20  33  51  74  96 118 146 182 224 270
#     4   9  17  27  38  55  79 106 140 180 216 253
#     4   9  17  28  42  63  93 128 164 199 234 272
#
# _framework density 16.849526999999998
#
# number of rings (size 3 to 8) (size 9 to 14) (size 15 to 20)
#    0.000    3.125    0.000    1.875    0.000    6.000 
#    0.000    3.750    0.000    1.875    0.000    6.125 
#    0.000    0.500    0.000    5.500    0.000    4.250 
#
# Total GULP energy -792945.634008 kJ/mol
# GULP energy per Si atom -12389.775531 kJ/mol
# Density = 1.681118 g / cm^3
# Si number density = 16.849527 Si / 1000 Ang^3
#
#
#
# Elastic Constant Matrix: (Units=GPa)
#
#
# Indices 1 2 3 4 5 6 
#
# 1 123.1409 28.8760 41.9934 0.0000 0.0000 0.0000
# 2 28.8760 53.0579 25.2235 0.0000 0.0000 0.0000
# 3 41.9934 25.2235 62.5411 0.0000 0.0000 0.0000
# 4 0.0000 0.0000 0.0000 12.6841 0.0000 0.0000
# 5 0.0000 0.0000 0.0000 0.0000 28.7718 0.0000
# 6 0.0000 0.0000 0.0000 0.0000 0.0000 11.3972
#
#
#
# Elastic Compliance Matrix: (Units=1/GPa)
#
#
# Indices 1 2 3 4 5 6 
#
# 1 0.010915 -0.003039 -0.006103 0.000000 0.000000 0.000000
# 2 -0.003039 0.024164 -0.007705 0.000000 0.000000 0.000000
# 3 -0.006103 -0.007705 0.023195 0.000000 0.000000 0.000000
# 4 0.000000 0.000000 0.000000 0.078839 0.000000 0.000000
# 5 0.000000 0.000000 0.000000 0.000000 0.034756 0.000000
# 6 0.000000 0.000000 0.000000 0.000000 0.000000 0.087741
#
#
# Mechanical properties :
#
#
# Convention : Reuss Voigt Hill
#
# Bulk Modulus (GPa) = 40.68418 47.88064 44.28241
# Shear Modulus (GPa) = 16.58389 20.08042 18.33215
#
# Velocity S-wave (km/s) = 3.14066 3.45592 3.30205
# Velocity P-wave (km/s) = 6.11143 6.66354 6.39345
#
# Compressibility (1/GPa) = 0.02457958
#
# Stress axis : x y z
#
# Youngs Moduli (GPa) = 91.62023 41.38353 43.11264
#
# Poissons Ratio (x) = 0.12575 0.26312
# Poissons Ratio (y) = 0.27841 0.33220
# Poissons Ratio (z) = 0.55917 0.31887
#
# Static dielectric constant tensor:
#      x y z
#    x 3.312200 0.000000 0.000000 
#    y 0.000000 2.947800 0.000000 
#    z 0.000000 0.000000 3.325040 
# 
# 
# High freq. dielectric constant tensor:
#      x y z
#    x 1.632760 0.000000 0.000000 
#    y 0.000000 1.617940 0.000000 
#    z 0.000000 0.000000 1.649850 
# 
# From -- ./inp_files/14300.got.cif
#   From: 2010.03.12/outbox.cif.g09.slc.cpg/sg47_8_cif.got.tgz:14300.got - 2010.04.14 03:12:58.
