data_PCOD8197357
_publ_section_title
;
Structure prediction by ZEFSAII (Michael W. Deem and Ramdas Pophale) SiO2 
 PCOD8197357
Probable space group: P M M M
;
_chemical_formula_sum "Si O2"
_cell_formula_units_Z 64
_cell_length_a 14.719664
_cell_length_b 8.926136
_cell_length_c 29.400423
_cell_angle_alpha 90.000000
_cell_angle_beta 90.000000
_cell_angle_gamma 90.000000
_cell_volume 3862.913426
_symmetry_space_group_name_H-M "P M M M"
_symmetry_group_IT_number 47
_symmetry_cell_setting 'orthorhombic'
loop_
_space_group_symop_operation_xyz
x,y,z
-x,-y,z
x,-y,-z
-x,y,-z
-x,-y,-z
x,y,-z
-x,y,z
x,-y,z
loop_
_atom_site_type_symbol
_atom_site_label
_atom_site_fract_x
_atom_site_fract_y
_atom_site_fract_z
Si Si1 0.603915 0.322896 0.229233
Si Si2 0.273639 0.173450 0.695423
Si Si3 0.391980 0.331637 0.049858
Si Si4 0.646148 0.829917 0.449470
Si Si5 0.401298 0.667068 0.367762
Si Si6 0.101222 0.827421 0.360536
Si Si7 0.607470 0.833959 0.137198
Si Si8 0.837543 0.325493 0.550661
O O1 0.500000 0.265552 0.240198
O O2 0.604836 0.500000 0.230748
O O3 0.681862 0.266056 0.263398
O O4 0.634994 0.269394 0.179512
O O5 0.336822 0.206282 0.652435
O O6 0.172454 0.224725 0.679110
O O7 0.275683 0.000000 0.708989
O O8 0.500000 0.332854 0.053210
O O9 0.355035 0.500000 0.055865
O O10 0.350234 0.231482 0.090403
O O11 0.362436 0.268939 0.000000
O O12 0.606614 0.821031 0.500000
O O13 0.585464 0.717061 0.419770
O O14 0.748924 0.775072 0.447390
O O15 0.640845 0.000000 0.431228
O O16 0.500000 0.666807 0.343649
O O17 0.359040 0.500000 0.363556
O O18 0.101689 0.730711 0.407137
O O19 0.000000 0.810129 0.339822
O O20 0.122825 0.000000 0.372984
O O21 0.500000 0.840113 0.132372
O O22 0.647399 0.000000 0.144892
O O23 0.883138 0.304615 0.500000
O O24 0.814232 0.500000 0.558215
#
# Coordination Sequence:
#
# PCOD8197357 Si02
#       8
#     8   8   8   8   8   8   8   8
#     4  10  20  33  49  68  92 123 157 195 239 283
#     4  11  22  36  54  73  93 119 150 188 228 269
#     4   8  13  21  33  50  76 113 155 197 241 285
#     4  10  20  34  52  72  94 121 151 181 215 256
#     4  11  23  36  51  72  97 123 150 182 221 264
#     4  10  22  39  57  77  99 123 150 180 221 273
#     4   9  16  25  38  58  84 114 153 200 242 280
#     4  10  20  34  54  78 101 123 147 178 217 262
#
# _framework density 16.567805
#
# number of rings (size 3 to 8) (size 9 to 14) (size 15 to 20)
#    0.000    2.125    1.250    3.000    0.000    7.750 
#    0.000    3.750    0.000    0.000    0.000    0.000 
#    0.000    0.000    0.000    0.000    0.000    0.625 
#
# Total GULP energy -792937.693915 kJ/mol
# GULP energy per Si atom -12389.651467 kJ/mol
# Density = 1.653010 g / cm^3
# Si number density = 16.567805 Si / 1000 Ang^3
#
#
#
# Elastic Constant Matrix: (Units=GPa)
#
#
# Indices 1 2 3 4 5 6 
#
# 1 66.3618 20.5354 35.9751 0.0000 0.0000 0.0000
# 2 20.5354 70.1064 43.2445 0.0000 0.0000 0.0000
# 3 35.9751 43.2445 115.2256 0.0000 0.0000 0.0000
# 4 0.0000 0.0000 0.0000 30.8768 0.0000 0.0000
# 5 0.0000 0.0000 0.0000 0.0000 -4.4610 0.0000
# 6 0.0000 0.0000 0.0000 0.0000 0.0000 12.9418
#
#
#
# Elastic Compliance Matrix: (Units=1/GPa)
#
#
# Indices 1 2 3 4 5 6 
#
# 1 0.018446 -0.002408 -0.004855 0.000000 0.000000 0.000000
# 2 -0.002408 0.018875 -0.006332 0.000000 0.000000 0.000000
# 3 -0.004855 -0.006332 0.012571 0.000000 0.000000 0.000000
# 4 0.000000 0.000000 0.000000 0.032387 0.000000 0.000000
# 5 0.000000 0.000000 0.000000 0.000000 -0.224164 0.000000
# 6 0.000000 0.000000 0.000000 0.000000 0.000000 0.077269
#
#
# Mechanical properties :
#
#
# Convention : Reuss Voigt Hill
#
# Bulk Modulus (GPa) = 44.05055 50.13377 47.09216
# Shear Modulus (GPa) = -167.46361 18.00077 -74.73142
#
# Velocity S-wave (km/s) = -10.06465 3.29977 -6.72342
# Velocity P-wave (km/s) = 10.41235 6.69652 5.63798
#
# Compressibility (1/GPa) = 0.02270119
#
# Stress axis : x y z
#
# Youngs Moduli (GPa) = 54.21156 52.97920 79.54829
#
# Poissons Ratio (x) = 0.12759 0.38624
# Poissons Ratio (y) = 0.13056 0.50371
# Poissons Ratio (z) = 0.26322 0.33547
#
# Static dielectric constant tensor:
#      x y z
#    x 2.776790 0.000000 0.000000 
#    y 0.000000 3.232940 0.000000 
#    z 0.000000 0.000000 3.303430 
# 
# 
# High freq. dielectric constant tensor:
#      x y z
#    x 1.583150 0.000000 0.000000 
#    y 0.000000 1.650230 0.000000 
#    z 0.000000 0.000000 1.630410 
# 
# From -- ./inp_files/22166.got.cif
#   From: 2010.03.12/outbox.cif.g09.slc.cpg/sg47_12_cif.got.tgz:22166.got - 2010.04.14 03:12:58.
