data_PCOD8197188
_publ_section_title
;
Structure prediction by ZEFSAII (Michael W. Deem and Ramdas Pophale) SiO2 
 PCOD8197188
Probable space group: P M M M
;
_chemical_formula_sum "Si O2"
_cell_formula_units_Z 44
_cell_length_a 9.017547
_cell_length_b 9.226671
_cell_length_c 28.379085
_cell_angle_alpha 90.000000
_cell_angle_beta 90.000000
_cell_angle_gamma 90.000000
_cell_volume 2361.194910
_symmetry_space_group_name_H-M "P M M M"
_symmetry_group_IT_number 47
_symmetry_cell_setting 'orthorhombic'
loop_
_space_group_symop_operation_xyz
x,y,z
-x,-y,z
x,-y,-z
-x,y,-z
-x,-y,-z
x,y,-z
-x,y,z
x,-y,z
loop_
_atom_site_type_symbol
_atom_site_label
_atom_site_fract_x
_atom_site_fract_y
_atom_site_fract_z
Si Si1 0.172945 0.331615 0.322055
Si Si2 0.670123 0.171688 0.406595
Si Si3 0.831885 0.172161 0.143038
Si Si4 0.832582 0.827588 0.500000
Si Si5 0.666415 0.827826 0.948172
Si Si6 0.327404 0.332696 0.774144
O O1 0.204649 0.500000 0.331607
O O2 0.249988 0.239520 0.362159
O O3 0.240433 0.282791 0.272320
O O4 0.000000 0.295540 0.321547
O O5 0.500000 0.221551 0.407822
O O6 0.748361 0.230691 0.453868
O O7 0.684561 0.000000 0.402872
O O8 0.776191 0.230559 0.092218
O O9 0.727557 0.237367 0.182735
O O10 0.000000 0.225422 0.150234
O O11 0.819951 0.000000 0.145874
O O12 0.000000 0.766668 0.500000
O O13 0.832363 0.000000 0.500000
O O14 0.500000 0.770861 0.937958
O O15 0.666178 0.000000 0.947749
O O16 0.719322 0.773125 0.000000
O O17 0.500000 0.303462 0.765607
O O18 0.294810 0.500000 0.785624
#
# Coordination Sequence:
#
# PCOD8197188 Si02
#       6
#     8   8   8   4   8   8
#     4  10  21  37  56  77 102 133 169 210 256 304
#     4  10  20  34  54  80 108 138 172 209 250 298
#     4  10  20  32  49  76 106 134 166 206 251 298
#     4   9  17  31  52  77 106 139 172 208 252 299
#     4   8  14  26  45  69  98 132 167 203 246 295
#     4  10  21  37  56  75  97 131 172 210 253 305
#
# _framework density 18.634632
#
# number of rings (size 3 to 8) (size 9 to 14) (size 15 to 20)
#    0.000    2.455    0.000    3.000    0.000    6.545 
#    0.000    2.273    0.000    3.273    0.000    3.818 
#    0.000    0.000    0.000    0.000    0.000    0.000 
#
# Total GULP energy -545622.913594 kJ/mol
# GULP energy per Si atom -12400.520763 kJ/mol
# Density = 1.859222 g / cm^3
# Si number density = 18.634632 Si / 1000 Ang^3
#
#
#
# Elastic Constant Matrix: (Units=GPa)
#
#
# Indices 1 2 3 4 5 6 
#
# 1 129.6360 27.5385 73.6148 0.0000 0.0000 0.0000
# 2 27.5385 19.0462 31.1917 0.0000 0.0000 0.0000
# 3 73.6148 31.1917 152.8103 0.0000 0.0000 0.0000
# 4 0.0000 0.0000 0.0000 -61.7262 0.0000 0.0000
# 5 0.0000 0.0000 0.0000 0.0000 33.5130 0.0000
# 6 0.0000 0.0000 0.0000 0.0000 0.0000 23.8569
#
#
#
# Elastic Compliance Matrix: (Units=1/GPa)
#
#
# Indices 1 2 3 4 5 6 
#
# 1 0.012221 -0.012060 -0.003426 0.000000 0.000000 0.000000
# 2 -0.012060 0.090769 -0.012718 0.000000 0.000000 0.000000
# 3 -0.003426 -0.012718 0.010790 0.000000 0.000000 0.000000
# 4 0.000000 0.000000 0.000000 -0.016201 0.000000 0.000000
# 5 0.000000 0.000000 0.000000 0.000000 0.029839 0.000000
# 6 0.000000 0.000000 0.000000 0.000000 0.000000 0.041917
#
#
# Mechanical properties :
#
#
# Convention : Reuss Voigt Hill
#
# Bulk Modulus (GPa) = 17.42975 62.90917 40.16946
# Shear Modulus (GPa) = 20.41919 10.40525 15.41222
#
# Velocity S-wave (km/s) = 3.31383 2.36558 2.87901
# Velocity P-wave (km/s) = 4.90058 6.42603 5.71443
#
# Compressibility (1/GPa) = 0.05737317
#
# Stress axis : x y z
#
# Youngs Moduli (GPa) = 81.82560 11.01696 92.67520
#
# Poissons Ratio (x) = 0.13286 0.31748
# Poissons Ratio (y) = 0.98682 1.17865
# Poissons Ratio (z) = 0.28031 0.14011
#
# Static dielectric constant tensor:
#      x y z
#    x 3.660330 0.000000 0.000000 
#    y 0.000000 3.036330 0.000000 
#    z 0.000000 0.000000 3.708110 
# 
# 
# High freq. dielectric constant tensor:
#      x y z
#    x 1.738280 0.000000 0.000000 
#    y 0.000000 1.681110 0.000000 
#    z 0.000000 0.000000 1.741000 
# 
# From -- ./inp_files/2270.got.cif
#   From: 2010.03.12/outbox.cif.g09.slc.cpg/sg47_2_cif.got.tgz:2270.got - 2010.04.14 03:12:58.
