data_PCOD8197001
_publ_section_title
;
Structure prediction by ZEFSAII (Michael W. Deem and Ramdas Pophale) SiO2 
 PCOD8197001
Probable space group: P M M M
;
_chemical_formula_sum "Si O2"
_cell_formula_units_Z 52
_cell_length_a 14.500325
_cell_length_b 9.299178
_cell_length_c 21.084928
_cell_angle_alpha 90.000000
_cell_angle_beta 90.000000
_cell_angle_gamma 90.000000
_cell_volume 2843.114953
_symmetry_space_group_name_H-M "P M M M"
_symmetry_group_IT_number 47
_symmetry_cell_setting 'orthorhombic'
loop_
_space_group_symop_operation_xyz
x,y,z
-x,-y,z
x,-y,-z
-x,y,-z
-x,-y,-z
x,y,-z
-x,y,z
x,-y,z
loop_
_atom_site_type_symbol
_atom_site_label
_atom_site_fract_x
_atom_site_fract_y
_atom_site_fract_z
Si Si1 0.240460 0.666512 0.429192
Si Si2 0.102279 0.329466 0.323134
Si Si3 0.393783 0.328129 0.000000
Si Si4 0.393464 0.167369 0.629602
Si Si5 0.102357 0.670881 0.180753
Si Si6 0.607601 0.336875 0.754277
Si Si7 0.712939 0.329125 0.877340
O O1 0.199370 0.686042 0.500000
O O2 0.262322 0.500000 0.415481
O O3 0.170097 0.732055 0.377133
O O4 0.335161 0.756069 0.425322
O O5 0.101835 0.500000 0.327689
O O6 0.131720 0.280620 0.252065
O O7 0.000000 0.269785 0.337379
O O8 0.337417 0.266238 0.939551
O O9 0.394670 0.500000 0.000000
O O10 0.500000 0.272082 0.000000
O O11 0.500000 0.196825 0.614531
O O12 0.363778 0.236818 0.696236
O O13 0.370662 0.000000 0.632102
O O14 0.097745 0.500000 0.179586
O O15 0.180353 0.724493 0.130644
O O16 0.000000 0.731782 0.163011
O O17 0.500000 0.331375 0.768542
O O18 0.639792 0.500000 0.738957
O O19 0.657371 0.275209 0.816232
O O20 0.709939 0.500000 0.881260
#
# Coordination Sequence:
#
# PCOD8197001 Si02
#       7
#     8   8   4   8   8   8   8
#     4  10  20  32  48  71  95 120 153 190 226 270
#     4   8  14  26  45  69  95 119 145 184 232 277
#     4   9  16  24  33  51  84 122 155 184 220 268
#     4  10  21  35  49  66  90 121 156 194 237 282
#     4   8  13  21  34  53  78 110 146 179 215 263
#     4   9  16  27  46  69  88 109 144 191 237 276
#     4   9  15  23  37  58  86 117 146 181 224 265
#
# _framework density 18.289798000000001
#
# number of rings (size 3 to 8) (size 9 to 14) (size 15 to 20)
#    0.000    3.000    0.000    2.769    0.000    6.154 
#    0.000    3.462    0.000    2.769    0.000    1.615 
#    0.000    3.077    0.000    0.000    0.000    8.615 
#
# Total GULP energy -644449.261069 kJ/mol
# GULP energy per Si atom -12393.255021 kJ/mol
# Density = 1.824817 g / cm^3
# Si number density = 18.289798 Si / 1000 Ang^3
#
#
#
# Elastic Constant Matrix: (Units=GPa)
#
#
# Indices 1 2 3 4 5 6 
#
# 1 116.9619 21.3818 77.4533 0.0000 0.0000 0.0000
# 2 21.3818 28.4202 16.4638 0.0000 0.0000 0.0000
# 3 77.4533 16.4638 103.0866 0.0000 0.0000 0.0000
# 4 0.0000 0.0000 0.0000 2.8273 0.0000 0.0000
# 5 0.0000 0.0000 0.0000 0.0000 30.8442 0.0000
# 6 0.0000 0.0000 0.0000 0.0000 0.0000 7.9081
#
#
#
# Elastic Compliance Matrix: (Units=1/GPa)
#
#
# Indices 1 2 3 4 5 6 
#
# 1 0.017979 -0.006282 -0.012505 0.000000 0.000000 0.000000
# 2 -0.006282 0.040969 -0.001823 0.000000 0.000000 0.000000
# 3 -0.012505 -0.001823 0.019388 0.000000 0.000000 0.000000
# 4 0.000000 0.000000 0.000000 0.353700 0.000000 0.000000
# 5 0.000000 0.000000 0.000000 0.000000 0.032421 0.000000
# 6 0.000000 0.000000 0.000000 0.000000 0.000000 0.126452
#
#
# Mechanical properties :
#
#
# Convention : Reuss Voigt Hill
#
# Bulk Modulus (GPa) = 26.94365 53.22961 40.08663
# Shear Modulus (GPa) = 7.75794 17.19391 12.47593
#
# Velocity S-wave (km/s) = 2.06177 3.06940 2.61459
# Velocity P-wave (km/s) = 4.52010 6.45974 5.57493
#
# Compressibility (1/GPa) = 0.03711450
#
# Stress axis : x y z
#
# Youngs Moduli (GPa) = 55.61899 24.40890 51.57957
#
# Poissons Ratio (x) = 0.15335 0.64502
# Poissons Ratio (y) = 0.34942 0.09402
# Poissons Ratio (z) = 0.69554 0.04449
#
# Static dielectric constant tensor:
#      x y z
#    x 3.746970 0.000000 0.000000 
#    y 0.000000 2.746850 0.000000 
#    z 0.000000 0.000000 3.465170 
# 
# 
# High freq. dielectric constant tensor:
#      x y z
#    x 1.722860 0.000000 0.000000 
#    y 0.000000 1.633980 0.000000 
#    z 0.000000 0.000000 1.703920 
# 
# From -- ./inp_files/7043.got.cif
#   From: 2010.03.12/outbox.cif.g09.slc.cpg/sg47_4_cif.got.tgz:7043.got - 2010.04.14 03:12:58.
