data_PCOD8197077
_publ_section_title
;
Structure prediction by ZEFSAII (Michael W. Deem and Ramdas Pophale) SiO2 
 PCOD8197077
Probable space group: P M M M
;
_chemical_formula_sum "Si O2"
_cell_formula_units_Z 44
_cell_length_a 31.562653
_cell_length_b 7.708475
_cell_length_c 9.163059
_cell_angle_alpha 90.000000
_cell_angle_beta 90.000000
_cell_angle_gamma 90.000000
_cell_volume 2229.371536
_symmetry_space_group_name_H-M "P M M M"
_symmetry_group_IT_number 47
_symmetry_cell_setting 'orthorhombic'
loop_
_space_group_symop_operation_xyz
x,y,z
-x,-y,z
x,-y,-z
-x,y,-z
-x,-y,-z
x,y,-z
-x,y,z
x,-y,z
loop_
_atom_site_type_symbol
_atom_site_label
_atom_site_fract_x
_atom_site_fract_y
_atom_site_fract_z
Si Si1 0.000000 0.707593 0.336978
Si Si2 0.747296 0.808091 0.326610
Si Si3 0.841275 0.203832 0.663355
Si Si4 0.402404 0.500000 0.173718
Si Si5 0.921102 0.301187 0.159674
Si Si6 0.312618 0.500000 0.673942
Si Si7 0.549689 0.198383 0.667223
O O1 0.958165 0.783774 0.257271
O O2 0.000000 0.500000 0.341284
O O3 0.000000 0.783203 0.500000
O O4 0.748672 0.814589 0.500000
O O5 0.794360 0.753198 0.273903
O O6 0.712915 0.669629 0.272837
O O7 0.735120 0.000000 0.266280
O O8 0.846600 0.280059 0.500000
O O9 0.875318 0.290534 0.767256
O O10 0.848535 0.000000 0.660722
O O11 0.356255 0.500000 0.241981
O O12 0.426186 0.326727 0.225124
O O13 0.399962 0.500000 0.000000
O O14 0.933099 0.500000 0.139462
O O15 0.919867 0.211001 0.000000
O O16 0.319989 0.500000 0.500000
O O17 0.562158 0.240775 0.500000
O O18 0.500000 0.226164 0.689896
O O19 0.562289 0.000000 0.704560
#
# Coordination Sequence:
#
# PCOD8197077 Si02
#       7
#     4   8   8   4   8   4   8
#     4   9  17  31  50  71  96 129 168 208 250 297
#     4   8  16  32  54  80 105 130 173 234 285 324
#     4   9  18  33  53  77 102 127 162 212 264 311
#     4  12  25  37  52  83 126 164 193 235 292 353
#     4  10  20  32  48  73 103 134 165 201 247 306
#     4  10  20  35  57  80 104 146 197 238 282 333
#     4   9  19  38  64  90 115 150 200 252 295 338
#
# _framework density 19.736505000000001
#
# number of rings (size 3 to 8) (size 9 to 14) (size 15 to 20)
#    0.000    2.636    0.000    3.545    1.273    5.091 
#    0.000    4.091    0.000    3.818    0.000    0.000 
#    0.000    0.000    0.000    0.000    0.000    0.000 
#
# Total GULP energy -545451.088825 kJ/mol
# GULP energy per Si atom -12396.615655 kJ/mol
# Density = 1.969158 g / cm^3
# Si number density = 19.736505 Si / 1000 Ang^3
#
#
#
# Elastic Constant Matrix: (Units=GPa)
#
#
# Indices 1 2 3 4 5 6 
#
# 1 136.8126 63.3697 67.4782 0.0000 0.0000 0.0000
# 2 63.3697 89.4652 44.7243 0.0000 0.0000 0.0000
# 3 67.4782 44.7243 120.7360 0.0000 0.0000 0.0000
# 4 0.0000 0.0000 0.0000 12.7771 0.0000 0.0000
# 5 0.0000 0.0000 0.0000 0.0000 0.4715 0.0000
# 6 0.0000 0.0000 0.0000 0.0000 0.0000 -11.9845
#
#
#
# Elastic Compliance Matrix: (Units=1/GPa)
#
#
# Indices 1 2 3 4 5 6 
#
# 1 0.012674 -0.006672 -0.004612 0.000000 0.000000 0.000000
# 2 -0.006672 0.017230 -0.002654 0.000000 0.000000 0.000000
# 3 -0.004612 -0.002654 0.011843 0.000000 0.000000 0.000000
# 4 0.000000 0.000000 0.000000 0.078265 0.000000 0.000000
# 5 0.000000 0.000000 0.000000 0.000000 2.120982 0.000000
# 6 0.000000 0.000000 0.000000 0.000000 0.000000 -0.083441
#
#
# Mechanical properties :
#
#
# Convention : Reuss Voigt Hill
#
# Bulk Modulus (GPa) = 72.08649 77.57312 74.82981
# Shear Modulus (GPa) = 2.28305 11.68227 6.98266
#
# Velocity S-wave (km/s) = 1.07670 2.43556 1.88298
# Velocity P-wave (km/s) = 6.17652 6.87743 6.53638
#
# Compressibility (1/GPa) = 0.01387222
#
# Stress axis : x y z
#
# Youngs Moduli (GPa) = 78.89964 58.03874 84.43661
#
# Poissons Ratio (x) = 0.38722 0.38943
# Poissons Ratio (y) = 0.52640 0.22407
# Poissons Ratio (z) = 0.36389 0.15402
#
# Static dielectric constant tensor:
#      x y z
#    x 3.654140 0.000000 0.000000 
#    y 0.000000 3.688210 0.000000 
#    z 0.000000 0.000000 3.488580 
# 
# 
# High freq. dielectric constant tensor:
#      x y z
#    x 1.772590 0.000000 0.000000 
#    y 0.000000 1.765370 0.000000 
#    z 0.000000 0.000000 1.741640 
# 
# From -- ./inp_files/13768.got.cif
#   From: 2010.03.12/outbox.cif.g09.slc.cpg/sg47_7_cif.got.tgz:13768.got - 2010.04.14 03:12:58.
