data_PCOD8197587
_publ_section_title
;
Structure prediction by ZEFSAII (Michael W. Deem and Ramdas Pophale) SiO2 
 PCOD8197587
Probable space group: P M M M
;
_chemical_formula_sum "Si O2"
_cell_formula_units_Z 40
_cell_length_a 9.175184
_cell_length_b 25.744529
_cell_length_c 9.089696
_cell_angle_alpha 90.000000
_cell_angle_beta 90.000000
_cell_angle_gamma 90.000000
_cell_volume 2147.084278
_symmetry_space_group_name_H-M "P M M M"
_symmetry_group_IT_number 47
_symmetry_cell_setting 'orthorhombic'
loop_
_space_group_symop_operation_xyz
x,y,z
-x,-y,z
x,-y,-z
-x,y,-z
-x,-y,-z
x,y,-z
-x,y,z
x,-y,z
loop_
_atom_site_type_symbol
_atom_site_label
_atom_site_fract_x
_atom_site_fract_y
_atom_site_fract_z
Si Si1 0.339098 0.807096 0.174372
Si Si2 0.834152 0.399482 0.325693
Si Si3 0.669944 0.308576 0.829707
Si Si4 0.670186 0.000000 0.327495
Si Si5 0.664665 0.500000 0.675313
Si Si6 0.831876 0.906565 0.826421
O O1 0.500000 0.820781 0.237467
O O2 0.291148 0.749655 0.226411
O O3 0.223763 0.850125 0.227509
O O4 0.348553 0.806048 0.000000
O O5 0.824558 0.397564 0.500000
O O6 0.766215 0.346986 0.265128
O O7 0.746092 0.449019 0.263692
O O8 0.000000 0.404523 0.271735
O O9 0.500000 0.320123 0.803382
O O10 0.710722 0.315560 0.000000
O O11 0.740384 0.949324 0.257643
O O12 0.500000 0.000000 0.290665
O O13 0.701214 0.000000 0.500000
O O14 0.500000 0.500000 0.736021
O O15 0.666840 0.500000 0.500000
O O16 0.000000 0.911962 0.782816
O O17 0.808403 0.914092 0.000000
#
# Coordination Sequence:
#
# PCOD8197587 Si02
#       6
#     8   8   8   4   4   8
#     4   8  15  30  52  76 102 133 169 208 248 291
#     4  10  20  33  50  74 103 133 167 208 253 302
#     4   9  18  33  53  77 104 134 169 208 250 297
#     4  11  24  39  54  74 102 137 174 209 250 300
#     4   9  17  31  52  73  94 127 170 212 254 299
#     4  10  20  34  55  82 106 130 166 209 251 299
#
# _framework density 18.629915
#
# number of rings (size 3 to 8) (size 9 to 14) (size 15 to 20)
#    0.000    2.600    0.000    3.300    0.000    6.800 
#    0.000    3.500    0.000    4.200    0.000    0.000 
#    0.000    0.000    0.000    0.000    0.000    0.000 
#
# Total GULP energy -495960.966664 kJ/mol
# GULP energy per Si atom -12399.024167 kJ/mol
# Density = 1.858751 g / cm^3
# Si number density = 18.629915 Si / 1000 Ang^3
#
#
#
# Elastic Constant Matrix: (Units=GPa)
#
#
# Indices 1 2 3 4 5 6 
#
# 1 143.3550 97.7946 37.0748 0.0000 0.0000 0.0000
# 2 97.7946 169.1754 35.3418 0.0000 0.0000 0.0000
# 3 37.0748 35.3418 22.6671 0.0000 0.0000 0.0000
# 4 0.0000 0.0000 0.0000 47.0790 0.0000 0.0000
# 5 0.0000 0.0000 0.0000 0.0000 24.2994 0.0000
# 6 0.0000 0.0000 0.0000 0.0000 0.0000 4.4727
#
#
#
# Elastic Compliance Matrix: (Units=1/GPa)
#
#
# Indices 1 2 3 4 5 6 
#
# 1 0.014557 -0.005103 -0.015853 0.000000 0.000000 0.000000
# 2 -0.005103 0.010555 -0.008111 0.000000 0.000000 0.000000
# 3 -0.015853 -0.008111 0.082693 0.000000 0.000000 0.000000
# 4 0.000000 0.000000 0.000000 0.021241 0.000000 0.000000
# 5 0.000000 0.000000 0.000000 0.000000 0.041153 0.000000
# 6 0.000000 0.000000 0.000000 0.000000 0.000000 0.223580
#
#
# Mechanical properties :
#
#
# Convention : Reuss Voigt Hill
#
# Bulk Modulus (GPa) = 20.13250 75.06888 47.60069
# Shear Modulus (GPa) = 10.67304 26.16929 18.42117
#
# Velocity S-wave (km/s) = 2.39613 3.75199 3.14792
# Velocity P-wave (km/s) = 4.29945 7.69104 6.23047
#
# Compressibility (1/GPa) = 0.04967093
#
# Stress axis : x y z
#
# Youngs Moduli (GPa) = 68.69636 94.73885 12.09296
#
# Poissons Ratio (x) = 0.48345 0.19171
# Poissons Ratio (y) = 0.35056 0.09809
# Poissons Ratio (z) = 1.08904 0.76842
#
# Static dielectric constant tensor:
#      x y z
#    x 3.576880 0.000000 0.000000 
#    y 0.000000 3.757390 0.000000 
#    z 0.000000 0.000000 3.025640 
# 
# 
# High freq. dielectric constant tensor:
#      x y z
#    x 1.731250 0.000000 0.000000 
#    y 0.000000 1.741260 0.000000 
#    z 0.000000 0.000000 1.681020 
# 
# From -- ./inp_files/1790.got.cif
#   From: 2010.03.12/outbox.cif.g09.slc.cpg/sg47_1_cif.got.tgz:1790.got - 2010.04.14 03:12:58.
