data_PCOD8197045
_publ_section_title
;
Structure prediction by ZEFSAII (Michael W. Deem and Ramdas Pophale) SiO2 
 PCOD8197045
Probable space group: P M M M
;
_chemical_formula_sum "Si O2"
_cell_formula_units_Z 44
_cell_length_a 31.889871
_cell_length_b 7.857293
_cell_length_c 9.292715
_cell_angle_alpha 90.000000
_cell_angle_beta 90.000000
_cell_angle_gamma 90.000000
_cell_volume 2328.457571
_symmetry_space_group_name_H-M "P M M M"
_symmetry_group_IT_number 47
_symmetry_cell_setting 'orthorhombic'
loop_
_space_group_symop_operation_xyz
x,y,z
-x,-y,z
x,-y,-z
-x,y,-z
-x,-y,-z
x,y,-z
-x,y,z
x,-y,z
loop_
_atom_site_type_symbol
_atom_site_label
_atom_site_fract_x
_atom_site_fract_y
_atom_site_fract_z
Si Si1 0.000000 0.703595 0.338218
Si Si2 0.751256 0.811344 0.328810
Si Si3 0.845362 0.199238 0.661507
Si Si4 0.398261 0.500000 0.328061
Si Si5 0.922438 0.304075 0.158634
Si Si6 0.303520 0.500000 0.671866
Si Si7 0.547128 0.188909 0.671081
O O1 0.958900 0.777526 0.257223
O O2 0.000000 0.500000 0.342768
O O3 0.000000 0.776868 0.500000
O O4 0.749708 0.816695 0.500000
O O5 0.798422 0.762279 0.281642
O O6 0.719394 0.669394 0.267969
O O7 0.738999 0.000000 0.269618
O O8 0.851366 0.272634 0.500000
O O9 0.877253 0.288784 0.768457
O O10 0.854076 0.000000 0.660998
O O11 0.398897 0.500000 0.500000
O O12 0.350897 0.500000 0.269524
O O13 0.421479 0.331703 0.266979
O O14 0.933373 0.500000 0.139496
O O15 0.921893 0.217420 0.000000
O O16 0.302446 0.500000 0.500000
O O17 0.547531 0.195512 0.500000
O O18 0.500000 0.227337 0.726244
O O19 0.561369 0.000000 0.722764
#
# Coordination Sequence:
#
# PCOD8197045 Si02
#       7
#     4   8   8   4   8   4   8
#     4   9  17  31  50  71  96 127 160 188 220 267
#     4   8  15  27  40  56  79 103 132 174 217 263
#     4   9  18  32  49  68  88 114 151 189 224 268
#     4   9  15  20  27  42  62  83 114 158 208 265
#     4  10  20  32  48  72  99 124 150 185 229 273
#     4   9  16  23  34  53  73  98 128 161 218 281
#     4   8  13  20  28  37  52  80 119 161 206 256
#
# _framework density 18.896629999999998
#
# number of rings (size 3 to 8) (size 9 to 14) (size 15 to 20)
#    0.000    3.182    0.000    2.727    1.273    4.364 
#    0.000    4.091    0.000    2.727    0.000    0.000 
#    0.000    0.000    0.000    0.000    0.000    0.000 
#
# Total GULP energy -545318.301010 kJ/mol
# GULP energy per Si atom -12393.597750 kJ/mol
# Density = 1.885362 g / cm^3
# Si number density = 18.896630 Si / 1000 Ang^3
#
#
#
# Elastic Constant Matrix: (Units=GPa)
#
#
# Indices 1 2 3 4 5 6 
#
# 1 161.5375 78.9472 38.8487 0.0000 0.0000 0.0000
# 2 78.9472 102.6097 21.4440 0.0000 0.0000 0.0000
# 3 38.8487 21.4440 62.2531 0.0000 0.0000 0.0000
# 4 0.0000 0.0000 0.0000 5.1302 0.0000 0.0000
# 5 0.0000 0.0000 0.0000 0.0000 1.4943 0.0000
# 6 0.0000 0.0000 0.0000 0.0000 0.0000 3.2725
#
#
#
# Elastic Compliance Matrix: (Units=1/GPa)
#
#
# Indices 1 2 3 4 5 6 
#
# 1 0.010852 -0.007472 -0.004198 0.000000 0.000000 0.000000
# 2 -0.007472 0.015646 -0.000727 0.000000 0.000000 0.000000
# 3 -0.004198 -0.000727 0.018934 0.000000 0.000000 0.000000
# 4 0.000000 0.000000 0.000000 0.194926 0.000000 0.000000
# 5 0.000000 0.000000 0.000000 0.000000 0.669208 0.000000
# 6 0.000000 0.000000 0.000000 0.000000 0.000000 0.305573
#
#
# Mechanical properties :
#
#
# Convention : Reuss Voigt Hill
#
# Bulk Modulus (GPa) = 48.45429 67.20891 57.83160
# Shear Modulus (GPa) = 4.01023 14.45676 9.23349
#
# Velocity S-wave (km/s) = 1.45836 2.76894 2.21290
# Velocity P-wave (km/s) = 5.34164 6.77249 6.09917
#
# Compressibility (1/GPa) = 0.02063801
#
# Stress axis : x y z
#
# Youngs Moduli (GPa) = 92.14960 63.91216 52.81593
#
# Poissons Ratio (x) = 0.47755 0.22173
# Poissons Ratio (y) = 0.68854 0.03839
# Poissons Ratio (z) = 0.38687 0.04645
#
# Static dielectric constant tensor:
#      x y z
#    x 3.606650 0.000000 0.000000 
#    y 0.000000 3.584870 0.000000 
#    z 0.000000 0.000000 2.953810 
# 
# 
# High freq. dielectric constant tensor:
#      x y z
#    x 1.736120 0.000000 0.000000 
#    y 0.000000 1.732120 0.000000 
#    z 0.000000 0.000000 1.663220 
# 
# From -- ./inp_files/13769.got.cif
#   From: 2010.03.12/outbox.cif.g09.slc.cpg/sg47_7_cif.got.tgz:13769.got - 2010.04.14 03:12:58.
