data_PCOD8197123
_publ_section_title
;
Structure prediction by ZEFSAII (Michael W. Deem and Ramdas Pophale) SiO2 
 PCOD8197123
Probable space group: P M M M
;
_chemical_formula_sum "Si O2"
_cell_formula_units_Z 48
_cell_length_a 8.890219
_cell_length_b 15.286360
_cell_length_c 20.223011
_cell_angle_alpha 90.000000
_cell_angle_beta 90.000000
_cell_angle_gamma 90.000000
_cell_volume 2748.288754
_symmetry_space_group_name_H-M "P M M M"
_symmetry_group_IT_number 47
_symmetry_cell_setting 'orthorhombic'
loop_
_space_group_symop_operation_xyz
x,y,z
-x,-y,z
x,-y,-z
-x,y,-z
-x,-y,-z
x,y,-z
-x,y,z
x,-y,z
loop_
_atom_site_type_symbol
_atom_site_label
_atom_site_fract_x
_atom_site_fract_y
_atom_site_fract_z
Si Si1 0.821212 0.500000 0.573607
Si Si2 0.170712 0.261972 0.231872
Si Si3 0.323676 0.901858 0.285856
Si Si4 0.829589 0.682075 0.381202
Si Si5 0.677348 0.846772 0.428084
Si Si6 0.678090 0.399080 0.134684
Si Si7 0.167866 0.396788 0.000000
O O1 0.757325 0.500000 0.500000
O O2 0.760374 0.414281 0.610364
O O3 0.000000 0.500000 0.575076
O O4 0.243646 0.164832 0.234936
O O5 0.176917 0.299083 0.304590
O O6 0.261555 0.330866 0.188140
O O7 0.000000 0.254158 0.205472
O O8 0.500000 0.879933 0.285346
O O9 0.260872 0.895694 0.362090
O O10 0.291103 0.000000 0.260512
O O11 0.727775 0.746478 0.424093
O O12 0.000000 0.688896 0.408254
O O13 0.734120 0.884872 0.500000
O O14 0.500000 0.852888 0.427354
O O15 0.500000 0.393045 0.131890
O O16 0.727907 0.500000 0.150422
O O17 0.742856 0.366122 0.064772
O O18 0.156898 0.500000 0.000000
O O19 0.000000 0.355759 0.000000
#
# Coordination Sequence:
#
# PCOD8197123 Si02
#       7
#     4   8   8   8   8   8   4
#     4   9  16  26  41  59  79 110 155 200 239 285
#     4  10  20  32  49  72  98 129 166 209 251 294
#     4   9  18  33  51  69  93 125 161 205 256 311
#     4   9  18  30  44  61  84 118 158 201 244 291
#     4   9  17  29  45  65  89 115 148 196 252 307
#     4  10  20  33  51  76 108 143 175 204 239 285
#     4   9  17  31  51  77 108 141 174 207 241 277
#
# _framework density 17.465413999999999
#
# number of rings (size 3 to 8) (size 9 to 14) (size 15 to 20)
#    0.000    2.667    0.000    1.750    1.167    4.333 
#    0.000    2.083    0.000    1.500    0.000    5.250 
#    0.000    4.667    0.000    0.000    0.000    0.000 
#
# Total GULP energy -594795.170268 kJ/mol
# GULP energy per Si atom -12391.566047 kJ/mol
# Density = 1.742566 g / cm^3
# Si number density = 17.465414 Si / 1000 Ang^3
#
#
#
# Elastic Constant Matrix: (Units=GPa)
#
#
# Indices 1 2 3 4 5 6 
#
# 1 54.1685 28.2949 29.1172 0.0000 0.0000 0.0000
# 2 28.2949 103.8607 29.7150 0.0000 0.0000 0.0000
# 3 29.1172 29.7150 59.8748 0.0000 0.0000 0.0000
# 4 0.0000 0.0000 0.0000 11.3907 0.0000 0.0000
# 5 0.0000 0.0000 0.0000 0.0000 22.9495 0.0000
# 6 0.0000 0.0000 0.0000 0.0000 0.0000 23.5206
#
#
#
# Elastic Compliance Matrix: (Units=1/GPa)
#
#
# Indices 1 2 3 4 5 6 
#
# 1 0.026415 -0.004104 -0.010809 0.000000 0.000000 0.000000
# 2 -0.004104 0.011859 -0.003890 0.000000 0.000000 0.000000
# 3 -0.010809 -0.003890 0.023888 0.000000 0.000000 0.000000
# 4 0.000000 0.000000 0.000000 0.087791 0.000000 0.000000
# 5 0.000000 0.000000 0.000000 0.000000 0.043574 0.000000
# 6 0.000000 0.000000 0.000000 0.000000 0.000000 0.042516
#
#
# Mechanical properties :
#
#
# Convention : Reuss Voigt Hill
#
# Bulk Modulus (GPa) = 40.72121 43.57314 42.14718
# Shear Modulus (GPa) = 17.74096 20.29061 19.01579
#
# Velocity S-wave (km/s) = 3.19058 3.41216 3.30323
# Velocity P-wave (km/s) = 6.07775 6.36602 6.22355
#
# Compressibility (1/GPa) = 0.02455723
#
# Stress axis : x y z
#
# Youngs Moduli (GPa) = 37.85791 84.32292 41.86133
#
# Poissons Ratio (x) = 0.34603 0.45247
# Poissons Ratio (y) = 0.15536 0.16284
# Poissons Ratio (z) = 0.40920 0.32801
#
# Static dielectric constant tensor:
#      x y z
#    x 3.275030 0.000000 0.000000 
#    y 0.000000 3.284270 0.000000 
#    z 0.000000 0.000000 3.335830 
# 
# 
# High freq. dielectric constant tensor:
#      x y z
#    x 1.666680 0.000000 0.000000 
#    y 0.000000 1.663910 0.000000 
#    z 0.000000 0.000000 1.658790 
# 
# From -- ./inp_files/21054.got.cif
#   From: 2010.03.12/outbox.cif.g09.slc.cpg/sg47_11_cif.got.tgz:21054.got - 2010.04.14 03:12:58.
