data_PCOD8197173
_publ_section_title
;
Structure prediction by ZEFSAII (Michael W. Deem and Ramdas Pophale) SiO2 
 PCOD8197173
Probable space group: P M M M
;
_chemical_formula_sum "Si O2"
_cell_formula_units_Z 52
_cell_length_a 14.415747
_cell_length_b 8.121042
_cell_length_c 24.751021
_cell_angle_alpha 90.000000
_cell_angle_beta 90.000000
_cell_angle_gamma 90.000000
_cell_volume 2897.623979
_symmetry_space_group_name_H-M "P M M M"
_symmetry_group_IT_number 47
_symmetry_cell_setting 'orthorhombic'
loop_
_space_group_symop_operation_xyz
x,y,z
-x,-y,z
x,-y,-z
-x,y,-z
-x,-y,-z
x,y,-z
-x,y,z
x,-y,z
loop_
_atom_site_type_symbol
_atom_site_label
_atom_site_fract_x
_atom_site_fract_y
_atom_site_fract_z
Si Si1 0.610144 0.000000 0.439339
Si Si2 0.603458 0.189106 0.844070
Si Si3 0.279450 0.308227 0.941108
Si Si4 0.609671 0.688539 0.630359
Si Si5 0.102745 0.691120 0.880137
Si Si6 0.294498 0.687041 0.741462
Si Si7 0.897848 0.810866 0.761924
O O1 0.644681 0.829248 0.411397
O O2 0.500000 0.000000 0.439824
O O3 0.650333 0.000000 0.500000
O O4 0.500000 0.257242 0.831541
O O5 0.641312 0.278124 0.897208
O O6 0.668605 0.209124 0.791951
O O7 0.599782 0.000000 0.859238
O O8 0.268637 0.500000 0.949100
O O9 0.179599 0.239172 0.921334
O O10 0.303369 0.228821 0.000000
O O11 0.500000 0.696749 0.636803
O O12 0.638959 0.500000 0.613117
O O13 0.653580 0.740048 0.687242
O O14 0.121114 0.500000 0.865405
O O15 0.113060 0.795591 0.825985
O O16 0.000000 0.714389 0.905479
O O17 0.316456 0.500000 0.755619
O O18 0.184366 0.712318 0.732324
O O19 0.000000 0.743052 0.744247
O O20 0.888681 0.000000 0.745251
#
# Coordination Sequence:
#
# PCOD8197173 Si02
#       7
#     4   8   8   8   8   8   8
#     4   9  18  32  52  78 111 155 196 228 264 305
#     4  11  24  38  53  73  95 127 168 210 263 319
#     4  10  21  36  53  73  96 125 163 207 255 310
#     4   9  19  33  50  78 113 148 187 229 269 310
#     4   9  17  31  51  73  97 125 158 198 248 310
#     4  11  21  34  54  78 105 137 172 213 263 314
#     4  10  20  32  49  75 105 135 166 203 252 312
#
# _framework density 17.945737999999999
#
# number of rings (size 3 to 8) (size 9 to 14) (size 15 to 20)
#    0.000    2.077    1.538    1.846    2.154    4.000 
#    0.000    4.615    0.000    0.000    0.000    3.231 
#    0.000    1.231    0.000    3.385    0.000    0.154 
#
# Total GULP energy -644555.106672 kJ/mol
# GULP energy per Si atom -12395.290513 kJ/mol
# Density = 1.790489 g / cm^3
# Si number density = 17.945738 Si / 1000 Ang^3
#
#
#
# Elastic Constant Matrix: (Units=GPa)
#
#
# Indices 1 2 3 4 5 6 
#
# 1 84.3563 17.3285 28.2586 0.0000 0.0000 0.0000
# 2 17.3285 52.4976 35.1101 0.0000 0.0000 0.0000
# 3 28.2586 35.1101 96.2257 0.0000 0.0000 0.0000
# 4 0.0000 0.0000 0.0000 18.2915 0.0000 0.0000
# 5 0.0000 0.0000 0.0000 0.0000 13.9271 0.0000
# 6 0.0000 0.0000 0.0000 0.0000 0.0000 21.1369
#
#
#
# Elastic Compliance Matrix: (Units=1/GPa)
#
#
# Indices 1 2 3 4 5 6 
#
# 1 0.013366 -0.002363 -0.003063 0.000000 0.000000 0.000000
# 2 -0.002363 0.025615 -0.008652 0.000000 0.000000 0.000000
# 3 -0.003063 -0.008652 0.014449 0.000000 0.000000 0.000000
# 4 0.000000 0.000000 0.000000 0.054670 0.000000 0.000000
# 5 0.000000 0.000000 0.000000 0.000000 0.071802 0.000000
# 6 0.000000 0.000000 0.000000 0.000000 0.000000 0.047311
#
#
# Mechanical properties :
#
#
# Convention : Reuss Voigt Hill
#
# Bulk Modulus (GPa) = 39.56817 43.83043 41.69930
# Shear Modulus (GPa) = 18.95417 20.82994 19.89206
#
# Velocity S-wave (km/s) = 3.25344 3.41063 3.33296
# Velocity P-wave (km/s) = 6.01746 6.32351 6.17238
#
# Compressibility (1/GPa) = 0.02527284
#
# Stress axis : x y z
#
# Youngs Moduli (GPa) = 74.81666 39.03936 69.21068
#
# Poissons Ratio (x) = 0.09227 0.21198
# Poissons Ratio (y) = 0.17683 0.59882
# Poissons Ratio (z) = 0.22915 0.33778
#
# Static dielectric constant tensor:
#      x y z
#    x 3.528560 0.000000 0.000000 
#    y 0.000000 3.352870 0.000000 
#    z 0.000000 0.000000 3.189320 
# 
# 
# High freq. dielectric constant tensor:
#      x y z
#    x 1.689960 0.000000 0.000000 
#    y 0.000000 1.698020 0.000000 
#    z 0.000000 0.000000 1.659020 
# 
# From -- ./inp_files/10985.got.cif
#   From: 2010.03.12/outbox.cif.g09.slc.cpg/sg47_6_cif.got.tgz:10985.got - 2010.04.14 03:12:58.
