data_PCOD8197309
_publ_section_title
;
Structure prediction by ZEFSAII (Michael W. Deem and Ramdas Pophale) SiO2 
 PCOD8197309
Probable space group: P M M M
;
_chemical_formula_sum "Si O2"
_cell_formula_units_Z 64
_cell_length_a 30.982947
_cell_length_b 8.992126
_cell_length_c 14.047263
_cell_angle_alpha 90.000000
_cell_angle_beta 90.000000
_cell_angle_gamma 90.000000
_cell_volume 3913.603479
_symmetry_space_group_name_H-M "P M M M"
_symmetry_group_IT_number 47
_symmetry_cell_setting 'orthorhombic'
loop_
_space_group_symop_operation_xyz
x,y,z
-x,-y,z
x,-y,-z
-x,y,-z
-x,-y,-z
x,y,-z
-x,y,z
x,-y,z
loop_
_atom_site_type_symbol
_atom_site_label
_atom_site_fract_x
_atom_site_fract_y
_atom_site_fract_z
Si Si1 0.284856 0.332023 0.613008
Si Si2 0.048976 0.827746 0.296473
Si Si3 0.369551 0.833474 0.613510
Si Si4 0.206583 0.176015 0.711748
Si Si5 0.547391 0.332742 0.613183
Si Si6 0.127073 0.672920 0.610781
Si Si7 0.817473 0.326693 0.892584
Si Si8 0.906149 0.831191 0.894434
O O1 0.283856 0.329052 0.500000
O O2 0.280117 0.500000 0.651314
O O3 0.329922 0.265629 0.651328
O O4 0.245842 0.232223 0.648595
O O5 0.079342 0.727723 0.362494
O O6 0.057649 0.798664 0.184394
O O7 0.000000 0.780430 0.317968
O O8 0.056800 0.000000 0.321979
O O9 0.370568 0.831680 0.500000
O O10 0.414577 0.769790 0.655227
O O11 0.363685 0.000000 0.652455
O O12 0.161537 0.234560 0.670626
O O13 0.212495 0.235487 0.819516
O O14 0.206115 0.000000 0.710684
O O15 0.549767 0.332531 0.500000
O O16 0.500000 0.273647 0.645771
O O17 0.554357 0.500000 0.650943
O O18 0.135471 0.701467 0.500000
O O19 0.131983 0.500000 0.636331
O O20 0.813111 0.500000 0.870074
O O21 0.866987 0.280935 0.877414
O O22 0.802317 0.289526 0.000000
O O23 0.888440 0.000000 0.884138
O O24 0.926235 0.807028 0.000000
#
# Coordination Sequence:
#
# PCOD8197309 Si02
#       8
#     8   8   8   8   8   8   8   8
#     4  10  20  33  48  66  91 124 160 197 238 283
#     4  10  21  36  54  77 102 128 156 186 225 271
#     4   9  16  25  37  55  81 112 149 195 243 286
#     4  12  23  35  54  77  99 122 151 189 233 278
#     4   8  13  21  33  49  71 104 148 195 241 287
#     4  11  24  40  56  73  94 123 159 195 232 273
#     4  10  20  34  54  78 102 126 151 181 218 264
#     4   9  17  31  52  77 103 128 152 179 216 264
#
# _framework density 16.353214999999999
#
# number of rings (size 3 to 8) (size 9 to 14) (size 15 to 20)
#    0.000    2.125    1.250    3.375    0.000    6.500 
#    0.000    3.750    0.000    0.000    0.000    2.625 
#    0.000    0.000    0.000    0.000    0.000    0.625 
#
# Total GULP energy -793544.103569 kJ/mol
# GULP energy per Si atom -12399.126618 kJ/mol
# Density = 1.631599 g / cm^3
# Si number density = 16.353215 Si / 1000 Ang^3
#
#
#
# Elastic Constant Matrix: (Units=GPa)
#
#
# Indices 1 2 3 4 5 6 
#
# 1 93.5826 48.8846 17.4103 0.0000 0.0000 0.0000
# 2 48.8846 117.5206 34.6199 0.0000 0.0000 0.0000
# 3 17.4103 34.6199 42.6155 0.0000 0.0000 0.0000
# 4 0.0000 0.0000 0.0000 21.1285 0.0000 0.0000
# 5 0.0000 0.0000 0.0000 0.0000 2.9725 0.0000
# 6 0.0000 0.0000 0.0000 0.0000 0.0000 28.4635
#
#
#
# Elastic Compliance Matrix: (Units=1/GPa)
#
#
# Indices 1 2 3 4 5 6 
#
# 1 0.013704 -0.005326 -0.001272 0.000000 0.000000 0.000000
# 2 -0.005326 0.013256 -0.008593 0.000000 0.000000 0.000000
# 3 -0.001272 -0.008593 0.030966 0.000000 0.000000 0.000000
# 4 0.000000 0.000000 0.000000 0.047329 0.000000 0.000000
# 5 0.000000 0.000000 0.000000 0.000000 0.336413 0.000000
# 6 0.000000 0.000000 0.000000 0.000000 0.000000 0.035133
#
#
# Mechanical properties :
#
#
# Convention : Reuss Voigt Hill
#
# Bulk Modulus (GPa) = 36.30507 50.61647 43.46077
# Shear Modulus (GPa) = 9.68307 20.69983 15.19145
#
# Velocity S-wave (km/s) = 2.43599 3.56166 3.05119
# Velocity P-wave (km/s) = 5.49189 6.92337 6.24876
#
# Compressibility (1/GPa) = 0.02754437
#
# Stress axis : x y z
#
# Youngs Moduli (GPa) = 72.96876 75.43835 32.29333
#
# Poissons Ratio (x) = 0.40177 0.04109
# Poissons Ratio (y) = 0.38862 0.27749
# Poissons Ratio (z) = 0.09284 0.64824
#
# Static dielectric constant tensor:
#      x y z
#    x 3.118510 0.000000 0.000000 
#    y 0.000000 3.249610 0.000000 
#    z 0.000000 0.000000 2.954450 
# 
# 
# High freq. dielectric constant tensor:
#      x y z
#    x 1.618280 0.000000 0.000000 
#    y 0.000000 1.641510 0.000000 
#    z 0.000000 0.000000 1.590770 
# 
# From -- ./inp_files/25850.got.cif
#   From: 2010.03.12/outbox.cif.g09.slc.cpg/sg47_13_cif.got.tgz:25850.got - 2010.04.14 03:12:58.
