data_PCOD8197609
_publ_section_title
;
Structure prediction by ZEFSAII (Michael W. Deem and Ramdas Pophale) SiO2 
 PCOD8197609
Probable space group: P M M M
;
_chemical_formula_sum "Si O2"
_cell_formula_units_Z 44
_cell_length_a 8.167985
_cell_length_b 8.977563
_cell_length_c 30.182322
_cell_angle_alpha 90.000000
_cell_angle_beta 90.000000
_cell_angle_gamma 90.000000
_cell_volume 2213.227415
_symmetry_space_group_name_H-M "P M M M"
_symmetry_group_IT_number 47
_symmetry_cell_setting 'orthorhombic'
loop_
_space_group_symop_operation_xyz
x,y,z
-x,-y,z
x,-y,-z
-x,y,-z
-x,-y,-z
x,y,-z
-x,y,z
x,-y,z
loop_
_atom_site_type_symbol
_atom_site_label
_atom_site_fract_x
_atom_site_fract_y
_atom_site_fract_z
Si Si1 0.187091 0.164146 0.631657
Si Si2 0.500000 0.828738 0.947672
Si Si3 0.810924 0.164983 0.812904
Si Si4 0.686086 0.324684 0.548945
Si Si5 0.807562 0.323671 0.901320
Si Si6 0.312269 0.828585 0.278247
O O1 0.202381 0.255974 0.586721
O O2 0.268421 0.246935 0.674352
O O3 0.000000 0.149304 0.643904
O O4 0.265579 0.000000 0.624109
O O5 0.328601 0.751498 0.932837
O O6 0.500000 0.000000 0.931051
O O7 0.500000 0.819817 0.000000
O O8 0.753030 0.273861 0.851978
O O9 0.775526 0.240951 0.764987
O O10 0.000000 0.140115 0.818393
O O11 0.725532 0.000000 0.816230
O O12 0.742104 0.269234 0.500000
O O13 0.500000 0.275589 0.557612
O O14 0.704205 0.500000 0.551247
O O15 0.789878 0.500000 0.905335
O O16 0.000000 0.278431 0.912124
O O17 0.500000 0.807816 0.268450
O O18 0.256570 0.000000 0.282703
#
# Coordination Sequence:
#
# PCOD8197609 Si02
#       6
#     8   4   8   8   8   8
#     4  10  20  33  50  74 105 138 173 216 264 317
#     4  11  25  43  65  93 123 159 207 259 304 353
#     4   9  17  31  53  80 110 147 191 235 279 332
#     4   9  19  36  55  73  95 126 166 213 266 325
#     4  10  22  40  62  90 126 165 202 246 303 363
#     4   9  17  29  48  75 105 140 182 225 269 319
#
# _framework density 19.880469000000002
#
# number of rings (size 3 to 8) (size 9 to 14) (size 15 to 20)
#    0.000    2.455    0.000    2.455    1.273    6.545 
#    0.000    5.455    0.000    3.273    0.000    0.000 
#    0.000    0.000    0.000    0.000    0.000    0.000 
#
# Total GULP energy -545136.281063 kJ/mol
# GULP energy per Si atom -12389.460933 kJ/mol
# Density = 1.983522 g / cm^3
# Si number density = 19.880469 Si / 1000 Ang^3
#
#
#
# Elastic Constant Matrix: (Units=GPa)
#
#
# Indices 1 2 3 4 5 6 
#
# 1 68.2702 33.8465 41.9467 0.0000 0.0000 0.0000
# 2 33.8465 61.6362 41.1866 0.0000 0.0000 0.0000
# 3 41.9467 41.1866 135.9161 0.0000 0.0000 0.0000
# 4 0.0000 0.0000 0.0000 -5.9003 0.0000 0.0000
# 5 0.0000 0.0000 0.0000 0.0000 38.3596 0.0000
# 6 0.0000 0.0000 0.0000 0.0000 0.0000 23.9798
#
#
#
# Elastic Compliance Matrix: (Units=1/GPa)
#
#
# Indices 1 2 3 4 5 6 
#
# 1 0.021628 -0.009299 -0.003857 0.000000 0.000000 0.000000
# 2 -0.009299 0.024342 -0.004506 0.000000 0.000000 0.000000
# 3 -0.003857 -0.004506 0.009913 0.000000 0.000000 0.000000
# 4 0.000000 0.000000 0.000000 -0.169484 0.000000 0.000000
# 5 0.000000 0.000000 0.000000 0.000000 0.026069 0.000000
# 6 0.000000 0.000000 0.000000 0.000000 0.000000 0.041702
#
#
# Mechanical properties :
#
#
# Convention : Reuss Voigt Hill
#
# Bulk Modulus (GPa) = 48.64263 55.53135 52.08699
# Shear Modulus (GPa) = -1369.21798 21.21067 -674.00365
#
# Velocity S-wave (km/s) = -26.27204 3.26990 -18.43269
# Velocity P-wave (km/s) = 29.92947 6.49997 20.65821
#
# Compressibility (1/GPa) = 0.02055810
#
# Stress axis : x y z
#
# Youngs Moduli (GPa) = 46.23691 41.08113 100.87399
#
# Poissons Ratio (x) = 0.38203 0.38905
# Poissons Ratio (y) = 0.42997 0.45458
# Poissons Ratio (z) = 0.17833 0.18513
#
# Static dielectric constant tensor:
#      x y z
#    x 3.602780 0.000000 0.000000 
#    y 0.000000 3.440910 0.000000 
#    z 0.000000 0.000000 3.838820 
# 
# 
# High freq. dielectric constant tensor:
#      x y z
#    x 1.774970 0.000000 0.000000 
#    y 0.000000 1.737830 0.000000 
#    z 0.000000 0.000000 1.790790 
# 
# From -- ./inp_files/33925.got.cif
#   From: 2010.03.12/outbox.cif.g09.slc.cpg/sg47_17_cif.got.tgz:33925.got - 2010.04.14 03:12:58.
