data_PCOD8197043
_publ_section_title
;
Structure prediction by ZEFSAII (Michael W. Deem and Ramdas Pophale) SiO2 
 PCOD8197043
Probable space group: P M M M
;
_chemical_formula_sum "Si O2"
_cell_formula_units_Z 52
_cell_length_a 9.509281
_cell_length_b 33.143021
_cell_length_c 9.518237
_cell_angle_alpha 90.000000
_cell_angle_beta 90.000000
_cell_angle_gamma 90.000000
_cell_volume 2999.827537
_symmetry_space_group_name_H-M "P M M M"
_symmetry_group_IT_number 47
_symmetry_cell_setting 'orthorhombic'
loop_
_space_group_symop_operation_xyz
x,y,z
-x,-y,z
x,-y,-z
-x,y,-z
-x,-y,-z
x,y,-z
-x,y,z
x,-y,z
loop_
_atom_site_type_symbol
_atom_site_label
_atom_site_fract_x
_atom_site_fract_y
_atom_site_fract_z
Si Si1 0.836293 0.836473 0.163326
Si Si2 0.843993 0.697582 0.666874
Si Si3 0.339372 0.545849 0.163521
Si Si4 0.337084 0.772256 0.334066
Si Si5 0.844691 0.927490 0.833627
Si Si6 0.657637 0.000000 0.832066
Si Si7 0.165586 0.391819 0.340892
O O1 0.737967 0.809058 0.258037
O O2 0.797804 0.882298 0.206510
O O3 0.000000 0.827618 0.194601
O O4 0.803012 0.828633 0.000000
O O5 0.850907 0.696791 0.500000
O O6 0.732878 0.730656 0.720400
O O7 0.797085 0.652999 0.717574
O O8 0.000000 0.708262 0.725577
O O9 0.500000 0.556970 0.197890
O O10 0.307831 0.500000 0.209832
O O11 0.238558 0.575182 0.246450
O O12 0.308223 0.551212 0.000000
O O13 0.316181 0.777592 0.500000
O O14 0.500000 0.771298 0.291865
O O15 0.000000 0.936643 0.771880
O O16 0.735288 0.960108 0.772804
O O17 0.852275 0.931197 0.000000
O O18 0.500000 0.000000 0.772152
O O19 0.657113 0.000000 0.000000
O O20 0.220180 0.396752 0.500000
O O21 0.000000 0.398733 0.333787
#
# Coordination Sequence:
#
# PCOD8197043 Si02
#       7
#     8   8   8   8   8   4   8
#     4   9  18  32  49  69  93 123 159 196 235 278
#     4   8  15  30  50  69  92 123 156 191 232 276
#     4   9  19  35  51  68  95 131 166 196 228 272
#     4  10  20  32  48  72  98 124 157 194 232 279
#     4   8  14  25  40  58  83 115 149 186 227 270
#     4   9  15  21  33  57  86 115 148 183 222 272
#     4   9  18  32  51  76 100 120 150 195 241 281
#
# _framework density 17.334329
#
# number of rings (size 3 to 8) (size 9 to 14) (size 15 to 20)
#    0.000    3.154    0.000    3.000    0.000    4.615 
#    0.000    6.154    0.000    0.923    0.000    0.538 
#    0.000    4.308    0.000    0.000    0.000    0.000 
#
# Total GULP energy -644578.972434 kJ/mol
# GULP energy per Si atom -12395.749470 kJ/mol
# Density = 1.729488 g / cm^3
# Si number density = 17.334329 Si / 1000 Ang^3
#
#
#
# Elastic Constant Matrix: (Units=GPa)
#
#
# Indices 1 2 3 4 5 6 
#
# 1 109.3558 87.7552 34.8007 0.0000 0.0000 0.0000
# 2 87.7552 147.0348 41.2507 0.0000 0.0000 0.0000
# 3 34.8007 41.2507 28.9943 0.0000 0.0000 0.0000
# 4 0.0000 0.0000 0.0000 24.4021 0.0000 0.0000
# 5 0.0000 0.0000 0.0000 0.0000 25.2516 0.0000
# 6 0.0000 0.0000 0.0000 0.0000 0.0000 11.7540
#
#
#
# Elastic Compliance Matrix: (Units=1/GPa)
#
#
# Indices 1 2 3 4 5 6 
#
# 1 0.019596 -0.008483 -0.011452 0.000000 0.000000 0.000000
# 2 -0.008483 0.014991 -0.011147 0.000000 0.000000 0.000000
# 3 -0.011452 -0.011147 0.064093 0.000000 0.000000 0.000000
# 4 0.000000 0.000000 0.000000 0.040980 0.000000 0.000000
# 5 0.000000 0.000000 0.000000 0.000000 0.039601 0.000000
# 6 0.000000 0.000000 0.000000 0.000000 0.000000 0.085078
#
#
# Mechanical properties :
#
#
# Convention : Reuss Voigt Hill
#
# Bulk Modulus (GPa) = 27.38373 68.11089 47.74731
# Shear Modulus (GPa) = 14.76346 20.38675 17.57510
#
# Velocity S-wave (km/s) = 2.92154 3.43314 3.18762
# Velocity P-wave (km/s) = 5.21653 7.42247 6.41503
#
# Compressibility (1/GPa) = 0.03651804
#
# Stress axis : x y z
#
# Youngs Moduli (GPa) = 51.03102 66.70641 15.60231
#
# Poissons Ratio (x) = 0.56585 0.17867
# Poissons Ratio (y) = 0.43288 0.17391
# Poissons Ratio (z) = 0.58439 0.74355
#
# Static dielectric constant tensor:
#      x y z
#    x 3.343200 0.000000 0.000000 
#    y 0.000000 3.465010 0.000000 
#    z 0.000000 0.000000 2.791350 
# 
# 
# High freq. dielectric constant tensor:
#      x y z
#    x 1.670490 0.000000 0.000000 
#    y 0.000000 1.683690 0.000000 
#    z 0.000000 0.000000 1.621500 
# 
# From -- ./inp_files/15471.got.cif
#   From: 2010.03.12/outbox.cif.g09.slc.cpg/sg47_8_cif.got.tgz:15471.got - 2010.04.14 03:12:58.
