data_PCOD8197411
_publ_section_title
;
Structure prediction by ZEFSAII (Michael W. Deem and Ramdas Pophale) SiO2 
 PCOD8197411
Probable space group: P M M M
;
_chemical_formula_sum "Si O2"
_cell_formula_units_Z 52
_cell_length_a 8.770762
_cell_length_b 12.296600
_cell_length_c 25.386324
_cell_angle_alpha 90.000000
_cell_angle_beta 90.000000
_cell_angle_gamma 90.000000
_cell_volume 2737.929057
_symmetry_space_group_name_H-M "P M M M"
_symmetry_group_IT_number 47
_symmetry_cell_setting 'orthorhombic'
loop_
_space_group_symop_operation_xyz
x,y,z
-x,-y,z
x,-y,-z
-x,y,-z
-x,-y,-z
x,y,-z
-x,y,z
x,-y,z
loop_
_atom_site_type_symbol
_atom_site_label
_atom_site_fract_x
_atom_site_fract_y
_atom_site_fract_z
Si Si1 0.327007 0.119714 0.110569
Si Si2 0.319148 0.500000 0.260786
Si Si3 0.681620 0.500000 0.141443
Si Si4 0.321500 0.332366 0.057123
Si Si5 0.174211 0.876281 0.219199
Si Si6 0.322041 0.268146 0.697723
Si Si7 0.670121 0.871272 0.500000
Si Si8 0.179954 0.875853 0.607504
O O1 0.500000 0.138116 0.131581
O O2 0.286519 0.205166 0.065170
O O3 0.209491 0.134878 0.157922
O O4 0.309583 0.000000 0.085666
O O5 0.500000 0.500000 0.255742
O O6 0.250000 0.500000 0.200892
O O7 0.265741 0.607364 0.292882
O O8 0.500000 0.500000 0.146125
O O9 0.744015 0.602582 0.107504
O O10 0.500000 0.356444 0.054571
O O11 0.250737 0.366391 0.000000
O O12 0.289973 0.798062 0.249273
O O13 0.000000 0.841226 0.229985
O O14 0.200234 0.000000 0.238555
O O15 0.500000 0.264802 0.684403
O O16 0.231664 0.210259 0.650951
O O17 0.500000 0.822077 0.500000
O O18 0.756717 0.831315 0.447886
O O19 0.665791 0.000000 0.500000
O O20 0.000000 0.875926 0.604654
O O21 0.237658 0.000000 0.619538
#
# Coordination Sequence:
#
# PCOD8197411 Si02
#       8
#     8   4   4   8   8   8   4   8
#     4   9  17  29  45  65  91 124 158 192 237 297
#     4   9  20  35  51  73 101 134 170 213 261 306
#     4   9  15  26  43  63  91 123 154 193 248 306
#     4   9  16  25  41  67  94 118 149 194 245 295
#     4  10  20  33  49  71 100 131 164 206 256 308
#     4  11  21  34  53  76 103 135 174 217 260 307
#     4   9  17  31  53  82 113 146 185 221 255 299
#     4  10  20  34  53  80 115 149 178 213 259 305
#
# _framework density 18.992457999999999
#
# number of rings (size 3 to 8) (size 9 to 14) (size 15 to 20)
#    0.000    2.385    0.000    3.231    0.000    8.308 
#    0.000    3.077    0.000    0.923    0.000    5.385 
#    0.000    2.462    0.000    0.000    0.000    0.000 
#
# Total GULP energy -644500.030609 kJ/mol
# GULP energy per Si atom -12394.231358 kJ/mol
# Density = 1.894923 g / cm^3
# Si number density = 18.992458 Si / 1000 Ang^3
#
#
#
# Elastic Constant Matrix: (Units=GPa)
#
#
# Indices 1 2 3 4 5 6 
#
# 1 46.0137 25.4332 22.3997 0.0000 0.0000 0.0000
# 2 25.4332 122.4329 62.6077 0.0000 0.0000 0.0000
# 3 22.3997 62.6077 115.8494 0.0000 0.0000 0.0000
# 4 0.0000 0.0000 0.0000 16.5805 0.0000 0.0000
# 5 0.0000 0.0000 0.0000 0.0000 12.0190 0.0000
# 6 0.0000 0.0000 0.0000 0.0000 0.0000 14.1360
#
#
#
# Elastic Compliance Matrix: (Units=1/GPa)
#
#
# Indices 1 2 3 4 5 6 
#
# 1 0.025203 -0.003791 -0.002824 0.000000 0.000000 0.000000
# 2 -0.003791 0.011857 -0.005675 0.000000 0.000000 0.000000
# 3 -0.002824 -0.005675 0.012245 0.000000 0.000000 0.000000
# 4 0.000000 0.000000 0.000000 0.060312 0.000000 0.000000
# 5 0.000000 0.000000 0.000000 0.000000 0.083201 0.000000
# 6 0.000000 0.000000 0.000000 0.000000 0.000000 0.070742
#
#
# Mechanical properties :
#
#
# Convention : Reuss Voigt Hill
#
# Bulk Modulus (GPa) = 40.44587 56.13080 48.28833
# Shear Modulus (GPa) = 16.87012 20.13746 18.50379
#
# Velocity S-wave (km/s) = 2.98359 3.25974 3.12472
# Velocity P-wave (km/s) = 5.76291 6.61712 6.20473
#
# Compressibility (1/GPa) = 0.02472440
#
# Stress axis : x y z
#
# Youngs Moduli (GPa) = 39.67781 84.33666 81.66740
#
# Poissons Ratio (x) = 0.31975 0.23064
# Poissons Ratio (y) = 0.15043 0.46345
# Poissons Ratio (z) = 0.11206 0.47860
#
# Static dielectric constant tensor:
#      x y z
#    x 3.203060 0.000000 0.000000 
#    y 0.000000 3.644730 0.000000 
#    z 0.000000 0.000000 3.543080 
# 
# 
# High freq. dielectric constant tensor:
#      x y z
#    x 1.705480 0.000000 0.000000 
#    y 0.000000 1.731870 0.000000 
#    z 0.000000 0.000000 1.734750 
# 
# From -- ./inp_files/33293.got.cif
#   From: 2010.03.12/outbox.cif.g09.slc.cpg/sg47_17_cif.got.tgz:33293.got - 2010.04.14 03:12:58.
