data_PCOD8197170
_publ_section_title
;
Structure prediction by ZEFSAII (Michael W. Deem and Ramdas Pophale) SiO2 
 PCOD8197170
Probable space group: P M M M
;
_chemical_formula_sum "Si O2"
_cell_formula_units_Z 64
_cell_length_a 20.376453
_cell_length_b 9.195419
_cell_length_c 18.310050
_cell_angle_alpha 90.000000
_cell_angle_beta 90.000000
_cell_angle_gamma 90.000000
_cell_volume 3430.754491
_symmetry_space_group_name_H-M "P M M M"
_symmetry_group_IT_number 47
_symmetry_cell_setting 'orthorhombic'
loop_
_space_group_symop_operation_xyz
x,y,z
-x,-y,z
x,-y,-z
-x,y,-z
-x,-y,-z
x,y,-z
-x,y,z
x,-y,z
loop_
_atom_site_type_symbol
_atom_site_label
_atom_site_fract_x
_atom_site_fract_y
_atom_site_fract_z
Si Si1 0.076089 0.669814 0.157836
Si Si2 0.302944 0.332282 0.341778
Si Si3 0.571934 0.836925 0.658175
Si Si4 0.188163 0.831736 0.915730
Si Si5 0.572375 0.163414 0.831645
Si Si6 0.074726 0.833045 0.304207
Si Si7 0.301375 0.331129 0.830161
Si Si8 0.814901 0.831346 0.416530
O O1 0.093359 0.500000 0.156009
O O2 0.118445 0.753808 0.097510
O O3 0.095134 0.730328 0.237337
O O4 0.000000 0.698967 0.139911
O O5 0.302590 0.500000 0.361226
O O6 0.371715 0.268696 0.371751
O O7 0.294515 0.303728 0.255906
O O8 0.244710 0.258358 0.384761
O O9 0.500000 0.785172 0.630047
O O10 0.571900 0.834748 0.744990
O O11 0.586254 0.000000 0.630111
O O12 0.243290 0.755796 0.867661
O O13 0.182807 0.000000 0.892919
O O14 0.207103 0.814544 0.000000
O O15 0.500000 0.212902 0.860181
O O16 0.628795 0.271802 0.860409
O O17 0.587681 0.000000 0.859613
O O18 0.119013 0.791740 0.373202
O O19 0.000000 0.804287 0.327992
O O20 0.085116 0.000000 0.279751
O O21 0.296259 0.500000 0.850482
O O22 0.827360 0.787348 0.500000
O O23 0.797170 0.000000 0.408297
#
# Coordination Sequence:
#
# PCOD8197170 Si02
#       8
#     8   8   8   8   8   8   8   8
#     4  10  21  37  58  83 109 136 167 206 253 306
#     4  10  20  32  49  75 104 135 171 210 254 304
#     4   8  14  26  46  72 100 130 165 206 253 303
#     4  11  24  39  55  76 103 137 176 216 257 303
#     4   8  14  26  46  73 104 136 170 210 256 305
#     4   9  18  34  57  82 106 134 169 210 255 302
#     4  10  20  33  52  78 106 137 173 214 260 310
#     4  10  21  35  51  73 102 137 175 214 256 301
#
# _framework density 18.654789000000001
#
# number of rings (size 3 to 8) (size 9 to 14) (size 15 to 20)
#    0.000    2.500    0.000    3.000    0.000    7.000 
#    0.000    5.000    0.000    0.750    0.000    7.875 
#    0.000    0.000    0.000    0.000    0.000    0.000 
#
# Total GULP energy -793564.541528 kJ/mol
# GULP energy per Si atom -12399.445961 kJ/mol
# Density = 1.861233 g / cm^3
# Si number density = 18.654789 Si / 1000 Ang^3
#
#
#
# Elastic Constant Matrix: (Units=GPa)
#
#
# Indices 1 2 3 4 5 6 
#
# 1 92.3375 42.2845 22.6158 0.0000 0.0000 0.0000
# 2 42.2845 90.8062 28.3630 0.0000 0.0000 0.0000
# 3 22.6158 28.3630 37.4903 0.0000 0.0000 0.0000
# 4 0.0000 0.0000 0.0000 18.3050 0.0000 0.0000
# 5 0.0000 0.0000 0.0000 0.0000 -0.6786 0.0000
# 6 0.0000 0.0000 0.0000 0.0000 0.0000 28.0691
#
#
#
# Elastic Compliance Matrix: (Units=1/GPa)
#
#
# Indices 1 2 3 4 5 6 
#
# 1 0.014377 -0.005219 -0.004724 0.000000 0.000000 0.000000
# 2 -0.005219 0.016315 -0.009194 0.000000 0.000000 0.000000
# 3 -0.004724 -0.009194 0.036479 0.000000 0.000000 0.000000
# 4 0.000000 0.000000 0.000000 0.054630 0.000000 0.000000
# 5 0.000000 0.000000 0.000000 0.000000 -1.473583 0.000000
# 6 0.000000 0.000000 0.000000 0.000000 0.000000 0.035626
#
#
# Mechanical properties :
#
#
# Convention : Reuss Voigt Hill
#
# Bulk Modulus (GPa) = 34.60750 45.24006 39.92378
# Shear Modulus (GPa) = -3.94245 17.63047 6.84401
#
# Velocity S-wave (km/s) = -1.45532 3.07757 1.91748
# Velocity P-wave (km/s) = 3.97088 6.07720 5.13324
#
# Compressibility (1/GPa) = 0.02889547
#
# Stress axis : x y z
#
# Youngs Moduli (GPa) = 69.55582 61.29499 27.41275
#
# Poissons Ratio (x) = 0.31990 0.12951
# Poissons Ratio (y) = 0.36302 0.25204
# Poissons Ratio (z) = 0.32861 0.56356
#
# Static dielectric constant tensor:
#      x y z
#    x 3.813250 0.000000 0.000000 
#    y 0.000000 3.533700 0.000000 
#    z 0.000000 0.000000 3.093450 
# 
# 
# High freq. dielectric constant tensor:
#      x y z
#    x 1.741350 0.000000 0.000000 
#    y 0.000000 1.727030 0.000000 
#    z 0.000000 0.000000 1.686430 
# 
# From -- ./inp_files/10054.got.cif
#   From: 2010.03.12/outbox.cif.g09.slc.cpg/sg47_6_cif.got.tgz:10054.got - 2010.04.14 03:12:58.
