data_PCOD8197525
_publ_section_title
;
Structure prediction by ZEFSAII (Michael W. Deem and Ramdas Pophale) SiO2 
 PCOD8197525
Probable space group: P M M M
;
_chemical_formula_sum "Si O2"
_cell_formula_units_Z 48
_cell_length_a 9.198407
_cell_length_b 9.050386
_cell_length_c 31.091548
_cell_angle_alpha 90.000000
_cell_angle_beta 90.000000
_cell_angle_gamma 90.000000
_cell_volume 2588.344444
_symmetry_space_group_name_H-M "P M M M"
_symmetry_group_IT_number 47
_symmetry_cell_setting 'orthorhombic'
loop_
_space_group_symop_operation_xyz
x,y,z
-x,-y,z
x,-y,-z
-x,y,-z
-x,-y,-z
x,y,-z
-x,y,z
x,-y,z
loop_
_atom_site_type_symbol
_atom_site_label
_atom_site_fract_x
_atom_site_fract_y
_atom_site_fract_z
Si Si1 0.335458 0.176363 0.500000
Si Si2 0.173134 0.666775 0.915883
Si Si3 0.164097 0.824120 0.582735
Si Si4 0.669835 0.670974 0.246234
Si Si5 0.828369 0.170007 0.830765
Si Si6 0.173469 0.833041 0.000000
Si Si7 0.331375 0.170849 0.666674
O O1 0.500000 0.236790 0.500000
O O2 0.252942 0.238145 0.457992
O O3 0.335190 0.000000 0.500000
O O4 0.233430 0.500000 0.915743
O O5 0.230615 0.749378 0.873475
O O6 0.000000 0.667646 0.916790
O O7 0.234097 0.750207 0.957860
O O8 0.239780 0.768777 0.626400
O O9 0.000000 0.762801 0.580899
O O10 0.165149 0.000000 0.581452
O O11 0.500000 0.696772 0.238262
O O12 0.712669 0.500000 0.244223
O O13 0.756827 0.757919 0.210435
O O14 0.716558 0.733952 0.292394
O O15 0.000000 0.188606 0.826504
O O16 0.782099 0.000000 0.833760
O O17 0.000000 0.832232 0.000000
O O18 0.232780 0.000000 0.000000
O O19 0.500000 0.193082 0.655412
O O20 0.296739 0.000000 0.676603
#
# Coordination Sequence:
#
# PCOD8197525 Si02
#       7
#     4   8   8   8   8   4   8
#     4   9  15  23  37  59  90 127 162 195 236 286
#     4   9  16  26  41  63  93 128 164 203 249 299
#     4   9  16  25  39  62  92 123 156 196 240 285
#     4  10  21  36  53  73  97 127 164 204 246 295
#     4  10  20  33  50  73 100 129 162 202 249 299
#     4   9  15  23  37  59  90 127 166 207 250 297
#     4   9  17  30  47  66  90 121 156 194 237 286
#
# _framework density 18.544671999999998
#
# number of rings (size 3 to 8) (size 9 to 14) (size 15 to 20)
#    0.000    2.667    0.000    2.500    0.000    8.667 
#    0.000    1.667    0.000    0.000    0.000    1.167 
#    0.000    9.333    0.000    0.000    0.000    0.000 
#
# Total GULP energy -595244.470359 kJ/mol
# GULP energy per Si atom -12400.926466 kJ/mol
# Density = 1.850246 g / cm^3
# Si number density = 18.544672 Si / 1000 Ang^3
#
#
#
# Elastic Constant Matrix: (Units=GPa)
#
#
# Indices 1 2 3 4 5 6 
#
# 1 63.9959 35.2784 63.0834 0.0000 0.0000 0.0000
# 2 35.2784 116.6355 80.8431 0.0000 0.0000 0.0000
# 3 63.0834 80.8431 185.3447 0.0000 0.0000 0.0000
# 4 0.0000 0.0000 0.0000 5.0035 0.0000 0.0000
# 5 0.0000 0.0000 0.0000 0.0000 3.3244 0.0000
# 6 0.0000 0.0000 0.0000 0.0000 0.0000 14.7727
#
#
#
# Elastic Compliance Matrix: (Units=1/GPa)
#
#
# Indices 1 2 3 4 5 6 
#
# 1 0.023932 -0.002283 -0.007150 0.000000 0.000000 0.000000
# 2 -0.002283 0.012507 -0.004678 0.000000 0.000000 0.000000
# 3 -0.007150 -0.004678 0.009869 0.000000 0.000000 0.000000
# 4 0.000000 0.000000 0.000000 0.199860 0.000000 0.000000
# 5 0.000000 0.000000 0.000000 0.000000 0.300810 0.000000
# 6 0.000000 0.000000 0.000000 0.000000 0.000000 0.067692
#
#
# Mechanical properties :
#
#
# Convention : Reuss Voigt Hill
#
# Bulk Modulus (GPa) = 55.28957 80.48733 67.88845
# Shear Modulus (GPa) = 7.70509 17.07153 12.38831
#
# Velocity S-wave (km/s) = 2.04056 3.03737 2.58742
# Velocity P-wave (km/s) = 5.95238 7.46973 6.75380
#
# Compressibility (1/GPa) = 0.01808659
#
# Stress axis : x y z
#
# Youngs Moduli (GPa) = 41.78451 79.95650 101.32445
#
# Poissons Ratio (x) = 0.18255 0.72444
# Poissons Ratio (y) = 0.09540 0.47401
# Poissons Ratio (z) = 0.29875 0.37405
#
# Static dielectric constant tensor:
#      x y z
#    x 3.163650 0.000000 0.000000 
#    y 0.000000 3.275670 0.000000 
#    z 0.000000 0.000000 3.617950 
# 
# 
# High freq. dielectric constant tensor:
#      x y z
#    x 1.687450 0.000000 0.000000 
#    y 0.000000 1.698820 0.000000 
#    z 0.000000 0.000000 1.738540 
# 
# From -- ./inp_files/34177.got.cif
#   From: 2010.03.12/outbox.cif.g09.slc.cpg/sg47_18_cif.got.tgz:34177.got - 2010.04.14 03:12:58.
