data_PCOD8197990
_publ_section_title
;
Structure prediction by ZEFSAII (Michael W. Deem and Ramdas Pophale) SiO2 
 PCOD8197990
Probable space group: P M M M
;
_chemical_formula_sum "Si O2"
_cell_formula_units_Z 52
_cell_length_a 8.993503
_cell_length_b 14.051390
_cell_length_c 23.793009
_cell_angle_alpha 90.000000
_cell_angle_beta 90.000000
_cell_angle_gamma 90.000000
_cell_volume 3006.751530
_symmetry_space_group_name_H-M "P M M M"
_symmetry_group_IT_number 47
_symmetry_cell_setting 'orthorhombic'
loop_
_space_group_symop_operation_xyz
x,y,z
-x,-y,z
x,-y,-z
-x,y,-z
-x,-y,-z
x,y,-z
-x,y,z
x,-y,z
loop_
_atom_site_type_symbol
_atom_site_label
_atom_site_fract_x
_atom_site_fract_y
_atom_site_fract_z
Si Si1 0.822532 0.608636 0.319589
Si Si2 0.168688 0.113034 0.938853
Si Si3 0.674870 0.892207 0.829549
Si Si4 0.833801 0.612992 0.441100
Si Si5 0.329268 0.113452 0.500000
Si Si6 0.676498 0.213935 0.281833
Si Si7 0.173081 0.887720 0.613311
O O1 0.775798 0.500000 0.306759
O O2 0.762957 0.644232 0.381642
O O3 0.737412 0.677988 0.277057
O O4 0.000000 0.619650 0.315428
O O5 0.262089 0.155263 0.886803
O O6 0.000000 0.146502 0.930885
O O7 0.180931 0.000000 0.938153
O O8 0.227910 0.149687 0.000000
O O9 0.500000 0.889193 0.834376
O O10 0.730743 0.834647 0.775600
O O11 0.733095 0.000000 0.822465
O O12 0.750721 0.644788 0.500000
O O13 0.842014 0.500000 0.438710
O O14 0.000000 0.654230 0.443539
O O15 0.500000 0.147972 0.500000
O O16 0.246430 0.152983 0.444214
O O17 0.319178 0.000000 0.500000
O O18 0.500000 0.211988 0.288375
O O19 0.748831 0.158779 0.333470
O O20 0.000000 0.860686 0.612999
O O21 0.198334 0.000000 0.617405
#
# Coordination Sequence:
#
# PCOD8197990 Si02
#       7
#     8   8   8   8   4   8   8
#     4   9  18  33  51  69  90 117 153 198 245 294
#     4   8  14  25  42  66  96 128 159 190 227 270
#     4   9  18  31  46  66  94 129 167 201 231 269
#     4   7  10  20  41  65  83 100 127 168 222 280
#     4   9  17  31  51  71  92 119 150 191 245 293
#     4  11  22  34  48  68  96 129 162 198 242 289
#     4  10  20  34  52  72  93 120 158 200 239 285
#
# _framework density 17.294411
#
# number of rings (size 3 to 8) (size 9 to 14) (size 15 to 20)
#    0.000    3.000    0.000    3.462    0.000    4.308 
#    1.385    3.077    0.000    0.000    0.000    2.154 
#    0.000    0.615    0.000    6.769    0.000    5.231 
#
# Total GULP energy -644237.375187 kJ/mol
# GULP energy per Si atom -12389.180292 kJ/mol
# Density = 1.725505 g / cm^3
# Si number density = 17.294411 Si / 1000 Ang^3
#
#
#
# Elastic Constant Matrix: (Units=GPa)
#
#
# Indices 1 2 3 4 5 6 
#
# 1 61.7165 28.4245 54.5632 0.0000 0.0000 0.0000
# 2 28.4245 47.1255 55.1107 0.0000 0.0000 0.0000
# 3 54.5632 55.1107 164.3661 0.0000 0.0000 0.0000
# 4 0.0000 0.0000 0.0000 12.2197 0.0000 0.0000
# 5 0.0000 0.0000 0.0000 0.0000 29.7733 0.0000
# 6 0.0000 0.0000 0.0000 0.0000 0.0000 19.1802
#
#
#
# Elastic Compliance Matrix: (Units=1/GPa)
#
#
# Indices 1 2 3 4 5 6 
#
# 1 0.024986 -0.008835 -0.005332 0.000000 0.000000 0.000000
# 2 -0.008835 0.038031 -0.009819 0.000000 0.000000 0.000000
# 3 -0.005332 -0.009819 0.011146 0.000000 0.000000 0.000000
# 4 0.000000 0.000000 0.000000 0.081835 0.000000 0.000000
# 5 0.000000 0.000000 0.000000 0.000000 0.033587 0.000000
# 6 0.000000 0.000000 0.000000 0.000000 0.000000 0.052137
#
#
# Mechanical properties :
#
#
# Convention : Reuss Voigt Hill
#
# Bulk Modulus (GPa) = 38.17980 61.04498 49.61239
# Shear Modulus (GPa) = 16.75453 21.24193 18.99823
#
# Velocity S-wave (km/s) = 3.11590 3.50845 3.31799
# Velocity P-wave (km/s) = 5.92195 7.19628 6.58999
#
# Compressibility (1/GPa) = 0.02619186
#
# Stress axis : x y z
#
# Youngs Moduli (GPa) = 40.02161 26.29400 89.71694
#
# Poissons Ratio (x) = 0.23232 0.47838
# Poissons Ratio (y) = 0.35360 0.88090
# Poissons Ratio (z) = 0.21340 0.25817
#
# Static dielectric constant tensor:
#      x y z
#    x 3.068810 0.000000 0.000000 
#    y 0.000000 3.047290 0.000000 
#    z 0.000000 0.000000 3.835050 
# 
# 
# High freq. dielectric constant tensor:
#      x y z
#    x 1.650420 0.000000 0.000000 
#    y 0.000000 1.638640 0.000000 
#    z 0.000000 0.000000 1.665700 
# 
# From -- ./inp_files/25029.got.cif
#   From: 2010.03.12/outbox.cif.g09.slc.cpg/sg47_13_cif.got.tgz:25029.got - 2010.04.14 03:12:58.
