data_PCOD8197790
_publ_section_title
;
Structure prediction by ZEFSAII (Michael W. Deem and Ramdas Pophale) SiO2 
 PCOD8197790
Probable space group: P M M M
;
_chemical_formula_sum "Si O2"
_cell_formula_units_Z 48
_cell_length_a 20.336873
_cell_length_b 7.866793
_cell_length_c 14.234986
_cell_angle_alpha 90.000000
_cell_angle_beta 90.000000
_cell_angle_gamma 90.000000
_cell_volume 2277.398045
_symmetry_space_group_name_H-M "P M M M"
_symmetry_group_IT_number 47
_symmetry_cell_setting 'orthorhombic'
loop_
_space_group_symop_operation_xyz
x,y,z
-x,-y,z
x,-y,-z
-x,y,-z
-x,-y,-z
x,y,-z
-x,y,z
x,-y,z
loop_
_atom_site_type_symbol
_atom_site_label
_atom_site_fract_x
_atom_site_fract_y
_atom_site_fract_z
Si Si1 0.198176 0.193866 0.712857
Si Si2 0.000000 0.312789 0.888976
Si Si3 0.678202 0.800046 0.395539
Si Si4 0.576678 0.195005 0.762045
Si Si5 0.927005 0.697019 0.391212
Si Si6 0.422126 0.500000 0.105238
Si Si7 0.140344 0.802830 0.896974
O O1 0.257447 0.282862 0.655300
O O2 0.129275 0.195629 0.658581
O O3 0.188552 0.277128 0.817262
O O4 0.218812 0.000000 0.728466
O O5 0.933891 0.217409 0.857737
O O6 0.000000 0.500000 0.843140
O O7 0.000000 0.324456 0.000000
O O8 0.670373 0.719933 0.500000
O O9 0.613859 0.758757 0.334343
O O10 0.688402 0.000000 0.405977
O O11 0.500000 0.218604 0.740463
O O12 0.600799 0.327214 0.841902
O O13 0.591958 0.000000 0.794299
O O14 0.926178 0.745637 0.500000
O O15 0.910734 0.500000 0.376429
O O16 0.000000 0.739454 0.350089
O O17 0.500000 0.500000 0.098794
O O18 0.391839 0.500000 0.000000
O O19 0.155040 0.000000 0.907431
O O20 0.150681 0.715013 0.000000
#
# Coordination Sequence:
#
# PCOD8197790 Si02
#       7
#     8   4   8   8   8   4   8
#     4  10  20  33  52  76 102 133 175 223 270 324
#     4   9  17  29  47  69  90 119 164 213 263 316
#     4   9  18  34  55  80 112 146 182 230 286 341
#     4   9  18  34  58  88 121 158 200 241 286 344
#     4   9  19  35  51  69  97 131 167 211 266 326
#     4   9  18  34  57  87 125 161 195 242 290 334
#     4   9  18  32  48  68  98 132 166 209 262 321
#
# _framework density 21.076684
#
# number of rings (size 3 to 8) (size 9 to 14) (size 15 to 20)
#    0.000    2.833    0.000    1.250    1.167    3.667 
#    1.500    5.417    0.000    4.500    0.000    0.000 
#    0.000    0.000    0.000    0.000    0.000    0.000 
#
# Total GULP energy -594750.388833 kJ/mol
# GULP energy per Si atom -12390.633101 kJ/mol
# Density = 2.102871 g / cm^3
# Si number density = 21.076684 Si / 1000 Ang^3
#
#
#
# Elastic Constant Matrix: (Units=GPa)
#
#
# Indices 1 2 3 4 5 6 
#
# 1 95.6713 21.1765 72.2456 0.0000 0.0000 0.0000
# 2 21.1765 53.2128 41.6738 0.0000 0.0000 0.0000
# 3 72.2456 41.6738 162.4816 0.0000 0.0000 0.0000
# 4 0.0000 0.0000 0.0000 18.2762 0.0000 0.0000
# 5 0.0000 0.0000 0.0000 0.0000 33.7586 0.0000
# 6 0.0000 0.0000 0.0000 0.0000 0.0000 5.8352
#
#
#
# Elastic Compliance Matrix: (Units=1/GPa)
#
#
# Indices 1 2 3 4 5 6 
#
# 1 0.015777 -0.000982 -0.006763 0.000000 0.000000 0.000000
# 2 -0.000982 0.023577 -0.005611 0.000000 0.000000 0.000000
# 3 -0.006763 -0.005611 0.010601 0.000000 0.000000 0.000000
# 4 0.000000 0.000000 0.000000 0.054716 0.000000 0.000000
# 5 0.000000 0.000000 0.000000 0.000000 0.029622 0.000000
# 6 0.000000 0.000000 0.000000 0.000000 0.000000 0.171373
#
#
# Mechanical properties :
#
#
# Convention : Reuss Voigt Hill
#
# Bulk Modulus (GPa) = 43.02280 64.61751 53.82016
# Shear Modulus (GPa) = 14.70047 23.32533 19.01290
#
# Velocity S-wave (km/s) = 2.64384 3.33030 3.00673
# Velocity P-wave (km/s) = 5.45680 6.74631 6.13553
#
# Compressibility (1/GPa) = 0.02324349
#
# Stress axis : x y z
#
# Youngs Moduli (GPa) = 63.38345 42.41397 94.33317
#
# Poissons Ratio (x) = 0.04165 0.63799
# Poissons Ratio (y) = 0.06224 0.52926
# Poissons Ratio (z) = 0.42867 0.23796
#
# Static dielectric constant tensor:
#      x y z
#    x 3.743270 0.000000 0.000000 
#    y 0.000000 3.537290 0.000000 
#    z 0.000000 0.000000 4.286780 
# 
# 
# High freq. dielectric constant tensor:
#      x y z
#    x 1.806550 0.000000 0.000000 
#    y 0.000000 1.796220 0.000000 
#    z 0.000000 0.000000 1.834610 
# 
# From -- ./inp_files/24444.got.cif
#   From: 2010.03.12/outbox.cif.g09.slc.cpg/sg47_13_cif.got.tgz:24444.got - 2010.04.14 03:12:58.
