data_PCOD8197945
_publ_section_title
;
Structure prediction by ZEFSAII (Michael W. Deem and Ramdas Pophale) SiO2 
 PCOD8197945
Probable space group: P M M M
;
_chemical_formula_sum "Si O2"
_cell_formula_units_Z 64
_cell_length_a 10.229598
_cell_length_b 17.907918
_cell_length_c 18.995778
_cell_angle_alpha 90.000000
_cell_angle_beta 90.000000
_cell_angle_gamma 90.000000
_cell_volume 3479.851809
_symmetry_space_group_name_H-M "P M M M"
_symmetry_group_IT_number 47
_symmetry_cell_setting 'orthorhombic'
loop_
_space_group_symop_operation_xyz
x,y,z
-x,-y,z
x,-y,-z
-x,y,-z
-x,-y,-z
x,y,-z
-x,y,z
x,-y,z
loop_
_atom_site_type_symbol
_atom_site_label
_atom_site_fract_x
_atom_site_fract_y
_atom_site_fract_z
Si Si1 0.352893 0.913736 0.690743
Si Si2 0.149606 0.587767 0.848933
Si Si3 0.854614 0.411254 0.689545
Si Si4 0.350553 0.307356 0.918832
Si Si5 0.854661 0.088509 0.578083
Si Si6 0.859335 0.913088 0.076483
Si Si7 0.646413 0.841110 0.163103
Si Si8 0.646359 0.588853 0.421046
O O1 0.500000 0.911264 0.660299
O O2 0.254106 0.882138 0.632065
O O3 0.340117 0.854017 0.753720
O O4 0.320094 0.000000 0.713362
O O5 0.168879 0.500000 0.858148
O O6 0.182458 0.612587 0.768906
O O7 0.250247 0.626392 0.902165
O O8 0.000000 0.610051 0.867391
O O9 0.854611 0.500000 0.684643
O O10 0.749539 0.376788 0.634753
O O11 0.000000 0.381575 0.670246
O O12 0.500000 0.334638 0.907350
O O13 0.316895 0.241379 0.863795
O O14 0.330908 0.281669 0.000000
O O15 0.825104 0.120538 0.500000
O O16 0.000000 0.113891 0.602576
O O17 0.847900 0.000000 0.575245
O O18 0.744771 0.899223 0.130148
O O19 0.000000 0.880973 0.103367
O O20 0.873251 0.000000 0.067563
O O21 0.827067 0.877347 0.000000
O O22 0.500000 0.860722 0.137866
O O23 0.683759 0.615434 0.500000
O O24 0.500000 0.616668 0.401672
O O25 0.650074 0.500000 0.417787
#
# Coordination Sequence:
#
# PCOD8197945 Si02
#       8
#     8   8   8   8   8   8   8   8
#     4   9  17  28  44  69  99 131 169 210 248 286
#     4   9  19  36  56  77  99 122 152 194 246 305
#     4   8  14  25  41  62  88 116 146 180 218 264
#     4  10  22  38  54  74  99 126 158 198 245 298
#     4   8  14  25  41  63  94 131 168 206 249 294
#     4   9  18  31  46  67  95 126 163 206 246 282
#     4  10  20  34  50  69  97 131 166 203 243 290
#     4   8  13  20  31  53  88 125 155 180 208 249
#
# _framework density 18.391589
#
# number of rings (size 3 to 8) (size 9 to 14) (size 15 to 20)
#    0.000    3.125    0.000    2.625    0.000    4.250 
#    0.000    6.875    0.000    0.000    0.000    0.875 
#    0.000    1.000    0.000    0.000    0.000    0.000 
#
# Total GULP energy -793021.566669 kJ/mol
# GULP energy per Si atom -12390.961979 kJ/mol
# Density = 1.834973 g / cm^3
# Si number density = 18.391589 Si / 1000 Ang^3
#
#
#
# Elastic Constant Matrix: (Units=GPa)
#
#
# Indices 1 2 3 4 5 6 
#
# 1 128.9671 33.5214 79.1605 0.0000 0.0000 0.0000
# 2 33.5214 34.0899 30.6598 0.0000 0.0000 0.0000
# 3 79.1605 30.6598 103.9942 0.0000 0.0000 0.0000
# 4 0.0000 0.0000 0.0000 15.1656 0.0000 0.0000
# 5 0.0000 0.0000 0.0000 0.0000 41.6630 0.0000
# 6 0.0000 0.0000 0.0000 0.0000 0.0000 14.8264
#
#
#
# Elastic Compliance Matrix: (Units=1/GPa)
#
#
# Indices 1 2 3 4 5 6 
#
# 1 0.015487 -0.006295 -0.009933 0.000000 0.000000 0.000000
# 2 -0.006295 0.042478 -0.007731 0.000000 0.000000 0.000000
# 3 -0.009933 -0.007731 0.019456 0.000000 0.000000 0.000000
# 4 0.000000 0.000000 0.000000 0.065939 0.000000 0.000000
# 5 0.000000 0.000000 0.000000 0.000000 0.024002 0.000000
# 6 0.000000 0.000000 0.000000 0.000000 0.000000 0.067447
#
#
# Mechanical properties :
#
#
# Convention : Reuss Voigt Hill
#
# Bulk Modulus (GPa) = 33.89582 61.52606 47.71094
# Shear Modulus (GPa) = 17.09039 22.57830 19.83435
#
# Velocity S-wave (km/s) = 3.05167 3.50757 3.28753
# Velocity P-wave (km/s) = 5.55761 7.06612 6.35677
#
# Compressibility (1/GPa) = 0.02950216
#
# Stress axis : x y z
#
# Youngs Moduli (GPa) = 64.57057 23.54152 51.39786
#
# Poissons Ratio (x) = 0.14820 0.51052
# Poissons Ratio (y) = 0.40650 0.39738
# Poissons Ratio (z) = 0.64136 0.18201
#
# Static dielectric constant tensor:
#      x y z
#    x 3.696280 0.000000 0.000000 
#    y 0.000000 2.808790 0.000000 
#    z 0.000000 0.000000 3.540760 
# 
# 
# High freq. dielectric constant tensor:
#      x y z
#    x 1.727030 0.000000 0.000000 
#    y 0.000000 1.655780 0.000000 
#    z 0.000000 0.000000 1.711010 
# 
# From -- ./inp_files/30016.got.cif
#   From: 2010.03.12/outbox.cif.g09.slc.cpg/sg47_16_cif.got.tgz:30016.got - 2010.04.14 03:12:58.
