data_PCOD8197916
_publ_section_title
;
Structure prediction by ZEFSAII (Michael W. Deem and Ramdas Pophale) SiO2 
 PCOD8197916
Probable space group: P M M M
;
_chemical_formula_sum "Si O2"
_cell_formula_units_Z 44
_cell_length_a 8.051713
_cell_length_b 29.514998
_cell_length_c 9.539009
_cell_angle_alpha 90.000000
_cell_angle_beta 90.000000
_cell_angle_gamma 90.000000
_cell_volume 2266.910129
_symmetry_space_group_name_H-M "P M M M"
_symmetry_group_IT_number 47
_symmetry_cell_setting 'orthorhombic'
loop_
_space_group_symop_operation_xyz
x,y,z
-x,-y,z
x,-y,-z
-x,y,-z
-x,-y,-z
x,y,-z
-x,y,z
x,-y,z
loop_
_atom_site_type_symbol
_atom_site_label
_atom_site_fract_x
_atom_site_fract_y
_atom_site_fract_z
Si Si1 0.690299 0.368749 0.156433
Si Si2 0.807228 0.289723 0.347769
Si Si3 0.000000 0.050638 0.833725
Si Si4 0.686778 0.109132 0.837128
Si Si5 0.193973 0.448358 0.340797
Si Si6 0.808778 0.189959 0.664183
O O1 0.500000 0.355261 0.149552
O O2 0.781804 0.328141 0.233505
O O3 0.707920 0.416157 0.236346
O O4 0.764738 0.373896 0.000000
O O5 0.730897 0.304324 0.500000
O O6 0.738008 0.240539 0.301639
O O7 0.000000 0.282037 0.369866
O O8 0.830685 0.075184 0.781299
O O9 0.000000 0.000000 0.770166
O O10 0.000000 0.048364 0.000000
O O11 0.500000 0.088763 0.814726
O O12 0.696948 0.155774 0.752384
O O13 0.717326 0.119873 0.000000
O O14 0.251869 0.439071 0.500000
O O15 0.233850 0.500000 0.298871
O O16 0.000000 0.438072 0.326818
O O17 0.789044 0.179526 0.500000
O O18 0.000000 0.184470 0.711467
#
# Coordination Sequence:
#
# PCOD8197916 Si02
#       6
#     8   8   4   8   8   8
#     4  11  24  37  49  73 110 144 173 211 260 313
#     4   9  19  36  57  79 102 134 179 223 261 310
#     4   9  18  34  55  79 111 149 187 231 280 327
#     4  10  20  33  53  82 112 144 184 229 277 330
#     4   9  19  37  60  82 101 126 167 217 264 314
#     4   9  18  34  56  80 107 141 180 223 273 327
#
# _framework density 19.409680999999999
#
# number of rings (size 3 to 8) (size 9 to 14) (size 15 to 20)
#    0.000    2.455    0.909    2.727    0.000    7.273 
#    0.000   10.000    0.000    1.091    0.000    1.273 
#    0.000    0.000    0.000    0.000    0.000    0.000 
#
# Total GULP energy -545444.513314 kJ/mol
# GULP energy per Si atom -12396.466212 kJ/mol
# Density = 1.936550 g / cm^3
# Si number density = 19.409681 Si / 1000 Ang^3
#
#
#
# Elastic Constant Matrix: (Units=GPa)
#
#
# Indices 1 2 3 4 5 6 
#
# 1 75.3953 39.4202 25.1033 0.0000 0.0000 0.0000
# 2 39.4202 132.3465 59.0807 0.0000 0.0000 0.0000
# 3 25.1033 59.0807 83.9907 0.0000 0.0000 0.0000
# 4 0.0000 0.0000 0.0000 27.7550 0.0000 0.0000
# 5 0.0000 0.0000 0.0000 0.0000 17.8215 0.0000
# 6 0.0000 0.0000 0.0000 0.0000 0.0000 14.7859
#
#
#
# Elastic Compliance Matrix: (Units=1/GPa)
#
#
# Indices 1 2 3 4 5 6 
#
# 1 0.015955 -0.003824 -0.002078 0.000000 0.000000 0.000000
# 2 -0.003824 0.011931 -0.007250 0.000000 0.000000 0.000000
# 3 -0.002078 -0.007250 0.017627 0.000000 0.000000 0.000000
# 4 0.000000 0.000000 0.000000 0.036030 0.000000 0.000000
# 5 0.000000 0.000000 0.000000 0.000000 0.056112 0.000000
# 6 0.000000 0.000000 0.000000 0.000000 0.000000 0.067632
#
#
# Mechanical properties :
#
#
# Convention : Reuss Voigt Hill
#
# Bulk Modulus (GPa) = 52.06147 59.88229 55.97188
# Shear Modulus (GPa) = 21.00885 23.28103 22.14494
#
# Velocity S-wave (km/s) = 3.29354 3.46707 3.38142
# Velocity P-wave (km/s) = 6.42992 6.85173 6.64417
#
# Compressibility (1/GPa) = 0.01920806
#
# Stress axis : x y z
#
# Youngs Moduli (GPa) = 62.67596 83.81237 56.73146
#
# Poissons Ratio (x) = 0.32054 0.11791
# Poissons Ratio (y) = 0.23970 0.41129
# Poissons Ratio (z) = 0.13027 0.60762
#
# Static dielectric constant tensor:
#      x y z
#    x 3.458550 0.000000 0.000000 
#    y 0.000000 3.565500 0.000000 
#    z 0.000000 0.000000 3.502340 
# 
# 
# High freq. dielectric constant tensor:
#      x y z
#    x 1.749300 0.000000 0.000000 
#    y 0.000000 1.755140 0.000000 
#    z 0.000000 0.000000 1.740370 
# 
# From -- ./inp_files/2151.got.cif
#   From: 2010.03.12/outbox.cif.g09.slc.cpg/sg47_2_cif.got.tgz:2151.got - 2010.04.14 03:12:58.
