data_PCOD8197034
_publ_section_title
;
Structure prediction by ZEFSAII (Michael W. Deem and Ramdas Pophale) SiO2 
 PCOD8197034
Probable space group: P M M M
;
_chemical_formula_sum "Si O2"
_cell_formula_units_Z 52
_cell_length_a 23.503678
_cell_length_b 13.785165
_cell_length_c 9.146040
_cell_angle_alpha 90.000000
_cell_angle_beta 90.000000
_cell_angle_gamma 90.000000
_cell_volume 2963.335978
_symmetry_space_group_name_H-M "P M M M"
_symmetry_group_IT_number 47
_symmetry_cell_setting 'orthorhombic'
loop_
_space_group_symop_operation_xyz
x,y,z
-x,-y,z
x,-y,-z
-x,y,-z
-x,-y,-z
x,y,-z
-x,y,z
x,-y,z
loop_
_atom_site_type_symbol
_atom_site_label
_atom_site_fract_x
_atom_site_fract_y
_atom_site_fract_z
Si Si1 0.829025 0.884699 0.334910
Si Si2 0.610698 0.887085 0.169713
Si Si3 0.439937 0.615258 0.663670
Si Si4 0.500000 0.885441 0.668777
Si Si5 0.316890 0.611001 0.674141
Si Si6 0.937258 0.115293 0.164166
Si Si7 0.272790 0.214680 0.827296
O O1 0.821618 0.846286 0.500000
O O2 0.889044 0.844107 0.273044
O O3 0.778887 0.847311 0.233309
O O4 0.827939 0.000000 0.329874
O O5 0.557392 0.841177 0.258972
O O6 0.668871 0.837209 0.220187
O O7 0.617469 0.000000 0.206691
O O8 0.598138 0.869794 0.000000
O O9 0.440573 0.657272 0.500000
O O10 0.500000 0.650712 0.740710
O O11 0.439743 0.500000 0.656334
O O12 0.379658 0.644235 0.737291
O O13 0.500000 0.858596 0.500000
O O14 0.500000 0.000000 0.698450
O O15 0.314323 0.624896 0.500000
O O16 0.303325 0.500000 0.715917
O O17 0.271081 0.678507 0.754845
O O18 0.000000 0.151043 0.215887
O O19 0.935902 0.000000 0.164445
O O20 0.924952 0.153186 0.000000
O O21 0.266459 0.223178 0.000000
#
# Coordination Sequence:
#
# PCOD8197034 Si02
#       7
#     8   8   8   4   8   8   8
#     4  10  20  32  48  72 102 134 167 206 245 280
#     4   9  18  33  50  65  86 120 156 189 232 287
#     4   7  10  20  41  65  84 104 133 171 221 282
#     4   9  17  29  47  69  88 109 144 193 241 280
#     4   9  18  33  51  69  92 121 153 195 245 294
#     4   8  14  26  45  69  99 136 172 200 229 272
#     4  11  22  34  49  69  94 127 163 199 240 291
#
# _framework density 17.547791
#
# number of rings (size 3 to 8) (size 9 to 14) (size 15 to 20)
#    0.000    3.000    0.000    3.462    0.000    4.308 
#    1.385    3.077    0.000    0.000    0.000    2.154 
#    0.000    0.615    0.000    6.462    0.000    3.077 
#
# Total GULP energy -644342.519724 kJ/mol
# GULP energy per Si atom -12391.202302 kJ/mol
# Density = 1.750785 g / cm^3
# Si number density = 17.547791 Si / 1000 Ang^3
#
#
#
# Elastic Constant Matrix: (Units=GPa)
#
#
# Indices 1 2 3 4 5 6 
#
# 1 119.9201 30.0272 56.5821 0.0000 0.0000 0.0000
# 2 30.0272 27.6521 25.9264 0.0000 0.0000 0.0000
# 3 56.5821 25.9264 75.4318 0.0000 0.0000 0.0000
# 4 0.0000 0.0000 0.0000 17.1852 0.0000 0.0000
# 5 0.0000 0.0000 0.0000 0.0000 26.1746 0.0000
# 6 0.0000 0.0000 0.0000 0.0000 0.0000 10.1505
#
#
#
# Elastic Compliance Matrix: (Units=1/GPa)
#
#
# Indices 1 2 3 4 5 6 
#
# 1 0.013985 -0.007895 -0.007777 0.000000 0.000000 0.000000
# 2 -0.007895 0.057816 -0.013950 0.000000 0.000000 0.000000
# 3 -0.007777 -0.013950 0.023885 0.000000 0.000000 0.000000
# 4 0.000000 0.000000 0.000000 0.058190 0.000000 0.000000
# 5 0.000000 0.000000 0.000000 0.000000 0.038205 0.000000
# 6 0.000000 0.000000 0.000000 0.000000 0.000000 0.098517
#
#
# Mechanical properties :
#
#
# Convention : Reuss Voigt Hill
#
# Bulk Modulus (GPa) = 27.43999 49.78616 38.61307
# Shear Modulus (GPa) = 13.81263 18.06662 15.93962
#
# Velocity S-wave (km/s) = 2.80865 3.21217 3.01716
# Velocity P-wave (km/s) = 5.11755 6.49544 5.84722
#
# Compressibility (1/GPa) = 0.03644316
#
# Stress axis : x y z
#
# Youngs Moduli (GPa) = 71.50510 17.29639 41.86713
#
# Poissons Ratio (x) = 0.13655 0.32559
# Poissons Ratio (y) = 0.56451 0.58403
# Poissons Ratio (z) = 0.55608 0.24128
#
# Static dielectric constant tensor:
#      x y z
#    x 3.512350 0.000000 0.000000 
#    y 0.000000 2.971460 0.000000 
#    z 0.000000 0.000000 3.145130 
# 
# 
# High freq. dielectric constant tensor:
#      x y z
#    x 1.674220 0.000000 0.000000 
#    y 0.000000 1.646890 0.000000 
#    z 0.000000 0.000000 1.663450 
# 
# From -- ./inp_files/10951.got.cif
#   From: 2010.03.12/outbox.cif.g09.slc.cpg/sg47_6_cif.got.tgz:10951.got - 2010.04.14 03:12:58.
