data_PCOD8197552
_publ_section_title
;
Structure prediction by ZEFSAII (Michael W. Deem and Ramdas Pophale) SiO2 
 PCOD8197552
Probable space group: P M M M
;
_chemical_formula_sum "Si O2"
_cell_formula_units_Z 44
_cell_length_a 7.733830
_cell_length_b 29.738900
_cell_length_c 9.054446
_cell_angle_alpha 90.000000
_cell_angle_beta 90.000000
_cell_angle_gamma 90.000000
_cell_volume 2082.482713
_symmetry_space_group_name_H-M "P M M M"
_symmetry_group_IT_number 47
_symmetry_cell_setting 'orthorhombic'
loop_
_space_group_symop_operation_xyz
x,y,z
-x,-y,z
x,-y,-z
-x,y,-z
-x,-y,-z
x,y,-z
-x,y,z
x,-y,z
loop_
_atom_site_type_symbol
_atom_site_label
_atom_site_fract_x
_atom_site_fract_y
_atom_site_fract_z
Si Si1 0.705937 0.635174 0.665236
Si Si2 0.802868 0.188261 0.667260
Si Si3 0.294392 0.450572 0.834036
Si Si4 0.694446 0.896891 0.829547
Si Si5 0.704560 0.276364 0.169114
Si Si6 0.000000 0.946933 0.330059
O O1 0.778063 0.641205 0.500000
O O2 0.500000 0.633648 0.665309
O O3 0.782243 0.588605 0.730493
O O4 0.771047 0.676551 0.764548
O O5 0.731206 0.190509 0.500000
O O6 0.692620 0.153042 0.761605
O O7 0.793279 0.237078 0.739080
O O8 0.000000 0.171320 0.668267
O O9 0.500000 0.448169 0.833854
O O10 0.234331 0.500000 0.776953
O O11 0.225820 0.442835 0.000000
O O12 0.500000 0.916483 0.814053
O O13 0.826090 0.929126 0.745268
O O14 0.750400 0.893732 0.000000
O O15 0.500000 0.271676 0.183980
O O16 0.764971 0.273600 0.000000
O O17 0.000000 0.931340 0.500000
O O18 0.000000 0.000000 0.313917
#
# Coordination Sequence:
#
# PCOD8197552 Si02
#       6
#     8   8   8   8   8   4
#     4   9  16  25  38  58  87 123 164 214 271 331
#     4  11  23  38  58  85 117 153 194 242 298 357
#     4   8  13  21  33  50  76 114 159 206 260 325
#     4  11  24  42  67  98 131 170 215 262 314 372
#     4  10  20  33  50  73 102 139 183 228 279 342
#     4  11  25  45  69  99 135 175 219 267 318 369
#
# _framework density 21.128626000000001
#
# number of rings (size 3 to 8) (size 9 to 14) (size 15 to 20)
#    0.000    2.091    0.909    3.545    0.000    9.455 
#    0.000    3.636    0.000    0.000    0.000    0.000 
#    0.000    0.727    0.000    7.636    0.000   10.545 
#
# Total GULP energy -545630.916653 kJ/mol
# GULP energy per Si atom -12400.702651 kJ/mol
# Density = 2.108054 g / cm^3
# Si number density = 21.128626 Si / 1000 Ang^3
#
#
#
# Elastic Constant Matrix: (Units=GPa)
#
#
# Indices 1 2 3 4 5 6 
#
# 1 62.6419 30.5519 40.5074 0.0000 0.0000 0.0000
# 2 30.5519 126.2042 77.4816 0.0000 0.0000 0.0000
# 3 40.5074 77.4816 184.9320 0.0000 0.0000 0.0000
# 4 0.0000 0.0000 0.0000 43.4921 0.0000 0.0000
# 5 0.0000 0.0000 0.0000 0.0000 18.1032 0.0000
# 6 0.0000 0.0000 0.0000 0.0000 0.0000 5.0230
#
#
#
# Elastic Compliance Matrix: (Units=1/GPa)
#
#
# Indices 1 2 3 4 5 6 
#
# 1 0.019304 -0.002797 -0.003057 0.000000 0.000000 0.000000
# 2 -0.002797 0.011073 -0.004027 0.000000 0.000000 0.000000
# 3 -0.003057 -0.004027 0.007764 0.000000 0.000000 0.000000
# 4 0.000000 0.000000 0.000000 0.022993 0.000000 0.000000
# 5 0.000000 0.000000 0.000000 0.000000 0.055239 0.000000
# 6 0.000000 0.000000 0.000000 0.000000 0.000000 0.199083
#
#
# Mechanical properties :
#
#
# Convention : Reuss Voigt Hill
#
# Bulk Modulus (GPa) = 54.40345 74.53999 64.47172
# Shear Modulus (GPa) = 14.64804 28.33950 21.49377
#
# Velocity S-wave (km/s) = 2.63588 3.66633 3.19295
# Velocity P-wave (km/s) = 5.92186 7.29920 6.64630
#
# Compressibility (1/GPa) = 0.01838119
#
# Stress axis : x y z
#
# Youngs Moduli (GPa) = 51.80184 90.31154 128.79999
#
# Poissons Ratio (x) = 0.25257 0.39370
# Poissons Ratio (y) = 0.14487 0.51863
# Poissons Ratio (z) = 0.15834 0.36365
#
# Static dielectric constant tensor:
#      x y z
#    x 3.445640 0.000000 0.000000 
#    y 0.000000 3.901100 0.000000 
#    z 0.000000 0.000000 4.012700 
# 
# 
# High freq. dielectric constant tensor:
#      x y z
#    x 1.800700 0.000000 0.000000 
#    y 0.000000 1.834400 0.000000 
#    z 0.000000 0.000000 1.836960 
# 
# From -- ./inp_files/2149.got.cif
#   From: 2010.03.12/outbox.cif.g09.slc.cpg/sg47_2_cif.got.tgz:2149.got - 2010.04.14 03:12:58.
