data_PCOD8197772
_publ_section_title
;
Structure prediction by ZEFSAII (Michael W. Deem and Ramdas Pophale) SiO2 
 PCOD8197772
Probable space group: P M M M
;
_chemical_formula_sum "Si O2"
_cell_formula_units_Z 64
_cell_length_a 8.915538
_cell_length_b 20.551223
_cell_length_c 19.379271
_cell_angle_alpha 90.000000
_cell_angle_beta 90.000000
_cell_angle_gamma 90.000000
_cell_volume 3550.770991
_symmetry_space_group_name_H-M "P M M M"
_symmetry_group_IT_number 47
_symmetry_cell_setting 'orthorhombic'
loop_
_space_group_symop_operation_xyz
x,y,z
-x,-y,z
x,-y,-z
-x,y,-z
-x,-y,-z
x,y,-z
-x,y,z
x,-y,z
loop_
_atom_site_type_symbol
_atom_site_label
_atom_site_fract_x
_atom_site_fract_y
_atom_site_fract_z
Si Si1 0.675589 0.194431 0.711330
Si Si2 0.675634 0.271076 0.078072
Si Si3 0.671288 0.426166 0.291655
Si Si4 0.828123 0.383261 0.421973
Si Si5 0.827669 0.134807 0.077838
Si Si6 0.327649 0.072514 0.801512
Si Si7 0.827471 0.769017 0.577698
Si Si8 0.177112 0.685837 0.790650
O O1 0.500000 0.208348 0.715448
O O2 0.719696 0.124985 0.744005
O O3 0.726608 0.191454 0.631716
O O4 0.758807 0.251546 0.751764
O O5 0.500000 0.275647 0.092826
O O6 0.726324 0.197604 0.091658
O O7 0.762084 0.317879 0.130994
O O8 0.715047 0.292798 0.000000
O O9 0.500000 0.402476 0.285343
O O10 0.688565 0.500000 0.265333
O O11 0.720687 0.423030 0.371457
O O12 0.776663 0.380678 0.246079
O O13 0.781816 0.400670 0.500000
O O14 0.807010 0.307089 0.407695
O O15 0.000000 0.403287 0.408490
O O16 0.773499 0.079432 0.130100
O O17 0.000000 0.153577 0.091946
O O18 0.806321 0.108766 0.000000
O O19 0.500000 0.082575 0.823068
O O20 0.300760 0.000000 0.771504
O O21 0.774571 0.786107 0.500000
O O22 0.000000 0.788970 0.587702
O O23 0.000000 0.691330 0.790654
#
# Coordination Sequence:
#
# PCOD8197772 Si02
#       8
#     8   8   8   8   8   8   8   8
#     4  11  21  34  56  83 109 140 184 232 275 325
#     4  10  20  35  57  84 113 144 180 224 273 325
#     4  11  24  39  55  79 112 148 187 230 274 322
#     4   9  18  33  53  78 110 148 185 221 268 327
#     4  10  20  33  51  78 111 146 184 226 272 323
#     4  10  22  38  54  75 108 150 189 228 277 331
#     4   9  18  33  54  81 111 141 176 222 276 330
#     4  12  23  36  58  84 112 145 183 227 274 326
#
# _framework density 18.024256000000001
#
# number of rings (size 3 to 8) (size 9 to 14) (size 15 to 20)
#    0.000    1.750    2.500    3.375    0.000    4.250 
#    0.000    3.750    0.000    0.750    0.000    5.250 
#    0.000    0.000    0.000    0.000    0.000    0.000 
#
# Total GULP energy -793745.113696 kJ/mol
# GULP energy per Si atom -12402.267402 kJ/mol
# Density = 1.798323 g / cm^3
# Si number density = 18.024256 Si / 1000 Ang^3
#
#
#
# Elastic Constant Matrix: (Units=GPa)
#
#
# Indices 1 2 3 4 5 6 
#
# 1 100.8538 44.2613 57.6324 0.0000 0.0000 0.0000
# 2 44.2613 85.3510 51.7412 0.0000 0.0000 0.0000
# 3 57.6324 51.7412 117.1258 0.0000 0.0000 0.0000
# 4 0.0000 0.0000 0.0000 23.1520 0.0000 0.0000
# 5 0.0000 0.0000 0.0000 0.0000 35.8398 0.0000
# 6 0.0000 0.0000 0.0000 0.0000 0.0000 10.5893
#
#
#
# Elastic Compliance Matrix: (Units=1/GPa)
#
#
# Indices 1 2 3 4 5 6 
#
# 1 0.014961 -0.004501 -0.005373 0.000000 0.000000 0.000000
# 2 -0.004501 0.017356 -0.005452 0.000000 0.000000 0.000000
# 3 -0.005373 -0.005452 0.013590 0.000000 0.000000 0.000000
# 4 0.000000 0.000000 0.000000 0.043193 0.000000 0.000000
# 5 0.000000 0.000000 0.000000 0.000000 0.027902 0.000000
# 6 0.000000 0.000000 0.000000 0.000000 0.000000 0.094435
#
#
# Mechanical properties :
#
#
# Convention : Reuss Voigt Hill
#
# Bulk Modulus (GPa) = 65.55689 67.84450 66.70069
# Shear Modulus (GPa) = 20.22854 23.89592 22.06223
#
# Velocity S-wave (km/s) = 3.35370 3.64506 3.50241
# Velocity P-wave (km/s) = 7.17265 7.44564 7.31042
#
# Compressibility (1/GPa) = 0.01525393
#
# Stress axis : x y z
#
# Youngs Moduli (GPa) = 66.83879 57.61767 73.58150
#
# Poissons Ratio (x) = 0.25935 0.39538
# Poissons Ratio (y) = 0.30086 0.40118
# Poissons Ratio (z) = 0.35915 0.31414
#
# Static dielectric constant tensor:
#      x y z
#    x 3.371350 0.000000 0.000000 
#    y 0.000000 3.098140 0.000000 
#    z 0.000000 0.000000 3.550780 
# 
# 
# High freq. dielectric constant tensor:
#      x y z
#    x 1.706440 0.000000 0.000000 
#    y 0.000000 1.668520 0.000000 
#    z 0.000000 0.000000 1.702910 
# 
# From -- ./inp_files/30008.got.cif
#   From: 2010.03.12/outbox.cif.g09.slc.cpg/sg47_16_cif.got.tgz:30008.got - 2010.04.14 03:12:58.
