data_PCOD8197890
_publ_section_title
;
Structure prediction by ZEFSAII (Michael W. Deem and Ramdas Pophale) SiO2 
 PCOD8197890
Probable space group: P M M M
;
_chemical_formula_sum "Si O2"
_cell_formula_units_Z 48
_cell_length_a 13.690006
_cell_length_b 18.433679
_cell_length_c 8.909584
_cell_angle_alpha 90.000000
_cell_angle_beta 90.000000
_cell_angle_gamma 90.000000
_cell_volume 2248.397459
_symmetry_space_group_name_H-M "P M M M"
_symmetry_group_IT_number 47
_symmetry_cell_setting 'orthorhombic'
loop_
_space_group_symop_operation_xyz
x,y,z
-x,-y,z
x,-y,-z
-x,y,-z
-x,-y,-z
x,y,-z
-x,y,z
x,-y,z
loop_
_atom_site_type_symbol
_atom_site_label
_atom_site_fract_x
_atom_site_fract_y
_atom_site_fract_z
Si Si1 0.389424 0.290845 0.677337
Si Si2 0.214063 0.644927 0.822265
Si Si3 0.382911 0.000000 0.328624
Si Si4 0.116153 0.920796 0.169981
Si Si5 0.616076 0.855997 0.170233
Si Si6 0.116113 0.778922 0.330946
Si Si7 0.109351 0.500000 0.178371
O O1 0.382111 0.292358 0.500000
O O2 0.500000 0.304392 0.732167
O O3 0.321851 0.352770 0.749240
O O4 0.348465 0.213568 0.735379
O O5 0.149076 0.712460 0.771264
O O6 0.164506 0.571351 0.762892
O O7 0.223905 0.645732 0.000000
O O8 0.340221 0.070903 0.243964
O O9 0.500000 0.000000 0.322012
O O10 0.346832 0.000000 0.500000
O O11 0.160373 0.854740 0.267457
O O12 0.000000 0.917253 0.174297
O O13 0.150159 0.000000 0.232998
O O14 0.153239 0.911170 0.000000
O O15 0.500000 0.860199 0.175899
O O16 0.653901 0.848994 0.000000
O O17 0.155486 0.767953 0.500000
O O18 0.000000 0.782087 0.327769
O O19 0.000000 0.500000 0.245034
O O20 0.105388 0.500000 0.000000
#
# Coordination Sequence:
#
# PCOD8197890 Si02
#       7
#     8   8   4   8   8   8   4
#     4  10  21  38  59  83 115 155 197 243 297 356
#     4  11  22  38  63  90 118 153 195 243 294 350
#     4   9  15  23  39  67 103 143 188 239 298 357
#     4   8  14  26  46  73 106 147 195 242 288 341
#     4   9  16  27  46  73 104 141 190 245 296 348
#     4  10  20  33  52  82 119 156 194 237 289 353
#     4   9  20  40  66  97 128 156 189 233 288 349
#
# _framework density 21.348537
#
# number of rings (size 3 to 8) (size 9 to 14) (size 15 to 20)
#    0.000    2.500    0.000    3.250    0.000    6.000 
#    0.000    3.750    1.833    5.500    0.000    0.000 
#    0.000    0.000    0.000    0.000    0.000    0.000 
#
# Total GULP energy -595253.561136 kJ/mol
# GULP energy per Si atom -12401.115857 kJ/mol
# Density = 2.129995 g / cm^3
# Si number density = 21.348537 Si / 1000 Ang^3
#
#
#
# Elastic Constant Matrix: (Units=GPa)
#
#
# Indices 1 2 3 4 5 6 
#
# 1 66.0081 67.1792 23.8131 0.0000 0.0000 0.0000
# 2 67.1792 173.8690 55.7257 0.0000 0.0000 0.0000
# 3 23.8131 55.7257 107.0126 0.0000 0.0000 0.0000
# 4 0.0000 0.0000 0.0000 16.3447 0.0000 0.0000
# 5 0.0000 0.0000 0.0000 0.0000 21.7906 0.0000
# 6 0.0000 0.0000 0.0000 0.0000 0.0000 37.2913
#
#
#
# Elastic Compliance Matrix: (Units=1/GPa)
#
#
# Indices 1 2 3 4 5 6 
#
# 1 0.025004 -0.009456 -0.000640 0.000000 0.000000 0.000000
# 2 -0.009456 0.010480 -0.003353 0.000000 0.000000 0.000000
# 3 -0.000640 -0.003353 0.011233 0.000000 0.000000 0.000000
# 4 0.000000 0.000000 0.000000 0.061182 0.000000 0.000000
# 5 0.000000 0.000000 0.000000 0.000000 0.045891 0.000000
# 6 0.000000 0.000000 0.000000 0.000000 0.000000 0.026816
#
#
# Mechanical properties :
#
#
# Convention : Reuss Voigt Hill
#
# Bulk Modulus (GPa) = 50.45617 71.14729 60.80173
# Shear Modulus (GPa) = 23.35240 28.43010 25.89125
#
# Velocity S-wave (km/s) = 3.31095 3.65322 3.48629
# Velocity P-wave (km/s) = 6.18889 7.15497 6.68939
#
# Compressibility (1/GPa) = 0.01981918
#
# Stress axis : x y z
#
# Youngs Moduli (GPa) = 39.99306 95.42261 89.02231
#
# Poissons Ratio (x) = 0.90232 0.05698
# Poissons Ratio (y) = 0.37817 0.29849
# Poissons Ratio (z) = 0.02560 0.31995
#
# Static dielectric constant tensor:
#      x y z
#    x 3.835780 0.000000 0.000000 
#    y 0.000000 3.962610 0.000000 
#    z 0.000000 0.000000 3.813150 
# 
# 
# High freq. dielectric constant tensor:
#      x y z
#    x 1.846820 0.000000 0.000000 
#    y 0.000000 1.827370 0.000000 
#    z 0.000000 0.000000 1.829900 
# 
# From -- ./inp_files/6449.got.cif
#   From: 2010.03.12/outbox.cif.g09.slc.cpg/sg47_4_cif.got.tgz:6449.got - 2010.04.14 03:12:58.
