data_PCOD8197858
_publ_section_title
;
Structure prediction by ZEFSAII (Michael W. Deem and Ramdas Pophale) SiO2 
 PCOD8197858
Probable space group: P M M M
;
_chemical_formula_sum "Si O2"
_cell_formula_units_Z 52
_cell_length_a 8.815452
_cell_length_b 14.412557
_cell_length_c 20.555216
_cell_angle_alpha 90.000000
_cell_angle_beta 90.000000
_cell_angle_gamma 90.000000
_cell_volume 2611.606061
_symmetry_space_group_name_H-M "P M M M"
_symmetry_group_IT_number 47
_symmetry_cell_setting 'orthorhombic'
loop_
_space_group_symop_operation_xyz
x,y,z
-x,-y,z
x,-y,-z
-x,y,-z
-x,-y,-z
x,y,-z
-x,y,z
x,-y,z
loop_
_atom_site_type_symbol
_atom_site_label
_atom_site_fract_x
_atom_site_fract_y
_atom_site_fract_z
Si Si1 0.174754 0.702013 0.428280
Si Si2 0.672828 0.103541 0.251140
Si Si3 0.665393 0.000000 0.922967
Si Si4 0.321906 0.606224 0.305923
Si Si5 0.176758 0.724440 0.193382
Si Si6 0.829073 0.100274 0.384309
Si Si7 0.319034 0.202637 0.926453
O O1 0.220203 0.663685 0.500000
O O2 0.274905 0.656418 0.372456
O O3 0.201128 0.813197 0.431591
O O4 0.000000 0.678467 0.413078
O O5 0.500000 0.137962 0.240911
O O6 0.789792 0.172278 0.217772
O O7 0.706364 0.103481 0.327367
O O8 0.695433 0.000000 0.221494
O O9 0.743335 0.900833 0.904533
O O10 0.500000 0.000000 0.889605
O O11 0.645474 0.000000 0.000000
O O12 0.500000 0.616750 0.297957
O O13 0.270076 0.500000 0.310511
O O14 0.246638 0.649594 0.242155
O O15 0.248478 0.718843 0.120833
O O16 0.000000 0.705167 0.189203
O O17 0.000000 0.108630 0.355224
O O18 0.812165 0.000000 0.420722
O O19 0.500000 0.203550 0.920985
O O20 0.267563 0.225836 0.000000
#
# Coordination Sequence:
#
# PCOD8197858 Si02
#       7
#     8   8   4   8   8   8   8
#     4  10  21  37  59  89 123 158 193 232 287 351
#     4  10  20  33  52  79 113 154 199 244 286 333
#     4   7  12  26  49  77 111 155 202 239 272 315
#     4  11  25  45  67  88 110 142 192 249 302 357
#     4  12  24  37  58  87 120 155 192 238 297 357
#     4   9  17  31  52  80 117 158 197 235 277 330
#     4   9  18  34  56  83 118 160 204 243 280 330
#
# _framework density 19.91112
#
# number of rings (size 3 to 8) (size 9 to 14) (size 15 to 20)
#    0.000    2.077    1.538    3.231    1.077    3.385 
#    0.000    3.077    0.000    1.846    0.000    6.462 
#    0.000    0.000    0.000    0.000    0.000    0.000 
#
# Total GULP energy -644371.186925 kJ/mol
# GULP energy per Si atom -12391.753595 kJ/mol
# Density = 1.986580 g / cm^3
# Si number density = 19.911120 Si / 1000 Ang^3
#
#
#
# Elastic Constant Matrix: (Units=GPa)
#
#
# Indices 1 2 3 4 5 6 
#
# 1 70.1311 40.0570 39.3018 0.0000 0.0000 0.0000
# 2 40.0570 103.7164 57.3022 0.0000 0.0000 0.0000
# 3 39.3018 57.3022 114.1631 0.0000 0.0000 0.0000
# 4 0.0000 0.0000 0.0000 11.8240 0.0000 0.0000
# 5 0.0000 0.0000 0.0000 0.0000 27.6433 0.0000
# 6 0.0000 0.0000 0.0000 0.0000 0.0000 21.5428
#
#
#
# Elastic Compliance Matrix: (Units=1/GPa)
#
#
# Indices 1 2 3 4 5 6 
#
# 1 0.019574 -0.005309 -0.004074 0.000000 0.000000 0.000000
# 2 -0.005309 0.014781 -0.005592 0.000000 0.000000 0.000000
# 3 -0.004074 -0.005592 0.012968 0.000000 0.000000 0.000000
# 4 0.000000 0.000000 0.000000 0.084573 0.000000 0.000000
# 5 0.000000 0.000000 0.000000 0.000000 0.036175 0.000000
# 6 0.000000 0.000000 0.000000 0.000000 0.000000 0.046419
#
#
# Mechanical properties :
#
#
# Convention : Reuss Voigt Hill
#
# Bulk Modulus (GPa) = 57.55344 62.37028 59.96186
# Shear Modulus (GPa) = 19.98136 22.29201 21.13668
#
# Velocity S-wave (km/s) = 3.17129 3.34964 3.26168
# Velocity P-wave (km/s) = 6.50979 6.80826 6.66070
#
# Compressibility (1/GPa) = 0.01737516
#
# Stress axis : x y z
#
# Youngs Moduli (GPa) = 51.08691 67.65229 77.11035
#
# Poissons Ratio (x) = 0.35918 0.31413
# Poissons Ratio (y) = 0.27123 0.43117
# Poissons Ratio (z) = 0.20812 0.37828
#
# Static dielectric constant tensor:
#      x y z
#    x 3.468600 0.000000 0.000000 
#    y 0.000000 3.675480 0.000000 
#    z 0.000000 0.000000 3.691060 
# 
# 
# High freq. dielectric constant tensor:
#      x y z
#    x 1.758320 0.000000 0.000000 
#    y 0.000000 1.756780 0.000000 
#    z 0.000000 0.000000 1.781590 
# 
# From -- ./inp_files/29547.got.cif
#   From: 2010.03.12/outbox.cif.g09.slc.cpg/sg47_15_cif.got.tgz:29547.got - 2010.04.14 03:12:58.
