data_PCOD8197052
_publ_section_title
;
Structure prediction by ZEFSAII (Michael W. Deem and Ramdas Pophale) SiO2 
 PCOD8197052
Probable space group: P M M M
;
_chemical_formula_sum "Si O2"
_cell_formula_units_Z 44
_cell_length_a 31.797691
_cell_length_b 7.829147
_cell_length_c 9.380774
_cell_angle_alpha 90.000000
_cell_angle_beta 90.000000
_cell_angle_gamma 90.000000
_cell_volume 2335.332403
_symmetry_space_group_name_H-M "P M M M"
_symmetry_group_IT_number 47
_symmetry_cell_setting 'orthorhombic'
loop_
_space_group_symop_operation_xyz
x,y,z
-x,-y,z
x,-y,-z
-x,y,-z
-x,-y,-z
x,y,-z
-x,y,z
x,-y,z
loop_
_atom_site_type_symbol
_atom_site_label
_atom_site_fract_x
_atom_site_fract_y
_atom_site_fract_z
Si Si1 0.164604 0.303824 0.846239
Si Si2 0.000000 0.299404 0.661865
Si Si3 0.407971 0.000000 0.830045
Si Si4 0.088509 0.803403 0.339875
Si Si5 0.688546 0.000000 0.830996
Si Si6 0.549468 0.694846 0.663586
Si Si7 0.255740 0.691742 0.170056
O O1 0.173053 0.500000 0.874905
O O2 0.125523 0.287980 0.742272
O O3 0.209211 0.238145 0.782507
O O4 0.154422 0.215553 0.000000
O O5 0.957108 0.229388 0.734555
O O6 0.000000 0.500000 0.672905
O O7 0.000000 0.230555 0.500000
O O8 0.428075 0.827735 0.767810
O O9 0.359545 0.000000 0.782969
O O10 0.413945 0.000000 0.000000
O O11 0.087364 0.727408 0.500000
O O12 0.099526 0.000000 0.340307
O O13 0.710518 0.827896 0.769440
O O14 0.692767 0.000000 0.000000
O O15 0.561888 0.734347 0.500000
O O16 0.500000 0.717706 0.684038
O O17 0.562617 0.500000 0.703119
O O18 0.265564 0.500000 0.230073
O O19 0.257047 0.686409 0.000000
#
# Coordination Sequence:
#
# PCOD8197052 Si02
#       7
#     8   4   4   8   4   8   8
#     4   9  18  32  51  75  97 120 158 205 248 288
#     4   9  17  31  50  67  88 125 164 192 226 281
#     4  11  22  32  49  84 120 144 173 225 288 336
#     4  10  20  32  48  72  99 125 155 192 236 290
#     4   9  18  30  46  71 104 141 173 202 255 320
#     4   9  19  37  59  79 103 145 197 235 265 316
#     4   8  15  29  48  69  95 129 170 211 247 296
#
# _framework density 18.841000000000001
#
# number of rings (size 3 to 8) (size 9 to 14) (size 15 to 20)
#    0.000    2.818    0.000    3.000    1.273    5.091 
#    0.000    3.182    0.000    4.909    0.000    0.000 
#    0.000    0.000    0.000    0.000    0.000    0.000 
#
# Total GULP energy -545202.381354 kJ/mol
# GULP energy per Si atom -12390.963213 kJ/mol
# Density = 1.879812 g / cm^3
# Si number density = 18.841000 Si / 1000 Ang^3
#
#
#
# Elastic Constant Matrix: (Units=GPa)
#
#
# Indices 1 2 3 4 5 6 
#
# 1 136.8727 62.5401 46.3528 0.0000 0.0000 0.0000
# 2 62.5401 101.8249 32.9064 0.0000 0.0000 0.0000
# 3 46.3528 32.9064 54.2189 0.0000 0.0000 0.0000
# 4 0.0000 0.0000 0.0000 20.5621 0.0000 0.0000
# 5 0.0000 0.0000 0.0000 0.0000 170.7662 0.0000
# 6 0.0000 0.0000 0.0000 0.0000 0.0000 24.9604
#
#
#
# Elastic Compliance Matrix: (Units=1/GPa)
#
#
# Indices 1 2 3 4 5 6 
#
# 1 0.012080 -0.005078 -0.007246 0.000000 0.000000 0.000000
# 2 -0.005078 0.014351 -0.004369 0.000000 0.000000 0.000000
# 3 -0.007246 -0.004369 0.027290 0.000000 0.000000 0.000000
# 4 0.000000 0.000000 0.000000 0.048633 0.000000 0.000000
# 5 0.000000 0.000000 0.000000 0.000000 0.005856 0.000000
# 6 0.000000 0.000000 0.000000 0.000000 0.000000 0.040064
#
#
# Mechanical properties :
#
#
# Convention : Reuss Voigt Hill
#
# Bulk Modulus (GPa) = 49.17305 64.05722 56.61514
# Shear Modulus (GPa) = 26.53399 53.33223 39.93311
#
# Velocity S-wave (km/s) = 3.75682 5.32615 4.60877
# Velocity P-wave (km/s) = 6.70626 8.47918 7.64429
#
# Compressibility (1/GPa) = 0.02033634
#
# Stress axis : x y z
#
# Youngs Moduli (GPa) = 82.78117 69.67915 36.64388
#
# Poissons Ratio (x) = 0.35383 0.26551
# Poissons Ratio (y) = 0.42036 0.16009
# Poissons Ratio (z) = 0.59980 0.30442
#
# Static dielectric constant tensor:
#      x y z
#    x 3.621900 0.000000 0.000000 
#    y 0.000000 3.555580 0.000000 
#    z 0.000000 0.000000 3.062930 
# 
# 
# High freq. dielectric constant tensor:
#      x y z
#    x 1.739690 0.000000 0.000000 
#    y 0.000000 1.741090 0.000000 
#    z 0.000000 0.000000 1.678470 
# 
# From -- ./inp_files/13716.got.cif
#   From: 2010.03.12/outbox.cif.g09.slc.cpg/sg47_7_cif.got.tgz:13716.got - 2010.04.14 03:12:58.
