data_PCOD8197720
_publ_section_title
;
Structure prediction by ZEFSAII (Michael W. Deem and Ramdas Pophale) SiO2 
 PCOD8197720
Probable space group: P M M M
;
_chemical_formula_sum "Si O2"
_cell_formula_units_Z 36
_cell_length_a 9.339738
_cell_length_b 9.207562
_cell_length_c 23.031480
_cell_angle_alpha 90.000000
_cell_angle_beta 90.000000
_cell_angle_gamma 90.000000
_cell_volume 1980.620145
_symmetry_space_group_name_H-M "P M M M"
_symmetry_group_IT_number 47
_symmetry_cell_setting 'orthorhombic'
loop_
_space_group_symop_operation_xyz
x,y,z
-x,-y,z
x,-y,-z
-x,y,-z
-x,-y,-z
x,y,-z
-x,y,z
x,-y,z
loop_
_atom_site_type_symbol
_atom_site_label
_atom_site_fract_x
_atom_site_fract_y
_atom_site_fract_z
Si Si1 0.834165 0.834532 0.066960
Si Si2 0.666353 0.330128 0.611592
Si Si3 0.161801 0.327348 0.500000
Si Si4 0.329724 0.163945 0.274847
Si Si5 0.331768 0.332486 0.837546
O O1 0.741205 0.724837 0.104410
O O2 0.000000 0.809421 0.081097
O O3 0.790524 0.000000 0.081465
O O4 0.802171 0.799995 0.000000
O O5 0.500000 0.297217 0.599471
O O6 0.691520 0.500000 0.622552
O O7 0.755790 0.270773 0.556908
O O8 0.725201 0.245822 0.667778
O O9 0.163325 0.500000 0.500000
O O10 0.000000 0.266655 0.500000
O O11 0.500000 0.166993 0.274145
O O12 0.270691 0.245704 0.217996
O O13 0.270351 0.000000 0.274854
O O14 0.500000 0.308447 0.844404
O O15 0.292827 0.500000 0.828567
#
# Coordination Sequence:
#
# PCOD8197720 Si02
#       5
#     8   8   4   8   8
#     4   9  19  36  55  74  99 133 171 208 247 294
#     4   9  16  28  48  71  93 120 157 197 235 280
#     4   9  17  29  46  69  96 124 154 191 236 284
#     4   9  17  30  49  72  97 126 161 201 244 289
#     4  10  20  33  51  77 106 133 164 205 251 297
#
# _framework density 18.176126
#
# number of rings (size 3 to 8) (size 9 to 14) (size 15 to 20)
#    0.000    2.778    0.000    2.333    0.000    6.667 
#    0.000    5.000    0.000    8.000    0.000    0.000 
#    0.000    0.000    0.000    0.000    0.000    0.000 
#
# Total GULP energy -446433.493355 kJ/mol
# GULP energy per Si atom -12400.930371 kJ/mol
# Density = 1.813476 g / cm^3
# Si number density = 18.176126 Si / 1000 Ang^3
#
#
#
# Elastic Constant Matrix: (Units=GPa)
#
#
# Indices 1 2 3 4 5 6 
#
# 1 51.8267 42.6778 53.2660 0.0000 0.0000 0.0000
# 2 42.6778 106.2919 78.6234 0.0000 0.0000 0.0000
# 3 53.2660 78.6234 151.0771 0.0000 0.0000 0.0000
# 4 0.0000 0.0000 0.0000 28.0305 0.0000 0.0000
# 5 0.0000 0.0000 0.0000 0.0000 4.4994 0.0000
# 6 0.0000 0.0000 0.0000 0.0000 0.0000 19.7338
#
#
#
# Elastic Compliance Matrix: (Units=1/GPa)
#
#
# Indices 1 2 3 4 5 6 
#
# 1 0.033756 -0.007723 -0.007882 0.000000 0.000000 0.000000
# 2 -0.007723 0.017063 -0.006157 0.000000 0.000000 0.000000
# 3 -0.007882 -0.006157 0.012603 0.000000 0.000000 0.000000
# 4 0.000000 0.000000 0.000000 0.035675 0.000000 0.000000
# 5 0.000000 0.000000 0.000000 0.000000 0.222251 0.000000
# 6 0.000000 0.000000 0.000000 0.000000 0.000000 0.050675
#
#
# Mechanical properties :
#
#
# Convention : Reuss Voigt Hill
#
# Bulk Modulus (GPa) = 50.25908 73.14777 61.70343
# Shear Modulus (GPa) = 11.84330 19.42796 15.63563
#
# Velocity S-wave (km/s) = 2.55539 3.27291 2.93615
# Velocity P-wave (km/s) = 6.03472 7.39012 6.74654
#
# Compressibility (1/GPa) = 0.01989690
#
# Stress axis : x y z
#
# Youngs Moduli (GPa) = 29.62441 58.60504 79.34911
#
# Poissons Ratio (x) = 0.45261 0.62545
# Poissons Ratio (y) = 0.22879 0.48856
# Poissons Ratio (z) = 0.23351 0.36084
#
# Static dielectric constant tensor:
#      x y z
#    x 3.071050 0.000000 0.000000 
#    y 0.000000 3.295500 0.000000 
#    z 0.000000 0.000000 3.488980 
# 
# 
# High freq. dielectric constant tensor:
#      x y z
#    x 1.672710 0.000000 0.000000 
#    y 0.000000 1.695650 0.000000 
#    z 0.000000 0.000000 1.718550 
# 
# From -- ./inp_files/1444.got.cif
#   From: 2010.03.12/outbox.cif.g09.slc.cpg/sg47_1_cif.got.tgz:1444.got - 2010.04.14 03:12:58.
