data_PCOD8197244
_publ_section_title
;
Structure prediction by ZEFSAII (Michael W. Deem and Ramdas Pophale) SiO2 
 PCOD8197244
Probable space group: P M M M
;
_chemical_formula_sum "Si O2"
_cell_formula_units_Z 64
_cell_length_a 8.949845
_cell_length_b 14.961342
_cell_length_c 24.297422
_cell_angle_alpha 90.000000
_cell_angle_beta 90.000000
_cell_angle_gamma 90.000000
_cell_volume 3253.465914
_symmetry_space_group_name_H-M "P M M M"
_symmetry_group_IT_number 47
_symmetry_cell_setting 'orthorhombic'
loop_
_space_group_symop_operation_xyz
x,y,z
-x,-y,z
x,-y,-z
-x,y,-z
-x,-y,-z
x,y,-z
-x,y,z
x,-y,z
loop_
_atom_site_type_symbol
_atom_site_label
_atom_site_fract_x
_atom_site_fract_y
_atom_site_fract_z
Si Si1 0.827108 0.731001 0.559607
Si Si2 0.676175 0.102486 0.728283
Si Si3 0.327601 0.604026 0.766185
Si Si4 0.322783 0.901062 0.852340
Si Si5 0.326308 0.244812 0.937606
Si Si6 0.173762 0.602253 0.880058
Si Si7 0.337375 0.903941 0.563861
Si Si8 0.822366 0.728571 0.677962
O O1 0.750390 0.701726 0.500000
O O2 0.794975 0.834364 0.573538
O O3 0.776034 0.686127 0.617367
O O4 0.000000 0.715990 0.550862
O O5 0.500000 0.113611 0.721978
O O6 0.725703 0.127300 0.790717
O O7 0.754680 0.172002 0.686833
O O8 0.723274 0.000000 0.715000
O O9 0.500000 0.632690 0.764722
O O10 0.305321 0.500000 0.753207
O O11 0.263481 0.628884 0.825476
O O12 0.238060 0.658703 0.721289
O O13 0.500000 0.904427 0.856114
O O14 0.259950 0.830844 0.896842
O O15 0.259038 0.000000 0.865951
O O16 0.500000 0.263608 0.925495
O O17 0.234598 0.336129 0.929045
O O18 0.302014 0.212101 0.000000
O O19 0.204431 0.500000 0.896967
O O20 0.000000 0.619434 0.869324
O O21 0.357598 0.918929 0.500000
O O22 0.500000 0.871213 0.587575
O O23 0.296111 0.000000 0.591404
O O24 0.000000 0.736322 0.682464
#
# Coordination Sequence:
#
# PCOD8197244 Si02
#       8
#     8   8   8   8   8   8   8   8
#     4   9  19  34  48  65  94 133 174 211 250 302
#     4   9  18  33  53  76 104 142 186 229 274 324
#     4  10  21  38  61  86 109 133 165 211 268 327
#     4   8  15  30  51  73  99 134 177 223 267 309
#     4  10  20  32  50  79 111 144 184 227 268 312
#     4  10  21  37  57  80 107 140 176 215 263 318
#     4   8  14  25  41  61  85 116 159 209 253 291
#     4  11  22  34  53  80 108 139 174 217 267 317
#
# _framework density 19.671327999999999
#
# number of rings (size 3 to 8) (size 9 to 14) (size 15 to 20)
#    0.000    2.625    0.000    3.000    0.000    5.250 
#    0.000    6.250    0.000    1.500    0.000    3.500 
#    0.000    0.000    0.000    0.000    0.000    0.000 
#
# Total GULP energy -792868.528687 kJ/mol
# GULP energy per Si atom -12388.570761 kJ/mol
# Density = 1.962656 g / cm^3
# Si number density = 19.671328 Si / 1000 Ang^3
#
#
#
# Elastic Constant Matrix: (Units=GPa)
#
#
# Indices 1 2 3 4 5 6 
#
# 1 43.0700 22.2996 28.2213 0.0000 0.0000 0.0000
# 2 22.2996 57.4417 42.2130 0.0000 0.0000 0.0000
# 3 28.2213 42.2130 125.9289 0.0000 0.0000 0.0000
# 4 0.0000 0.0000 0.0000 6.4369 0.0000 0.0000
# 5 0.0000 0.0000 0.0000 0.0000 19.7850 0.0000
# 6 0.0000 0.0000 0.0000 0.0000 0.0000 23.0415
#
#
#
# Elastic Compliance Matrix: (Units=1/GPa)
#
#
# Indices 1 2 3 4 5 6 
#
# 1 0.030361 -0.009004 -0.003786 0.000000 0.000000 0.000000
# 2 -0.009004 0.025770 -0.006620 0.000000 0.000000 0.000000
# 3 -0.003786 -0.006620 0.011009 0.000000 0.000000 0.000000
# 4 0.000000 0.000000 0.000000 0.155355 0.000000 0.000000
# 5 0.000000 0.000000 0.000000 0.000000 0.050543 0.000000
# 6 0.000000 0.000000 0.000000 0.000000 0.000000 0.043400
#
#
# Mechanical properties :
#
#
# Convention : Reuss Voigt Hill
#
# Bulk Modulus (GPa) = 35.31304 45.76760 40.54032
# Shear Modulus (GPa) = 13.71000 18.76645 16.23823
#
# Velocity S-wave (km/s) = 2.64285 3.09204 2.87623
# Velocity P-wave (km/s) = 5.22526 6.00535 5.62884
#
# Compressibility (1/GPa) = 0.02831815
#
# Stress axis : x y z
#
# Youngs Moduli (GPa) = 32.93751 38.80503 90.83796
#
# Poissons Ratio (x) = 0.34942 0.34387
# Poissons Ratio (y) = 0.29658 0.60139
# Poissons Ratio (z) = 0.12469 0.25691
#
# Static dielectric constant tensor:
#      x y z
#    x 3.378570 0.000000 0.000000 
#    y 0.000000 3.631700 0.000000 
#    z 0.000000 0.000000 3.852950 
# 
# 
# High freq. dielectric constant tensor:
#      x y z
#    x 1.742760 0.000000 0.000000 
#    y 0.000000 1.746590 0.000000 
#    z 0.000000 0.000000 1.780110 
# 
# From -- ./inp_files/7802.got.cif
#   From: 2010.03.12/outbox.cif.g09.slc.cpg/sg47_4_cif.got.tgz:7802.got - 2010.04.14 03:12:58.
