data_PCOD8197073
_publ_section_title
;
Structure prediction by ZEFSAII (Michael W. Deem and Ramdas Pophale) SiO2 
 PCOD8197073
Probable space group: P M M M
;
_chemical_formula_sum "Si O2"
_cell_formula_units_Z 48
_cell_length_a 30.393202
_cell_length_b 9.332130
_cell_length_c 9.681087
_cell_angle_alpha 90.000000
_cell_angle_beta 90.000000
_cell_angle_gamma 90.000000
_cell_volume 2745.878771
_symmetry_space_group_name_H-M "P M M M"
_symmetry_group_IT_number 47
_symmetry_cell_setting 'orthorhombic'
loop_
_space_group_symop_operation_xyz
x,y,z
-x,-y,z
x,-y,-z
-x,y,-z
-x,-y,-z
x,y,-z
-x,y,z
x,-y,z
loop_
_atom_site_type_symbol
_atom_site_label
_atom_site_fract_x
_atom_site_fract_y
_atom_site_fract_z
Si Si1 0.715345 0.840463 0.335585
Si Si2 0.796685 0.338955 0.335634
Si Si3 0.449848 0.664467 0.840196
Si Si4 0.948633 0.663365 0.158496
Si Si5 0.382113 0.169637 0.344449
Si Si6 0.881969 0.832879 0.661400
O O1 0.717645 0.847042 0.500000
O O2 0.752280 0.733416 0.275829
O O3 0.666756 0.785947 0.291883
O O4 0.724306 0.000000 0.276624
O O5 0.794889 0.340427 0.500000
O O6 0.800181 0.500000 0.276659
O O7 0.838480 0.248151 0.284997
O O8 0.500000 0.696276 0.796732
O O9 0.438085 0.500000 0.810334
O O10 0.418337 0.764061 0.753231
O O11 0.442926 0.701048 0.000000
O O12 0.936411 0.500000 0.197961
O O13 0.923559 0.773063 0.256701
O O14 0.000000 0.690226 0.181505
O O15 0.935767 0.693627 0.000000
O O16 0.389765 0.226203 0.500000
O O17 0.386622 0.000000 0.340233
O O18 0.890069 0.804447 0.500000
O O19 0.875989 0.000000 0.692904
#
# Coordination Sequence:
#
# PCOD8197073 Si02
#       6
#     8   8   8   8   8   8
#     4   8  14  26  43  64  94 127 154 186 233 285
#     4   9  16  26  43  68  96 126 161 198 235 278
#     4   9  19  35  51  67  91 125 163 200 239 285
#     4   9  19  36  55  73  95 126 163 201 243 291
#     4   9  18  31  48  73 101 126 155 194 239 285
#     4  10  20  32  48  73 103 132 162 198 240 284
#
# _framework density 17.480744000000001
#
# number of rings (size 3 to 8) (size 9 to 14) (size 15 to 20)
#    0.000    3.000    0.000    3.000    0.000    6.000 
#    0.000    6.667    0.000    1.000    0.000    4.667 
#    0.000    0.000    0.000    0.000    0.000    0.000 
#
# Total GULP energy -595094.890207 kJ/mol
# GULP energy per Si atom -12397.810213 kJ/mol
# Density = 1.744096 g / cm^3
# Si number density = 17.480744 Si / 1000 Ang^3
#
#
#
# Elastic Constant Matrix: (Units=GPa)
#
#
# Indices 1 2 3 4 5 6 
#
# 1 117.8262 67.8064 45.5318 0.0000 0.0000 0.0000
# 2 67.8064 100.3185 37.3435 0.0000 0.0000 0.0000
# 3 45.5318 37.3435 41.1995 0.0000 0.0000 0.0000
# 4 0.0000 0.0000 0.0000 25.8683 0.0000 0.0000
# 5 0.0000 0.0000 0.0000 0.0000 -8.5814 0.0000
# 6 0.0000 0.0000 0.0000 0.0000 0.0000 38.2917
#
#
#
# Elastic Compliance Matrix: (Units=1/GPa)
#
#
# Indices 1 2 3 4 5 6 
#
# 1 0.017571 -0.007015 -0.013060 0.000000 0.000000 0.000000
# 2 -0.007015 0.017845 -0.008422 0.000000 0.000000 0.000000
# 3 -0.013060 -0.008422 0.046340 0.000000 0.000000 0.000000
# 4 0.000000 0.000000 0.000000 0.038657 0.000000 0.000000
# 5 0.000000 0.000000 0.000000 0.000000 -0.116532 0.000000
# 6 0.000000 0.000000 0.000000 0.000000 0.000000 0.026115
#
#
# Mechanical properties :
#
#
# Convention : Reuss Voigt Hill
#
# Bulk Modulus (GPa) = 40.38638 62.30085 51.34361
# Shear Modulus (GPa) = 52.49650 18.35991 35.42820
#
# Velocity S-wave (km/s) = 5.48600 3.24434 4.50677
# Velocity P-wave (km/s) = 7.95499 7.05347 7.51775
#
# Compressibility (1/GPa) = 0.02476082
#
# Stress axis : x y z
#
# Youngs Moduli (GPa) = 56.91287 56.03900 21.57966
#
# Poissons Ratio (x) = 0.39309 0.28184
# Poissons Ratio (y) = 0.39922 0.18175
# Poissons Ratio (z) = 0.74330 0.47198
#
# Static dielectric constant tensor:
#      x y z
#    x 3.408920 0.000000 0.000000 
#    y 0.000000 3.310220 0.000000 
#    z 0.000000 0.000000 2.886760 
# 
# 
# High freq. dielectric constant tensor:
#      x y z
#    x 1.687360 0.000000 0.000000 
#    y 0.000000 1.678620 0.000000 
#    z 0.000000 0.000000 1.632690 
# 
# From -- ./inp_files/2499.got.cif
#   From: 2010.03.12/outbox.cif.g09.slc.cpg/sg47_2_cif.got.tgz:2499.got - 2010.04.14 03:12:58.
