data_PCOD8197693
_publ_section_title
;
Structure prediction by ZEFSAII (Michael W. Deem and Ramdas Pophale) SiO2 
 PCOD8197693
Probable space group: P M M M
;
_chemical_formula_sum "Si O2"
_cell_formula_units_Z 44
_cell_length_a 8.031394
_cell_length_b 30.102268
_cell_length_c 9.181534
_cell_angle_alpha 90.000000
_cell_angle_beta 90.000000
_cell_angle_gamma 90.000000
_cell_volume 2219.756808
_symmetry_space_group_name_H-M "P M M M"
_symmetry_group_IT_number 47
_symmetry_cell_setting 'orthorhombic'
loop_
_space_group_symop_operation_xyz
x,y,z
-x,-y,z
x,-y,-z
-x,y,-z
-x,-y,-z
x,y,-z
-x,y,z
x,-y,z
loop_
_atom_site_type_symbol
_atom_site_label
_atom_site_fract_x
_atom_site_fract_y
_atom_site_fract_z
Si Si1 0.310227 0.859347 0.333288
Si Si2 0.692735 0.390327 0.828331
Si Si3 0.188831 0.952065 0.327422
Si Si4 0.307933 0.696091 0.659988
Si Si5 0.000000 0.549643 0.827373
Si Si6 0.190277 0.221860 0.163313
O O1 0.245485 0.856743 0.500000
O O2 0.500000 0.844107 0.323322
O O3 0.293618 0.909741 0.271424
O O4 0.202734 0.826642 0.234622
O O5 0.500000 0.403122 0.785465
O O6 0.758744 0.345011 0.754693
O O7 0.827027 0.427125 0.775626
O O8 0.703191 0.382755 0.000000
O O9 0.198547 0.953575 0.500000
O O10 0.000000 0.945560 0.274720
O O11 0.256909 0.000000 0.267807
O O12 0.220622 0.697585 0.500000
O O13 0.500000 0.687810 0.636164
O O14 0.287122 0.742493 0.741396
O O15 0.000000 0.500000 0.761519
O O16 0.000000 0.548129 0.000000
O O17 0.000000 0.236587 0.158646
O O18 0.265079 0.220492 0.000000
#
# Coordination Sequence:
#
# PCOD8197693 Si02
#       6
#     8   8   8   8   4   8
#     4  10  20  33  51  76 105 136 171 213 260 311
#     4   9  18  33  54  80 112 149 186 229 279 326
#     4   8  14  26  46  72 101 133 168 207 253 305
#     4  10  21  37  57  81 108 138 175 220 270 324
#     4   9  18  32  53  83 115 147 189 237 276 321
#     4  11  24  38  53  75 103 137 176 217 263 317
#
# _framework density 19.821992000000002
#
# number of rings (size 3 to 8) (size 9 to 14) (size 15 to 20)
#    0.000    2.455    0.000    2.727    1.273    6.545 
#    0.000    3.636    0.000    1.636    0.000    6.364 
#    0.000    0.000    0.000    0.000    0.000    0.000 
#
# Total GULP energy -545298.858346 kJ/mol
# GULP energy per Si atom -12393.155871 kJ/mol
# Density = 1.977688 g / cm^3
# Si number density = 19.821992 Si / 1000 Ang^3
#
#
#
# Elastic Constant Matrix: (Units=GPa)
#
#
# Indices 1 2 3 4 5 6 
#
# 1 63.2632 38.0924 21.9694 0.0000 0.0000 0.0000
# 2 38.0924 160.5228 50.5886 0.0000 0.0000 0.0000
# 3 21.9694 50.5886 79.1184 0.0000 0.0000 0.0000
# 4 0.0000 0.0000 0.0000 23.2045 0.0000 0.0000
# 5 0.0000 0.0000 0.0000 0.0000 15.1415 0.0000
# 6 0.0000 0.0000 0.0000 0.0000 0.0000 35.9051
#
#
#
# Elastic Compliance Matrix: (Units=1/GPa)
#
#
# Indices 1 2 3 4 5 6 
#
# 1 0.018993 -0.003563 -0.002996 0.000000 0.000000 0.000000
# 2 -0.003563 0.008470 -0.004426 0.000000 0.000000 0.000000
# 3 -0.002996 -0.004426 0.016301 0.000000 0.000000 0.000000
# 4 0.000000 0.000000 0.000000 0.043095 0.000000 0.000000
# 5 0.000000 0.000000 0.000000 0.000000 0.066044 0.000000
# 6 0.000000 0.000000 0.000000 0.000000 0.000000 0.027851
#
#
# Mechanical properties :
#
#
# Convention : Reuss Voigt Hill
#
# Bulk Modulus (GPa) = 45.88416 58.24503 52.06460
# Shear Modulus (GPa) = 23.81078 27.66716 25.73897
#
# Velocity S-wave (km/s) = 3.46964 3.74007 3.60739
# Velocity P-wave (km/s) = 6.26495 6.93532 6.60864
#
# Compressibility (1/GPa) = 0.02179401
#
# Stress axis : x y z
#
# Youngs Moduli (GPa) = 52.65204 118.06186 61.34428
#
# Poissons Ratio (x) = 0.42064 0.18377
# Poissons Ratio (y) = 0.18759 0.27154
# Poissons Ratio (z) = 0.15773 0.52260
#
# Static dielectric constant tensor:
#      x y z
#    x 3.557980 0.000000 0.000000 
#    y 0.000000 4.021780 0.000000 
#    z 0.000000 0.000000 3.504060 
# 
# 
# High freq. dielectric constant tensor:
#      x y z
#    x 1.766760 0.000000 0.000000 
#    y 0.000000 1.781060 0.000000 
#    z 0.000000 0.000000 1.736300 
# 
# From -- ./inp_files/2187.got.cif
#   From: 2010.03.12/outbox.cif.g09.slc.cpg/sg47_2_cif.got.tgz:2187.got - 2010.04.14 03:12:58.
