data_PCOD8197343
_publ_section_title
;
Structure prediction by ZEFSAII (Michael W. Deem and Ramdas Pophale) SiO2 
 PCOD8197343
Probable space group: P M M M
;
_chemical_formula_sum "Si O2"
_cell_formula_units_Z 64
_cell_length_a 14.364361
_cell_length_b 9.344877
_cell_length_c 31.348219
_cell_angle_alpha 90.000000
_cell_angle_beta 90.000000
_cell_angle_gamma 90.000000
_cell_volume 4207.971335
_symmetry_space_group_name_H-M "P M M M"
_symmetry_group_IT_number 47
_symmetry_cell_setting 'orthorhombic'
loop_
_space_group_symop_operation_xyz
x,y,z
-x,-y,z
x,-y,-z
-x,y,-z
-x,-y,-z
x,y,-z
-x,y,z
x,-y,z
loop_
_atom_site_type_symbol
_atom_site_label
_atom_site_fract_x
_atom_site_fract_y
_atom_site_fract_z
Si Si1 0.293363 0.332770 0.292170
Si Si2 0.896688 0.335681 0.671071
Si Si3 0.105904 0.834263 0.585072
Si Si4 0.395505 0.670331 0.623930
Si Si5 0.733957 0.334939 0.547785
Si Si6 0.389288 0.339325 0.952825
Si Si7 0.608788 0.333437 0.791805
Si Si8 0.389118 0.160798 0.125986
O O1 0.315019 0.500000 0.291272
O O2 0.182356 0.300773 0.293781
O O3 0.343477 0.267990 0.334146
O O4 0.336105 0.268241 0.248832
O O5 0.885820 0.500000 0.655654
O O6 0.878733 0.235046 0.631124
O O7 0.000000 0.309322 0.690625
O O8 0.171756 0.756495 0.551178
O O9 0.000000 0.813811 0.569536
O O10 0.132771 0.000000 0.588303
O O11 0.500000 0.732556 0.622763
O O12 0.397581 0.500000 0.624974
O O13 0.341978 0.722959 0.581502
O O14 0.693660 0.316161 0.500000
O O15 0.758390 0.500000 0.557232
O O16 0.500000 0.339231 0.950474
O O17 0.352702 0.500000 0.944180
O O18 0.348052 0.234340 0.916777
O O19 0.357094 0.287522 0.000000
O O20 0.500000 0.308059 0.783443
O O21 0.630413 0.500000 0.799651
O O22 0.645349 0.248231 0.832919
O O23 0.500000 0.161284 0.124418
O O24 0.349929 0.000000 0.128465
#
# Coordination Sequence:
#
# PCOD8197343 Si02
#       8
#     8   8   8   8   8   8   8   8
#     4   9  15  25  43  66  85 103 132 167 202 240
#     4   9  16  28  48  70  90 109 130 162 203 245
#     4  10  20  33  49  68  89 112 136 162 196 240
#     4   9  16  27  45  68  90 108 132 170 206 236
#     4  10  20  33  49  69  90 111 136 166 202 243
#     4   8  13  21  33  48  66  92 130 174 214 249
#     4   9  16  25  38  55  75 102 136 170 202 238
#     4   9  16  24  33  47  71 101 132 169 211 249
#
# _framework density 15.209229000000001
#
# number of rings (size 3 to 8) (size 9 to 14) (size 15 to 20)
#    0.000    2.875    1.250    1.500    0.000    4.750 
#    0.000    4.375    0.000    0.375    0.000    0.875 
#    0.000    0.000    0.000    0.000    0.000    0.625 
#
# Total GULP energy -793306.221603 kJ/mol
# GULP energy per Si atom -12395.409713 kJ/mol
# Density = 1.517461 g / cm^3
# Si number density = 15.209229 Si / 1000 Ang^3
#
#
#
# Elastic Constant Matrix: (Units=GPa)
#
#
# Indices 1 2 3 4 5 6 
#
# 1 72.2885 26.4603 48.0572 0.0000 0.0000 0.0000
# 2 26.4603 59.5857 47.2012 0.0000 0.0000 0.0000
# 3 48.0572 47.2012 137.0476 0.0000 0.0000 0.0000
# 4 0.0000 0.0000 0.0000 7.8394 0.0000 0.0000
# 5 0.0000 0.0000 0.0000 0.0000 9.5752 0.0000
# 6 0.0000 0.0000 0.0000 0.0000 0.0000 8.3823
#
#
#
# Elastic Compliance Matrix: (Units=1/GPa)
#
#
# Indices 1 2 3 4 5 6 
#
# 1 0.018807 -0.004301 -0.005114 0.000000 0.000000 0.000000
# 2 -0.004301 0.024063 -0.006779 0.000000 0.000000 0.000000
# 3 -0.005114 -0.006779 0.011425 0.000000 0.000000 0.000000
# 4 0.000000 0.000000 0.000000 0.127562 0.000000 0.000000
# 5 0.000000 0.000000 0.000000 0.000000 0.104436 0.000000
# 6 0.000000 0.000000 0.000000 0.000000 0.000000 0.119299
#
#
# Mechanical properties :
#
#
# Convention : Reuss Voigt Hill
#
# Bulk Modulus (GPa) = 45.64773 56.92879 51.28826
# Shear Modulus (GPa) = 11.22884 14.97292 13.10088
#
# Velocity S-wave (km/s) = 2.72010 3.14102 2.93811
# Velocity P-wave (km/s) = 6.32009 7.11803 6.73090
#
# Compressibility (1/GPa) = 0.02190690
#
# Stress axis : x y z
#
# Youngs Moduli (GPa) = 53.17072 41.55789 87.52871
#
# Poissons Ratio (x) = 0.17874 0.44759
# Poissons Ratio (y) = 0.22869 0.59339
# Poissons Ratio (z) = 0.27190 0.28174
#
# Static dielectric constant tensor:
#      x y z
#    x 2.795040 0.000000 0.000000 
#    y 0.000000 2.817330 0.000000 
#    z 0.000000 0.000000 3.030430 
# 
# 
# High freq. dielectric constant tensor:
#      x y z
#    x 1.544900 0.000000 0.000000 
#    y 0.000000 1.562030 0.000000 
#    z 0.000000 0.000000 1.577990 
# 
# From -- ./inp_files/22182.got.cif
#   From: 2010.03.12/outbox.cif.g09.slc.cpg/sg47_12_cif.got.tgz:22182.got - 2010.04.14 03:12:58.
