data_PCOD8197242
_publ_section_title
;
Structure prediction by ZEFSAII (Michael W. Deem and Ramdas Pophale) SiO2 
 PCOD8197242
Probable space group: P M M M
;
_chemical_formula_sum "Si O2"
_cell_formula_units_Z 32
_cell_length_a 9.418763
_cell_length_b 7.674248
_cell_length_c 23.620753
_cell_angle_alpha 90.000000
_cell_angle_beta 90.000000
_cell_angle_gamma 90.000000
_cell_volume 1707.353452
_symmetry_space_group_name_H-M "P M M M"
_symmetry_group_IT_number 47
_symmetry_cell_setting 'orthorhombic'
loop_
_space_group_symop_operation_xyz
x,y,z
-x,-y,z
x,-y,-z
-x,y,-z
-x,-y,-z
x,y,-z
-x,y,z
x,-y,z
loop_
_atom_site_type_symbol
_atom_site_label
_atom_site_fract_x
_atom_site_fract_y
_atom_site_fract_z
Si Si1 0.666055 0.201331 0.373005
Si Si2 0.169211 0.000000 0.063228
Si Si3 0.836758 0.500000 0.433092
Si Si4 0.660593 0.202701 0.243780
Si Si5 0.161936 0.692895 0.141280
O O1 0.500000 0.238506 0.383790
O O2 0.760217 0.325465 0.411710
O O3 0.705754 0.242780 0.308047
O O4 0.700845 0.000000 0.387470
O O5 0.226204 0.170714 0.096193
O O6 0.000000 0.000000 0.059563
O O7 0.234014 0.000000 0.000000
O O8 0.826794 0.500000 0.500000
O O9 0.000000 0.500000 0.412531
O O10 0.500000 0.264539 0.233981
O O11 0.758905 0.307781 0.201123
O O12 0.676845 0.000000 0.230597
O O13 0.174537 0.500000 0.114608
O O14 0.000000 0.743375 0.154213
#
# Coordination Sequence:
#
# PCOD8197242 Si02
#       5
#     8   4   4   8   8
#     4   9  20  39  61  85 112 147 193 238 280 333
#     4   9  18  34  53  73 105 147 186 227 270 315
#     4  11  25  41  57  83 119 155 190 231 284 341
#     4   9  18  34  56  81 110 142 177 220 274 329
#     4  10  20  32  50  79 109 139 178 222 271 326
#
# _framework density 18.742456000000001
#
# number of rings (size 3 to 8) (size 9 to 14) (size 15 to 20)
#    0.000    2.500    1.250    1.875    1.750    4.000 
#    0.000    7.500    0.000    1.500    0.000    1.750 
#    0.000    0.000    0.000    0.000    0.000    0.000 
#
# Total GULP energy -396772.654668 kJ/mol
# GULP energy per Si atom -12399.145458 kJ/mol
# Density = 1.869980 g / cm^3
# Si number density = 18.742456 Si / 1000 Ang^3
#
#
#
# Elastic Constant Matrix: (Units=GPa)
#
#
# Indices 1 2 3 4 5 6 
#
# 1 71.8978 52.2751 52.8519 0.0000 0.0000 0.0000
# 2 52.2751 125.9090 63.8273 0.0000 0.0000 0.0000
# 3 52.8519 63.8273 108.3607 0.0000 0.0000 0.0000
# 4 0.0000 0.0000 0.0000 23.1604 0.0000 0.0000
# 5 0.0000 0.0000 0.0000 0.0000 1.6998 0.0000
# 6 0.0000 0.0000 0.0000 0.0000 0.0000 23.2149
#
#
#
# Elastic Compliance Matrix: (Units=1/GPa)
#
#
# Indices 1 2 3 4 5 6 
#
# 1 0.024356 -0.005831 -0.008445 0.000000 0.000000 0.000000
# 2 -0.005831 0.012720 -0.004648 0.000000 0.000000 0.000000
# 3 -0.008445 -0.004648 0.016085 0.000000 0.000000 0.000000
# 4 0.000000 0.000000 0.000000 0.043177 0.000000 0.000000
# 5 0.000000 0.000000 0.000000 0.000000 0.588313 0.000000
# 6 0.000000 0.000000 0.000000 0.000000 0.000000 0.043076
#
#
# Mechanical properties :
#
#
# Convention : Reuss Voigt Hill
#
# Bulk Modulus (GPa) = 65.30511 71.56403 68.43457
# Shear Modulus (GPa) = 6.48779 18.76255 12.62517
#
# Velocity S-wave (km/s) = 1.86254 3.16740 2.59822
# Velocity P-wave (km/s) = 6.28844 7.18626 6.75229
#
# Compressibility (1/GPa) = 0.01531274
#
# Stress axis : x y z
#
# Youngs Moduli (GPa) = 41.05749 78.61944 62.16981
#
# Poissons Ratio (x) = 0.45846 0.52500
# Poissons Ratio (y) = 0.23942 0.28896
# Poissons Ratio (z) = 0.34672 0.36542
#
# Static dielectric constant tensor:
#      x y z
#    x 3.273810 0.000000 0.000000 
#    y 0.000000 3.504370 0.000000 
#    z 0.000000 0.000000 3.412480 
# 
# 
# High freq. dielectric constant tensor:
#      x y z
#    x 1.705340 0.000000 0.000000 
#    y 0.000000 1.740610 0.000000 
#    z 0.000000 0.000000 1.720810 
# 
# From -- ./inp_files/29059.got.cif
#   From: 2010.03.12/outbox.cif.g09.slc.cpg/sg47_15_cif.got.tgz:29059.got - 2010.04.14 03:12:58.
