data_PCOD8197222
_publ_section_title
;
Structure prediction by ZEFSAII (Michael W. Deem and Ramdas Pophale) SiO2 
 PCOD8197222
Probable space group: P M M M
;
_chemical_formula_sum "Si O2"
_cell_formula_units_Z 48
_cell_length_a 14.016171
_cell_length_b 14.584523
_cell_length_c 12.420305
_cell_angle_alpha 90.000000
_cell_angle_beta 90.000000
_cell_angle_gamma 90.000000
_cell_volume 2538.948418
_symmetry_space_group_name_H-M "P M M M"
_symmetry_group_IT_number 47
_symmetry_cell_setting 'orthorhombic'
loop_
_space_group_symop_operation_xyz
x,y,z
-x,-y,z
x,-y,-z
-x,y,-z
-x,-y,-z
x,y,-z
-x,y,z
x,-y,z
loop_
_atom_site_type_symbol
_atom_site_label
_atom_site_fract_x
_atom_site_fract_y
_atom_site_fract_z
Si Si1 0.394124 0.391595 0.000000
Si Si2 0.105816 0.638868 0.878266
Si Si3 0.386814 0.103951 0.500000
Si Si4 0.611049 0.225644 0.699314
Si Si5 0.296602 0.602754 0.781383
Si Si6 0.693536 0.897698 0.124992
Si Si7 0.898109 0.144829 0.122241
O O1 0.339495 0.359235 0.893468
O O2 0.400016 0.500000 0.000000
O O3 0.500000 0.348384 0.000000
O O4 0.182151 0.597601 0.794665
O O5 0.111307 0.747042 0.871842
O O6 0.000000 0.604449 0.845351
O O7 0.128991 0.605617 0.000000
O O8 0.500000 0.097562 0.500000
O O9 0.351139 0.159681 0.395618
O O10 0.344475 0.000000 0.500000
O O11 0.500000 0.249293 0.685918
O O12 0.669076 0.322313 0.693693
O O13 0.627212 0.172496 0.811129
O O14 0.333035 0.500000 0.750569
O O15 0.802105 0.897349 0.173702
O O16 0.651677 0.000000 0.137854
O O17 0.693606 0.866638 0.000000
O O18 0.000000 0.114659 0.177470
O O19 0.902603 0.110738 0.000000
#
# Coordination Sequence:
#
# PCOD8197222 Si02
#       7
#     4   8   4   8   8   8   8
#     4   9  18  30  43  65 104 152 190 215 249 313
#     4   9  16  28  47  71 105 151 196 233 268 310
#     4   9  20  42  67  85 100 129 181 233 275 328
#     4  11  23  38  58  79 105 141 181 225 274 321
#     4  11  21  33  50  77 111 147 188 227 268 323
#     4  10  20  32  49  78 112 142 174 215 271 334
#     4   8  14  26  44  67 100 141 179 214 256 312
#
# _framework density 18.905465
#
# number of rings (size 3 to 8) (size 9 to 14) (size 15 to 20)
#    0.000    2.333    2.500    2.000    1.167    3.000 
#    0.000    3.750    0.000    1.500    0.000    2.333 
#    0.000    5.333    0.000    0.000    0.000    0.000 
#
# Total GULP energy -594815.785490 kJ/mol
# GULP energy per Si atom -12391.995531 kJ/mol
# Density = 1.886244 g / cm^3
# Si number density = 18.905465 Si / 1000 Ang^3
#
#
#
# Elastic Constant Matrix: (Units=GPa)
#
#
# Indices 1 2 3 4 5 6 
#
# 1 87.0375 24.8163 22.2899 0.0000 0.0000 0.0000
# 2 24.8163 118.6559 43.9365 0.0000 0.0000 0.0000
# 3 22.2899 43.9365 58.7939 0.0000 0.0000 0.0000
# 4 0.0000 0.0000 0.0000 19.4242 0.0000 0.0000
# 5 0.0000 0.0000 0.0000 0.0000 10.7098 0.0000
# 6 0.0000 0.0000 0.0000 0.0000 0.0000 19.1450
#
#
#
# Elastic Compliance Matrix: (Units=1/GPa)
#
#
# Indices 1 2 3 4 5 6 
#
# 1 0.012852 -0.001222 -0.003959 0.000000 0.000000 0.000000
# 2 -0.001222 0.011768 -0.008331 0.000000 0.000000 0.000000
# 3 -0.003959 -0.008331 0.024735 0.000000 0.000000 0.000000
# 4 0.000000 0.000000 0.000000 0.051482 0.000000 0.000000
# 5 0.000000 0.000000 0.000000 0.000000 0.093372 0.000000
# 6 0.000000 0.000000 0.000000 0.000000 0.000000 0.052233
#
#
# Mechanical properties :
#
#
# Convention : Reuss Voigt Hill
#
# Bulk Modulus (GPa) = 44.78104 49.61917 47.20011
# Shear Modulus (GPa) = 17.79926 21.41877 19.60902
#
# Velocity S-wave (km/s) = 3.07170 3.36957 3.22407
# Velocity P-wave (km/s) = 6.02650 6.43751 6.23539
#
# Compressibility (1/GPa) = 0.02233088
#
# Stress axis : x y z
#
# Youngs Moduli (GPa) = 77.81126 84.97512 40.42786
#
# Poissons Ratio (x) = 0.10382 0.16006
# Poissons Ratio (y) = 0.09507 0.33681
# Poissons Ratio (z) = 0.30807 0.70794
#
# Static dielectric constant tensor:
#      x y z
#    x 3.843370 0.000000 0.000000 
#    y 0.000000 3.464400 0.000000 
#    z 0.000000 0.000000 2.983120 
# 
# 
# High freq. dielectric constant tensor:
#      x y z
#    x 1.737740 0.000000 0.000000 
#    y 0.000000 1.748060 0.000000 
#    z 0.000000 0.000000 1.653970 
# 
# From -- ./inp_files/17553.got.cif
#   From: 2010.03.12/outbox.cif.g09.slc.cpg/sg47_9_cif.got.tgz:17553.got - 2010.04.14 03:12:58.
