data_PCOD8197484
_publ_section_title
;
Structure prediction by ZEFSAII (Michael W. Deem and Ramdas Pophale) SiO2 
 PCOD8197484
Probable space group: P M M M
;
_chemical_formula_sum "Si O2"
_cell_formula_units_Z 52
_cell_length_a 9.592893
_cell_length_b 9.249073
_cell_length_c 33.574259
_cell_angle_alpha 90.000000
_cell_angle_beta 90.000000
_cell_angle_gamma 90.000000
_cell_volume 2978.888473
_symmetry_space_group_name_H-M "P M M M"
_symmetry_group_IT_number 47
_symmetry_cell_setting 'orthorhombic'
loop_
_space_group_symop_operation_xyz
x,y,z
-x,-y,z
x,-y,-z
-x,y,-z
-x,-y,-z
x,y,-z
-x,y,z
x,-y,z
loop_
_atom_site_type_symbol
_atom_site_label
_atom_site_fract_x
_atom_site_fract_y
_atom_site_fract_z
Si Si1 0.336687 0.168783 0.228213
Si Si2 0.665652 0.336538 0.693978
Si Si3 0.156470 0.828245 0.543914
Si Si4 0.662526 0.168612 0.383315
Si Si5 0.162082 0.668893 0.836845
Si Si6 0.165069 0.659424 0.926193
Si Si7 0.833326 0.838971 0.000000
O O1 0.500000 0.197214 0.221646
O O2 0.280636 0.250191 0.267490
O O3 0.255314 0.231183 0.190769
O O4 0.304253 0.000000 0.233173
O O5 0.500000 0.336042 0.693509
O O6 0.724257 0.500000 0.695146
O O7 0.720924 0.255926 0.654591
O O8 0.202861 0.772021 0.500000
O O9 0.259956 0.768746 0.577706
O O10 0.000000 0.774412 0.553299
O O11 0.161264 0.000000 0.543952
O O12 0.500000 0.196295 0.390101
O O13 0.694144 0.000000 0.375991
O O14 0.194638 0.500000 0.829458
O O15 0.203264 0.713813 0.881927
O O16 0.000000 0.700736 0.828512
O O17 0.228088 0.500000 0.933267
O O18 0.000000 0.650977 0.930021
O O19 0.226632 0.763500 0.960194
O O20 0.000000 0.836474 0.000000
O O21 0.774259 0.000000 0.000000
#
# Coordination Sequence:
#
# PCOD8197484 Si02
#       7
#     8   8   8   8   8   8   4
#     4  10  20  33  50  72  96 123 157 194 232 279
#     4   9  17  30  48  67  88 117 151 186 226 271
#     4   8  14  25  41  62  89 119 147 175 212 260
#     4   9  16  26  43  67  90 110 139 183 226 260
#     4   9  18  32  49  70  96 125 157 193 234 279
#     4   8  14  25  40  58  84 118 151 184 225 272
#     4   9  15  21  33  57  86 115 150 189 226 268
#
# _framework density 17.456174000000001
#
# number of rings (size 3 to 8) (size 9 to 14) (size 15 to 20)
#    0.000    3.154    0.000    2.538    0.000    4.923 
#    0.000    3.846    0.000    3.692    0.000    3.769 
#    0.000    4.308    0.000    0.000    0.000    0.000 
#
# Total GULP energy -644569.899579 kJ/mol
# GULP energy per Si atom -12395.574992 kJ/mol
# Density = 1.741644 g / cm^3
# Si number density = 17.456174 Si / 1000 Ang^3
#
#
#
# Elastic Constant Matrix: (Units=GPa)
#
#
# Indices 1 2 3 4 5 6 
#
# 1 36.7795 34.4300 50.5727 0.0000 0.0000 0.0000
# 2 34.4300 102.5193 85.0041 0.0000 0.0000 0.0000
# 3 50.5727 85.0041 181.1856 0.0000 0.0000 0.0000
# 4 0.0000 0.0000 0.0000 23.8529 0.0000 0.0000
# 5 0.0000 0.0000 0.0000 0.0000 18.2857 0.0000
# 6 0.0000 0.0000 0.0000 0.0000 0.0000 16.0063
#
#
#
# Elastic Compliance Matrix: (Units=1/GPa)
#
#
# Indices 1 2 3 4 5 6 
#
# 1 0.047997 -0.008202 -0.009549 0.000000 0.000000 0.000000
# 2 -0.008202 0.017366 -0.005858 0.000000 0.000000 0.000000
# 3 -0.009549 -0.005858 0.010933 0.000000 0.000000 0.000000
# 4 0.000000 0.000000 0.000000 0.041924 0.000000 0.000000
# 5 0.000000 0.000000 0.000000 0.000000 0.054688 0.000000
# 6 0.000000 0.000000 0.000000 0.000000 0.000000 0.062475
#
#
# Mechanical properties :
#
#
# Convention : Reuss Voigt Hill
#
# Bulk Modulus (GPa) = 34.38998 73.38869 53.88933
# Shear Modulus (GPa) = 17.10613 21.66081 19.38347
#
# Velocity S-wave (km/s) = 3.13381 3.52642 3.33589
# Velocity P-wave (km/s) = 5.73043 7.66249 6.76578
#
# Compressibility (1/GPa) = 0.02907824
#
# Stress axis : x y z
#
# Youngs Moduli (GPa) = 20.83461 57.58411 91.46677
#
# Poissons Ratio (x) = 0.47228 0.87343
# Poissons Ratio (y) = 0.17088 0.53582
# Poissons Ratio (z) = 0.19895 0.33733
#
# Static dielectric constant tensor:
#      x y z
#    x 2.851220 0.000000 0.000000 
#    y 0.000000 3.227160 0.000000 
#    z 0.000000 0.000000 3.586910 
# 
# 
# High freq. dielectric constant tensor:
#      x y z
#    x 1.624800 0.000000 0.000000 
#    y 0.000000 1.660730 0.000000 
#    z 0.000000 0.000000 1.692190 
# 
# From -- ./inp_files/34525.got.cif
#   From: 2010.03.12/outbox.cif.g09.slc.cpg/sg47_18_cif.got.tgz:34525.got - 2010.04.14 03:12:58.
