data_PCOD8197134
_publ_section_title
;
Structure prediction by ZEFSAII (Michael W. Deem and Ramdas Pophale) SiO2 
 PCOD8197134
Probable space group: P M M M
;
_chemical_formula_sum "Si O2"
_cell_formula_units_Z 64
_cell_length_a 24.568191
_cell_length_b 9.118920
_cell_length_c 15.314863
_cell_angle_alpha 90.000000
_cell_angle_beta 90.000000
_cell_angle_gamma 90.000000
_cell_volume 3431.070972
_symmetry_space_group_name_H-M "P M M M"
_symmetry_group_IT_number 47
_symmetry_cell_setting 'orthorhombic'
loop_
_space_group_symop_operation_xyz
x,y,z
-x,-y,z
x,-y,-z
-x,y,-z
-x,-y,-z
x,y,-z
-x,y,z
x,-y,z
loop_
_atom_site_type_symbol
_atom_site_label
_atom_site_fract_x
_atom_site_fract_y
_atom_site_fract_z
Si Si1 0.939018 0.674292 0.729049
Si Si2 0.888326 0.329283 0.905563
Si Si3 0.749462 0.164558 0.679810
Si Si4 0.782007 0.836803 0.127404
Si Si5 0.357887 0.326276 0.271969
Si Si6 0.858297 0.830246 0.599119
Si Si7 0.339512 0.171862 0.096641
Si Si8 0.436217 0.832156 0.400432
O O1 0.936104 0.500000 0.726843
O O2 0.923431 0.735898 0.825612
O O3 0.897814 0.734434 0.657861
O O4 0.000000 0.729143 0.707926
O O5 0.881868 0.500000 0.889897
O O6 0.827691 0.267480 0.910004
O O7 0.916522 0.296715 0.000000
O O8 0.783570 0.166832 0.768563
O O9 0.698374 0.272959 0.684100
O O10 0.794446 0.215290 0.608990
O O11 0.727354 0.000000 0.660260
O O12 0.723557 0.781773 0.093552
O O13 0.793298 0.000000 0.092290
O O14 0.356942 0.500000 0.264657
O O15 0.368412 0.261173 0.174623
O O16 0.406517 0.276838 0.334438
O O17 0.875697 0.801680 0.500000
O O18 0.864836 0.000000 0.625620
O O19 0.344823 0.000000 0.119599
O O20 0.364813 0.205771 0.000000
O O21 0.419215 0.795146 0.500000
O O22 0.500000 0.807453 0.388002
O O23 0.420544 0.000000 0.378735
#
# Coordination Sequence:
#
# PCOD8197134 Si02
#       8
#     8   8   8   8   8   8   8   8
#     4  10  22  39  56  74 101 136 171 212 265 326
#     4  10  20  32  49  74 101 131 169 211 257 313
#     4   9  18  34  53  75 107 144 181 217 259 317
#     4   9  16  29  50  74 101 134 172 215 261 308
#     4  11  22  33  52  85 122 154 183 224 278 332
#     4  10  21  38  60  82 102 130 172 221 269 316
#     4   9  18  33  52  75 108 152 196 232 268 316
#     4   9  19  38  63  86 109 145 194 240 278 323
#
# _framework density 18.653067
#
# number of rings (size 3 to 8) (size 9 to 14) (size 15 to 20)
#    0.000    2.375    1.250    2.625    0.000    5.500 
#    0.000    4.375    0.000    0.375    0.000    4.375 
#    0.000    0.000    0.000    0.000    0.000    0.000 
#
# Total GULP energy -793315.266517 kJ/mol
# GULP energy per Si atom -12395.551039 kJ/mol
# Density = 1.861061 g / cm^3
# Si number density = 18.653067 Si / 1000 Ang^3
#
#
#
# Elastic Constant Matrix: (Units=GPa)
#
#
# Indices 1 2 3 4 5 6 
#
# 1 71.3805 40.0742 50.8547 0.0000 0.0000 0.0000
# 2 40.0742 72.3294 50.0829 0.0000 0.0000 0.0000
# 3 50.8547 50.0829 118.0230 0.0000 0.0000 0.0000
# 4 0.0000 0.0000 0.0000 21.4787 0.0000 0.0000
# 5 0.0000 0.0000 0.0000 0.0000 14.5970 0.0000
# 6 0.0000 0.0000 0.0000 0.0000 0.0000 24.4660
#
#
#
# Elastic Compliance Matrix: (Units=1/GPa)
#
#
# Indices 1 2 3 4 5 6 
#
# 1 0.023380 -0.008466 -0.006482 0.000000 0.000000 0.000000
# 2 -0.008466 0.022644 -0.005961 0.000000 0.000000 0.000000
# 3 -0.006482 -0.005961 0.013795 0.000000 0.000000 0.000000
# 4 0.000000 0.000000 0.000000 0.046558 0.000000 0.000000
# 5 0.000000 0.000000 0.000000 0.000000 0.068507 0.000000
# 6 0.000000 0.000000 0.000000 0.000000 0.000000 0.040873
#
#
# Mechanical properties :
#
#
# Convention : Reuss Voigt Hill
#
# Bulk Modulus (GPa) = 55.54881 60.41739 57.98310
# Shear Modulus (GPa) = 18.96996 20.15643 19.56319
#
# Velocity S-wave (km/s) = 3.19249 3.29081 3.24202
# Velocity P-wave (km/s) = 6.59044 6.84833 6.72062
#
# Compressibility (1/GPa) = 0.01800219
#
# Stress axis : x y z
#
# Youngs Moduli (GPa) = 42.77144 44.16261 72.48764
#
# Poissons Ratio (x) = 0.37386 0.46985
# Poissons Ratio (y) = 0.36208 0.43210
# Poissons Ratio (z) = 0.27724 0.26326
#
# Static dielectric constant tensor:
#      x y z
#    x 3.201490 0.000000 0.000000 
#    y 0.000000 3.248670 0.000000 
#    z 0.000000 0.000000 3.665100 
# 
# 
# High freq. dielectric constant tensor:
#      x y z
#    x 1.700990 0.000000 0.000000 
#    y 0.000000 1.706970 0.000000 
#    z 0.000000 0.000000 1.737400 
# 
# From -- ./inp_files/25530.got.cif
#   From: 2010.03.12/outbox.cif.g09.slc.cpg/sg47_13_cif.got.tgz:25530.got - 2010.04.14 03:12:58.
