data_PCOD8197366
_publ_section_title
;
Structure prediction by ZEFSAII (Michael W. Deem and Ramdas Pophale) SiO2 
 PCOD8197366
Probable space group: P M M M
;
_chemical_formula_sum "Si O2"
_cell_formula_units_Z 56
_cell_length_a 22.910302
_cell_length_b 15.546355
_cell_length_c 9.051290
_cell_angle_alpha 90.000000
_cell_angle_beta 90.000000
_cell_angle_gamma 90.000000
_cell_volume 3223.813238
_symmetry_space_group_name_H-M "P M M M"
_symmetry_group_IT_number 47
_symmetry_cell_setting 'orthorhombic'
loop_
_space_group_symop_operation_xyz
x,y,z
-x,-y,z
x,-y,-z
-x,y,-z
-x,-y,-z
x,y,-z
-x,y,z
x,-y,z
loop_
_atom_site_type_symbol
_atom_site_label
_atom_site_fract_x
_atom_site_fract_y
_atom_site_fract_z
Si Si1 0.000000 0.601677 0.334247
Si Si2 0.882807 0.599986 0.825579
Si Si3 0.564329 0.398932 0.663963
Si Si4 0.666949 0.315814 0.832722
Si Si5 0.786529 0.283407 0.673937
Si Si6 0.643854 0.122279 0.165173
Si Si7 0.239112 0.906220 0.669409
Si Si8 0.431646 0.000000 0.335642
O O1 0.943033 0.632621 0.246347
O O2 0.000000 0.500000 0.342921
O O3 0.000000 0.641053 0.500000
O O4 0.869863 0.500000 0.786407
O O5 0.833164 0.660564 0.760882
O O6 0.887108 0.612930 0.000000
O O7 0.577392 0.360767 0.500000
O O8 0.500000 0.365422 0.718035
O O9 0.561490 0.500000 0.653018
O O10 0.616689 0.378110 0.775000
O O11 0.723529 0.316188 0.728132
O O12 0.637342 0.223534 0.830039
O O13 0.685167 0.342177 0.000000
O O14 0.792285 0.301365 0.500000
O O15 0.796984 0.180973 0.711023
O O16 0.703874 0.088911 0.232445
O O17 0.589631 0.085636 0.254800
O O18 0.641503 0.086516 0.000000
O O19 0.258528 0.896127 0.500000
O O20 0.206059 0.000000 0.691567
O O21 0.500000 0.000000 0.335275
O O22 0.405934 0.000000 0.500000
#
# Coordination Sequence:
#
# PCOD8197366 Si02
#       8
#     4   8   8   8   8   8   8   4
#     4   9  17  31  53  79 106 141 184 221 255 302
#     4  10  20  34  52  76 110 148 182 218 258 300
#     4   9  19  36  55  72  90 117 158 205 249 298
#     4  10  21  35  51  73 100 127 158 200 252 307
#     4  10  20  33  51  77 106 137 174 213 256 307
#     4  10  20  33  49  69  92 119 151 190 239 293
#     4   9  17  31  52  74  97 127 163 205 251 301
#     4  11  23  35  47  65  89 119 155 192 235 292
#
# _framework density 17.370733000000001
#
# number of rings (size 3 to 8) (size 9 to 14) (size 15 to 20)
#    0.000    2.286    0.714    2.571    0.000    6.286 
#    0.000    3.571    0.000    0.000    0.000    0.500 
#    0.000    4.000    0.000    0.000    0.000    0.000 
#
# Total GULP energy -693991.035266 kJ/mol
# GULP energy per Si atom -12392.697058 kJ/mol
# Density = 1.733120 g / cm^3
# Si number density = 17.370733 Si / 1000 Ang^3
#
#
#
# Elastic Constant Matrix: (Units=GPa)
#
#
# Indices 1 2 3 4 5 6 
#
# 1 92.4205 46.7090 49.0672 0.0000 0.0000 0.0000
# 2 46.7090 75.3840 40.1209 0.0000 0.0000 0.0000
# 3 49.0672 40.1209 111.2415 0.0000 0.0000 0.0000
# 4 0.0000 0.0000 0.0000 34.8091 0.0000 0.0000
# 5 0.0000 0.0000 0.0000 0.0000 48.0695 0.0000
# 6 0.0000 0.0000 0.0000 0.0000 0.0000 5.8196
#
#
#
# Elastic Compliance Matrix: (Units=1/GPa)
#
#
# Indices 1 2 3 4 5 6 
#
# 1 0.017556 -0.008362 -0.004728 0.000000 0.000000 0.000000
# 2 -0.008362 0.020399 -0.003669 0.000000 0.000000 0.000000
# 3 -0.004728 -0.003669 0.012398 0.000000 0.000000 0.000000
# 4 0.000000 0.000000 0.000000 0.028728 0.000000 0.000000
# 5 0.000000 0.000000 0.000000 0.000000 0.020803 0.000000
# 6 0.000000 0.000000 0.000000 0.000000 0.000000 0.171832
#
#
# Mechanical properties :
#
#
# Convention : Reuss Voigt Hill
#
# Bulk Modulus (GPa) = 59.39635 61.20447 60.30041
# Shear Modulus (GPa) = 16.08508 27.28291 21.68399
#
# Velocity S-wave (km/s) = 3.04631 3.96741 3.53697
# Velocity P-wave (km/s) = 6.82941 7.50319 7.17422
#
# Compressibility (1/GPa) = 0.01683605
#
# Stress axis : x y z
#
# Youngs Moduli (GPa) = 56.95962 49.02153 80.65666
#
# Poissons Ratio (x) = 0.40991 0.38135
# Poissons Ratio (y) = 0.47628 0.29593
# Poissons Ratio (z) = 0.26931 0.17986
#
# Static dielectric constant tensor:
#      x y z
#    x 3.057290 0.000000 0.000000 
#    y 0.000000 15.131700 0.000000 
#    z 0.000000 0.000000 3.540590 
# 
# 
# High freq. dielectric constant tensor:
#      x y z
#    x 1.644440 0.000000 0.000000 
#    y 0.000000 1.666360 0.000000 
#    z 0.000000 0.000000 1.687350 
# 
# From -- ./inp_files/11347.got.cif
#   From: 2010.03.12/outbox.cif.g09.slc.cpg/sg47_6_cif.got.tgz:11347.got - 2010.04.14 03:12:58.
