data_PCOD8197705
_publ_section_title
;
Structure prediction by ZEFSAII (Michael W. Deem and Ramdas Pophale) SiO2 
 PCOD8197705
Probable space group: P M M M
;
_chemical_formula_sum "Si O2"
_cell_formula_units_Z 40
_cell_length_a 8.030752
_cell_length_b 8.069593
_cell_length_c 29.006155
_cell_angle_alpha 90.000000
_cell_angle_beta 90.000000
_cell_angle_gamma 90.000000
_cell_volume 1879.740978
_symmetry_space_group_name_H-M "P M M M"
_symmetry_group_IT_number 47
_symmetry_cell_setting 'orthorhombic'
loop_
_space_group_symop_operation_xyz
x,y,z
-x,-y,z
x,-y,-z
-x,y,-z
-x,-y,-z
x,y,-z
-x,y,z
x,-y,z
loop_
_atom_site_type_symbol
_atom_site_label
_atom_site_fract_x
_atom_site_fract_y
_atom_site_fract_z
Si Si1 0.190706 0.689287 0.697022
Si Si2 0.000000 0.197819 0.947429
Si Si3 0.314508 0.809187 0.892051
Si Si4 0.691592 0.819255 0.395015
Si Si5 0.301185 0.500000 0.552580
Si Si6 0.306382 0.312549 0.206388
O O1 0.255676 0.500000 0.696677
O O2 0.293913 0.792666 0.659817
O O3 0.215143 0.762350 0.748560
O O4 0.000000 0.701397 0.682435
O O5 0.168515 0.270625 0.923597
O O6 0.000000 0.000000 0.942884
O O7 0.000000 0.257730 0.000000
O O8 0.500000 0.727097 0.900156
O O9 0.260046 0.792360 0.838785
O O10 0.329483 0.000000 0.904979
O O11 0.500000 0.826047 0.408826
O O12 0.774156 0.665243 0.422849
O O13 0.771495 0.000000 0.407772
O O14 0.500000 0.500000 0.556877
O O15 0.241039 0.500000 0.500000
O O16 0.500000 0.303610 0.217155
O O17 0.246640 0.500000 0.197031
#
# Coordination Sequence:
#
# PCOD8197705 Si02
#       6
#     8   4   8   8   4   8
#     4  10  20  33  51  76 106 142 181 220 266 325
#     4   9  18  32  51  75 101 133 175 225 279 328
#     4   9  18  32  50  73 101 133 172 221 271 325
#     4  10  20  34  55  81 109 144 183 226 278 334
#     4   9  18  34  57  83 111 143 181 233 287 330
#     4   9  18  32  51  75 104 139 174 211 261 322
#
# _framework density 21.279530000000001
#
# number of rings (size 3 to 8) (size 9 to 14) (size 15 to 20)
#    0.000    2.600    1.000    0.600    1.400    2.800 
#    0.000    6.000    0.000    2.400    0.000    4.200 
#    0.000    0.000    0.000    0.000    0.000    0.000 
#
# Total GULP energy -495740.709168 kJ/mol
# GULP energy per Si atom -12393.517729 kJ/mol
# Density = 2.123110 g / cm^3
# Si number density = 21.279530 Si / 1000 Ang^3
#
#
#
# Elastic Constant Matrix: (Units=GPa)
#
#
# Indices 1 2 3 4 5 6 
#
# 1 66.2420 24.3823 48.3427 0.0000 0.0000 0.0000
# 2 24.3823 92.9182 46.9210 0.0000 0.0000 0.0000
# 3 48.3427 46.9210 149.1670 0.0000 0.0000 0.0000
# 4 0.0000 0.0000 0.0000 23.8716 0.0000 0.0000
# 5 0.0000 0.0000 0.0000 0.0000 12.5420 0.0000
# 6 0.0000 0.0000 0.0000 0.0000 0.0000 10.6996
#
#
#
# Elastic Compliance Matrix: (Units=1/GPa)
#
#
# Indices 1 2 3 4 5 6 
#
# 1 0.020203 -0.002372 -0.005801 0.000000 0.000000 0.000000
# 2 -0.002372 0.013073 -0.003343 0.000000 0.000000 0.000000
# 3 -0.005801 -0.003343 0.009636 0.000000 0.000000 0.000000
# 4 0.000000 0.000000 0.000000 0.041891 0.000000 0.000000
# 5 0.000000 0.000000 0.000000 0.000000 0.079732 0.000000
# 6 0.000000 0.000000 0.000000 0.000000 0.000000 0.093462
#
#
# Mechanical properties :
#
#
# Convention : Reuss Voigt Hill
#
# Bulk Modulus (GPa) = 50.30629 60.84658 55.57643
# Shear Modulus (GPa) = 17.38190 22.00138 19.69164
#
# Velocity S-wave (km/s) = 2.86114 3.21895 3.04531
# Velocity P-wave (km/s) = 5.88276 6.51702 6.20799
#
# Compressibility (1/GPa) = 0.01987823
#
# Stress axis : x y z
#
# Youngs Moduli (GPa) = 49.49756 76.49428 103.78031
#
# Poissons Ratio (x) = 0.18143 0.60207
# Poissons Ratio (y) = 0.11740 0.34698
# Poissons Ratio (z) = 0.28716 0.25575
#
# Static dielectric constant tensor:
#      x y z
#    x 3.771490 0.000000 0.000000 
#    y 0.000000 3.807820 0.000000 
#    z 0.000000 0.000000 3.780990 
# 
# 
# High freq. dielectric constant tensor:
#      x y z
#    x 1.816460 0.000000 0.000000 
#    y 0.000000 1.809930 0.000000 
#    z 0.000000 0.000000 1.828200 
# 
# From -- ./inp_files/33023.got.cif
#   From: 2010.03.12/outbox.cif.g09.slc.cpg/sg47_17_cif.got.tgz:33023.got - 2010.04.14 03:12:58.
