data_PCOD8197725
_publ_section_title
;
Structure prediction by ZEFSAII (Michael W. Deem and Ramdas Pophale) SiO2 
 PCOD8197725
Probable space group: P M M M
;
_chemical_formula_sum "Si O2"
_cell_formula_units_Z 64
_cell_length_a 8.816615
_cell_length_b 20.867302
_cell_length_c 19.608267
_cell_angle_alpha 90.000000
_cell_angle_beta 90.000000
_cell_angle_gamma 90.000000
_cell_volume 3607.508723
_symmetry_space_group_name_H-M "P M M M"
_symmetry_group_IT_number 47
_symmetry_cell_setting 'orthorhombic'
loop_
_space_group_symop_operation_xyz
x,y,z
-x,-y,z
x,-y,-z
-x,y,-z
-x,-y,-z
x,y,-z
-x,y,z
x,-y,z
loop_
_atom_site_type_symbol
_atom_site_label
_atom_site_fract_x
_atom_site_fract_y
_atom_site_fract_z
Si Si1 0.322088 0.188372 0.789236
Si Si2 0.179293 0.693153 0.708447
Si Si3 0.827729 0.131687 0.424680
Si Si4 0.177540 0.226737 0.076974
Si Si5 0.819329 0.570348 0.788620
Si Si6 0.323725 0.735418 0.423164
Si Si7 0.819927 0.627084 0.926294
Si Si8 0.175138 0.072189 0.714571
O O1 0.500000 0.198257 0.784790
O O2 0.244842 0.246575 0.749017
O O3 0.269699 0.185372 0.868011
O O4 0.279118 0.120774 0.756020
O O5 0.241418 0.626130 0.739126
O O6 0.229129 0.692681 0.629666
O O7 0.000000 0.697531 0.714563
O O8 0.799519 0.101470 0.500000
O O9 0.714970 0.190385 0.411922
O O10 0.796950 0.079004 0.366847
O O11 0.000000 0.158002 0.419209
O O12 0.230723 0.299945 0.086157
O O13 0.000000 0.219384 0.092234
O O14 0.214695 0.202988 0.000000
O O15 0.760654 0.500000 0.765096
O O16 0.756739 0.583248 0.865240
O O17 0.000000 0.571572 0.789287
O O18 0.281331 0.713753 0.500000
O O19 0.500000 0.725814 0.408129
O O20 0.000000 0.624954 0.927770
O O21 0.757439 0.602924 0.000000
O O22 0.000000 0.086241 0.732256
O O23 0.220319 0.000000 0.735052
#
# Coordination Sequence:
#
# PCOD8197725 Si02
#       8
#     8   8   8   8   8   8   8   8
#     4  12  23  34  53  79 108 142 179 219 264 310
#     4  11  20  33  54  77 104 138 179 221 262 312
#     4   9  17  30  50  76 106 140 174 207 249 305
#     4   9  17  32  55  80 105 135 174 220 267 312
#     4   9  17  28  45  73 106 137 172 219 268 308
#     4  10  20  33  51  77 106 133 168 217 269 317
#     4   8  13  23  42  70 103 136 169 205 249 302
#     4  10  21  36  54  77 107 143 180 218 261 310
#
# _framework density 17.740774999999999
#
# number of rings (size 3 to 8) (size 9 to 14) (size 15 to 20)
#    0.000    2.250    2.500    2.625    0.000    1.750 
#    0.000    2.500    0.000    2.250    0.000    7.875 
#    0.000    2.000    0.000    0.000    0.000    0.000 
#
# Total GULP energy -793330.887221 kJ/mol
# GULP energy per Si atom -12395.795113 kJ/mol
# Density = 1.770040 g / cm^3
# Si number density = 17.740775 Si / 1000 Ang^3
#
#
#
# Elastic Constant Matrix: (Units=GPa)
#
#
# Indices 1 2 3 4 5 6 
#
# 1 59.4258 31.7741 39.4539 0.0000 0.0000 0.0000
# 2 31.7741 103.0426 60.4176 0.0000 0.0000 0.0000
# 3 39.4539 60.4176 120.4980 0.0000 0.0000 0.0000
# 4 0.0000 0.0000 0.0000 25.5076 0.0000 0.0000
# 5 0.0000 0.0000 0.0000 0.0000 18.6677 0.0000
# 6 0.0000 0.0000 0.0000 0.0000 0.0000 1.9486
#
#
#
# Elastic Compliance Matrix: (Units=1/GPa)
#
#
# Indices 1 2 3 4 5 6 
#
# 1 0.022456 -0.003702 -0.005497 0.000000 0.000000 0.000000
# 2 -0.003702 0.014356 -0.005986 0.000000 0.000000 0.000000
# 3 -0.005497 -0.005986 0.013100 0.000000 0.000000 0.000000
# 4 0.000000 0.000000 0.000000 0.039204 0.000000 0.000000
# 5 0.000000 0.000000 0.000000 0.000000 0.053568 0.000000
# 6 0.000000 0.000000 0.000000 0.000000 0.000000 0.513180
#
#
# Mechanical properties :
#
#
# Convention : Reuss Voigt Hill
#
# Bulk Modulus (GPa) = 51.16806 60.69529 55.93167
# Shear Modulus (GPa) = 7.21763 19.31284 13.26523
#
# Velocity S-wave (km/s) = 2.01921 3.30299 2.73742
# Velocity P-wave (km/s) = 5.86012 6.98806 6.44879
#
# Compressibility (1/GPa) = 0.01954344
#
# Stress axis : x y z
#
# Youngs Moduli (GPa) = 44.53093 69.65712 76.33551
#
# Poissons Ratio (x) = 0.25785 0.41959
# Poissons Ratio (y) = 0.16484 0.45695
# Poissons Ratio (z) = 0.24477 0.41697
#
# Static dielectric constant tensor:
#      x y z
#    x 3.035690 0.000000 0.000000 
#    y 0.000000 3.150970 0.000000 
#    z 0.000000 0.000000 3.648540 
# 
# 
# High freq. dielectric constant tensor:
#      x y z
#    x 1.659510 0.000000 0.000000 
#    y 0.000000 1.656640 0.000000 
#    z 0.000000 0.000000 1.697920 
# 
# From -- ./inp_files/30153.got.cif
#   From: 2010.03.12/outbox.cif.g09.slc.cpg/sg47_16_cif.got.tgz:30153.got - 2010.04.14 03:12:58.
