data_PCOD8197533
_publ_section_title
;
Structure prediction by ZEFSAII (Michael W. Deem and Ramdas Pophale) SiO2 
 PCOD8197533
Probable space group: P M M M
;
_chemical_formula_sum "Si O2"
_cell_formula_units_Z 40
_cell_length_a 9.198366
_cell_length_b 27.785449
_cell_length_c 7.830362
_cell_angle_alpha 90.000000
_cell_angle_beta 90.000000
_cell_angle_gamma 90.000000
_cell_volume 2001.289631
_symmetry_space_group_name_H-M "P M M M"
_symmetry_group_IT_number 47
_symmetry_cell_setting 'orthorhombic'
loop_
_space_group_symop_operation_xyz
x,y,z
-x,-y,z
x,-y,-z
-x,y,-z
-x,-y,-z
x,y,-z
-x,y,z
x,-y,z
loop_
_atom_site_type_symbol
_atom_site_label
_atom_site_fract_x
_atom_site_fract_y
_atom_site_fract_z
Si Si1 0.673526 0.945686 0.500000
Si Si2 0.661206 0.775008 0.202045
Si Si3 0.835853 0.500000 0.703989
Si Si4 0.837780 0.314820 0.202109
Si Si5 0.326704 0.881583 0.809577
Si Si6 0.662241 0.591511 0.700409
O O1 0.500000 0.944827 0.500000
O O2 0.733338 0.919424 0.329456
O O3 0.733311 0.000000 0.500000
O O4 0.500000 0.768044 0.281709
O O5 0.767233 0.734112 0.277548
O O6 0.724010 0.828002 0.246656
O O7 0.649699 0.769961 0.000000
O O8 0.837692 0.500000 0.500000
O O9 0.753800 0.547029 0.777128
O O10 0.000000 0.500000 0.775615
O O11 0.740824 0.359146 0.258036
O O12 0.000000 0.320304 0.278416
O O13 0.844364 0.312108 0.000000
O O14 0.500000 0.882051 0.814524
O O15 0.267562 0.894765 0.000000
O O16 0.650539 0.584620 0.500000
O O17 0.500000 0.591856 0.780631
#
# Coordination Sequence:
#
# PCOD8197533 Si02
#       6
#     4   8   4   8   8   8
#     4   9  16  24  36  60  93 125 159 202 249 298
#     4   8  14  27  46  64  87 123 161 194 235 292
#     4   9  17  31  52  73  96 129 164 204 254 299
#     4  10  20  33  50  73 101 130 159 199 253 305
#     4   8  14  25  40  58  84 122 163 201 246 299
#     4  10  20  34  52  74  98 127 166 206 245 296
#
# _framework density 19.987112
#
# number of rings (size 3 to 8) (size 9 to 14) (size 15 to 20)
#    0.000    3.000    0.000    2.700    0.000    4.000 
#    1.800    2.500    0.000    3.000    0.000    0.000 
#    0.000    1.600    0.000    7.800    0.000    8.000 
#
# Total GULP energy -495793.362394 kJ/mol
# GULP energy per Si atom -12394.834060 kJ/mol
# Density = 1.994162 g / cm^3
# Si number density = 19.987112 Si / 1000 Ang^3
#
#
#
# Elastic Constant Matrix: (Units=GPa)
#
#
# Indices 1 2 3 4 5 6 
#
# 1 123.2756 73.6594 20.2381 0.0000 0.0000 0.0000
# 2 73.6594 196.5944 45.9314 0.0000 0.0000 0.0000
# 3 20.2381 45.9314 53.1958 0.0000 0.0000 0.0000
# 4 0.0000 0.0000 0.0000 30.8974 0.0000 0.0000
# 5 0.0000 0.0000 0.0000 0.0000 10.9764 0.0000
# 6 0.0000 0.0000 0.0000 0.0000 0.0000 5.9410
#
#
#
# Elastic Compliance Matrix: (Units=1/GPa)
#
#
# Indices 1 2 3 4 5 6 
#
# 1 0.010475 -0.003750 -0.000747 0.000000 0.000000 0.000000
# 2 -0.003750 0.007715 -0.005234 0.000000 0.000000 0.000000
# 3 -0.000747 -0.005234 0.023602 0.000000 0.000000 0.000000
# 4 0.000000 0.000000 0.000000 0.032365 0.000000 0.000000
# 5 0.000000 0.000000 0.000000 0.000000 0.091104 0.000000
# 6 0.000000 0.000000 0.000000 0.000000 0.000000 0.168321
#
#
# Mechanical properties :
#
#
# Convention : Reuss Voigt Hill
#
# Bulk Modulus (GPa) = 44.78539 72.52486 58.65512
# Shear Modulus (GPa) = 13.87002 25.11210 19.49106
#
# Velocity S-wave (km/s) = 2.63715 3.54844 3.12618
# Velocity P-wave (km/s) = 5.63281 7.29062 6.51466
#
# Compressibility (1/GPa) = 0.02232871
#
# Stress axis : x y z
#
# Youngs Moduli (GPa) = 95.46110 129.62221 42.36877
#
# Poissons Ratio (x) = 0.48613 0.03166
# Poissons Ratio (y) = 0.35801 0.22177
# Poissons Ratio (z) = 0.07132 0.67849
#
# Static dielectric constant tensor:
#      x y z
#    x 3.601500 0.000000 0.000000 
#    y 0.000000 3.930240 0.000000 
#    z 0.000000 0.000000 3.470380 
# 
# 
# High freq. dielectric constant tensor:
#      x y z
#    x 1.744780 0.000000 0.000000 
#    y 0.000000 1.788130 0.000000 
#    z 0.000000 0.000000 1.754850 
# 
# From -- ./inp_files/1746.got.cif
#   From: 2010.03.12/outbox.cif.g09.slc.cpg/sg47_1_cif.got.tgz:1746.got - 2010.04.14 03:12:58.
