data_PCOD8197718
_publ_section_title
;
Structure prediction by ZEFSAII (Michael W. Deem and Ramdas Pophale) SiO2 
 PCOD8197718
Probable space group: P M M M
;
_chemical_formula_sum "Si O2"
_cell_formula_units_Z 48
_cell_length_a 30.805088
_cell_length_b 9.185607
_cell_length_c 9.445293
_cell_angle_alpha 90.000000
_cell_angle_beta 90.000000
_cell_angle_gamma 90.000000
_cell_volume 2672.672523
_symmetry_space_group_name_H-M "P M M M"
_symmetry_group_IT_number 47
_symmetry_cell_setting 'orthorhombic'
loop_
_space_group_symop_operation_xyz
x,y,z
-x,-y,z
x,-y,-z
-x,y,-z
-x,-y,-z
x,y,-z
-x,y,z
x,-y,z
loop_
_atom_site_type_symbol
_atom_site_label
_atom_site_fract_x
_atom_site_fract_y
_atom_site_fract_z
Si Si1 0.627366 0.173435 0.840540
Si Si2 0.204967 0.664275 0.668334
Si Si3 0.710025 0.829791 0.335817
Si Si4 0.879439 0.168773 0.665575
Si Si5 0.451872 0.826824 0.341120
Si Si6 0.949838 0.333975 0.836324
O O1 0.669194 0.227334 0.753852
O O2 0.584106 0.237173 0.765698
O O3 0.625886 0.000000 0.840697
O O4 0.629551 0.234755 0.000000
O O5 0.204580 0.667769 0.500000
O O6 0.204773 0.500000 0.727008
O O7 0.247975 0.745527 0.722854
O O8 0.162461 0.746485 0.726189
O O9 0.700709 0.795108 0.500000
O O10 0.718551 0.000000 0.312862
O O11 0.885588 0.198244 0.500000
O O12 0.922284 0.224227 0.742617
O O13 0.872509 0.000000 0.698640
O O14 0.442166 0.770207 0.500000
O O15 0.500000 0.775506 0.292596
O O16 0.449692 0.000000 0.340793
O O17 0.938769 0.500000 0.794464
O O18 0.000000 0.300651 0.805572
O O19 0.938987 0.306942 0.000000
#
# Coordination Sequence:
#
# PCOD8197718 Si02
#       6
#     8   8   8   8   8   8
#     4   9  16  24  35  54  81 112 145 182 224 268
#     4   9  17  30  49  71  93 119 154 195 236 278
#     4   9  16  27  44  63  84 113 148 184 224 272
#     4  10  20  33  51  77 106 132 161 200 245 292
#     4   8  13  21  33  50  75 109 147 183 219 263
#     4   9  19  36  55  74  99 133 171 207 243 286
#
# _framework density 17.959551000000001
#
# number of rings (size 3 to 8) (size 9 to 14) (size 15 to 20)
#    0.000    3.000    0.000    2.500    0.000    6.333 
#    0.000    5.000    0.000    3.500    0.000    0.000 
#    0.000    0.667    0.000    7.667    0.000    9.833 
#
# Total GULP energy -595119.079060 kJ/mol
# GULP energy per Si atom -12398.314147 kJ/mol
# Density = 1.791867 g / cm^3
# Si number density = 17.959551 Si / 1000 Ang^3
#
#
#
# Elastic Constant Matrix: (Units=GPa)
#
#
# Indices 1 2 3 4 5 6 
#
# 1 156.7371 58.7103 69.7679 0.0000 0.0000 0.0000
# 2 58.7103 66.7839 36.4134 0.0000 0.0000 0.0000
# 3 69.7679 36.4134 78.3241 0.0000 0.0000 0.0000
# 4 0.0000 0.0000 0.0000 15.1378 0.0000 0.0000
# 5 0.0000 0.0000 0.0000 0.0000 9.3455 0.0000
# 6 0.0000 0.0000 0.0000 0.0000 0.0000 7.4079
#
#
#
# Elastic Compliance Matrix: (Units=1/GPa)
#
#
# Indices 1 2 3 4 5 6 
#
# 1 0.012385 -0.006527 -0.007997 0.000000 0.000000 0.000000
# 2 -0.006527 0.023498 -0.005110 0.000000 0.000000 0.000000
# 3 -0.007997 -0.005110 0.022267 0.000000 0.000000 0.000000
# 4 0.000000 0.000000 0.000000 0.066060 0.000000 0.000000
# 5 0.000000 0.000000 0.000000 0.000000 0.107003 0.000000
# 6 0.000000 0.000000 0.000000 0.000000 0.000000 0.134991
#
#
# Mechanical properties :
#
#
# Convention : Reuss Voigt Hill
#
# Bulk Modulus (GPa) = 52.96531 70.18091 61.57311
# Shear Modulus (GPa) = 12.14279 15.50848 13.82563
#
# Velocity S-wave (km/s) = 2.60305 2.94176 2.77757
# Velocity P-wave (km/s) = 6.21208 7.12044 6.68171
#
# Compressibility (1/GPa) = 0.01888028
#
# Stress axis : x y z
#
# Youngs Moduli (GPa) = 80.74328 42.55669 44.90928
#
# Poissons Ratio (x) = 0.27777 0.35916
# Poissons Ratio (y) = 0.52702 0.22950
# Poissons Ratio (z) = 0.64574 0.21748
#
# Static dielectric constant tensor:
#      x y z
#    x 3.535390 0.000000 0.000000 
#    y 0.000000 2.991790 0.000000 
#    z 0.000000 0.000000 3.188080 
# 
# 
# High freq. dielectric constant tensor:
#      x y z
#    x 1.711350 0.000000 0.000000 
#    y 0.000000 1.656980 0.000000 
#    z 0.000000 0.000000 1.672930 
# 
# From -- ./inp_files/2479.got.cif
#   From: 2010.03.12/outbox.cif.g09.slc.cpg/sg47_2_cif.got.tgz:2479.got - 2010.04.14 03:12:58.
