data_PCOD8197298
_publ_section_title
;
Structure prediction by ZEFSAII (Michael W. Deem and Ramdas Pophale) SiO2 
 PCOD8197298
Probable space group: P M M M
;
_chemical_formula_sum "Si O2"
_cell_formula_units_Z 52
_cell_length_a 23.281356
_cell_length_b 9.482058
_cell_length_c 14.949176
_cell_angle_alpha 90.000000
_cell_angle_beta 90.000000
_cell_angle_gamma 90.000000
_cell_volume 3300.107858
_symmetry_space_group_name_H-M "P M M M"
_symmetry_group_IT_number 47
_symmetry_cell_setting 'orthorhombic'
loop_
_space_group_symop_operation_xyz
x,y,z
-x,-y,z
x,-y,-z
-x,y,-z
-x,-y,-z
x,y,-z
-x,y,z
x,-y,z
loop_
_atom_site_type_symbol
_atom_site_label
_atom_site_fract_x
_atom_site_fract_y
_atom_site_fract_z
Si Si1 0.563033 0.657999 0.106131
Si Si2 0.066198 0.155287 0.000000
Si Si3 0.330173 0.836086 0.102607
Si Si4 0.113546 0.338458 0.156340
Si Si5 0.170936 0.161142 0.402191
Si Si6 0.780689 0.835701 0.784100
Si Si7 0.064714 0.339874 0.349372
O O1 0.500000 0.708322 0.140923
O O2 0.575385 0.500000 0.140869
O O3 0.613280 0.759354 0.140880
O O4 0.562659 0.660354 0.000000
O O5 0.080583 0.247187 0.085115
O O6 0.000000 0.124431 0.000000
O O7 0.097211 0.000000 0.000000
O O8 0.280307 0.796991 0.172672
O O9 0.343964 0.000000 0.104455
O O10 0.314416 0.790147 0.000000
O O11 0.122357 0.500000 0.124945
O O12 0.175177 0.266940 0.167852
O O13 0.074802 0.331097 0.243916
O O14 0.199822 0.188207 0.500000
O O15 0.216302 0.198527 0.322981
O O16 0.111889 0.247615 0.399514
O O17 0.152015 0.000000 0.391430
O O18 0.795558 0.000000 0.802441
O O19 0.071768 0.500000 0.382940
O O20 0.000000 0.285853 0.370452
#
# Coordination Sequence:
#
# PCOD8197298 Si02
#       7
#     8   4   8   8   8   8   8
#     4   8  14  25  40  59  86 120 153 182 211 244
#     4  11  23  35  47  63  83 111 146 181 220 265
#     4   9  17  27  41  63  89 119 150 180 214 253
#     4  10  20  33  48  65  84 110 144 182 221 261
#     4   9  18  32  48  65  85 111 143 178 218 265
#     4   9  18  32  47  64  89 118 146 181 222 264
#     4   9  18  32  48  65  86 109 133 169 220 273
#
# _framework density 15.757059999999999
#
# number of rings (size 3 to 8) (size 9 to 14) (size 15 to 20)
#    0.000    2.846    0.000    1.615    1.077    3.692 
#    0.000    3.077    0.000    0.000    0.000    0.000 
#    0.000    0.615    0.000    7.692    0.000    1.538 
#
# Total GULP energy -644381.265641 kJ/mol
# GULP energy per Si atom -12391.947416 kJ/mol
# Density = 1.572120 g / cm^3
# Si number density = 15.757060 Si / 1000 Ang^3
#
#
#
# Elastic Constant Matrix: (Units=GPa)
#
#
# Indices 1 2 3 4 5 6 
#
# 1 112.5532 46.6844 45.6058 0.0000 0.0000 0.0000
# 2 46.6844 71.3730 32.9671 0.0000 0.0000 0.0000
# 3 45.6058 32.9671 73.6113 0.0000 0.0000 0.0000
# 4 0.0000 0.0000 0.0000 16.1611 0.0000 0.0000
# 5 0.0000 0.0000 0.0000 0.0000 -43.2336 0.0000
# 6 0.0000 0.0000 0.0000 0.0000 0.0000 27.1065
#
#
#
# Elastic Compliance Matrix: (Units=1/GPa)
#
#
# Indices 1 2 3 4 5 6 
#
# 1 0.013866 -0.006432 -0.005710 0.000000 0.000000 0.000000
# 2 -0.006432 0.020649 -0.005263 0.000000 0.000000 0.000000
# 3 -0.005710 -0.005263 0.019479 0.000000 0.000000 0.000000
# 4 0.000000 0.000000 0.000000 0.061877 0.000000 0.000000
# 5 0.000000 0.000000 0.000000 0.000000 -0.023130 0.000000
# 6 0.000000 0.000000 0.000000 0.000000 0.000000 0.036892
#
#
# Mechanical properties :
#
#
# Convention : Reuss Voigt Hill
#
# Bulk Modulus (GPa) = 52.12491 56.45025 54.28758
# Shear Modulus (GPa) = 29.26743 8.82548 19.04645
#
# Velocity S-wave (km/s) = 4.31445 2.36920 3.48049
# Velocity P-wave (km/s) = 7.61390 6.58690 7.11895
#
# Compressibility (1/GPa) = 0.01918468
#
# Stress axis : x y z
#
# Youngs Moduli (GPa) = 72.11675 48.42840 51.33614
#
# Poissons Ratio (x) = 0.31151 0.29314
# Poissons Ratio (y) = 0.46388 0.27016
# Poissons Ratio (z) = 0.41180 0.25486
#
# Static dielectric constant tensor:
#      x y z
#    x 3.015490 0.000000 0.000000 
#    y 0.000000 3.186720 0.000000 
#    z 0.000000 0.000000 3.100050 
# 
# 
# High freq. dielectric constant tensor:
#      x y z
#    x 1.585950 0.000000 0.000000 
#    y 0.000000 1.613150 0.000000 
#    z 0.000000 0.000000 1.584630 
# 
# From -- ./inp_files/12479.got.cif
#   From: 2010.03.12/outbox.cif.g09.slc.cpg/sg47_7_cif.got.tgz:12479.got - 2010.04.14 03:12:58.
