data_PCOD8197952
_publ_section_title
;
Structure prediction by ZEFSAII (Michael W. Deem and Ramdas Pophale) SiO2 
 PCOD8197952
Probable space group: P M M M
;
_chemical_formula_sum "Si O2"
_cell_formula_units_Z 64
_cell_length_a 9.316032
_cell_length_b 19.800319
_cell_length_c 19.697415
_cell_angle_alpha 90.000000
_cell_angle_beta 90.000000
_cell_angle_gamma 90.000000
_cell_volume 3633.393157
_symmetry_space_group_name_H-M "P M M M"
_symmetry_group_IT_number 47
_symmetry_cell_setting 'orthorhombic'
loop_
_space_group_symop_operation_xyz
x,y,z
-x,-y,z
x,-y,-z
-x,y,-z
-x,-y,-z
x,y,-z
-x,y,z
x,-y,z
loop_
_atom_site_type_symbol
_atom_site_label
_atom_site_fract_x
_atom_site_fract_y
_atom_site_fract_z
Si Si1 0.836385 0.575388 0.202749
Si Si2 0.669878 0.659689 0.687051
Si Si3 0.168897 0.925452 0.780810
Si Si4 0.662959 0.200591 0.742149
Si Si5 0.167655 0.885932 0.072741
Si Si6 0.335105 0.391189 0.923772
Si Si7 0.164332 0.422708 0.420961
Si Si8 0.662099 0.761149 0.105577
O O1 0.832898 0.500000 0.234053
O O2 0.742631 0.624576 0.248635
O O3 0.770558 0.570935 0.127367
O O4 0.000000 0.602044 0.199455
O O5 0.500000 0.646769 0.691271
O O6 0.702748 0.740589 0.687877
O O7 0.732412 0.628617 0.618155
O O8 0.241560 0.867175 0.735117
O O9 0.224654 0.923822 0.859631
O O10 0.000000 0.913268 0.777106
O O11 0.208899 0.000000 0.752458
O O12 0.500000 0.176587 0.732233
O O13 0.687811 0.236263 0.814044
O O14 0.234622 0.812124 0.067283
O O15 0.000000 0.876834 0.081213
O O16 0.201661 0.923266 0.000000
O O17 0.500000 0.404762 0.902251
O O18 0.300304 0.312173 0.921595
O O19 0.307285 0.418067 0.000000
O O20 0.180919 0.406531 0.500000
O O21 0.209589 0.500000 0.405980
O O22 0.000000 0.411357 0.397477
O O23 0.500000 0.781419 0.087285
#
# Coordination Sequence:
#
# PCOD8197952 Si02
#       8
#     8   8   8   8   8   8   8   8
#     4  11  24  38  51  69  95 128 166 210 261 314
#     4  11  21  35  56  81 106 134 174 219 255 294
#     4   9  18  31  46  66  93 125 161 202 250 305
#     4   9  18  32  50  71  96 125 161 205 252 298
#     4   9  17  27  40  61  87 115 150 192 242 302
#     4  10  20  34  51  68  88 118 158 208 266 320
#     4   9  19  36  56  81 117 155 183 207 243 295
#     4   9  16  30  47  63  86 115 149 195 250 303
#
# _framework density 17.614388000000002
#
# number of rings (size 3 to 8) (size 9 to 14) (size 15 to 20)
#    0.000    2.375    1.250    1.875    0.000    6.250 
#    0.000    3.125    0.000    0.000    0.000    3.500 
#    0.000    0.500    0.000    5.500    0.000    4.000 
#
# Total GULP energy -793245.015787 kJ/mol
# GULP energy per Si atom -12394.453372 kJ/mol
# Density = 1.757430 g / cm^3
# Si number density = 17.614388 Si / 1000 Ang^3
#
#
#
# Elastic Constant Matrix: (Units=GPa)
#
#
# Indices 1 2 3 4 5 6 
#
# 1 73.3391 52.4881 36.0269 0.0000 0.0000 0.0000
# 2 52.4881 108.3308 37.9872 0.0000 0.0000 0.0000
# 3 36.0269 37.9872 58.8177 0.0000 0.0000 0.0000
# 4 0.0000 0.0000 0.0000 13.7841 0.0000 0.0000
# 5 0.0000 0.0000 0.0000 0.0000 25.4118 0.0000
# 6 0.0000 0.0000 0.0000 0.0000 0.0000 21.7937
#
#
#
# Elastic Compliance Matrix: (Units=1/GPa)
#
#
# Indices 1 2 3 4 5 6 
#
# 1 0.024341 -0.008488 -0.009427 0.000000 0.000000 0.000000
# 2 -0.008488 0.014893 -0.004420 0.000000 0.000000 0.000000
# 3 -0.009427 -0.004420 0.025631 0.000000 0.000000 0.000000
# 4 0.000000 0.000000 0.000000 0.072547 0.000000 0.000000
# 5 0.000000 0.000000 0.000000 0.000000 0.039352 0.000000
# 6 0.000000 0.000000 0.000000 0.000000 0.000000 0.045885
#
#
# Mechanical properties :
#
#
# Convention : Reuss Voigt Hill
#
# Bulk Modulus (GPa) = 49.51776 54.83244 52.17510
# Shear Modulus (GPa) = 18.24477 19.79694 19.02086
#
# Velocity S-wave (km/s) = 3.22186 3.35611 3.28967
# Velocity P-wave (km/s) = 6.48179 6.79815 6.64186
#
# Compressibility (1/GPa) = 0.02019477
#
# Stress axis : x y z
#
# Youngs Moduli (GPa) = 41.08275 67.14400 39.01567
#
# Poissons Ratio (x) = 0.56991 0.36782
# Poissons Ratio (y) = 0.34870 0.17244
# Poissons Ratio (z) = 0.38731 0.29677
#
# Static dielectric constant tensor:
#      x y z
#    x 3.265580 0.000000 0.000000 
#    y 0.000000 3.284080 0.000000 
#    z 0.000000 0.000000 3.121220 
# 
# 
# High freq. dielectric constant tensor:
#      x y z
#    x 1.679300 0.000000 0.000000 
#    y 0.000000 1.674350 0.000000 
#    z 0.000000 0.000000 1.647020 
# 
# From -- ./inp_files/30171.got.cif
#   From: 2010.03.12/outbox.cif.g09.slc.cpg/sg47_16_cif.got.tgz:30171.got - 2010.04.14 03:12:58.
