data_PCOD8197963
_publ_section_title
;
Structure prediction by ZEFSAII (Michael W. Deem and Ramdas Pophale) SiO2 
 PCOD8197963
Probable space group: P M M M
;
_chemical_formula_sum "Si O2"
_cell_formula_units_Z 64
_cell_length_a 8.902444
_cell_length_b 31.496745
_cell_length_c 14.135228
_cell_angle_alpha 90.000000
_cell_angle_beta 90.000000
_cell_angle_gamma 90.000000
_cell_volume 3963.489782
_symmetry_space_group_name_H-M "P M M M"
_symmetry_group_IT_number 47
_symmetry_cell_setting 'orthorhombic'
loop_
_space_group_symop_operation_xyz
x,y,z
-x,-y,z
x,-y,-z
-x,y,-z
-x,-y,-z
x,y,-z
-x,y,z
x,-y,z
loop_
_atom_site_type_symbol
_atom_site_label
_atom_site_fract_x
_atom_site_fract_y
_atom_site_fract_z
Si Si1 0.325264 0.203389 0.890069
Si Si2 0.178403 0.953181 0.105873
Si Si3 0.825025 0.253043 0.607271
Si Si4 0.324511 0.163335 0.392834
Si Si5 0.675557 0.711735 0.780073
Si Si6 0.173184 0.363328 0.887386
Si Si7 0.178108 0.455123 0.894275
Si Si8 0.178038 0.127048 0.219151
O O1 0.500000 0.193379 0.873472
O O2 0.278131 0.247367 0.841345
O O3 0.228233 0.165933 0.845856
O O4 0.285478 0.207306 0.000000
O O5 0.241075 0.916792 0.174907
O O6 0.000000 0.951140 0.103619
O O7 0.230914 0.000000 0.141040
O O8 0.240369 0.944900 0.000000
O O9 0.793605 0.268424 0.500000
O O10 0.739375 0.209595 0.629476
O O11 0.762510 0.288107 0.679691
O O12 0.000000 0.245087 0.624437
O O13 0.289103 0.149401 0.500000
O O14 0.500000 0.164951 0.371689
O O15 0.246772 0.129549 0.324073
O O16 0.500000 0.710512 0.759193
O O17 0.720466 0.670279 0.837659
O O18 0.227248 0.410091 0.848193
O O19 0.000000 0.354276 0.860626
O O20 0.194862 0.360979 0.000000
O O21 0.228564 0.500000 0.842789
O O22 0.000000 0.453646 0.899916
O O23 0.243984 0.456630 0.000000
O O24 0.000000 0.127182 0.226466
#
# Coordination Sequence:
#
# PCOD8197963 Si02
#       8
#     8   8   8   8   8   8   8   8
#     4  10  21  34  45  61  91 130 163 189 221 265
#     4   8  15  29  48  71  99 126 151 184 229 277
#     4  10  20  34  52  72  91 113 149 197 239 272
#     4  10  20  34  51  70  94 124 154 184 227 281
#     4  11  21  32  46  64  92 130 162 186 224 278
#     4   9  17  28  43  64  91 125 163 201 237 272
#     4   7  10  19  37  60  84 112 151 198 242 278
#     4  11  20  30  50  76  96 118 154 196 235 272
#
# _framework density 16.147385
#
# number of rings (size 3 to 8) (size 9 to 14) (size 15 to 20)
#    0.000    2.500    1.250    3.750    0.000    3.500 
#    0.000    0.000    0.000    2.250    0.000    8.750 
#    0.000    0.500    0.000    5.750    0.000    1.875 
#
# Total GULP energy -793177.663249 kJ/mol
# GULP energy per Si atom -12393.400988 kJ/mol
# Density = 1.611063 g / cm^3
# Si number density = 16.147385 Si / 1000 Ang^3
#
#
#
# Elastic Constant Matrix: (Units=GPa)
#
#
# Indices 1 2 3 4 5 6 
#
# 1 50.5488 37.2143 33.1658 0.0000 0.0000 0.0000
# 2 37.2143 130.8882 53.7118 0.0000 0.0000 0.0000
# 3 33.1658 53.7118 90.0128 0.0000 0.0000 0.0000
# 4 0.0000 0.0000 0.0000 9.0728 0.0000 0.0000
# 5 0.0000 0.0000 0.0000 0.0000 24.2806 0.0000
# 6 0.0000 0.0000 0.0000 0.0000 0.0000 1.4800
#
#
#
# Elastic Compliance Matrix: (Units=1/GPa)
#
#
# Indices 1 2 3 4 5 6 
#
# 1 0.028363 -0.005000 -0.007467 0.000000 0.000000 0.000000
# 2 -0.005000 0.010999 -0.004721 0.000000 0.000000 0.000000
# 3 -0.007467 -0.004721 0.016678 0.000000 0.000000 0.000000
# 4 0.000000 0.000000 0.000000 0.110220 0.000000 0.000000
# 5 0.000000 0.000000 0.000000 0.000000 0.041185 0.000000
# 6 0.000000 0.000000 0.000000 0.000000 0.000000 0.675688
#
#
# Mechanical properties :
#
#
# Convention : Reuss Voigt Hill
#
# Bulk Modulus (GPa) = 46.15949 57.73705 51.94827
# Shear Modulus (GPa) = 5.40698 16.79053 11.09875
#
# Velocity S-wave (km/s) = 1.83188 3.22814 2.62456
# Velocity P-wave (km/s) = 5.75524 7.05184 6.43627
#
# Compressibility (1/GPa) = 0.02166402
#
# Stress axis : x y z
#
# Youngs Moduli (GPa) = 35.25704 90.91689 59.95978
#
# Poissons Ratio (x) = 0.45459 0.44772
# Poissons Ratio (y) = 0.17629 0.28307
# Poissons Ratio (z) = 0.26326 0.42922
#
# Static dielectric constant tensor:
#      x y z
#    x 2.886600 0.000000 0.000000 
#    y 0.000000 3.323810 0.000000 
#    z 0.000000 0.000000 3.055810 
# 
# 
# High freq. dielectric constant tensor:
#      x y z
#    x 1.608500 0.000000 0.000000 
#    y 0.000000 1.615840 0.000000 
#    z 0.000000 0.000000 1.602100 
# 
# From -- ./inp_files/8255.got.cif
#   From: 2010.03.12/outbox.cif.g09.slc.cpg/sg47_5_cif.got.tgz:8255.got - 2010.04.14 03:12:58.
