data_PCOD8197938
_publ_section_title
;
Structure prediction by ZEFSAII (Michael W. Deem and Ramdas Pophale) SiO2 
 PCOD8197938
Probable space group: P M M M
;
_chemical_formula_sum "Si O2"
_cell_formula_units_Z 52
_cell_length_a 10.776102
_cell_length_b 9.999925
_cell_length_c 28.483203
_cell_angle_alpha 90.000000
_cell_angle_beta 90.000000
_cell_angle_gamma 90.000000
_cell_volume 3069.355988
_symmetry_space_group_name_H-M "P M M M"
_symmetry_group_IT_number 47
_symmetry_cell_setting 'orthorhombic'
loop_
_space_group_symop_operation_xyz
x,y,z
-x,-y,z
x,-y,-z
-x,y,-z
-x,-y,-z
x,y,-z
-x,y,z
x,-y,z
loop_
_atom_site_type_symbol
_atom_site_label
_atom_site_fract_x
_atom_site_fract_y
_atom_site_fract_z
Si Si1 0.258478 0.250142 0.401397
Si Si2 0.144834 0.000000 0.551512
Si Si3 0.354036 0.648539 0.776804
Si Si4 0.856949 0.500000 0.552986
Si Si5 0.500000 0.349146 0.445139
Si Si6 0.138419 0.658947 0.946760
Si Si7 0.647320 0.156123 0.304234
Si Si8 0.639401 0.341595 0.117456
O O1 0.177006 0.377392 0.414030
O O2 0.385936 0.261476 0.428855
O O3 0.283184 0.231334 0.346395
O O4 0.183253 0.125909 0.419123
O O5 0.208028 0.000000 0.500000
O O6 0.000000 0.000000 0.544932
O O7 0.500000 0.635307 0.771380
O O8 0.296541 0.500000 0.766278
O O9 0.305368 0.763337 0.741626
O O10 0.321730 0.695798 0.829480
O O11 0.792451 0.500000 0.500000
O O12 0.000000 0.500000 0.542584
O O13 0.500000 0.500000 0.422896
O O14 0.500000 0.363279 0.500000
O O15 0.142820 0.500000 0.944031
O O16 0.251791 0.719472 0.915695
O O17 0.000000 0.706538 0.929812
O O18 0.160203 0.707429 0.000000
O O19 0.500000 0.168106 0.311501
O O20 0.685884 0.000000 0.300297
O O21 0.500000 0.285108 0.105337
O O22 0.633765 0.500000 0.111864
#
# Coordination Sequence:
#
# PCOD8197938 Si02
#       8
#     8   4   8   4   4   8   8   8
#     4  12  22  37  57  81 106 131 162 203 249 300
#     4  11  24  41  59  77  99 134 175 205 238 291
#     4   8  15  27  46  67  91 124 162 200 238 286
#     4  11  24  41  59  77  99 134 175 205 232 281
#     4  11  22  35  53  81 113 135 155 195 254 305
#     4   8  13  20  31  51  84 125 159 186 230 291
#     4  10  20  34  49  75 106 130 157 194 247 307
#     4   8  13  22  36  58  83 113 158 202 237 275
#
# _framework density 16.941663999999999
#
# number of rings (size 3 to 8) (size 9 to 14) (size 15 to 20)
#    0.000    2.385    2.308    3.231    1.077    1.846 
#    0.000    2.308    0.000    1.846    0.000    0.000 
#    0.000    0.615    0.000    7.692    0.000    8.923 
#
# Total GULP energy -644306.175906 kJ/mol
# GULP energy per Si atom -12390.503383 kJ/mol
# Density = 1.690310 g / cm^3
# Si number density = 16.941664 Si / 1000 Ang^3
#
#
#
# Elastic Constant Matrix: (Units=GPa)
#
#
# Indices 1 2 3 4 5 6 
#
# 1 84.7196 28.3221 57.7486 0.0000 0.0000 0.0000
# 2 28.3221 85.5702 46.2156 0.0000 0.0000 0.0000
# 3 57.7486 46.2156 128.7440 0.0000 0.0000 0.0000
# 4 0.0000 0.0000 0.0000 11.6232 0.0000 0.0000
# 5 0.0000 0.0000 0.0000 0.0000 23.2228 0.0000
# 6 0.0000 0.0000 0.0000 0.0000 0.0000 -41.3060
#
#
#
# Elastic Compliance Matrix: (Units=1/GPa)
#
#
# Indices 1 2 3 4 5 6 
#
# 1 0.017247 -0.001898 -0.007055 0.000000 0.000000 0.000000
# 2 -0.001898 0.014706 -0.004428 0.000000 0.000000 0.000000
# 3 -0.007055 -0.004428 0.012521 0.000000 0.000000 0.000000
# 4 0.000000 0.000000 0.000000 0.086035 0.000000 0.000000
# 5 0.000000 0.000000 0.000000 0.000000 0.043061 0.000000
# 6 0.000000 0.000000 0.000000 0.000000 0.000000 -0.024210
#
#
# Mechanical properties :
#
#
# Convention : Reuss Voigt Hill
#
# Bulk Modulus (GPa) = 56.45589 62.62293 59.53941
# Shear Modulus (GPa) = 27.46862 9.82451 18.64656
#
# Velocity S-wave (km/s) = 4.03099 2.41073 3.32118
# Velocity P-wave (km/s) = 7.42032 6.69275 7.06591
#
# Compressibility (1/GPa) = 0.01771294
#
# Stress axis : x y z
#
# Youngs Moduli (GPa) = 57.98063 68.00009 79.86448
#
# Poissons Ratio (x) = 0.12908 0.56343
# Poissons Ratio (y) = 0.11006 0.35360
# Poissons Ratio (z) = 0.40905 0.30107
#
# Static dielectric constant tensor:
#      x y z
#    x 3.274800 0.000000 0.000000 
#    y 0.000000 2.999240 0.000000 
#    z 0.000000 0.000000 3.380590 
# 
# 
# High freq. dielectric constant tensor:
#      x y z
#    x 1.638450 0.000000 0.000000 
#    y 0.000000 1.623770 0.000000 
#    z 0.000000 0.000000 1.653090 
# 
# From -- ./inp_files/33683.got.cif
#   From: 2010.03.12/outbox.cif.g09.slc.cpg/sg47_17_cif.got.tgz:33683.got - 2010.04.14 03:12:58.
