data_PCOD8197557
_publ_section_title
;
Structure prediction by ZEFSAII (Michael W. Deem and Ramdas Pophale) SiO2 
 PCOD8197557
Probable space group: P M M M
;
_chemical_formula_sum "Si O2"
_cell_formula_units_Z 40
_cell_length_a 9.243461
_cell_length_b 25.824900
_cell_length_c 9.278913
_cell_angle_alpha 90.000000
_cell_angle_beta 90.000000
_cell_angle_gamma 90.000000
_cell_volume 2214.982832
_symmetry_space_group_name_H-M "P M M M"
_symmetry_group_IT_number 47
_symmetry_cell_setting 'orthorhombic'
loop_
_space_group_symop_operation_xyz
x,y,z
-x,-y,z
x,-y,-z
-x,y,-z
-x,-y,-z
x,y,-z
-x,y,z
x,-y,z
loop_
_atom_site_type_symbol
_atom_site_label
_atom_site_fract_x
_atom_site_fract_y
_atom_site_fract_z
Si Si1 0.839814 0.195533 0.671075
Si Si2 0.333095 0.399615 0.830087
Si Si3 0.832229 0.688375 0.331900
Si Si4 0.836678 0.000000 0.671781
Si Si5 0.337565 0.900928 0.672013
Si Si6 0.163758 0.500000 0.828529
O O1 0.846276 0.192211 0.500000
O O2 0.790221 0.253199 0.715474
O O3 0.730280 0.152499 0.732693
O O4 0.000000 0.184052 0.732885
O O5 0.500000 0.406481 0.787299
O O6 0.270500 0.348556 0.758041
O O7 0.246276 0.449328 0.770508
O O8 0.313397 0.393987 0.000000
O O9 0.802052 0.679696 0.500000
O O10 0.000000 0.677265 0.296159
O O11 0.755011 0.949222 0.730676
O O12 0.837059 0.000000 0.500000
O O13 0.000000 0.000000 0.731642
O O14 0.337508 0.900845 0.500000
O O15 0.500000 0.905734 0.731950
O O16 0.000000 0.500000 0.768523
O O17 0.164954 0.500000 0.000000
#
# Coordination Sequence:
#
# PCOD8197557 Si02
#       6
#     8   8   8   4   8   4
#     4   8  14  25  39  54  75 105 140 176 215 261
#     4  10  20  33  50  73  99 124 151 186 228 273
#     4   9  18  32  49  69  93 122 157 194 229 269
#     4   9  15  21  29  41  61  93 132 173 216 259
#     4   9  15  21  30  46  68  95 131 174 216 259
#     4   9  17  31  52  73  92 119 154 188 224 269
#
# _framework density 18.05883
#
# number of rings (size 3 to 8) (size 9 to 14) (size 15 to 20)
#    0.000    3.000    0.000    3.000    0.000    7.200 
#    0.000    2.500    0.000    3.000    0.000    0.000 
#    0.000    0.000    0.000    0.900    0.000   17.800 
#
# Total GULP energy -495882.216679 kJ/mol
# GULP energy per Si atom -12397.055417 kJ/mol
# Density = 1.801773 g / cm^3
# Si number density = 18.058830 Si / 1000 Ang^3
#
#
#
# Elastic Constant Matrix: (Units=GPa)
#
#
# Indices 1 2 3 4 5 6 
#
# 1 168.9120 109.7909 24.1272 0.0000 0.0000 0.0000
# 2 109.7909 175.0816 22.5078 0.0000 0.0000 0.0000
# 3 24.1272 22.5078 11.3382 0.0000 0.0000 0.0000
# 4 0.0000 0.0000 0.0000 -7.4800 0.0000 0.0000
# 5 0.0000 0.0000 0.0000 0.0000 16.1992 0.0000
# 6 0.0000 0.0000 0.0000 0.0000 0.0000 33.1675
#
#
#
# Elastic Compliance Matrix: (Units=1/GPa)
#
#
# Indices 1 2 3 4 5 6 
#
# 1 0.011339 -0.005382 -0.013445 0.000000 0.000000 0.000000
# 2 -0.005382 0.010223 -0.008842 0.000000 0.000000 0.000000
# 3 -0.013445 -0.008842 0.134358 0.000000 0.000000 0.000000
# 4 0.000000 0.000000 0.000000 -0.133690 0.000000 0.000000
# 5 0.000000 0.000000 0.000000 0.000000 0.061732 0.000000
# 6 0.000000 0.000000 0.000000 0.000000 0.000000 0.030150
#
#
# Mechanical properties :
#
#
# Convention : Reuss Voigt Hill
#
# Bulk Modulus (GPa) = 9.94195 74.24261 42.09228
# Shear Modulus (GPa) = 24.63337 21.63775 23.13556
#
# Velocity S-wave (km/s) = 3.69733 3.46523 3.58316
# Velocity P-wave (km/s) = 4.87281 7.56381 6.36221
#
# Compressibility (1/GPa) = 0.10058394
#
# Stress axis : x y z
#
# Youngs Moduli (GPa) = 88.19165 97.81580 7.44278
#
# Poissons Ratio (x) = 0.52645 0.10006
# Poissons Ratio (y) = 0.47466 0.06581
# Poissons Ratio (z) = 1.18570 0.86486
#
# Static dielectric constant tensor:
#      x y z
#    x 3.546000 0.000000 0.000000 
#    y 0.000000 3.594910 0.000000 
#    z 0.000000 0.000000 2.616770 
# 
# 
# High freq. dielectric constant tensor:
#      x y z
#    x 1.709860 0.000000 0.000000 
#    y 0.000000 1.718280 0.000000 
#    z 0.000000 0.000000 1.619630 
# 
# From -- ./inp_files/1789.got.cif
#   From: 2010.03.12/outbox.cif.g09.slc.cpg/sg47_1_cif.got.tgz:1789.got - 2010.04.14 03:12:58.
