data_PCOD8197714
_publ_section_title
;
Structure prediction by ZEFSAII (Michael W. Deem and Ramdas Pophale) SiO2 
 PCOD8197714
Probable space group: P M M M
;
_chemical_formula_sum "Si O2"
_cell_formula_units_Z 53
_cell_length_a 9.169910
_cell_length_b 33.077876
_cell_length_c 9.757112
_cell_angle_alpha 90.000000
_cell_angle_beta 90.000000
_cell_angle_gamma 90.000000
_cell_volume 2959.538393
_symmetry_space_group_name_H-M "P M M M"
_symmetry_group_IT_number 47
_symmetry_cell_setting 'orthorhombic'
loop_
_space_group_symop_operation_xyz
x,y,z
-x,-y,z
x,-y,-z
-x,y,-z
-x,-y,-z
x,y,-z
-x,y,z
x,-y,z
loop_
_atom_site_type_symbol
_atom_site_label
_atom_site_fract_x
_atom_site_fract_y
_atom_site_fract_z
Si Si1 0.841896 0.000000 0.769068
Si Si2 0.335747 0.688246 0.662776
Si Si3 0.830216 0.842863 0.159075
Si Si4 0.829485 0.390960 0.659251
Si Si5 0.170240 0.232507 0.341718
Si Si6 0.000000 0.000000 0.500000
Si Si7 0.333155 0.547116 0.842979
Si Si8 0.661890 0.921088 0.839429
O O1 0.752122 0.039275 0.808173
O O2 0.866836 0.000000 0.607292
O O3 0.000000 0.000000 0.847073
O O4 0.333972 0.688082 0.500000
O O5 0.500000 0.687436 0.720764
O O6 0.250776 0.648916 0.716854
O O7 0.256036 0.728599 0.714994
O O8 0.779000 0.804956 0.249272
O O9 0.744634 0.881638 0.218106
O O10 0.000000 0.852007 0.181082
O O11 0.795406 0.833822 0.000000
O O12 0.792959 0.398400 0.500000
O O13 0.774912 0.429335 0.743501
O O14 0.000000 0.384868 0.682981
O O15 0.208323 0.222992 0.500000
O O16 0.000000 0.241607 0.323838
O O17 0.500000 0.558055 0.806744
O O18 0.304511 0.500000 0.818963
O O19 0.299458 0.558750 0.000000
O O20 0.500000 0.923924 0.773722
O O21 0.648041 0.915912 0.000000
#
# Coordination Sequence:
#
# PCOD8197714 Si02
#       8
#     4   8   8   8   8   1   8   8
#     4  10  20  38  56  74 103 135 171 208 251 300
#     4   9  17  30  50  73  99 130 168 212 256 304
#     4   9  18  33  51  74 104 137 170 208 255 304
#     4  10  20  33  51  77 105 134 169 214 261 305
#     4   9  17  31  50  73  97 129 169 210 252 302
#     4   8  24  40  52  76 104 140 174 214 248 300
#     4   9  19  36  55  74 100 135 172 210 254 307
#     4  10  20  34  55  82 106 130 167 215 261 304
#
# _framework density 17.908197999999999
#
# number of rings (size 3 to 8) (size 9 to 14) (size 15 to 20)
#    0.226    2.415    0.000    2.264    0.000    6.038 
#    1.358    3.774    0.000    2.717    0.000    0.000 
#    0.000    0.000    0.000    0.000    0.000    0.000 
#
# Total GULP energy -656636.084118 kJ/mol
# GULP energy per Si atom -12389.360078 kJ/mol
# Density = 1.786744 g / cm^3
# Si number density = 17.908198 Si / 1000 Ang^3
#
#
#
# Elastic Constant Matrix: (Units=GPa)
#
#
# Indices 1 2 3 4 5 6 
#
# 1 116.5813 79.0483 36.8400 0.0000 0.0000 0.0000
# 2 79.0483 144.2104 47.5855 0.0000 0.0000 0.0000
# 3 36.8400 47.5855 45.3871 0.0000 0.0000 0.0000
# 4 0.0000 0.0000 0.0000 31.8900 0.0000 0.0000
# 5 0.0000 0.0000 0.0000 0.0000 21.8094 0.0000
# 6 0.0000 0.0000 0.0000 0.0000 0.0000 28.1947
#
#
#
# Elastic Compliance Matrix: (Units=1/GPa)
#
#
# Indices 1 2 3 4 5 6 
#
# 1 0.014419 -0.006180 -0.005225 0.000000 0.000000 0.000000
# 2 -0.006180 0.013251 -0.008877 0.000000 0.000000 0.000000
# 3 -0.005225 -0.008877 0.035580 0.000000 0.000000 0.000000
# 4 0.000000 0.000000 0.000000 0.031358 0.000000 0.000000
# 5 0.000000 0.000000 0.000000 0.000000 0.045852 0.000000
# 6 0.000000 0.000000 0.000000 0.000000 0.000000 0.035468
#
#
# Mechanical properties :
#
#
# Convention : Reuss Voigt Hill
#
# Bulk Modulus (GPa) = 44.07648 70.34736 57.21192
# Shear Modulus (GPa) = 22.31637 25.89249 24.10443
#
# Velocity S-wave (km/s) = 3.53392 3.80655 3.67277
# Velocity P-wave (km/s) = 6.42786 7.66076 7.07123
#
# Compressibility (1/GPa) = 0.02268784
#
# Stress axis : x y z
#
# Youngs Moduli (GPa) = 69.35392 75.46784 28.10578
#
# Poissons Ratio (x) = 0.46636 0.14684
# Poissons Ratio (y) = 0.42858 0.24948
# Poissons Ratio (z) = 0.36234 0.66990
#
# Static dielectric constant tensor:
#      x y z
#    x 3.483640 0.000000 0.000000 
#    y 0.000000 3.381140 0.000000 
#    z 0.000000 0.000000 3.077690 
# 
# 
# High freq. dielectric constant tensor:
#      x y z
#    x 1.702400 0.000000 0.000000 
#    y 0.000000 1.698080 0.000000 
#    z 0.000000 0.000000 1.666060 
# 
# From -- ./inp_files/15501.got.cif
#   From: 2010.03.12/outbox.cif.g09.slc.cpg/sg47_8_cif.got.tgz:15501.got - 2010.04.14 03:12:58.
