data_PCOD8197905
_publ_section_title
;
Structure prediction by ZEFSAII (Michael W. Deem and Ramdas Pophale) SiO2 
 PCOD8197905
Probable space group: P M M M
;
_chemical_formula_sum "Si O2"
_cell_formula_units_Z 64
_cell_length_a 15.368672
_cell_length_b 23.884341
_cell_length_c 9.269399
_cell_angle_alpha 90.000000
_cell_angle_beta 90.000000
_cell_angle_gamma 90.000000
_cell_volume 3402.523878
_symmetry_space_group_name_H-M "P M M M"
_symmetry_group_IT_number 47
_symmetry_cell_setting 'orthorhombic'
loop_
_space_group_symop_operation_xyz
x,y,z
-x,-y,z
x,-y,-z
-x,y,-z
-x,-y,-z
x,y,-z
-x,y,z
x,-y,z
loop_
_atom_site_type_symbol
_atom_site_label
_atom_site_fract_x
_atom_site_fract_y
_atom_site_fract_z
Si Si1 0.247329 0.063911 0.330754
Si Si2 0.900504 0.127546 0.832172
Si Si3 0.402687 0.143570 0.334473
Si Si4 0.646262 0.747468 0.830638
Si Si5 0.597161 0.638822 0.334998
Si Si6 0.848440 0.250279 0.168074
Si Si7 0.097186 0.356795 0.334360
Si Si8 0.246545 0.562317 0.328827
O O1 0.231878 0.070049 0.500000
O O2 0.161003 0.085622 0.253353
O O3 0.332681 0.098020 0.280558
O O4 0.263134 0.000000 0.285357
O O5 0.885633 0.190944 0.778478
O O6 0.000000 0.109984 0.803090
O O7 0.876263 0.123198 0.000000
O O8 0.383991 0.160509 0.500000
O O9 0.500000 0.118116 0.318935
O O10 0.397357 0.198103 0.236432
O O11 0.601885 0.693361 0.763079
O O12 0.747525 0.746844 0.792774
O O13 0.628422 0.747811 0.000000
O O14 0.619287 0.655561 0.500000
O O15 0.500000 0.613587 0.323470
O O16 0.664327 0.591996 0.278581
O O17 0.898819 0.298608 0.250832
O O18 0.866374 0.258939 0.000000
O O19 0.120862 0.344360 0.500000
O O20 0.164635 0.402052 0.269398
O O21 0.000000 0.381627 0.319004
O O22 0.241993 0.557945 0.500000
O O23 0.243331 0.500000 0.261170
#
# Coordination Sequence:
#
# PCOD8197905 Si02
#       8
#     8   8   8   8   8   8   8   8
#     4  10  22  39  58  81 110 144 182 225 269 313
#     4  10  21  38  59  82 109 143 182 222 268 323
#     4  10  21  37  58  83 111 144 180 219 266 320
#     4  11  21  34  56  83 110 141 176 217 267 321
#     4  10  20  34  54  79 107 140 176 215 263 318
#     4  10  20  35  56  80 108 142 176 215 266 320
#     4  10  20  33  53  81 108 137 174 215 264 320
#     4   9  18  33  52  75 105 139 176 221 265 305
#
# _framework density 18.809567000000001
#
# number of rings (size 3 to 8) (size 9 to 14) (size 15 to 20)
#    0.000    2.000    2.500    1.125    0.000    5.250 
#    0.000    5.000    0.000    1.500    0.000    3.500 
#    0.000    0.000    0.000    0.000    0.000    0.000 
#
# Total GULP energy -793752.968444 kJ/mol
# GULP energy per Si atom -12402.390132 kJ/mol
# Density = 1.876676 g / cm^3
# Si number density = 18.809567 Si / 1000 Ang^3
#
#
#
# Elastic Constant Matrix: (Units=GPa)
#
#
# Indices 1 2 3 4 5 6 
#
# 1 129.1520 58.5372 34.0634 0.0000 0.0000 0.0000
# 2 58.5372 131.9272 34.7963 0.0000 0.0000 0.0000
# 3 34.0634 34.7963 41.1355 0.0000 0.0000 0.0000
# 4 0.0000 0.0000 0.0000 8.4555 0.0000 0.0000
# 5 0.0000 0.0000 0.0000 0.0000 21.6470 0.0000
# 6 0.0000 0.0000 0.0000 0.0000 0.0000 15.1744
#
#
#
# Elastic Compliance Matrix: (Units=1/GPa)
#
#
# Indices 1 2 3 4 5 6 
#
# 1 0.010831 -0.003141 -0.006312 0.000000 0.000000 0.000000
# 2 -0.003141 0.010668 -0.006423 0.000000 0.000000 0.000000
# 3 -0.006312 -0.006423 0.034970 0.000000 0.000000 0.000000
# 4 0.000000 0.000000 0.000000 0.118266 0.000000 0.000000
# 5 0.000000 0.000000 0.000000 0.000000 0.046196 0.000000
# 6 0.000000 0.000000 0.000000 0.000000 0.000000 0.065901
#
#
# Mechanical properties :
#
#
# Convention : Reuss Voigt Hill
#
# Bulk Modulus (GPa) = 40.45804 61.88982 51.17393
# Shear Modulus (GPa) = 15.29886 20.70989 18.00438
#
# Velocity S-wave (km/s) = 2.85503 3.32178 3.09721
# Velocity P-wave (km/s) = 5.69423 6.90558 6.32895
#
# Compressibility (1/GPa) = 0.02471697
#
# Stress axis : x y z
#
# Youngs Moduli (GPa) = 92.32518 93.74118 28.59614
#
# Poissons Ratio (x) = 0.29445 0.18050
# Poissons Ratio (y) = 0.29000 0.18366
# Poissons Ratio (z) = 0.58277 0.60207
#
# Static dielectric constant tensor:
#      x y z
#    x 3.651720 0.000000 0.000000 
#    y 0.000000 3.474890 0.000000 
#    z 0.000000 0.000000 3.254530 
# 
# 
# High freq. dielectric constant tensor:
#      x y z
#    x 1.749030 0.000000 0.000000 
#    y 0.000000 1.723460 0.000000 
#    z 0.000000 0.000000 1.707690 
# 
# From -- ./inp_files/7777.got.cif
#   From: 2010.03.12/outbox.cif.g09.slc.cpg/sg47_4_cif.got.tgz:7777.got - 2010.04.14 03:12:58.
