data_PCOD8197710
_publ_section_title
;
Structure prediction by ZEFSAII (Michael W. Deem and Ramdas Pophale) SiO2 
 PCOD8197710
Probable space group: P M M M
;
_chemical_formula_sum "Si O2"
_cell_formula_units_Z 40
_cell_length_a 19.566015
_cell_length_b 7.670811
_cell_length_c 14.551972
_cell_angle_alpha 90.000000
_cell_angle_beta 90.000000
_cell_angle_gamma 90.000000
_cell_volume 2184.064777
_symmetry_space_group_name_H-M "P M M M"
_symmetry_group_IT_number 47
_symmetry_cell_setting 'orthorhombic'
loop_
_space_group_symop_operation_xyz
x,y,z
-x,-y,z
x,-y,-z
-x,y,-z
-x,-y,-z
x,y,-z
-x,y,z
x,-y,z
loop_
_atom_site_type_symbol
_atom_site_label
_atom_site_fract_x
_atom_site_fract_y
_atom_site_fract_z
Si Si1 0.918815 0.500000 0.897057
Si Si2 0.828776 0.704625 0.395079
Si Si3 0.419268 0.000000 0.101269
Si Si4 0.420198 0.298879 0.763456
Si Si5 0.078114 0.194308 0.233072
Si Si6 0.324523 0.706461 0.600707
O O1 0.892674 0.328726 0.842695
O O2 0.000000 0.500000 0.904173
O O3 0.887313 0.500000 0.000000
O O4 0.847327 0.753556 0.500000
O O5 0.836201 0.500000 0.378960
O O6 0.880059 0.801700 0.327466
O O7 0.751715 0.768280 0.372345
O O8 0.396203 0.823277 0.152716
O O9 0.500000 0.000000 0.092547
O O10 0.385581 0.000000 0.000000
O O11 0.500000 0.275839 0.741554
O O12 0.402836 0.500000 0.787947
O O13 0.379486 0.229207 0.674720
O O14 0.000000 0.242793 0.257052
O O15 0.083418 0.000000 0.191189
O O16 0.344294 0.781792 0.500000
O O17 0.324925 0.500000 0.595394
#
# Coordination Sequence:
#
# PCOD8197710 Si02
#       6
#     4   8   4   8   8   8
#     4   9  18  34  55  77 101 129 163 204 252 302
#     4   9  17  31  51  73 100 137 173 202 241 296
#     4   9  18  32  49  71  99 127 161 208 252 292
#     4   9  17  30  50  75  99 128 164 201 247 294
#     4  10  20  33  51  77 103 129 165 207 251 295
#     4   8  15  29  49  74 101 132 168 200 239 293
#
# _framework density 18.314475000000002
#
# number of rings (size 3 to 8) (size 9 to 14) (size 15 to 20)
#    0.000    3.000    1.000    1.200    0.000    2.000 
#    1.800    8.500    0.000    3.000    0.000    0.000 
#    0.000    0.000    0.000    0.000    0.000    0.000 
#
# Total GULP energy -495820.487443 kJ/mol
# GULP energy per Si atom -12395.512186 kJ/mol
# Density = 1.827279 g / cm^3
# Si number density = 18.314475 Si / 1000 Ang^3
#
#
#
# Elastic Constant Matrix: (Units=GPa)
#
#
# Indices 1 2 3 4 5 6 
#
# 1 59.3144 29.9096 59.8829 0.0000 0.0000 0.0000
# 2 29.9096 95.9952 62.9313 0.0000 0.0000 0.0000
# 3 59.8829 62.9313 155.1932 0.0000 0.0000 0.0000
# 4 0.0000 0.0000 0.0000 10.4669 0.0000 0.0000
# 5 0.0000 0.0000 0.0000 0.0000 6.2896 0.0000
# 6 0.0000 0.0000 0.0000 0.0000 0.0000 11.2602
#
#
#
# Elastic Compliance Matrix: (Units=1/GPa)
#
#
# Indices 1 2 3 4 5 6 
#
# 1 0.027965 -0.002233 -0.009885 0.000000 0.000000 0.000000
# 2 -0.002233 0.014367 -0.004964 0.000000 0.000000 0.000000
# 3 -0.009885 -0.004964 0.012271 0.000000 0.000000 0.000000
# 4 0.000000 0.000000 0.000000 0.095539 0.000000 0.000000
# 5 0.000000 0.000000 0.000000 0.000000 0.158993 0.000000
# 6 0.000000 0.000000 0.000000 0.000000 0.000000 0.088809
#
#
# Mechanical properties :
#
#
# Convention : Reuss Voigt Hill
#
# Bulk Modulus (GPa) = 48.92704 68.43892 58.68298
# Shear Modulus (GPa) = 11.39154 16.12194 13.75674
#
# Velocity S-wave (km/s) = 2.49669 2.97018 2.74367
# Velocity P-wave (km/s) = 5.92320 7.01516 6.49218
#
# Compressibility (1/GPa) = 0.02043859
#
# Stress axis : x y z
#
# Youngs Moduli (GPa) = 35.75873 69.60191 81.49275
#
# Poissons Ratio (x) = 0.15540 0.80558
# Poissons Ratio (y) = 0.07984 0.40457
# Poissons Ratio (z) = 0.35348 0.34554
#
# Static dielectric constant tensor:
#      x y z
#    x 3.244030 0.000000 0.000000 
#    y 0.000000 3.344320 0.000000 
#    z 0.000000 0.000000 3.692310 
# 
# 
# High freq. dielectric constant tensor:
#      x y z
#    x 1.681020 0.000000 0.000000 
#    y 0.000000 1.710450 0.000000 
#    z 0.000000 0.000000 1.702490 
# 
# From -- ./inp_files/18968.got.cif
#   From: 2010.03.12/outbox.cif.g09.slc.cpg/sg47_10_cif.got.tgz:18968.got - 2010.04.14 03:12:58.
