data_PCOD8197919
_publ_section_title
;
Structure prediction by ZEFSAII (Michael W. Deem and Ramdas Pophale) SiO2 
 PCOD8197919
Probable space group: P M M M
;
_chemical_formula_sum "Si O2"
_cell_formula_units_Z 64
_cell_length_a 14.567963
_cell_length_b 9.005648
_cell_length_c 23.568662
_cell_angle_alpha 90.000000
_cell_angle_beta 90.000000
_cell_angle_gamma 90.000000
_cell_volume 3092.065790
_symmetry_space_group_name_H-M "P M M M"
_symmetry_group_IT_number 47
_symmetry_cell_setting 'orthorhombic'
loop_
_space_group_symop_operation_xyz
x,y,z
-x,-y,z
x,-y,-z
-x,y,-z
-x,-y,-z
x,y,-z
-x,y,z
x,-y,z
loop_
_atom_site_type_symbol
_atom_site_label
_atom_site_fract_x
_atom_site_fract_y
_atom_site_fract_z
Si Si1 0.661339 0.664581 0.439493
Si Si2 0.845602 0.173821 0.435977
Si Si3 0.281039 0.327694 0.066411
Si Si4 0.394794 0.824133 0.156570
Si Si5 0.899244 0.832881 0.932628
Si Si6 0.739931 0.826999 0.256396
Si Si7 0.896405 0.330405 0.678550
Si Si8 0.401199 0.666550 0.677485
O O1 0.611206 0.688232 0.500000
O O2 0.707756 0.500000 0.437224
O O3 0.738921 0.788171 0.431700
O O4 0.586403 0.676568 0.390236
O O5 0.882117 0.217367 0.500000
O O6 0.895389 0.256926 0.384023
O O7 0.860253 0.000000 0.425909
O O8 0.286926 0.500000 0.080067
O O9 0.365645 0.245676 0.096543
O O10 0.182686 0.270043 0.090527
O O11 0.290253 0.293216 0.000000
O O12 0.500000 0.774480 0.171137
O O13 0.318382 0.766930 0.201999
O O14 0.390547 0.000000 0.152095
O O15 0.000000 0.777314 0.911141
O O16 0.881592 0.000000 0.910452
O O17 0.899197 0.830587 0.000000
O O18 0.835087 0.745825 0.271734
O O19 0.672034 0.792082 0.307999
O O20 0.760789 0.000000 0.251034
O O21 0.863150 0.500000 0.672282
O O22 0.000000 0.320777 0.701487
O O23 0.500000 0.702867 0.705131
O O24 0.369488 0.500000 0.695968
#
# Coordination Sequence:
#
# PCOD8197919 Si02
#       8
#     8   8   8   8   8   8   8   8
#     4   9  17  30  49  74 109 151 191 233 282 340
#     4  10  20  34  55  84 117 153 194 242 297 354
#     4  10  21  36  57  90 129 164 199 244 298 352
#     4  10  23  43  65  89 117 154 200 244 291 351
#     4   8  14  27  50  80 115 158 204 242 277 325
#     4  11  23  41  64  87 113 146 189 245 297 344
#     4  11  24  41  62  88 118 154 196 241 295 361
#     4  10  20  33  53  82 113 149 192 234 284 346
#
# _framework density 20.698136999999999
#
# number of rings (size 3 to 8) (size 9 to 14) (size 15 to 20)
#    0.000    2.125    1.250    2.250    0.000    5.500 
#    0.000    5.625    0.000    0.750    0.000    2.625 
#    0.000    0.000    0.000    0.000    0.000    0.000 
#
# Total GULP energy -792876.731333 kJ/mol
# GULP energy per Si atom -12388.698927 kJ/mol
# Density = 2.065103 g / cm^3
# Si number density = 20.698137 Si / 1000 Ang^3
#
#
#
# Elastic Constant Matrix: (Units=GPa)
#
#
# Indices 1 2 3 4 5 6 
#
# 1 120.5490 45.2071 47.9486 0.0000 0.0000 0.0000
# 2 45.2071 71.8603 35.2647 0.0000 0.0000 0.0000
# 3 47.9486 35.2647 74.0483 0.0000 0.0000 0.0000
# 4 0.0000 0.0000 0.0000 27.1649 0.0000 0.0000
# 5 0.0000 0.0000 0.0000 0.0000 15.6664 0.0000
# 6 0.0000 0.0000 0.0000 0.0000 0.0000 21.2580
#
#
#
# Elastic Compliance Matrix: (Units=1/GPa)
#
#
# Indices 1 2 3 4 5 6 
#
# 1 0.012436 -0.005052 -0.005647 0.000000 0.000000 0.000000
# 2 -0.005052 0.020213 -0.006354 0.000000 0.000000 0.000000
# 3 -0.005647 -0.006354 0.020187 0.000000 0.000000 0.000000
# 4 0.000000 0.000000 0.000000 0.036812 0.000000 0.000000
# 5 0.000000 0.000000 0.000000 0.000000 0.063831 0.000000
# 6 0.000000 0.000000 0.000000 0.000000 0.000000 0.047041
#
#
# Mechanical properties :
#
#
# Convention : Reuss Voigt Hill
#
# Bulk Modulus (GPa) = 53.39289 58.14427 55.76858
# Shear Modulus (GPa) = 20.75808 22.02035 21.38922
#
# Velocity S-wave (km/s) = 3.17029 3.26526 3.21812
# Velocity P-wave (km/s) = 6.26522 6.50910 6.38832
#
# Compressibility (1/GPa) = 0.01872908
#
# Stress axis : x y z
#
# Youngs Moduli (GPa) = 80.41150 49.47364 49.53624
#
# Poissons Ratio (x) = 0.24997 0.27971
# Poissons Ratio (y) = 0.40628 0.31478
# Poissons Ratio (z) = 0.45405 0.31438
#
# Static dielectric constant tensor:
#      x y z
#    x 3.762100 0.000000 0.000000 
#    y 0.000000 3.697680 0.000000 
#    z 0.000000 0.000000 3.713240 
# 
# 
# High freq. dielectric constant tensor:
#      x y z
#    x 1.805980 0.000000 0.000000 
#    y 0.000000 1.801800 0.000000 
#    z 0.000000 0.000000 1.795960 
# 
# From -- ./inp_files/32751.got.cif
#   From: 2010.03.12/outbox.cif.g09.slc.cpg/sg47_17_cif.got.tgz:32751.got - 2010.04.14 03:12:58.
