data_PCOD8197384
_publ_section_title
;
Structure prediction by ZEFSAII (Michael W. Deem and Ramdas Pophale) SiO2 
 PCOD8197384
Probable space group: P M M M
;
_chemical_formula_sum "Si O2"
_cell_formula_units_Z 52
_cell_length_a 14.282765
_cell_length_b 9.029218
_cell_length_c 23.328007
_cell_angle_alpha 90.000000
_cell_angle_beta 90.000000
_cell_angle_gamma 90.000000
_cell_volume 3008.431077
_symmetry_space_group_name_H-M "P M M M"
_symmetry_group_IT_number 47
_symmetry_cell_setting 'orthorhombic'
loop_
_space_group_symop_operation_xyz
x,y,z
-x,-y,z
x,-y,-z
-x,y,-z
-x,-y,-z
x,y,-z
-x,y,z
x,-y,z
loop_
_atom_site_type_symbol
_atom_site_label
_atom_site_fract_x
_atom_site_fract_y
_atom_site_fract_z
Si Si1 0.604742 0.176044 0.330222
Si Si2 0.284124 0.824468 0.218088
Si Si3 0.894636 0.671719 0.388212
Si Si4 0.388860 0.832794 0.000000
Si Si5 0.610097 0.327456 0.114508
Si Si6 0.893996 0.327418 0.256471
Si Si7 0.722115 0.173967 0.563666
O O1 0.500000 0.241586 0.325316
O O2 0.665164 0.230106 0.276174
O O3 0.651115 0.238973 0.388690
O O4 0.600855 0.000000 0.331861
O O5 0.337431 0.751369 0.165843
O O6 0.176891 0.769494 0.218539
O O7 0.287295 0.000000 0.211173
O O8 0.871236 0.500000 0.394781
O O9 0.882427 0.720773 0.322396
O O10 0.825575 0.762104 0.428502
O O11 0.000000 0.705459 0.408769
O O12 0.352935 0.745850 0.944150
O O13 0.500000 0.835746 0.000000
O O14 0.348585 0.000000 0.000000
O O15 0.500000 0.301128 0.122726
O O16 0.635218 0.500000 0.113069
O O17 0.870593 0.500000 0.248679
O O18 0.000000 0.294448 0.235858
O O19 0.685210 0.215179 0.500000
O O20 0.730250 0.000000 0.571537
#
# Coordination Sequence:
#
# PCOD8197384 Si02
#       7
#     8   8   8   4   8   8   8
#     4   9  18  32  48  68  95 126 161 204 252 299
#     4  11  20  31  51  77 104 133 167 211 258 304
#     4   9  18  33  52  71  93 123 156 194 246 308
#     4   9  17  31  51  75 106 143 182 221 257 293
#     4  10  20  33  50  75 109 147 182 214 252 299
#     4   9  18  33  52  73  98 128 162 203 253 309
#     4  10  20  33  49  70  94 122 161 207 253 302
#
# _framework density 17.284756999999999
#
# number of rings (size 3 to 8) (size 9 to 14) (size 15 to 20)
#    0.000    2.385    1.538    2.538    0.000    4.000 
#    0.000    4.615    0.000    1.385    0.000    1.615 
#    0.000    4.308    0.000    0.000    0.000    0.000 
#
# Total GULP energy -644795.178691 kJ/mol
# GULP energy per Si atom -12399.907283 kJ/mol
# Density = 1.724542 g / cm^3
# Si number density = 17.284757 Si / 1000 Ang^3
#
#
#
# Elastic Constant Matrix: (Units=GPa)
#
#
# Indices 1 2 3 4 5 6 
#
# 1 96.8438 41.8078 57.7874 0.0000 0.0000 0.0000
# 2 41.8078 70.0805 56.4742 0.0000 0.0000 0.0000
# 3 57.7874 56.4742 132.4515 0.0000 0.0000 0.0000
# 4 0.0000 0.0000 0.0000 26.2825 0.0000 0.0000
# 5 0.0000 0.0000 0.0000 0.0000 21.2000 0.0000
# 6 0.0000 0.0000 0.0000 0.0000 0.0000 25.4432
#
#
#
# Elastic Compliance Matrix: (Units=1/GPa)
#
#
# Indices 1 2 3 4 5 6 
#
# 1 0.015332 -0.005722 -0.004249 0.000000 0.000000 0.000000
# 2 -0.005722 0.023874 -0.007683 0.000000 0.000000 0.000000
# 3 -0.004249 -0.007683 0.012680 0.000000 0.000000 0.000000
# 4 0.000000 0.000000 0.000000 0.038048 0.000000 0.000000
# 5 0.000000 0.000000 0.000000 0.000000 0.047170 0.000000
# 6 0.000000 0.000000 0.000000 0.000000 0.000000 0.039303
#
#
# Mechanical properties :
#
#
# Convention : Reuss Voigt Hill
#
# Bulk Modulus (GPa) = 60.32473 67.94606 64.13539
# Shear Modulus (GPa) = 23.01590 24.13891 23.57741
#
# Velocity S-wave (km/s) = 3.65303 3.74109 3.69732
# Velocity P-wave (km/s) = 7.26424 7.61946 7.44397
#
# Compressibility (1/GPa) = 0.01657695
#
# Stress axis : x y z
#
# Youngs Moduli (GPa) = 65.22396 41.88629 78.86634
#
# Poissons Ratio (x) = 0.23968 0.33513
# Poissons Ratio (y) = 0.37322 0.60592
# Poissons Ratio (z) = 0.27716 0.32181
#
# Static dielectric constant tensor:
#      x y z
#    x 3.213790 0.000000 0.000000 
#    y 0.000000 3.090610 0.000000 
#    z 0.000000 0.000000 3.239930 
# 
# 
# High freq. dielectric constant tensor:
#      x y z
#    x 1.656570 0.000000 0.000000 
#    y 0.000000 1.657830 0.000000 
#    z 0.000000 0.000000 1.659350 
# 
# From -- ./inp_files/6975.got.cif
#   From: 2010.03.12/outbox.cif.g09.slc.cpg/sg47_4_cif.got.tgz:6975.got - 2010.04.14 03:12:58.
