data_PCOD8197664
_publ_section_title
;
Structure prediction by ZEFSAII (Michael W. Deem and Ramdas Pophale) SiO2 
 PCOD8197664
Probable space group: P M M M
;
_chemical_formula_sum "Si O2"
_cell_formula_units_Z 40
_cell_length_a 15.851111
_cell_length_b 14.501645
_cell_length_c 9.249688
_cell_angle_alpha 90.000000
_cell_angle_beta 90.000000
_cell_angle_gamma 90.000000
_cell_volume 2126.199739
_symmetry_space_group_name_H-M "P M M M"
_symmetry_group_IT_number 47
_symmetry_cell_setting 'orthorhombic'
loop_
_space_group_symop_operation_xyz
x,y,z
-x,-y,z
x,-y,-z
-x,y,-z
-x,-y,-z
x,y,-z
-x,y,z
x,-y,z
loop_
_atom_site_type_symbol
_atom_site_label
_atom_site_fract_x
_atom_site_fract_y
_atom_site_fract_z
Si Si1 0.406426 0.770789 0.666596
Si Si2 0.172742 0.397858 0.665262
Si Si3 0.091791 0.211720 0.330201
Si Si4 0.746482 0.103759 0.327585
Si Si5 0.343930 0.604077 0.168472
O O1 0.386985 0.748281 0.500000
O O2 0.500000 0.814629 0.684368
O O3 0.336202 0.841472 0.727907
O O4 0.406068 0.675138 0.753797
O O5 0.204291 0.385424 0.500000
O O6 0.133162 0.500000 0.687961
O O7 0.103995 0.320367 0.703246
O O8 0.250895 0.382207 0.769598
O O9 0.090289 0.194000 0.500000
O O10 0.168532 0.151579 0.264290
O O11 0.000000 0.182905 0.265049
O O12 0.747820 0.103542 0.500000
O O13 0.742117 0.000000 0.266666
O O14 0.376406 0.500000 0.197103
O O15 0.341563 0.626698 0.000000
#
# Coordination Sequence:
#
# PCOD8197664 Si02
#       5
#     8   8   8   8   8
#     4  10  20  34  53  76 101 131 168 207 249 297
#     4   9  16  28  48  72 101 135 169 206 247 293
#     4   9  16  26  44  73 105 133 163 201 248 300
#     4   9  17  30  48  72 103 133 163 206 256 299
#     4  10  20  33  51  75 103 135 169 204 246 296
#
# _framework density 18.812908
#
# number of rings (size 3 to 8) (size 9 to 14) (size 15 to 20)
#    0.000    2.600    2.000    0.600    0.000    3.200 
#    0.000    8.000    0.000    1.200    0.000    4.200 
#    0.000    1.600    0.000    0.000    0.000    0.000 
#
# Total GULP energy -495770.780351 kJ/mol
# GULP energy per Si atom -12394.269509 kJ/mol
# Density = 1.877009 g / cm^3
# Si number density = 18.812908 Si / 1000 Ang^3
#
#
#
# Elastic Constant Matrix: (Units=GPa)
#
#
# Indices 1 2 3 4 5 6 
#
# 1 150.3003 78.3149 23.2879 0.0000 0.0000 0.0000
# 2 78.3149 137.5704 28.5657 0.0000 0.0000 0.0000
# 3 23.2879 28.5657 37.7269 0.0000 0.0000 0.0000
# 4 0.0000 0.0000 0.0000 10.4566 0.0000 0.0000
# 5 0.0000 0.0000 0.0000 0.0000 4.7905 0.0000
# 6 0.0000 0.0000 0.0000 0.0000 0.0000 16.6320
#
#
#
# Elastic Compliance Matrix: (Units=1/GPa)
#
#
# Indices 1 2 3 4 5 6 
#
# 1 0.009600 -0.005025 -0.002121 0.000000 0.000000 0.000000
# 2 -0.005025 0.011255 -0.005420 0.000000 0.000000 0.000000
# 3 -0.002121 -0.005420 0.031920 0.000000 0.000000 0.000000
# 4 0.000000 0.000000 0.000000 0.095633 0.000000 0.000000
# 5 0.000000 0.000000 0.000000 0.000000 0.208745 0.000000
# 6 0.000000 0.000000 0.000000 0.000000 0.000000 0.060125
#
#
# Mechanical properties :
#
#
# Convention : Reuss Voigt Hill
#
# Bulk Modulus (GPa) = 36.17656 65.10386 50.64021
# Shear Modulus (GPa) = 11.07113 19.40442 15.23777
#
# Velocity S-wave (km/s) = 2.42850 3.21509 2.84907
# Velocity P-wave (km/s) = 5.20912 6.96157 6.14811
#
# Compressibility (1/GPa) = 0.02764221
#
# Stress axis : x y z
#
# Youngs Moduli (GPa) = 104.16518 88.85061 31.32840
#
# Poissons Ratio (x) = 0.44644 0.06646
# Poissons Ratio (y) = 0.52339 0.16981
# Poissons Ratio (z) = 0.22098 0.48160
#
# Static dielectric constant tensor:
#      x y z
#    x 3.542330 0.000000 0.000000 
#    y 0.000000 3.681010 0.000000 
#    z 0.000000 0.000000 3.006650 
# 
# 
# High freq. dielectric constant tensor:
#      x y z
#    x 1.729950 0.000000 0.000000 
#    y 0.000000 1.733190 0.000000 
#    z 0.000000 0.000000 1.673020 
# 
# From -- ./inp_files/5668.got.cif
#   From: 2010.03.12/outbox.cif.g09.slc.cpg/sg47_3_cif.got.tgz:5668.got - 2010.04.14 03:12:58.
