data_PCOD8197999
_publ_section_title
;
Structure prediction by ZEFSAII (Michael W. Deem and Ramdas Pophale) SiO2 
 PCOD8197999
Probable space group: P M M M
;
_chemical_formula_sum "Si O2"
_cell_formula_units_Z 44
_cell_length_a 31.422207
_cell_length_b 7.917942
_cell_length_c 9.470593
_cell_angle_alpha 90.000000
_cell_angle_beta 90.000000
_cell_angle_gamma 90.000000
_cell_volume 2356.276081
_symmetry_space_group_name_H-M "P M M M"
_symmetry_group_IT_number 47
_symmetry_cell_setting 'orthorhombic'
loop_
_space_group_symop_operation_xyz
x,y,z
-x,-y,z
x,-y,-z
-x,y,-z
-x,-y,-z
x,y,-z
-x,y,z
x,-y,z
loop_
_atom_site_type_symbol
_atom_site_label
_atom_site_fract_x
_atom_site_fract_y
_atom_site_fract_z
Si Si1 0.000000 0.801163 0.161336
Si Si2 0.920489 0.304526 0.658222
Si Si3 0.547902 0.687487 0.167819
Si Si4 0.301940 0.000000 0.832259
Si Si5 0.602401 0.000000 0.168908
Si Si6 0.170540 0.807576 0.661472
Si Si7 0.754009 0.688467 0.163109
O O1 0.041554 0.729668 0.235557
O O2 0.000000 0.000000 0.173113
O O3 0.000000 0.739106 0.000000
O O4 0.933125 0.242746 0.500000
O O5 0.909416 0.500000 0.656356
O O6 0.878254 0.209412 0.712471
O O7 0.500000 0.722950 0.222200
O O8 0.562862 0.500000 0.218019
O O9 0.579012 0.832149 0.228374
O O10 0.548322 0.694185 0.000000
O O11 0.278503 0.170059 0.777472
O O12 0.349683 0.000000 0.771012
O O13 0.303790 0.000000 0.000000
O O14 0.601916 0.000000 0.000000
O O15 0.174013 0.745681 0.500000
O O16 0.201363 0.694010 0.755519
O O17 0.185149 0.000000 0.678641
O O18 0.734400 0.500000 0.182907
O O19 0.763843 0.725662 0.000000
#
# Coordination Sequence:
#
# PCOD8197999 Si02
#       7
#     4   8   8   4   4   8   8
#     4  11  24  39  54  76 106 139 172 203 240 290
#     4  10  21  37  57  80 104 131 164 203 247 295
#     4   8  13  20  30  47  72 103 145 198 249 293
#     4   9  18  31  43  62  91 122 163 210 250 303
#     4   9  15  22  35  51  73 109 151 197 248 295
#     4  10  20  35  57  82 104 129 165 208 252 299
#     4  10  20  34  52  72  98 133 167 205 256 305
#
# _framework density 18.673532999999999
#
# number of rings (size 3 to 8) (size 9 to 14) (size 15 to 20)
#    0.000    2.455    0.909    2.455    0.000    6.545 
#    0.000    3.636    0.000    0.000    0.000    0.000 
#    0.000    0.000    0.000    0.000    0.000    7.273 
#
# Total GULP energy -545507.944731 kJ/mol
# GULP energy per Si atom -12397.907835 kJ/mol
# Density = 1.863103 g / cm^3
# Si number density = 18.673533 Si / 1000 Ang^3
#
#
#
# Elastic Constant Matrix: (Units=GPa)
#
#
# Indices 1 2 3 4 5 6 
#
# 1 136.4040 68.5546 38.0617 0.0000 0.0000 0.0000
# 2 68.5546 126.8533 28.4927 0.0000 0.0000 0.0000
# 3 38.0617 28.4927 41.7110 0.0000 0.0000 0.0000
# 4 0.0000 0.0000 0.0000 16.3689 0.0000 0.0000
# 5 0.0000 0.0000 0.0000 0.0000 -2.4804 0.0000
# 6 0.0000 0.0000 0.0000 0.0000 0.0000 25.6361
#
#
#
# Elastic Compliance Matrix: (Units=1/GPa)
#
#
# Indices 1 2 3 4 5 6 
#
# 1 0.011791 -0.004672 -0.007568 0.000000 0.000000 0.000000
# 2 -0.004672 0.011163 -0.003362 0.000000 0.000000 0.000000
# 3 -0.007568 -0.003362 0.033177 0.000000 0.000000 0.000000
# 4 0.000000 0.000000 0.000000 0.061092 0.000000 0.000000
# 5 0.000000 0.000000 0.000000 0.000000 -0.403165 0.000000
# 6 0.000000 0.000000 0.000000 0.000000 0.000000 0.039007
#
#
# Mechanical properties :
#
#
# Convention : Reuss Voigt Hill
#
# Bulk Modulus (GPa) = 40.11754 63.90958 52.01356
# Shear Modulus (GPa) = -24.10555 19.22888 -2.43833
#
# Velocity S-wave (km/s) = -3.59680 3.21244 -1.14394
# Velocity P-wave (km/s) = 2.06906 6.93244 5.11565
#
# Compressibility (1/GPa) = 0.02492676
#
# Stress axis : x y z
#
# Youngs Moduli (GPa) = 84.80947 89.57877 30.14155
#
# Poissons Ratio (x) = 0.41855 0.22811
# Poissons Ratio (y) = 0.39626 0.10134
# Poissons Ratio (z) = 0.64182 0.30117
#
# Static dielectric constant tensor:
#      x y z
#    x 3.459430 0.000000 0.000000 
#    y 0.000000 3.722410 0.000000 
#    z 0.000000 0.000000 3.007650 
# 
# 
# High freq. dielectric constant tensor:
#      x y z
#    x 1.720950 0.000000 0.000000 
#    y 0.000000 1.743870 0.000000 
#    z 0.000000 0.000000 1.670080 
# 
# From -- ./inp_files/13774.got.cif
#   From: 2010.03.12/outbox.cif.g09.slc.cpg/sg47_7_cif.got.tgz:13774.got - 2010.04.14 03:12:58.
