data_PCOD8197112
_publ_section_title
;
Structure prediction by ZEFSAII (Michael W. Deem and Ramdas Pophale) SiO2 
 PCOD8197112
Probable space group: P M M M
;
_chemical_formula_sum "Si O2"
_cell_formula_units_Z 64
_cell_length_a 24.839675
_cell_length_b 15.152694
_cell_length_c 9.077248
_cell_angle_alpha 90.000000
_cell_angle_beta 90.000000
_cell_angle_gamma 90.000000
_cell_volume 3416.567169
_symmetry_space_group_name_H-M "P M M M"
_symmetry_group_IT_number 47
_symmetry_cell_setting 'orthorhombic'
loop_
_space_group_symop_operation_xyz
x,y,z
-x,-y,z
x,-y,-z
-x,y,-z
-x,-y,-z
x,y,-z
-x,y,z
x,-y,z
loop_
_atom_site_type_symbol
_atom_site_label
_atom_site_fract_x
_atom_site_fract_y
_atom_site_fract_z
Si Si1 0.642088 0.228905 0.174663
Si Si2 0.672711 0.401275 0.671535
Si Si3 0.145983 0.899134 0.666356
Si Si4 0.898384 0.594423 0.825212
Si Si5 0.219554 0.368668 0.165721
Si Si6 0.437027 0.899611 0.330992
Si Si7 0.939568 0.778057 0.174167
Si Si8 0.241724 0.169659 0.164454
O O1 0.637726 0.327057 0.244003
O O2 0.592932 0.168755 0.225770
O O3 0.697371 0.180962 0.225118
O O4 0.641226 0.240979 0.000000
O O5 0.671942 0.377483 0.500000
O O6 0.648701 0.500000 0.698740
O O7 0.733955 0.401115 0.726634
O O8 0.147410 0.863474 0.500000
O O9 0.102457 0.844833 0.756747
O O10 0.206419 0.892872 0.731557
O O11 0.127555 0.000000 0.672494
O O12 0.923861 0.500000 0.773628
O O13 0.836405 0.594208 0.772715
O O14 0.930565 0.678597 0.762475
O O15 0.899585 0.600891 0.000000
O O16 0.212832 0.263778 0.163373
O O17 0.232499 0.402408 0.000000
O O18 0.421077 0.881261 0.500000
O O19 0.500000 0.884586 0.307163
O O20 0.421480 0.000000 0.288086
O O21 0.000000 0.807070 0.216851
O O22 0.930757 0.780476 0.000000
O O23 0.242982 0.129035 0.000000
#
# Coordination Sequence:
#
# PCOD8197112 Si02
#       8
#     8   8   8   8   8   8   8   8
#     4  10  21  35  55  84 116 151 189 231 277 324
#     4  10  20  32  48  75 112 151 190 230 272 323
#     4  11  24  39  56  78 103 134 172 217 271 326
#     4   9  16  28  50  79 107 133 164 206 257 313
#     4   9  16  29  50  74 104 140 174 213 262 316
#     4   9  19  37  60  85 115 152 191 231 277 329
#     4  10  21  38  58  78 102 133 172 217 263 317
#     4   9  18  34  54  78 109 141 175 214 260 316
#
# _framework density 18.732253
#
# number of rings (size 3 to 8) (size 9 to 14) (size 15 to 20)
#    0.000    2.375    1.250    2.625    0.000    6.750 
#    0.000    5.625    0.000    0.750    0.000    3.500 
#    0.000    0.000    0.000    0.000    0.000    0.000 
#
# Total GULP energy -793355.713473 kJ/mol
# GULP energy per Si atom -12396.183023 kJ/mol
# Density = 1.868962 g / cm^3
# Si number density = 18.732253 Si / 1000 Ang^3
#
#
#
# Elastic Constant Matrix: (Units=GPa)
#
#
# Indices 1 2 3 4 5 6 
#
# 1 73.4286 48.7841 40.4974 0.0000 0.0000 0.0000
# 2 48.7841 100.8923 43.4583 0.0000 0.0000 0.0000
# 3 40.4974 43.4583 73.9281 0.0000 0.0000 0.0000
# 4 0.0000 0.0000 0.0000 22.4922 0.0000 0.0000
# 5 0.0000 0.0000 0.0000 0.0000 17.7558 0.0000
# 6 0.0000 0.0000 0.0000 0.0000 0.0000 4.9403
#
#
#
# Elastic Compliance Matrix: (Units=1/GPa)
#
#
# Indices 1 2 3 4 5 6 
#
# 1 0.023275 -0.007716 -0.008214 0.000000 0.000000 0.000000
# 2 -0.007716 0.015830 -0.005079 0.000000 0.000000 0.000000
# 3 -0.008214 -0.005079 0.021012 0.000000 0.000000 0.000000
# 4 0.000000 0.000000 0.000000 0.044460 0.000000 0.000000
# 5 0.000000 0.000000 0.000000 0.000000 0.056319 0.000000
# 6 0.000000 0.000000 0.000000 0.000000 0.000000 0.202418
#
#
# Mechanical properties :
#
#
# Convention : Reuss Voigt Hill
#
# Bulk Modulus (GPa) = 55.25133 57.08095 56.16614
# Shear Modulus (GPa) = 12.15462 16.73829 14.44645
#
# Velocity S-wave (km/s) = 2.55004 2.99248 2.78007
# Velocity P-wave (km/s) = 6.18301 6.51752 6.35247
#
# Compressibility (1/GPa) = 0.01809911
#
# Stress axis : x y z
#
# Youngs Moduli (GPa) = 42.96398 63.17064 47.59195
#
# Poissons Ratio (x) = 0.48743 0.39093
# Poissons Ratio (y) = 0.33151 0.24171
# Poissons Ratio (z) = 0.35292 0.32084
#
# Static dielectric constant tensor:
#      x y z
#    x 3.261430 0.000000 0.000000 
#    y 0.000000 3.561630 0.000000 
#    z 0.000000 0.000000 3.281900 
# 
# 
# High freq. dielectric constant tensor:
#      x y z
#    x 1.707560 0.000000 0.000000 
#    y 0.000000 1.735080 0.000000 
#    z 0.000000 0.000000 1.709240 
# 
# From -- ./inp_files/12759.got.cif
#   From: 2010.03.12/outbox.cif.g09.slc.cpg/sg47_7_cif.got.tgz:12759.got - 2010.04.14 03:12:58.
