data_PCOD8197514
_publ_section_title
;
Structure prediction by ZEFSAII (Michael W. Deem and Ramdas Pophale) SiO2 
 PCOD8197514
Probable space group: P M M M
;
_chemical_formula_sum "Si O2"
_cell_formula_units_Z 64
_cell_length_a 9.256804
_cell_length_b 20.308016
_cell_length_c 19.337591
_cell_angle_alpha 90.000000
_cell_angle_beta 90.000000
_cell_angle_gamma 90.000000
_cell_volume 3635.221980
_symmetry_space_group_name_H-M "P M M M"
_symmetry_group_IT_number 47
_symmetry_cell_setting 'orthorhombic'
loop_
_space_group_symop_operation_xyz
x,y,z
-x,-y,z
x,-y,-z
-x,y,-z
-x,-y,-z
x,y,-z
-x,y,z
x,-y,z
loop_
_atom_site_type_symbol
_atom_site_label
_atom_site_fract_x
_atom_site_fract_y
_atom_site_fract_z
Si Si1 0.166136 0.824346 0.581923
Si Si2 0.659201 0.308322 0.082104
Si Si3 0.668226 0.922778 0.674309
Si Si4 0.668372 0.838105 0.080655
Si Si5 0.662825 0.696430 0.582396
Si Si6 0.837576 0.572849 0.582242
Si Si7 0.838619 0.571659 0.917847
Si Si8 0.833564 0.922817 0.188152
O O1 0.176179 0.829775 0.500000
O O2 0.252159 0.886355 0.611853
O O3 0.241255 0.757445 0.608904
O O4 0.000000 0.824837 0.606808
O O5 0.500000 0.316465 0.113282
O O6 0.718874 0.235946 0.101216
O O7 0.752476 0.367282 0.115458
O O8 0.653554 0.314899 0.000000
O O9 0.500000 0.903433 0.676419
O O10 0.742171 0.900051 0.745532
O O11 0.689818 0.000000 0.661653
O O12 0.500000 0.848485 0.099240
O O13 0.768948 0.888375 0.120959
O O14 0.693807 0.851074 0.000000
O O15 0.662164 0.694923 0.500000
O O16 0.500000 0.703422 0.611126
O O17 0.731236 0.628766 0.612229
O O18 0.837170 0.575938 0.500000
O O19 0.785840 0.500000 0.606612
O O20 0.000000 0.586466 0.609126
O O21 0.771647 0.500000 0.897324
O O22 0.000000 0.576024 0.888564
O O23 0.839961 0.578321 0.000000
O O24 0.000000 0.902394 0.198809
O O25 0.817652 0.000000 0.175793
#
# Coordination Sequence:
#
# PCOD8197514 Si02
#       8
#     8   8   8   8   8   8   8   8
#     4  10  20  33  50  72  99 130 161 195 237 284
#     4   8  14  24  37  55  81 113 149 188 228 270
#     4  10  21  37  56  75  96 124 157 194 237 284
#     4   9  18  32  49  70  97 128 161 197 238 284
#     4   9  16  25  38  58  86 119 155 195 236 278
#     4   8  13  21  33  50  76 113 154 192 232 280
#     4   8  13  20  30  47  74 109 147 184 223 269
#     4  10  21  36  53  73  97 124 156 195 237 283
#
# _framework density 17.605528
#
# number of rings (size 3 to 8) (size 9 to 14) (size 15 to 20)
#    0.000    3.000    0.000    3.000    0.000    5.500 
#    0.000    6.250    0.000    0.000    0.000    0.000 
#    0.000    1.000    0.000    7.250    0.000   13.750 
#
# Total GULP energy -793268.586198 kJ/mol
# GULP energy per Si atom -12394.821659 kJ/mol
# Density = 1.756546 g / cm^3
# Si number density = 17.605528 Si / 1000 Ang^3
#
#
#
# Elastic Constant Matrix: (Units=GPa)
#
#
# Indices 1 2 3 4 5 6 
#
# 1 131.5257 70.3675 32.8103 0.0000 0.0000 0.0000
# 2 70.3675 97.1734 32.0074 0.0000 0.0000 0.0000
# 3 32.8103 32.0074 26.9826 0.0000 0.0000 0.0000
# 4 0.0000 0.0000 0.0000 1.3244 0.0000 0.0000
# 5 0.0000 0.0000 0.0000 0.0000 20.3461 0.0000
# 6 0.0000 0.0000 0.0000 0.0000 0.0000 38.5507
#
#
#
# Elastic Compliance Matrix: (Units=1/GPa)
#
#
# Indices 1 2 3 4 5 6 
#
# 1 0.013347 -0.007089 -0.007820 0.000000 0.000000 0.000000
# 2 -0.007089 0.020656 -0.015882 0.000000 0.000000 0.000000
# 3 -0.007820 -0.015882 0.065410 0.000000 0.000000 0.000000
# 4 0.000000 0.000000 0.000000 0.755081 0.000000 0.000000
# 5 0.000000 0.000000 0.000000 0.000000 0.049149 0.000000
# 6 0.000000 0.000000 0.000000 0.000000 0.000000 0.025940
#
#
# Mechanical properties :
#
#
# Convention : Reuss Voigt Hill
#
# Bulk Modulus (GPa) = 26.43435 58.45024 42.44229
# Shear Modulus (GPa) = 4.98120 20.07734 12.52927
#
# Velocity S-wave (km/s) = 1.68389 3.38064 2.67060
# Velocity P-wave (km/s) = 4.33913 6.96494 5.80252
#
# Compressibility (1/GPa) = 0.03782957
#
# Stress axis : x y z
#
# Youngs Moduli (GPa) = 74.92571 48.41292 15.28830
#
# Poissons Ratio (x) = 0.34320 0.11955
# Poissons Ratio (y) = 0.53115 0.24281
# Poissons Ratio (z) = 0.58592 0.76890
#
# Static dielectric constant tensor:
#      x y z
#    x 3.501480 0.000000 0.000000 
#    y 0.000000 3.521120 0.000000 
#    z 0.000000 0.000000 2.680160 
# 
# 
# High freq. dielectric constant tensor:
#      x y z
#    x 1.687770 0.000000 0.000000 
#    y 0.000000 1.694470 0.000000 
#    z 0.000000 0.000000 1.614530 
# 
# From -- ./inp_files/26992.got.cif
#   From: 2010.03.12/outbox.cif.g09.slc.cpg/sg47_14_cif.got.tgz:26992.got - 2010.04.14 03:12:58.
