data_PCOD8197303
_publ_section_title
;
Structure prediction by ZEFSAII (Michael W. Deem and Ramdas Pophale) SiO2 
 PCOD8197303
Probable space group: P M M M
;
_chemical_formula_sum "Si O2"
_cell_formula_units_Z 40
_cell_length_a 15.517068
_cell_length_b 8.805172
_cell_length_c 19.924888
_cell_angle_alpha 90.000000
_cell_angle_beta 90.000000
_cell_angle_gamma 90.000000
_cell_volume 2722.346467
_symmetry_space_group_name_H-M "P M M M"
_symmetry_group_IT_number 47
_symmetry_cell_setting 'orthorhombic'
loop_
_space_group_symop_operation_xyz
x,y,z
-x,-y,z
x,-y,-z
-x,y,-z
-x,-y,-z
x,y,-z
-x,y,z
x,-y,z
loop_
_atom_site_type_symbol
_atom_site_label
_atom_site_fract_x
_atom_site_fract_y
_atom_site_fract_z
Si Si1 0.166246 0.179998 0.654686
Si Si2 0.675588 0.677867 0.421736
Si Si3 0.000000 0.180665 0.575271
Si Si4 0.897719 0.329968 0.929019
Si Si5 0.500000 0.170863 0.579593
Si Si6 0.901327 0.681291 0.215642
O O1 0.252025 0.237781 0.620093
O O2 0.084599 0.242291 0.612822
O O3 0.161077 0.243979 0.729909
O O4 0.167393 0.000000 0.656933
O O5 0.689055 0.715827 0.500000
O O6 0.679958 0.500000 0.407850
O O7 0.584181 0.739820 0.395211
O O8 0.000000 0.246910 0.500000
O O9 0.000000 0.000000 0.573957
O O10 0.860530 0.500000 0.931842
O O11 0.868619 0.256148 0.857891
O O12 0.000000 0.337376 0.925937
O O13 0.869237 0.247219 0.000000
O O14 0.500000 0.166877 0.500000
O O15 0.500000 0.000000 0.608917
O O16 0.894079 0.500000 0.218076
O O17 0.000000 0.732351 0.229344
#
# Coordination Sequence:
#
# PCOD8197303 Si02
#       6
#     8   8   4   8   4   8
#     4  11  20  30  43  59  82 113 146 179 213 255
#     4  10  20  33  48  66  86 107 135 175 219 258
#     4   9  18  30  41  53  72 103 144 184 215 243
#     4   7  10  18  34  55  75  98 132 171 208 246
#     4   9  17  31  51  71  87 105 130 163 208 263
#     4   9  16  26  40  57  80 108 139 177 215 251
#
# _framework density 14.693208
#
# number of rings (size 3 to 8) (size 9 to 14) (size 15 to 20)
#    0.000    2.800    1.000    3.900    0.000    3.200 
#    0.000    0.000    0.000    3.000    0.000    2.800 
#    0.000    0.000    0.000    0.900    0.000   18.600 
#
# Total GULP energy -495578.090939 kJ/mol
# GULP energy per Si atom -12389.452273 kJ/mol
# Density = 1.465977 g / cm^3
# Si number density = 14.693208 Si / 1000 Ang^3
#
#
#
# Elastic Constant Matrix: (Units=GPa)
#
#
# Indices 1 2 3 4 5 6 
#
# 1 75.6437 16.8740 41.9099 0.0000 0.0000 0.0000
# 2 16.8740 38.4077 27.9813 0.0000 0.0000 0.0000
# 3 41.9099 27.9813 119.4609 0.0000 0.0000 0.0000
# 4 0.0000 0.0000 0.0000 11.1792 0.0000 0.0000
# 5 0.0000 0.0000 0.0000 0.0000 4.3110 0.0000
# 6 0.0000 0.0000 0.0000 0.0000 0.0000 19.6555
#
#
#
# Elastic Compliance Matrix: (Units=1/GPa)
#
#
# Indices 1 2 3 4 5 6 
#
# 1 0.016842 -0.003731 -0.005034 0.000000 0.000000 0.000000
# 2 -0.003731 0.032220 -0.006238 0.000000 0.000000 0.000000
# 3 -0.005034 -0.006238 0.011598 0.000000 0.000000 0.000000
# 4 0.000000 0.000000 0.000000 0.089452 0.000000 0.000000
# 5 0.000000 0.000000 0.000000 0.000000 0.231965 0.000000
# 6 0.000000 0.000000 0.000000 0.000000 0.000000 0.050876
#
#
# Mechanical properties :
#
#
# Convention : Reuss Voigt Hill
#
# Bulk Modulus (GPa) = 32.62358 45.22697 38.92528
# Shear Modulus (GPa) = 10.56684 16.81226 13.68955
#
# Velocity S-wave (km/s) = 2.68463 3.38630 3.05568
# Velocity P-wave (km/s) = 5.64456 6.79243 6.24492
#
# Compressibility (1/GPa) = 0.03065267
#
# Stress axis : x y z
#
# Youngs Moduli (GPa) = 59.37699 31.03628 86.21996
#
# Poissons Ratio (x) = 0.11581 0.43407
# Poissons Ratio (y) = 0.22156 0.53783
# Poissons Ratio (z) = 0.29893 0.19360
#
# Static dielectric constant tensor:
#      x y z
#    x 2.713320 0.000000 0.000000 
#    y 0.000000 2.676440 0.000000 
#    z 0.000000 0.000000 3.196210 
# 
# 
# High freq. dielectric constant tensor:
#      x y z
#    x 1.522120 0.000000 0.000000 
#    y 0.000000 1.546650 0.000000 
#    z 0.000000 0.000000 1.562160 
# 
# From -- ./inp_files/24854.got.cif
#   From: 2010.03.12/outbox.cif.g09.slc.cpg/sg47_13_cif.got.tgz:24854.got - 2010.04.14 03:12:58.
