data_PCOD8197688
_publ_section_title
;
Structure prediction by ZEFSAII (Michael W. Deem and Ramdas Pophale) SiO2 
 PCOD8197688
Probable space group: P M M M
;
_chemical_formula_sum "Si O2"
_cell_formula_units_Z 64
_cell_length_a 9.143554
_cell_length_b 18.694901
_cell_length_c 20.333246
_cell_angle_alpha 90.000000
_cell_angle_beta 90.000000
_cell_angle_gamma 90.000000
_cell_volume 3475.721087
_symmetry_space_group_name_H-M "P M M M"
_symmetry_group_IT_number 47
_symmetry_cell_setting 'orthorhombic'
loop_
_space_group_symop_operation_xyz
x,y,z
-x,-y,z
x,-y,-z
-x,y,-z
-x,-y,-z
x,y,-z
-x,y,z
x,-y,z
loop_
_atom_site_type_symbol
_atom_site_label
_atom_site_fract_x
_atom_site_fract_y
_atom_site_fract_z
Si Si1 0.173254 0.333651 0.188000
Si Si2 0.328406 0.330361 0.575788
Si Si3 0.169818 0.185884 0.575078
Si Si4 0.830739 0.416815 0.682850
Si Si5 0.825649 0.828276 0.807904
Si Si6 0.329620 0.418129 0.924695
Si Si7 0.826593 0.079985 0.313791
Si Si8 0.173985 0.080022 0.927331
O O1 0.226503 0.376533 0.252171
O O2 0.231343 0.252750 0.195777
O O3 0.238763 0.366713 0.122151
O O4 0.000000 0.336953 0.181011
O O5 0.289979 0.347159 0.500000
O O6 0.500000 0.326612 0.587674
O O7 0.259842 0.255012 0.597624
O O8 0.261001 0.393132 0.619543
O O9 0.203119 0.165180 0.500000
O O10 0.219623 0.118424 0.618478
O O11 0.000000 0.204205 0.586531
O O12 0.804002 0.500000 0.694752
O O13 0.000000 0.399095 0.669501
O O14 0.763630 0.873464 0.746508
O O15 0.762836 0.864424 0.874286
O O16 0.000000 0.829322 0.807007
O O17 0.500000 0.407452 0.910282
O O18 0.284025 0.500000 0.911058
O O19 0.293230 0.397816 0.000000
O O20 0.000000 0.074943 0.308184
O O21 0.759219 0.000000 0.312595
O O22 0.000000 0.080796 0.925518
O O23 0.229078 0.000000 0.910229
O O24 0.229329 0.102596 0.000000
#
# Coordination Sequence:
#
# PCOD8197688 Si02
#       8
#     8   8   8   8   8   8   8   8
#     4  10  20  33  51  76 104 132 164 205 250 296
#     4  10  21  36  54  76 101 130 167 210 252 298
#     4   9  17  30  49  72  99 130 161 197 245 298
#     4  10  21  36  53  74 102 134 166 203 252 309
#     4   9  16  25  39  62  93 125 155 192 239 285
#     4   9  19  36  55  74  99 132 168 206 250 300
#     4   9  16  26  43  67  94 126 164 203 242 288
#     4   8  13  21  33  51  81 122 159 186 219 269
#
# _framework density 18.413444999999999
#
# number of rings (size 3 to 8) (size 9 to 14) (size 15 to 20)
#    0.000    2.750    0.000    2.625    0.000    7.000 
#    0.000    4.375    0.000    0.375    0.000    1.750 
#    0.000    1.500    0.000    6.875    0.000    5.250 
#
# Total GULP energy -793575.124273 kJ/mol
# GULP energy per Si atom -12399.611317 kJ/mol
# Density = 1.837153 g / cm^3
# Si number density = 18.413445 Si / 1000 Ang^3
#
#
#
# Elastic Constant Matrix: (Units=GPa)
#
#
# Indices 1 2 3 4 5 6 
#
# 1 30.6521 31.2441 31.1117 0.0000 0.0000 0.0000
# 2 31.2441 148.8346 88.9186 0.0000 0.0000 0.0000
# 3 31.1117 88.9186 132.5590 0.0000 0.0000 0.0000
# 4 0.0000 0.0000 0.0000 42.0820 0.0000 0.0000
# 5 0.0000 0.0000 0.0000 0.0000 19.6730 0.0000
# 6 0.0000 0.0000 0.0000 0.0000 0.0000 9.7539
#
#
#
# Elastic Compliance Matrix: (Units=1/GPa)
#
#
# Indices 1 2 3 4 5 6 
#
# 1 0.045160 -0.005253 -0.007075 0.000000 0.000000 0.000000
# 2 -0.005253 0.011823 -0.006698 0.000000 0.000000 0.000000
# 3 -0.007075 -0.006698 0.013697 0.000000 0.000000 0.000000
# 4 0.000000 0.000000 0.000000 0.023763 0.000000 0.000000
# 5 0.000000 0.000000 0.000000 0.000000 0.050831 0.000000
# 6 0.000000 0.000000 0.000000 0.000000 0.000000 0.102523
#
#
# Mechanical properties :
#
#
# Convention : Reuss Voigt Hill
#
# Bulk Modulus (GPa) = 30.64875 68.28827 49.46851
# Shear Modulus (GPa) = 16.85052 25.01987 20.93520
#
# Velocity S-wave (km/s) = 3.02838 3.69017 3.37553
# Velocity P-wave (km/s) = 5.37671 7.43795 6.48969
#
# Compressibility (1/GPa) = 0.03262775
#
# Stress axis : x y z
#
# Youngs Moduli (GPa) = 22.14337 84.57974 73.00735
#
# Poissons Ratio (x) = 0.44431 0.51656
# Poissons Ratio (y) = 0.11632 0.48899
# Poissons Ratio (z) = 0.15667 0.56650
#
# Static dielectric constant tensor:
#      x y z
#    x 2.910780 0.000000 0.000000 
#    y 0.000000 3.525430 0.000000 
#    z 0.000000 0.000000 3.578900 
# 
# 
# High freq. dielectric constant tensor:
#      x y z
#    x 1.661650 0.000000 0.000000 
#    y 0.000000 1.719790 0.000000 
#    z 0.000000 0.000000 1.728500 
# 
# From -- ./inp_files/28771.got.cif
#   From: 2010.03.12/outbox.cif.g09.slc.cpg/sg47_15_cif.got.tgz:28771.got - 2010.04.14 03:12:58.
