data_PCOD8197669
_publ_section_title
;
Structure prediction by ZEFSAII (Michael W. Deem and Ramdas Pophale) SiO2 
 PCOD8197669
Probable space group: P M M M
;
_chemical_formula_sum "Si O2"
_cell_formula_units_Z 44
_cell_length_a 9.485532
_cell_length_b 8.165413
_cell_length_c 29.989082
_cell_angle_alpha 90.000000
_cell_angle_beta 90.000000
_cell_angle_gamma 90.000000
_cell_volume 2322.752954
_symmetry_space_group_name_H-M "P M M M"
_symmetry_group_IT_number 47
_symmetry_cell_setting 'orthorhombic'
loop_
_space_group_symop_operation_xyz
x,y,z
-x,-y,z
x,-y,-z
-x,y,-z
-x,-y,-z
x,y,-z
-x,y,z
x,-y,z
loop_
_atom_site_type_symbol
_atom_site_label
_atom_site_fract_x
_atom_site_fract_y
_atom_site_fract_z
Si Si1 0.832554 0.684252 0.802589
Si Si2 0.161175 0.809446 0.291903
Si Si3 0.656186 0.689262 0.628232
Si Si4 0.155326 0.192432 0.450841
Si Si5 0.832114 0.500000 0.949372
Si Si6 0.832192 0.816971 0.895615
O O1 0.772341 0.500000 0.804618
O O2 0.779942 0.771361 0.757484
O O3 0.777347 0.785343 0.845283
O O4 0.000000 0.681048 0.803756
O O5 0.255654 0.715597 0.327120
O O6 0.000000 0.748047 0.296516
O O7 0.171825 0.000000 0.301955
O O8 0.500000 0.767371 0.633588
O O9 0.642408 0.500000 0.619220
O O10 0.729261 0.763820 0.585238
O O11 0.198183 0.260452 0.500000
O O12 0.000000 0.262261 0.437499
O O13 0.144615 0.000000 0.453281
O O14 0.774117 0.667848 0.926450
O O15 0.000000 0.500000 0.946505
O O16 0.778023 0.500000 0.000000
O O17 0.000000 0.813978 0.897262
O O18 0.779630 0.000000 0.910736
#
# Coordination Sequence:
#
# PCOD8197669 Si02
#       6
#     8   8   8   8   4   8
#     4   9  15  25  42  63  87 114 147 193 248 297
#     4  10  20  33  51  75  98 123 162 209 253 300
#     4  11  24  38  51  72 104 138 169 202 245 299
#     4   9  19  37  60  83 104 128 163 207 251 295
#     4   9  16  24  32  46  72 108 151 197 246 299
#     4   9  15  23  35  51  74 106 147 196 246 296
#
# _framework density 18.943038999999999
#
# number of rings (size 3 to 8) (size 9 to 14) (size 15 to 20)
#    0.000    2.455    0.909    2.727    0.000    8.364 
#    0.000    4.545    0.000    0.000    0.000    0.000 
#    0.000    0.000    0.000    0.000    0.000    1.818 
#
# Total GULP energy -545322.813268 kJ/mol
# GULP energy per Si atom -12393.700302 kJ/mol
# Density = 1.889992 g / cm^3
# Si number density = 18.943039 Si / 1000 Ang^3
#
#
#
# Elastic Constant Matrix: (Units=GPa)
#
#
# Indices 1 2 3 4 5 6 
#
# 1 52.3405 17.6215 39.1070 0.0000 0.0000 0.0000
# 2 17.6215 86.6877 37.2383 0.0000 0.0000 0.0000
# 3 39.1070 37.2383 142.8404 0.0000 0.0000 0.0000
# 4 0.0000 0.0000 0.0000 34.1115 0.0000 0.0000
# 5 0.0000 0.0000 0.0000 0.0000 -1.6773 0.0000
# 6 0.0000 0.0000 0.0000 0.0000 0.0000 15.2203
#
#
#
# Elastic Compliance Matrix: (Units=1/GPa)
#
#
# Indices 1 2 3 4 5 6 
#
# 1 0.024440 -0.002358 -0.006076 0.000000 0.000000 0.000000
# 2 -0.002358 0.013218 -0.002800 0.000000 0.000000 0.000000
# 3 -0.006076 -0.002800 0.009394 0.000000 0.000000 0.000000
# 4 0.000000 0.000000 0.000000 0.029316 0.000000 0.000000
# 5 0.000000 0.000000 0.000000 0.000000 -0.596187 0.000000
# 6 0.000000 0.000000 0.000000 0.000000 0.000000 0.065702
#
#
# Mechanical properties :
#
#
# Convention : Reuss Voigt Hill
#
# Bulk Modulus (GPa) = 40.67877 52.20025 46.43951
# Shear Modulus (GPa) = -11.80764 22.05767 5.12501
#
# Velocity S-wave (km/s) = -2.49935 3.41606 1.64662
# Velocity P-wave (km/s) = 3.63206 6.57081 5.30883
#
# Compressibility (1/GPa) = 0.02458285
#
# Stress axis : x y z
#
# Youngs Moduli (GPa) = 40.91724 75.65506 106.44532
#
# Poissons Ratio (x) = 0.17837 0.64681
# Poissons Ratio (y) = 0.09647 0.29809
# Poissons Ratio (z) = 0.24863 0.21186
#
# Static dielectric constant tensor:
#      x y z
#    x 3.963340 0.000000 0.000000 
#    y 0.000000 3.618390 0.000000 
#    z 0.000000 0.000000 3.830660 
# 
# 
# High freq. dielectric constant tensor:
#      x y z
#    x 1.668960 0.000000 0.000000 
#    y 0.000000 1.745290 0.000000 
#    z 0.000000 0.000000 1.746770 
# 
# From -- ./inp_files/2114.got.cif
#   From: 2010.03.12/outbox.cif.g09.slc.cpg/sg47_2_cif.got.tgz:2114.got - 2010.04.14 03:12:58.
