data_PCOD8197156
_publ_section_title
;
Structure prediction by ZEFSAII (Michael W. Deem and Ramdas Pophale) SiO2 
 PCOD8197156
Probable space group: P M M M
;
_chemical_formula_sum "Si O2"
_cell_formula_units_Z 44
_cell_length_a 9.173898
_cell_length_b 28.460859
_cell_length_c 9.192309
_cell_angle_alpha 90.000000
_cell_angle_beta 90.000000
_cell_angle_gamma 90.000000
_cell_volume 2400.084463
_symmetry_space_group_name_H-M "P M M M"
_symmetry_group_IT_number 47
_symmetry_cell_setting 'orthorhombic'
loop_
_space_group_symop_operation_xyz
x,y,z
-x,-y,z
x,-y,-z
-x,y,-z
-x,-y,-z
x,y,-z
-x,y,z
x,-y,z
loop_
_atom_site_type_symbol
_atom_site_label
_atom_site_fract_x
_atom_site_fract_y
_atom_site_fract_z
Si Si1 0.830799 0.182470 0.831802
Si Si2 0.164880 0.000000 0.826363
Si Si3 0.673207 0.551807 0.663196
Si Si4 0.335509 0.909419 0.826811
Si Si5 0.169059 0.276484 0.330046
Si Si6 0.673282 0.641087 0.834816
O O1 0.740290 0.138242 0.771868
O O2 0.781554 0.227360 0.739593
O O3 0.000000 0.170606 0.809399
O O4 0.795518 0.192982 0.000000
O O5 0.247178 0.045949 0.765435
O O6 0.000000 0.000000 0.766945
O O7 0.165543 0.000000 0.000000
O O8 0.730040 0.562469 0.500000
O O9 0.500000 0.552399 0.663634
O O10 0.728104 0.500000 0.713497
O O11 0.733171 0.591573 0.771912
O O12 0.500000 0.911373 0.766659
O O13 0.333903 0.910715 0.000000
O O14 0.202450 0.274457 0.500000
O O15 0.263260 0.317267 0.260173
O O16 0.000000 0.286236 0.297019
O O17 0.500000 0.643484 0.825188
O O18 0.728246 0.645657 0.000000
#
# Coordination Sequence:
#
# PCOD8197156 Si02
#       6
#     8   4   8   8   8   8
#     4   9  17  30  47  66  90 121 156 194 238 288
#     4   9  15  23  37  59  90 127 162 193 230 280
#     4   8  14  26  45  69  98 132 167 202 242 289
#     4   9  16  25  39  62  92 123 155 194 238 282
#     4  10  21  36  53  72  95 127 166 205 247 297
#     4  10  20  32  49  75 103 130 162 202 248 296
#
# _framework density 18.332687
#
# number of rings (size 3 to 8) (size 9 to 14) (size 15 to 20)
#    0.000    2.818    0.000    2.455    0.000    6.545 
#    0.000    3.636    0.000    0.545    0.000    4.455 
#    0.000    5.091    0.000    0.000    0.000    0.000 
#
# Total GULP energy -545547.055455 kJ/mol
# GULP energy per Si atom -12398.796715 kJ/mol
# Density = 1.829096 g / cm^3
# Si number density = 18.332687 Si / 1000 Ang^3
#
#
#
# Elastic Constant Matrix: (Units=GPa)
#
#
# Indices 1 2 3 4 5 6 
#
# 1 69.2421 61.6690 27.5602 0.0000 0.0000 0.0000
# 2 61.6690 178.2657 62.8370 0.0000 0.0000 0.0000
# 3 27.5602 62.8370 71.7589 0.0000 0.0000 0.0000
# 4 0.0000 0.0000 0.0000 1.0063 0.0000 0.0000
# 5 0.0000 0.0000 0.0000 0.0000 16.0426 0.0000
# 6 0.0000 0.0000 0.0000 0.0000 0.0000 12.2780
#
#
#
# Elastic Compliance Matrix: (Units=1/GPa)
#
#
# Indices 1 2 3 4 5 6 
#
# 1 0.021175 -0.006449 -0.002485 0.000000 0.000000 0.000000
# 2 -0.006449 0.010078 -0.006348 0.000000 0.000000 0.000000
# 3 -0.002485 -0.006348 0.020449 0.000000 0.000000 0.000000
# 4 0.000000 0.000000 0.000000 0.993767 0.000000 0.000000
# 5 0.000000 0.000000 0.000000 0.000000 0.062334 0.000000
# 6 0.000000 0.000000 0.000000 0.000000 0.000000 0.081446
#
#
# Mechanical properties :
#
#
# Convention : Reuss Voigt Hill
#
# Bulk Modulus (GPa) = 47.31064 69.26656 58.28860
# Shear Modulus (GPa) = 4.07544 17.01208 10.54376
#
# Velocity S-wave (km/s) = 1.49261 3.04956 2.40080
# Velocity P-wave (km/s) = 5.36966 7.08977 6.28880
#
# Compressibility (1/GPa) = 0.02113690
#
# Stress axis : x y z
#
# Youngs Moduli (GPa) = 47.22506 99.22194 48.90179
#
# Poissons Ratio (x) = 0.63991 0.12153
# Poissons Ratio (y) = 0.30457 0.31045
# Poissons Ratio (z) = 0.11737 0.62990
#
# Static dielectric constant tensor:
#      x y z
#    x 3.212600 0.000000 0.000000 
#    y 0.000000 3.671710 0.000000 
#    z 0.000000 0.000000 3.172150 
# 
# 
# High freq. dielectric constant tensor:
#      x y z
#    x 1.688730 0.000000 0.000000 
#    y 0.000000 1.729260 0.000000 
#    z 0.000000 0.000000 1.678610 
# 
# From -- ./inp_files/2288.got.cif
#   From: 2010.03.12/outbox.cif.g09.slc.cpg/sg47_2_cif.got.tgz:2288.got - 2010.04.14 03:12:58.
