data_PCOD8197777
_publ_section_title
;
Structure prediction by ZEFSAII (Michael W. Deem and Ramdas Pophale) SiO2 
 PCOD8197777
Probable space group: P M M M
;
_chemical_formula_sum "Si O2"
_cell_formula_units_Z 48
_cell_length_a 29.070151
_cell_length_b 9.883388
_cell_length_c 8.948854
_cell_angle_alpha 90.000000
_cell_angle_beta 90.000000
_cell_angle_gamma 90.000000
_cell_volume 2571.109396
_symmetry_space_group_name_H-M "P M M M"
_symmetry_group_IT_number 47
_symmetry_cell_setting 'orthorhombic'
loop_
_space_group_symop_operation_xyz
x,y,z
-x,-y,z
x,-y,-z
-x,y,-z
-x,-y,-z
x,y,-z
-x,y,z
x,-y,z
loop_
_atom_site_type_symbol
_atom_site_label
_atom_site_fract_x
_atom_site_fract_y
_atom_site_fract_z
Si Si1 0.552521 0.000000 0.323178
Si Si2 0.605971 0.240725 0.823621
Si Si3 0.946321 0.347176 0.826972
Si Si4 0.204123 0.349268 0.322524
Si Si5 0.692613 0.342455 0.326909
Si Si6 0.124444 0.845267 0.677552
Si Si7 0.449043 0.500000 0.823391
O O1 0.579563 0.874206 0.261246
O O2 0.500000 0.000000 0.264196
O O3 0.553780 0.000000 0.500000
O O4 0.658874 0.250814 0.772290
O O5 0.579255 0.372350 0.768113
O O6 0.604206 0.216425 0.000000
O O7 0.932424 0.500000 0.776625
O O8 0.920629 0.233356 0.731810
O O9 0.000000 0.324754 0.798588
O O10 0.934051 0.327160 0.000000
O O11 0.202106 0.354975 0.500000
O O12 0.191707 0.500000 0.260547
O O13 0.255605 0.308134 0.273322
O O14 0.168799 0.236886 0.260065
O O15 0.685723 0.305109 0.500000
O O16 0.682372 0.500000 0.298792
O O17 0.124306 0.846570 0.500000
O O18 0.125240 0.000000 0.738521
O O19 0.500000 0.500000 0.751135
O O20 0.453373 0.500000 0.000000
#
# Coordination Sequence:
#
# PCOD8197777 Si02
#       7
#     4   8   8   8   8   8   4
#     4  11  25  43  59  79 109 145 185 225 268 321
#     4  11  21  36  58  83 113 145 179 221 270 325
#     4   9  19  36  56  77 103 139 184 229 274 327
#     4   8  15  30  52  75 102 142 185 223 264 313
#     4   9  17  32  55  81 110 142 180 225 271 319
#     4  10  20  33  51  79 113 144 180 225 271 321
#     4   9  18  32  53  81 109 139 175 213 260 319
#
# _framework density 18.668983999999998
#
# number of rings (size 3 to 8) (size 9 to 14) (size 15 to 20)
#    0.000    2.500    0.833    3.250    0.000    3.333 
#    1.500    3.333    0.000    3.000    0.000    0.000 
#    0.000    0.000    0.000    0.000    0.000    0.000 
#
# Total GULP energy -595065.488470 kJ/mol
# GULP energy per Si atom -12397.197676 kJ/mol
# Density = 1.862649 g / cm^3
# Si number density = 18.668984 Si / 1000 Ang^3
#
#
#
# Elastic Constant Matrix: (Units=GPa)
#
#
# Indices 1 2 3 4 5 6 
#
# 1 128.2636 77.1708 29.2500 0.0000 0.0000 0.0000
# 2 77.1708 147.0173 30.5414 0.0000 0.0000 0.0000
# 3 29.2500 30.5414 35.6851 0.0000 0.0000 0.0000
# 4 0.0000 0.0000 0.0000 24.6321 0.0000 0.0000
# 5 0.0000 0.0000 0.0000 0.0000 17.0944 0.0000
# 6 0.0000 0.0000 0.0000 0.0000 0.0000 37.3464
#
#
#
# Elastic Compliance Matrix: (Units=1/GPa)
#
#
# Indices 1 2 3 4 5 6 
#
# 1 0.012225 -0.005273 -0.005508 0.000000 0.000000 0.000000
# 2 -0.005273 0.010547 -0.004705 0.000000 0.000000 0.000000
# 3 -0.005508 -0.004705 0.036564 0.000000 0.000000 0.000000
# 4 0.000000 0.000000 0.000000 0.040597 0.000000 0.000000
# 5 0.000000 0.000000 0.000000 0.000000 0.058499 0.000000
# 6 0.000000 0.000000 0.000000 0.000000 0.000000 0.026776
#
#
# Mechanical properties :
#
#
# Convention : Reuss Voigt Hill
#
# Bulk Modulus (GPa) = 35.25410 64.98782 50.12096
# Shear Modulus (GPa) = 22.15981 27.41484 24.78732
#
# Velocity S-wave (km/s) = 3.44900 3.83622 3.64775
# Velocity P-wave (km/s) = 5.89793 7.38297 6.68184
#
# Compressibility (1/GPa) = 0.02836550
#
# Stress axis : x y z
#
# Youngs Moduli (GPa) = 81.80061 94.81318 27.34930
#
# Poissons Ratio (x) = 0.49993 0.15063
# Poissons Ratio (y) = 0.43132 0.12867
# Poissons Ratio (z) = 0.45052 0.44608
#
# Static dielectric constant tensor:
#      x y z
#    x 3.626890 0.000000 0.000000 
#    y 0.000000 3.469340 0.000000 
#    z 0.000000 0.000000 3.102170 
# 
# 
# High freq. dielectric constant tensor:
#      x y z
#    x 1.738560 0.000000 0.000000 
#    y 0.000000 1.722340 0.000000 
#    z 0.000000 0.000000 1.695530 
# 
# From -- ./inp_files/13826.got.cif
#   From: 2010.03.12/outbox.cif.g09.slc.cpg/sg47_7_cif.got.tgz:13826.got - 2010.04.14 03:12:58.
