data_PCOD8197282
_publ_section_title
;
Structure prediction by ZEFSAII (Michael W. Deem and Ramdas Pophale) SiO2 
 PCOD8197282
Probable space group: P M M M
;
_chemical_formula_sum "Si O2"
_cell_formula_units_Z 52
_cell_length_a 13.935606
_cell_length_b 8.982039
_cell_length_c 28.601254
_cell_angle_alpha 90.000000
_cell_angle_beta 90.000000
_cell_angle_gamma 90.000000
_cell_volume 3580.023442
_symmetry_space_group_name_H-M "P M M M"
_symmetry_group_IT_number 47
_symmetry_cell_setting 'orthorhombic'
loop_
_space_group_symop_operation_xyz
x,y,z
-x,-y,z
x,-y,-z
-x,y,-z
-x,-y,-z
x,y,-z
-x,y,z
x,-y,z
loop_
_atom_site_type_symbol
_atom_site_label
_atom_site_fract_x
_atom_site_fract_y
_atom_site_fract_z
Si Si1 0.613010 0.172454 0.326229
Si Si2 0.386078 0.666916 0.232620
Si Si3 0.385927 0.667456 0.948705
Si Si4 0.613539 0.170063 0.500000
Si Si5 0.289692 0.676037 0.587378
Si Si6 0.890995 0.171347 0.445622
Si Si7 0.385414 0.166906 0.141510
O O1 0.500000 0.195637 0.333430
O O2 0.646902 0.230341 0.275649
O O3 0.668009 0.270469 0.363845
O O4 0.641371 0.000000 0.331289
O O5 0.500000 0.662521 0.230222
O O6 0.344968 0.500000 0.238603
O O7 0.345148 0.736400 0.184663
O O8 0.500000 0.667994 0.946214
O O9 0.347921 0.500000 0.941299
O O10 0.343759 0.769323 0.907309
O O11 0.352975 0.727000 0.000000
O O12 0.500000 0.176468 0.500000
O O13 0.650552 0.250142 0.546024
O O14 0.650762 0.000000 0.500000
O O15 0.298297 0.500000 0.583446
O O16 0.178524 0.724622 0.584645
O O17 0.865986 0.193385 0.500000
O O18 0.000000 0.220661 0.435442
O O19 0.875819 0.000000 0.431303
O O20 0.500000 0.170140 0.141224
O O21 0.346871 0.000000 0.147344
#
# Coordination Sequence:
#
# PCOD8197282 Si02
#       7
#     8   8   8   4   8   8   8
#     4  10  20  33  47  61  80 108 138 166 197 236
#     4   9  16  26  39  53  69  90 119 156 194 230
#     4   8  13  20  28  38  54  77 105 139 182 229
#     4  11  23  37  50  63  84 115 145 168 192 229
#     4  12  23  33  48  70  91 110 132 163 200 237
#     4   9  18  34  55  73  89 111 136 161 191 231
#     4   9  15  21  30  44  61  82 110 144 183 229
#
# _framework density 14.525043999999999
#
# number of rings (size 3 to 8) (size 9 to 14) (size 15 to 20)
#    0.000    2.385    0.769    4.385    0.000    7.692 
#    0.000    2.308    0.000    0.000    0.000    0.000 
#    0.000    0.000    0.000    0.000    0.000    0.000 
#
# Total GULP energy -644695.201949 kJ/mol
# GULP energy per Si atom -12397.984653 kJ/mol
# Density = 1.449198 g / cm^3
# Si number density = 14.525044 Si / 1000 Ang^3
#
#
#
# Elastic Constant Matrix: (Units=GPa)
#
#
# Indices 1 2 3 4 5 6 
#
# 1 33.6492 27.8310 25.1100 0.0000 0.0000 0.0000
# 2 27.8310 115.8936 54.4092 0.0000 0.0000 0.0000
# 3 25.1100 54.4092 111.7263 0.0000 0.0000 0.0000
# 4 0.0000 0.0000 0.0000 29.9287 0.0000 0.0000
# 5 0.0000 0.0000 0.0000 0.0000 0.2332 0.0000
# 6 0.0000 0.0000 0.0000 0.0000 0.0000 11.7417
#
#
#
# Elastic Compliance Matrix: (Units=1/GPa)
#
#
# Indices 1 2 3 4 5 6 
#
# 1 0.039553 -0.006903 -0.005528 0.000000 0.000000 0.000000
# 2 -0.006903 0.012391 -0.004483 0.000000 0.000000 0.000000
# 3 -0.005528 -0.004483 0.012376 0.000000 0.000000 0.000000
# 4 0.000000 0.000000 0.000000 0.033413 0.000000 0.000000
# 5 0.000000 0.000000 0.000000 0.000000 4.288719 0.000000
# 6 0.000000 0.000000 0.000000 0.000000 0.000000 0.085167
#
#
# Mechanical properties :
#
#
# Convention : Reuss Voigt Hill
#
# Bulk Modulus (GPa) = 32.79504 52.88550 42.84027
# Shear Modulus (GPa) = 1.10727 18.64197 9.87462
#
# Velocity S-wave (km/s) = 0.87406 3.58639 2.61019
# Velocity P-wave (km/s) = 4.86271 7.32383 6.21629
#
# Compressibility (1/GPa) = 0.03049241
#
# Stress axis : x y z
#
# Youngs Moduli (GPa) = 25.28265 80.70431 80.80315
#
# Poissons Ratio (x) = 0.55713 0.44664
# Poissons Ratio (y) = 0.17453 0.36222
# Poissons Ratio (z) = 0.13975 0.36177
#
# Static dielectric constant tensor:
#      x y z
#    x 2.381760 0.000000 0.000000 
#    y 0.000000 2.993520 0.000000 
#    z 0.000000 0.000000 3.034350 
# 
# 
# High freq. dielectric constant tensor:
#      x y z
#    x 1.482300 0.000000 0.000000 
#    y 0.000000 1.570240 0.000000 
#    z 0.000000 0.000000 1.561020 
# 
# From -- ./inp_files/13425.got.cif
#   From: 2010.03.12/outbox.cif.g09.slc.cpg/sg47_7_cif.got.tgz:13425.got - 2010.04.14 03:12:58.
