data_PCOD8197912
_publ_section_title
;
Structure prediction by ZEFSAII (Michael W. Deem and Ramdas Pophale) SiO2 
 PCOD8197912
Probable space group: P M M M
;
_chemical_formula_sum "Si O2"
_cell_formula_units_Z 36
_cell_length_a 9.865176
_cell_length_b 24.554384
_cell_length_c 7.945350
_cell_angle_alpha 90.000000
_cell_angle_beta 90.000000
_cell_angle_gamma 90.000000
_cell_volume 1924.628507
_symmetry_space_group_name_H-M "P M M M"
_symmetry_group_IT_number 47
_symmetry_cell_setting 'orthorhombic'
loop_
_space_group_symop_operation_xyz
x,y,z
-x,-y,z
x,-y,-z
-x,y,-z
-x,-y,-z
x,y,-z
-x,y,z
x,-y,z
loop_
_atom_site_type_symbol
_atom_site_label
_atom_site_fract_x
_atom_site_fract_y
_atom_site_fract_z
Si Si1 0.660399 0.060621 0.000000
Si Si2 0.347656 0.439534 0.301605
Si Si3 0.146551 0.652705 0.804704
Si Si4 0.841833 0.772777 0.804379
Si Si5 0.656530 0.866397 0.310860
O O1 0.709376 0.090937 0.829692
O O2 0.500000 0.056503 0.000000
O O3 0.724129 0.000000 0.000000
O O4 0.342479 0.434585 0.500000
O O5 0.500000 0.429660 0.236211
O O6 0.299087 0.500000 0.245726
O O7 0.253834 0.394201 0.223214
O O8 0.191688 0.711783 0.734752
O O9 0.000000 0.635795 0.726076
O O10 0.125870 0.662032 0.000000
O O11 0.747705 0.812607 0.697506
O O12 0.000000 0.786250 0.774232
O O13 0.803777 0.779350 0.000000
O O14 0.671302 0.891144 0.500000
O O15 0.500000 0.850773 0.275010
#
# Coordination Sequence:
#
# PCOD8197912 Si02
#       5
#     4   8   8   8   8
#     4   9  18  34  55  79 111 147 178 217 266 307
#     4   9  19  35  51  68  95 131 169 210 257 309
#     4   9  19  34  51  74 101 129 166 210 255 307
#     4   9  18  34  54  74 102 140 175 211 262 318
#     4  10  20  33  53  82 110 139 179 221 262 313
#
# _framework density 18.704906999999999
#
# number of rings (size 3 to 8) (size 9 to 14) (size 15 to 20)
#    0.000    2.778    1.111    2.000    0.000    4.444 
#    0.000   12.222    0.000    1.333    0.000    1.556 
#    0.000    0.000    0.000    0.000    0.000    0.000 
#
# Total GULP energy -446164.230613 kJ/mol
# GULP energy per Si atom -12393.450850 kJ/mol
# Density = 1.866233 g / cm^3
# Si number density = 18.704907 Si / 1000 Ang^3
#
#
#
# Elastic Constant Matrix: (Units=GPa)
#
#
# Indices 1 2 3 4 5 6 
#
# 1 64.2531 60.0556 27.0044 0.0000 0.0000 0.0000
# 2 60.0556 142.1346 45.7510 0.0000 0.0000 0.0000
# 3 27.0044 45.7510 79.1927 0.0000 0.0000 0.0000
# 4 0.0000 0.0000 0.0000 14.0295 0.0000 0.0000
# 5 0.0000 0.0000 0.0000 0.0000 -31.2287 0.0000
# 6 0.0000 0.0000 0.0000 0.0000 0.0000 96.3904
#
#
#
# Elastic Compliance Matrix: (Units=1/GPa)
#
#
# Indices 1 2 3 4 5 6 
#
# 1 0.026340 -0.010120 -0.003135 0.000000 0.000000 0.000000
# 2 -0.010120 0.012531 -0.003788 0.000000 0.000000 0.000000
# 3 -0.003135 -0.003788 0.015885 0.000000 0.000000 0.000000
# 4 0.000000 0.000000 0.000000 0.071279 0.000000 0.000000
# 5 0.000000 0.000000 0.000000 0.000000 -0.032022 0.000000
# 6 0.000000 0.000000 0.000000 0.000000 0.000000 0.010374
#
#
# Mechanical properties :
#
#
# Convention : Reuss Voigt Hill
#
# Bulk Modulus (GPa) = 48.38261 61.24470 54.81366
# Shear Modulus (GPa) = 34.39609 26.02287 30.20948
#
# Velocity S-wave (km/s) = 4.29287 3.73397 4.02314
# Velocity P-wave (km/s) = 7.10592 7.16964 7.13785
#
# Compressibility (1/GPa) = 0.02066858
#
# Stress axis : x y z
#
# Youngs Moduli (GPa) = 37.96469 79.80134 62.95163
#
# Poissons Ratio (x) = 0.80761 0.19737
# Poissons Ratio (y) = 0.38421 0.23849
# Poissons Ratio (z) = 0.11903 0.30233
#
# Static dielectric constant tensor:
#      x y z
#    x 2.717180 0.000000 0.000000 
#    y 0.000000 4.540970 0.000000 
#    z 0.000000 0.000000 3.362500 
# 
# 
# High freq. dielectric constant tensor:
#      x y z
#    x 1.710350 0.000000 0.000000 
#    y 0.000000 1.722530 0.000000 
#    z 0.000000 0.000000 1.722380 
# 
# From -- ./inp_files/1413.got.cif
#   From: 2010.03.12/outbox.cif.g09.slc.cpg/sg47_1_cif.got.tgz:1413.got - 2010.04.14 03:12:58.
