data_PCOD8197137
_publ_section_title
;
Structure prediction by ZEFSAII (Michael W. Deem and Ramdas Pophale) SiO2 
 PCOD8197137
Probable space group: P M M M
;
_chemical_formula_sum "Si O2"
_cell_formula_units_Z 52
_cell_length_a 11.572319
_cell_length_b 17.798741
_cell_length_c 15.151764
_cell_angle_alpha 90.000000
_cell_angle_beta 90.000000
_cell_angle_gamma 90.000000
_cell_volume 3120.849872
_symmetry_space_group_name_H-M "P M M M"
_symmetry_group_IT_number 47
_symmetry_cell_setting 'orthorhombic'
loop_
_space_group_symop_operation_xyz
x,y,z
-x,-y,z
x,-y,-z
-x,y,-z
-x,-y,-z
x,y,-z
-x,y,z
x,-y,z
loop_
_atom_site_type_symbol
_atom_site_label
_atom_site_fract_x
_atom_site_fract_y
_atom_site_fract_z
Si Si1 0.132202 0.083958 0.828109
Si Si2 0.500000 0.815245 0.394313
Si Si3 0.863145 0.706470 0.717909
Si Si4 0.500000 0.642352 0.603407
Si Si5 0.253533 0.854738 0.664069
Si Si6 0.124193 0.086025 0.500000
Si Si7 0.134261 0.759560 0.905260
Si Si8 0.745576 0.587123 0.602336
O O1 0.221782 0.096686 0.749294
O O2 0.155791 0.150363 0.897847
O O3 0.000000 0.091077 0.792783
O O4 0.152151 0.000000 0.868445
O O5 0.500000 0.825288 0.500000
O O6 0.500000 0.728229 0.366910
O O7 0.609349 0.853896 0.348937
O O8 0.797553 0.770928 0.664595
O O9 0.818485 0.712476 0.820565
O O10 0.832583 0.628780 0.669444
O O11 0.000000 0.720106 0.714308
O O12 0.500000 0.633591 0.500000
O O13 0.615651 0.601533 0.638050
O O14 0.199299 0.896329 0.583344
O O15 0.000000 0.129292 0.500000
O O16 0.095054 0.000000 0.500000
O O17 0.000000 0.742602 0.910529
O O18 0.190655 0.734527 0.000000
O O19 0.760828 0.614590 0.500000
O O20 0.775947 0.500000 0.609194
#
# Coordination Sequence:
#
# PCOD8197137 Si02
#       8
#     8   4   8   4   8   4   8   8
#     4   9  17  30  48  71  99 126 156 199 251 306
#     4  11  20  33  48  67  90 125 174 221 247 276
#     4  10  20  32  49  74 102 132 163 199 245 297
#     4   9  17  32  51  70  94 125 166 211 241 283
#     4  11  20  33  47  66  92 128 170 210 242 285
#     4  11  22  33  47  65  90 128 168 204 244 288
#     4   8  15  29  49  73  99 127 161 201 245 295
#     4  10  20  33  50  74 103 134 167 202 243 288
#
# _framework density 16.662127999999999
#
# number of rings (size 3 to 8) (size 9 to 14) (size 15 to 20)
#    0.000    2.231    2.308    3.000    1.077    3.077 
#    0.000    4.231    0.000    0.462    0.000   15.615 
#    0.000    6.154    0.000    0.000    0.000    0.000 
#
# Total GULP energy -644327.931587 kJ/mol
# GULP energy per Si atom -12390.921761 kJ/mol
# Density = 1.662420 g / cm^3
# Si number density = 16.662128 Si / 1000 Ang^3
#
#
#
# Elastic Constant Matrix: (Units=GPa)
#
#
# Indices 1 2 3 4 5 6 
#
# 1 90.0514 22.4709 32.2112 0.0000 0.0000 0.0000
# 2 22.4709 58.1473 36.8868 0.0000 0.0000 0.0000
# 3 32.2112 36.8868 93.7357 0.0000 0.0000 0.0000
# 4 0.0000 0.0000 0.0000 14.5829 0.0000 0.0000
# 5 0.0000 0.0000 0.0000 0.0000 558.5638 0.0000
# 6 0.0000 0.0000 0.0000 0.0000 0.0000 27.8396
#
#
#
# Elastic Compliance Matrix: (Units=1/GPa)
#
#
# Indices 1 2 3 4 5 6 
#
# 1 0.013024 -0.002924 -0.003325 0.000000 0.000000 0.000000
# 2 -0.002924 0.023576 -0.008273 0.000000 0.000000 0.000000
# 3 -0.003325 -0.008273 0.015066 0.000000 0.000000 0.000000
# 4 0.000000 0.000000 0.000000 0.068573 0.000000 0.000000
# 5 0.000000 0.000000 0.000000 0.000000 0.001790 0.000000
# 6 0.000000 0.000000 0.000000 0.000000 0.000000 0.035920
#
#
# Mechanical properties :
#
#
# Convention : Reuss Voigt Hill
#
# Bulk Modulus (GPa) = 44.20317 47.23023 45.71670
# Shear Modulus (GPa) = 25.70261 130.22164 77.96212
#
# Velocity S-wave (km/s) = 3.93183 8.85008 6.84774
# Velocity P-wave (km/s) = 6.87016 11.52559 9.48784
#
# Compressibility (1/GPa) = 0.02262281
#
# Stress axis : x y z
#
# Youngs Moduli (GPa) = 76.78343 42.41687 66.37318
#
# Poissons Ratio (x) = 0.12402 0.22068
# Poissons Ratio (y) = 0.22450 0.54909
# Poissons Ratio (z) = 0.25529 0.35090
#
# Static dielectric constant tensor:
#      x y z
#    x 2.869100 0.000000 0.000000 
#    y 0.000000 3.061430 0.000000 
#    z 0.000000 0.000000 3.115740 
# 
# 
# High freq. dielectric constant tensor:
#      x y z
#    x 1.624610 0.000000 0.000000 
#    y 0.000000 1.632430 0.000000 
#    z 0.000000 0.000000 1.625300 
# 
# From -- ./inp_files/17828.got.cif
#   From: 2010.03.12/outbox.cif.g09.slc.cpg/sg47_9_cif.got.tgz:17828.got - 2010.04.14 03:12:58.
