data_PCOD8197939
_publ_section_title
;
Structure prediction by ZEFSAII (Michael W. Deem and Ramdas Pophale) SiO2 
 PCOD8197939
Probable space group: P M M M
;
_chemical_formula_sum "Si O2"
_cell_formula_units_Z 52
_cell_length_a 25.862494
_cell_length_b 8.949806
_cell_length_c 14.094060
_cell_angle_alpha 90.000000
_cell_angle_beta 90.000000
_cell_angle_gamma 90.000000
_cell_volume 3262.271788
_symmetry_space_group_name_H-M "P M M M"
_symmetry_group_IT_number 47
_symmetry_cell_setting 'orthorhombic'
loop_
_space_group_symop_operation_xyz
x,y,z
-x,-y,z
x,-y,-z
-x,y,-z
-x,-y,-z
x,y,-z
-x,y,z
x,-y,z
loop_
_atom_site_type_symbol
_atom_site_label
_atom_site_fract_x
_atom_site_fract_y
_atom_site_fract_z
Si Si1 0.941117 0.328986 0.888804
Si Si2 0.759434 0.327632 0.111788
Si Si3 0.148527 0.824092 0.220987
Si Si4 0.000000 0.168098 0.387562
Si Si5 0.104661 0.323593 0.391329
Si Si6 0.656338 0.166679 0.112817
Si Si7 0.556759 0.331965 0.112820
O O1 0.927357 0.500000 0.862140
O O2 0.903611 0.218001 0.834141
O O3 0.000000 0.291893 0.859637
O O4 0.933246 0.304072 0.000000
O O5 0.765475 0.500000 0.140140
O O6 0.802173 0.230400 0.163472
O O7 0.703366 0.271311 0.146159
O O8 0.766541 0.303882 0.000000
O O9 0.149017 0.746808 0.324953
O O10 0.151520 0.000000 0.234164
O O11 0.949539 0.257154 0.353422
O O12 0.000000 0.162013 0.500000
O O13 0.000000 0.000000 0.345311
O O14 0.116038 0.277976 0.500000
O O15 0.102610 0.500000 0.379203
O O16 0.602407 0.229531 0.155311
O O17 0.664795 0.000000 0.152692
O O18 0.653441 0.164807 0.000000
O O19 0.500000 0.271635 0.144694
O O20 0.564637 0.500000 0.150800
O O21 0.559994 0.332424 0.000000
#
# Coordination Sequence:
#
# PCOD8197939 Si02
#       7
#     8   8   8   4   8   8   8
#     4   9  19  36  54  69  88 116 148 180 215 259
#     4  10  20  34  50  65  85 116 154 191 225 265
#     4  12  24  34  49  71  94 116 142 181 226 267
#     4   9  17  31  51  73  94 111 130 163 207 251
#     4  10  21  37  55  72  91 117 146 174 209 260
#     4   9  16  25  38  57  81 108 141 184 230 267
#     4   8  13  21  33  50  74 106 144 182 219 261
#
# _framework density 15.939811000000001
#
# number of rings (size 3 to 8) (size 9 to 14) (size 15 to 20)
#    0.000    2.385    0.000    4.385    1.077    7.385 
#    0.000    2.308    0.000    0.000    0.000    0.000 
#    0.000    0.000    0.000    0.000    0.000    0.769 
#
# Total GULP energy -644722.444641 kJ/mol
# GULP energy per Si atom -12398.508551 kJ/mol
# Density = 1.590353 g / cm^3
# Si number density = 15.939811 Si / 1000 Ang^3
#
#
#
# Elastic Constant Matrix: (Units=GPa)
#
#
# Indices 1 2 3 4 5 6 
#
# 1 100.3369 47.8470 31.1213 0.0000 0.0000 0.0000
# 2 47.8470 104.4055 25.4258 0.0000 0.0000 0.0000
# 3 31.1213 25.4258 36.3749 0.0000 0.0000 0.0000
# 4 0.0000 0.0000 0.0000 18.0089 0.0000 0.0000
# 5 0.0000 0.0000 0.0000 0.0000 3.1561 0.0000
# 6 0.0000 0.0000 0.0000 0.0000 0.0000 22.5927
#
#
#
# Elastic Compliance Matrix: (Units=1/GPa)
#
#
# Indices 1 2 3 4 5 6 
#
# 1 0.015186 -0.004574 -0.009795 0.000000 0.000000 0.000000
# 2 -0.004574 0.012921 -0.005118 0.000000 0.000000 0.000000
# 3 -0.009795 -0.005118 0.039450 0.000000 0.000000 0.000000
# 4 0.000000 0.000000 0.000000 0.055528 0.000000 0.000000
# 5 0.000000 0.000000 0.000000 0.000000 0.316848 0.000000
# 6 0.000000 0.000000 0.000000 0.000000 0.000000 0.044262
#
#
# Mechanical properties :
#
#
# Convention : Reuss Voigt Hill
#
# Bulk Modulus (GPa) = 34.98799 49.98950 42.48875
# Shear Modulus (GPa) = 9.38620 17.86640 13.62630
#
# Velocity S-wave (km/s) = 2.42926 3.35157 2.92697
# Velocity P-wave (km/s) = 5.46499 6.81226 6.17547
#
# Compressibility (1/GPa) = 0.02858124
#
# Stress axis : x y z
#
# Youngs Moduli (GPa) = 65.85120 77.39600 25.34876
#
# Poissons Ratio (x) = 0.35400 0.24830
# Poissons Ratio (y) = 0.30119 0.12974
# Poissons Ratio (z) = 0.64504 0.39612
#
# Static dielectric constant tensor:
#      x y z
#    x 3.170120 0.000000 0.000000 
#    y 0.000000 3.161050 0.000000 
#    z 0.000000 0.000000 2.733030 
# 
# 
# High freq. dielectric constant tensor:
#      x y z
#    x 1.607190 0.000000 0.000000 
#    y 0.000000 1.625260 0.000000 
#    z 0.000000 0.000000 1.560580 
# 
# From -- ./inp_files/25683.got.cif
#   From: 2010.03.12/outbox.cif.g09.slc.cpg/sg47_13_cif.got.tgz:25683.got - 2010.04.14 03:12:58.
