data_PCOD8197820
_publ_section_title
;
Structure prediction by ZEFSAII (Michael W. Deem and Ramdas Pophale) SiO2 
 PCOD8197820
Probable space group: P M M M
;
_chemical_formula_sum "Si O2"
_cell_formula_units_Z 40
_cell_length_a 9.033323
_cell_length_b 12.857353
_cell_length_c 18.410320
_cell_angle_alpha 90.000000
_cell_angle_beta 90.000000
_cell_angle_gamma 90.000000
_cell_volume 2138.259668
_symmetry_space_group_name_H-M "P M M M"
_symmetry_group_IT_number 47
_symmetry_cell_setting 'orthorhombic'
loop_
_space_group_symop_operation_xyz
x,y,z
-x,-y,z
x,-y,-z
-x,y,-z
-x,-y,-z
x,y,-z
-x,y,z
x,-y,z
loop_
_atom_site_type_symbol
_atom_site_label
_atom_site_fract_x
_atom_site_fract_y
_atom_site_fract_z
Si Si1 0.674555 0.000000 0.915486
Si Si2 0.174768 0.799325 0.666952
Si Si3 0.673525 0.381274 0.417486
Si Si4 0.824307 0.385786 0.918933
Si Si5 0.823706 0.000000 0.581834
Si Si6 0.175282 0.188006 0.166639
O O1 0.742513 0.100711 0.878424
O O2 0.500000 0.000000 0.903850
O O3 0.717832 0.000000 0.000000
O O4 0.242413 0.692681 0.638060
O O5 0.222246 0.818278 0.749688
O O6 0.000000 0.789547 0.659419
O O7 0.237060 0.897074 0.621485
O O8 0.722239 0.355497 0.500000
O O9 0.500000 0.363679 0.408538
O O10 0.715963 0.500000 0.398613
O O11 0.766296 0.500000 0.894318
O O12 0.767414 0.299025 0.863167
O O13 0.000000 0.386399 0.919861
O O14 0.765469 0.360319 0.000000
O O15 0.762660 0.000000 0.500000
O O16 0.000000 0.000000 0.583928
O O17 0.000000 0.173022 0.156686
#
# Coordination Sequence:
#
# PCOD8197820 Si02
#       6
#     4   8   8   8   4   8
#     4  11  24  39  55  77 106 141 182 225 264 306
#     4  10  20  33  52  79 106 132 169 218 269 319
#     4   9  19  36  55  75 104 144 186 223 260 308
#     4   8  14  26  46  72  99 127 162 203 246 296
#     4   9  17  30  47  67  96 131 162 200 256 313
#     4  10  20  34  54  79 106 136 171 213 264 320
#
# _framework density 18.706800999999999
#
# number of rings (size 3 to 8) (size 9 to 14) (size 15 to 20)
#    0.000    2.600    0.000    3.300    0.000    6.400 
#    0.000    3.500    0.000    2.400    0.000    2.800 
#    0.000    0.000    0.000    0.000    0.000    0.000 
#
# Total GULP energy -495957.681743 kJ/mol
# GULP energy per Si atom -12398.942044 kJ/mol
# Density = 1.866422 g / cm^3
# Si number density = 18.706801 Si / 1000 Ang^3
#
#
#
# Elastic Constant Matrix: (Units=GPa)
#
#
# Indices 1 2 3 4 5 6 
#
# 1 32.0935 39.3544 44.0898 0.0000 0.0000 0.0000
# 2 39.3544 167.4642 105.9755 0.0000 0.0000 0.0000
# 3 44.0898 105.9755 166.7848 0.0000 0.0000 0.0000
# 4 0.0000 0.0000 0.0000 78.1952 0.0000 0.0000
# 5 0.0000 0.0000 0.0000 0.0000 10.8217 0.0000
# 6 0.0000 0.0000 0.0000 0.0000 0.0000 190.4001
#
#
#
# Elastic Compliance Matrix: (Units=1/GPa)
#
#
# Indices 1 2 3 4 5 6 
#
# 1 0.052208 -0.005913 -0.010044 0.000000 0.000000 0.000000
# 2 -0.005913 0.010657 -0.005208 0.000000 0.000000 0.000000
# 3 -0.010044 -0.005208 0.011960 0.000000 0.000000 0.000000
# 4 0.000000 0.000000 0.000000 0.012789 0.000000 0.000000
# 5 0.000000 0.000000 0.000000 0.000000 0.092407 0.000000
# 6 0.000000 0.000000 0.000000 0.000000 0.000000 0.005252
#
#
# Mechanical properties :
#
#
# Convention : Reuss Voigt Hill
#
# Bulk Modulus (GPa) = 30.77435 82.79798 56.78617
# Shear Modulus (GPa) = 20.97005 67.67826 44.32415
#
# Velocity S-wave (km/s) = 3.35174 6.02138 4.87294
# Velocity P-wave (km/s) = 5.60941 9.62806 7.87925
#
# Compressibility (1/GPa) = 0.03249459
#
# Stress axis : x y z
#
# Youngs Moduli (GPa) = 19.15409 93.83564 83.60895
#
# Poissons Ratio (x) = 0.55482 0.83980
# Poissons Ratio (y) = 0.11325 0.43547
# Poissons Ratio (z) = 0.19239 0.48874
#
# Static dielectric constant tensor:
#      x y z
#    x 3.000430 0.000000 0.000000 
#    y 0.000000 1.981070 0.000000 
#    z 0.000000 0.000000 3.621980 
# 
# 
# High freq. dielectric constant tensor:
#      x y z
#    x 1.683490 0.000000 0.000000 
#    y 0.000000 1.744550 0.000000 
#    z 0.000000 0.000000 1.733870 
# 
# From -- ./inp_files/29364.got.cif
#   From: 2010.03.12/outbox.cif.g09.slc.cpg/sg47_15_cif.got.tgz:29364.got - 2010.04.14 03:12:58.
