data_PCOD8197153
_publ_section_title
;
Structure prediction by ZEFSAII (Michael W. Deem and Ramdas Pophale) SiO2 
 PCOD8197153
Probable space group: P M M M
;
_chemical_formula_sum "Si O2"
_cell_formula_units_Z 40
_cell_length_a 25.736947
_cell_length_b 8.773145
_cell_length_c 9.591395
_cell_angle_alpha 90.000000
_cell_angle_beta 90.000000
_cell_angle_gamma 90.000000
_cell_volume 2165.679135
_symmetry_space_group_name_H-M "P M M M"
_symmetry_group_IT_number 47
_symmetry_cell_setting 'orthorhombic'
loop_
_space_group_symop_operation_xyz
x,y,z
-x,-y,z
x,-y,-z
-x,y,-z
-x,-y,-z
x,y,-z
-x,y,z
x,-y,z
loop_
_atom_site_type_symbol
_atom_site_label
_atom_site_fract_x
_atom_site_fract_y
_atom_site_fract_z
Si Si1 0.651328 0.323887 0.661146
Si Si2 0.442818 0.318840 0.156821
Si Si3 0.942307 0.318747 0.656259
Si Si4 0.151123 0.681147 0.158072
Si Si5 0.240613 0.178826 0.340146
O O1 0.637855 0.304388 0.500000
O O2 0.661857 0.500000 0.699611
O O3 0.602252 0.254034 0.743890
O O4 0.701629 0.227439 0.703884
O O5 0.500000 0.259903 0.204739
O O6 0.442476 0.500000 0.163906
O O7 0.431479 0.263017 0.000000
O O8 0.928949 0.260579 0.500000
O O9 0.941047 0.500000 0.657926
O O10 0.900108 0.252830 0.764403
O O11 0.000000 0.261807 0.699775
O O12 0.150602 0.500000 0.159191
O O13 0.201694 0.736082 0.238333
O O14 0.151499 0.743688 0.000000
O O15 0.229537 0.228422 0.500000
O O16 0.234184 0.000000 0.320543
#
# Coordination Sequence:
#
# PCOD8197153 Si02
#       5
#     8   8   8   8   8
#     4   9  17  29  47  71  95 119 152 196 241 283
#     4   8  14  25  42  66  95 123 150 184 229 280
#     4   8  14  26  46  72 100 129 160 194 234 281
#     4  10  20  32  49  75 103 130 161 198 241 288
#     4  10  21  36  52  69  93 128 167 205 246 291
#
# _framework density 18.469957000000001
#
# number of rings (size 3 to 8) (size 9 to 14) (size 15 to 20)
#    0.000    3.000    0.000    2.400    0.000    4.000 
#    0.000    6.000    0.000    1.200    0.000    8.400 
#    0.000    0.000    0.000    0.000    0.000    0.000 
#
# Total GULP energy -495854.679965 kJ/mol
# GULP energy per Si atom -12396.366999 kJ/mol
# Density = 1.842792 g / cm^3
# Si number density = 18.469957 Si / 1000 Ang^3
#
#
#
# Elastic Constant Matrix: (Units=GPa)
#
#
# Indices 1 2 3 4 5 6 
#
# 1 151.6474 8.1194 95.9503 0.0000 0.0000 0.0000
# 2 8.1194 9.8177 13.7352 0.0000 0.0000 0.0000
# 3 95.9503 13.7352 121.0978 0.0000 0.0000 0.0000
# 4 0.0000 0.0000 0.0000 13.1085 0.0000 0.0000
# 5 0.0000 0.0000 0.0000 0.0000 26.9256 0.0000
# 6 0.0000 0.0000 0.0000 0.0000 0.0000 -2.1448
#
#
#
# Elastic Compliance Matrix: (Units=1/GPa)
#
#
# Indices 1 2 3 4 5 6 
#
# 1 0.013387 0.004479 -0.011115 0.000000 0.000000 0.000000
# 2 0.004479 0.122566 -0.017451 0.000000 0.000000 0.000000
# 3 -0.011115 -0.017451 0.019044 0.000000 0.000000 0.000000
# 4 0.000000 0.000000 0.000000 0.076286 0.000000 0.000000
# 5 0.000000 0.000000 0.000000 0.000000 0.037139 0.000000
# 6 0.000000 0.000000 0.000000 0.000000 0.000000 -0.466254
#
#
# Mechanical properties :
#
#
# Convention : Reuss Voigt Hill
#
# Bulk Modulus (GPa) = 9.36120 57.57474 33.46797
# Shear Modulus (GPa) = -43.84081 18.56174 -12.63954
#
# Velocity S-wave (km/s) = -4.87728 3.17356 -2.61881
# Velocity P-wave (km/s) = 5.16118 6.68345 3.00256
#
# Compressibility (1/GPa) = 0.10682391
#
# Stress axis : x y z
#
# Youngs Moduli (GPa) = 74.69784 8.15885 52.50974
#
# Poissons Ratio (x) = -0.03654 0.58366
# Poissons Ratio (y) = -0.33457 0.91632
# Poissons Ratio (z) = 0.83028 0.14238
#
# Static dielectric constant tensor:
#      x y z
#    x 3.753790 0.000000 0.000000 
#    y 0.000000 2.905560 0.000000 
#    z 0.000000 0.000000 3.577190 
# 
# 
# High freq. dielectric constant tensor:
#      x y z
#    x 1.731950 0.000000 0.000000 
#    y 0.000000 1.664940 0.000000 
#    z 0.000000 0.000000 1.714500 
# 
# From -- ./inp_files/1439.got.cif
#   From: 2010.03.12/outbox.cif.g09.slc.cpg/sg47_1_cif.got.tgz:1439.got - 2010.04.14 03:12:58.
