data_PCOD8197499
_publ_section_title
;
Structure prediction by ZEFSAII (Michael W. Deem and Ramdas Pophale) SiO2 
 PCOD8197499
Probable space group: P M M M
;
_chemical_formula_sum "Si O2"
_cell_formula_units_Z 64
_cell_length_a 17.599914
_cell_length_b 9.082904
_cell_length_c 22.979198
_cell_angle_alpha 90.000000
_cell_angle_beta 90.000000
_cell_angle_gamma 90.000000
_cell_volume 3673.416200
_symmetry_space_group_name_H-M "P M M M"
_symmetry_group_IT_number 47
_symmetry_cell_setting 'orthorhombic'
loop_
_space_group_symop_operation_xyz
x,y,z
-x,-y,z
x,-y,-z
-x,y,-z
-x,-y,-z
x,y,-z
-x,y,z
x,-y,z
loop_
_atom_site_type_symbol
_atom_site_label
_atom_site_fract_x
_atom_site_fract_y
_atom_site_fract_z
Si Si1 0.089460 0.669287 0.736737
Si Si2 0.580140 0.663778 0.931156
Si Si3 0.181445 0.164845 0.646262
Si Si4 0.193684 0.174790 0.827430
Si Si5 0.315413 0.162154 0.738658
Si Si6 0.712144 0.327454 0.433314
Si Si7 0.584884 0.673309 0.343817
Si Si8 0.255154 0.324511 0.066733
O O1 0.116942 0.500000 0.736713
O O2 0.113301 0.743221 0.675470
O O3 0.125188 0.752986 0.791732
O O4 0.000000 0.681823 0.743180
O O5 0.500000 0.744267 0.911289
O O6 0.578633 0.500000 0.904523
O O7 0.660667 0.737944 0.914215
O O8 0.580854 0.651210 0.000000
O O9 0.249931 0.158487 0.691020
O O10 0.211824 0.244561 0.588043
O O11 0.153035 0.000000 0.630942
O O12 0.275037 0.215784 0.797962
O O13 0.194250 0.242804 0.892281
O O14 0.180625 0.000000 0.828986
O O15 0.382673 0.269055 0.717912
O O16 0.350718 0.000000 0.746696
O O17 0.696916 0.286171 0.500000
O O18 0.726057 0.500000 0.424418
O O19 0.637809 0.274896 0.397391
O O20 0.500000 0.735873 0.354067
O O21 0.583021 0.500000 0.339294
O O22 0.251089 0.500000 0.075227
O O23 0.236310 0.283012 0.000000
#
# Coordination Sequence:
#
# PCOD8197499 Si02
#       8
#     8   8   8   8   8   8   8   8
#     4  10  20  34  55  81 103 122 148 187 236 288
#     4   7  10  19  37  60  84 111 148 194 236 269
#     4   9  17  30  49  72  98 126 156 193 235 281
#     4  10  20  33  50  72  98 127 158 194 235 283
#     4   8  16  30  45  62  85 118 158 195 237 286
#     4   9  17  29  46  68  96 133 173 209 245 285
#     4   9  17  28  43  65  92 123 163 211 256 291
#     4   9  17  29  47  71  98 130 166 202 241 286
#
# _framework density 17.422474000000001
#
# number of rings (size 3 to 8) (size 9 to 14) (size 15 to 20)
#    0.000    3.125    0.000    3.000    0.000    5.500 
#    0.000    1.875    0.000    3.375    0.000   10.500 
#    0.000    0.000    0.000    0.000    0.000    0.000 
#
# Total GULP energy -792920.984569 kJ/mol
# GULP energy per Si atom -12389.390384 kJ/mol
# Density = 1.738282 g / cm^3
# Si number density = 17.422474 Si / 1000 Ang^3
#
#
#
# Elastic Constant Matrix: (Units=GPa)
#
#
# Indices 1 2 3 4 5 6 
#
# 1 78.1996 42.1268 41.3788 0.0000 0.0000 0.0000
# 2 42.1268 72.6564 40.7544 0.0000 0.0000 0.0000
# 3 41.3788 40.7544 81.3868 0.0000 0.0000 0.0000
# 4 0.0000 0.0000 0.0000 21.1536 0.0000 0.0000
# 5 0.0000 0.0000 0.0000 0.0000 19.1103 0.0000
# 6 0.0000 0.0000 0.0000 0.0000 0.0000 17.5269
#
#
#
# Elastic Compliance Matrix: (Units=1/GPa)
#
#
# Indices 1 2 3 4 5 6 
#
# 1 0.020665 -0.008466 -0.006267 0.000000 0.000000 0.000000
# 2 -0.008466 0.022608 -0.007016 0.000000 0.000000 0.000000
# 3 -0.006267 -0.007016 0.018987 0.000000 0.000000 0.000000
# 4 0.000000 0.000000 0.000000 0.047273 0.000000 0.000000
# 5 0.000000 0.000000 0.000000 0.000000 0.052328 0.000000
# 6 0.000000 0.000000 0.000000 0.000000 0.000000 0.057055
#
#
# Mechanical properties :
#
#
# Convention : Reuss Voigt Hill
#
# Bulk Modulus (GPa) = 53.30483 53.41810 53.36146
# Shear Modulus (GPa) = 18.61029 18.75700 18.68365
#
# Velocity S-wave (km/s) = 3.27184 3.28472 3.27829
# Velocity P-wave (km/s) = 6.70337 6.71661 6.70999
#
# Compressibility (1/GPa) = 0.01876003
#
# Stress axis : x y z
#
# Youngs Moduli (GPa) = 48.39145 44.23223 52.66844
#
# Poissons Ratio (x) = 0.37449 0.33007
# Poissons Ratio (y) = 0.40970 0.36954
# Poissons Ratio (z) = 0.30326 0.31035
#
# Static dielectric constant tensor:
#      x y z
#    x 3.240820 0.000000 0.000000 
#    y 0.000000 3.209610 0.000000 
#    z 0.000000 0.000000 3.191770 
# 
# 
# High freq. dielectric constant tensor:
#      x y z
#    x 1.654520 0.000000 0.000000 
#    y 0.000000 1.661310 0.000000 
#    z 0.000000 0.000000 1.655260 
# 
# From -- ./inp_files/32915.got.cif
#   From: 2010.03.12/outbox.cif.g09.slc.cpg/sg47_17_cif.got.tgz:32915.got - 2010.04.14 03:12:58.
