data_PCOD8197752
_publ_section_title
;
Structure prediction by ZEFSAII (Michael W. Deem and Ramdas Pophale) SiO2 
 PCOD8197752
Probable space group: P M M M
;
_chemical_formula_sum "Si O2"
_cell_formula_units_Z 56
_cell_length_a 9.061382
_cell_length_b 20.983239
_cell_length_c 15.615067
_cell_angle_alpha 90.000000
_cell_angle_beta 90.000000
_cell_angle_gamma 90.000000
_cell_volume 2969.004246
_symmetry_space_group_name_H-M "P M M M"
_symmetry_group_IT_number 47
_symmetry_cell_setting 'orthorhombic'
loop_
_space_group_symop_operation_xyz
x,y,z
-x,-y,z
x,-y,-z
-x,y,-z
-x,-y,-z
x,y,-z
-x,y,z
x,-y,z
loop_
_atom_site_type_symbol
_atom_site_label
_atom_site_fract_x
_atom_site_fract_y
_atom_site_fract_z
Si Si1 0.324989 0.926184 0.500000
Si Si2 0.168510 0.738379 0.240811
Si Si3 0.675321 0.500000 0.100822
Si Si4 0.326023 0.606495 0.763727
Si Si5 0.834828 0.164693 0.094520
Si Si6 0.837940 0.573847 0.406543
Si Si7 0.172177 0.859712 0.656252
Si Si8 0.666779 0.074074 0.194449
O O1 0.500000 0.927543 0.500000
O O2 0.269929 0.885598 0.579676
O O3 0.266771 0.000000 0.500000
O O4 0.274342 0.678775 0.229700
O O5 0.199668 0.776714 0.155204
O O6 0.205606 0.785025 0.321894
O O7 0.000000 0.714979 0.247712
O O8 0.500000 0.500000 0.096534
O O9 0.731055 0.561959 0.156442
O O10 0.734151 0.500000 0.000000
O O11 0.500000 0.603532 0.764583
O O12 0.274849 0.584299 0.670271
O O13 0.715453 0.108450 0.106945
O O14 0.000000 0.138202 0.111865
O O15 0.818021 0.192120 0.000000
O O16 0.782974 0.601322 0.500000
O O17 0.859036 0.500000 0.418164
O O18 0.000000 0.604020 0.384941
O O19 0.214784 0.903238 0.736232
O O20 0.000000 0.868996 0.635286
O O21 0.500000 0.093050 0.221064
O O22 0.680276 0.000000 0.179607
#
# Coordination Sequence:
#
# PCOD8197752 Si02
#       8
#     4   8   4   8   8   8   8   8
#     4  11  23  37  57  87 121 152 185 236 295 343
#     4   9  20  38  57  78 108 146 185 230 282 334
#     4   9  20  38  56  81 120 156 187 231 286 345
#     4  11  21  35  58  85 113 149 190 235 285 338
#     4   9  19  36  56  77 103 138 181 228 274 325
#     4   9  18  34  57  83 111 145 180 219 274 333
#     4  10  21  38  58  79 106 145 192 235 276 332
#     4  10  20  33  51  77 109 141 173 218 277 333
#
# _framework density 18.861543999999999
#
# number of rings (size 3 to 8) (size 9 to 14) (size 15 to 20)
#    0.000    2.286    0.714    3.214    0.000    7.714 
#    1.286    2.143    0.000    3.000    0.000    0.000 
#    0.000    0.000    0.000    0.000    0.000    0.000 
#
# Total GULP energy -693760.526773 kJ/mol
# GULP energy per Si atom -12388.580835 kJ/mol
# Density = 1.881861 g / cm^3
# Si number density = 18.861544 Si / 1000 Ang^3
#
#
#
# Elastic Constant Matrix: (Units=GPa)
#
#
# Indices 1 2 3 4 5 6 
#
# 1 70.3730 48.5436 39.5410 0.0000 0.0000 0.0000
# 2 48.5436 105.5016 59.6213 0.0000 0.0000 0.0000
# 3 39.5410 59.6213 125.9959 0.0000 0.0000 0.0000
# 4 0.0000 0.0000 0.0000 11.2381 0.0000 0.0000
# 5 0.0000 0.0000 0.0000 0.0000 55.4730 0.0000
# 6 0.0000 0.0000 0.0000 0.0000 0.0000 31.3493
#
#
#
# Elastic Compliance Matrix: (Units=1/GPa)
#
#
# Indices 1 2 3 4 5 6 
#
# 1 0.021529 -0.008310 -0.002824 0.000000 0.000000 0.000000
# 2 -0.008310 0.016146 -0.005032 0.000000 0.000000 0.000000
# 3 -0.002824 -0.005032 0.011204 0.000000 0.000000 0.000000
# 4 0.000000 0.000000 0.000000 0.088983 0.000000 0.000000
# 5 0.000000 0.000000 0.000000 0.000000 0.018027 0.000000
# 6 0.000000 0.000000 0.000000 0.000000 0.000000 0.031899
#
#
# Mechanical properties :
#
#
# Convention : Reuss Voigt Hill
#
# Bulk Modulus (GPa) = 60.43595 66.36471 63.40033
# Shear Modulus (GPa) = 22.15955 29.88973 26.02464
#
# Velocity S-wave (km/s) = 3.43133 3.98514 3.71856
# Velocity P-wave (km/s) = 6.91449 7.51243 7.21965
#
# Compressibility (1/GPa) = 0.01654644
#
# Stress axis : x y z
#
# Youngs Moduli (GPa) = 46.44879 61.93457 89.25068
#
# Poissons Ratio (x) = 0.51468 0.25206
# Poissons Ratio (y) = 0.38599 0.44915
# Poissons Ratio (z) = 0.13118 0.31168
#
# Static dielectric constant tensor:
#      x y z
#    x 3.534320 0.000000 0.000000 
#    y 0.000000 3.495260 0.000000 
#    z 0.000000 0.000000 4.735710 
# 
# 
# High freq. dielectric constant tensor:
#      x y z
#    x 1.727030 0.000000 0.000000 
#    y 0.000000 1.725710 0.000000 
#    z 0.000000 0.000000 1.739450 
# 
# From -- ./inp_files/21623.got.cif
#   From: 2010.03.12/outbox.cif.g09.slc.cpg/sg47_11_cif.got.tgz:21623.got - 2010.04.14 03:12:58.
