data_PCOD8197171
_publ_section_title
;
Structure prediction by ZEFSAII (Michael W. Deem and Ramdas Pophale) SiO2 
 PCOD8197171
Probable space group: P M M M
;
_chemical_formula_sum "Si O2"
_cell_formula_units_Z 52
_cell_length_a 14.409577
_cell_length_b 20.811753
_cell_length_c 8.937381
_cell_angle_alpha 90.000000
_cell_angle_beta 90.000000
_cell_angle_gamma 90.000000
_cell_volume 2680.218295
_symmetry_space_group_name_H-M "P M M M"
_symmetry_group_IT_number 47
_symmetry_cell_setting 'orthorhombic'
loop_
_space_group_symop_operation_xyz
x,y,z
-x,-y,z
x,-y,-z
-x,y,-z
-x,-y,-z
x,y,-z
-x,y,z
x,-y,z
loop_
_atom_site_type_symbol
_atom_site_label
_atom_site_fract_x
_atom_site_fract_y
_atom_site_fract_z
Si Si1 0.107953 0.266732 0.171558
Si Si2 0.737085 0.071534 0.826051
Si Si3 0.105817 0.134316 0.671796
Si Si4 0.606240 0.673849 0.176043
Si Si5 0.397710 0.818549 0.177102
Si Si6 0.780192 0.377043 0.323302
Si Si7 0.105944 0.500000 0.678019
O O1 0.130002 0.195552 0.226951
O O2 0.164641 0.314458 0.274523
O O3 0.000000 0.283086 0.189506
O O4 0.140944 0.272857 0.000000
O O5 0.832215 0.075989 0.732759
O O6 0.668104 0.125541 0.758642
O O7 0.695373 0.000000 0.802435
O O8 0.757794 0.084153 0.000000
O O9 0.128106 0.150540 0.500000
O O10 0.000000 0.112842 0.691901
O O11 0.500000 0.660603 0.227152
O O12 0.636393 0.746806 0.220373
O O13 0.675818 0.624310 0.256855
O O14 0.615026 0.663589 0.000000
O O15 0.500000 0.829776 0.245150
O O16 0.402996 0.824470 0.000000
O O17 0.771759 0.379531 0.500000
O O18 0.837547 0.438265 0.262400
O O19 0.101592 0.500000 0.500000
O O20 0.000000 0.500000 0.741628
#
# Coordination Sequence:
#
# PCOD8197171 Si02
#       7
#     8   8   8   8   8   8   4
#     4  10  20  34  54  80 108 136 169 216 273 328
#     4  10  20  32  49  75 104 135 172 215 265 320
#     4  10  21  36  53  73  98 132 176 223 269 317
#     4   9  18  34  56  80 107 141 181 226 275 322
#     4   8  15  30  52  76 102 133 169 210 257 310
#     4  11  21  34  56  82 109 144 183 223 266 312
#     4   9  20  38  56  77 110 150 187 221 260 311
#
# _framework density 19.401403999999999
#
# number of rings (size 3 to 8) (size 9 to 14) (size 15 to 20)
#    0.000    2.385    0.000    3.692    0.000    4.923 
#    0.000    5.000    0.000    6.462    0.000    1.077 
#    0.000    0.000    0.000    0.000    0.000    0.000 
#
# Total GULP energy -644739.659794 kJ/mol
# GULP energy per Si atom -12398.839611 kJ/mol
# Density = 1.935725 g / cm^3
# Si number density = 19.401404 Si / 1000 Ang^3
#
#
#
# Elastic Constant Matrix: (Units=GPa)
#
#
# Indices 1 2 3 4 5 6 
#
# 1 119.2043 73.2213 38.5440 0.0000 0.0000 0.0000
# 2 73.2213 83.1448 23.9485 0.0000 0.0000 0.0000
# 3 38.5440 23.9485 46.6720 0.0000 0.0000 0.0000
# 4 0.0000 0.0000 0.0000 22.5220 0.0000 0.0000
# 5 0.0000 0.0000 0.0000 0.0000 28.2315 0.0000
# 6 0.0000 0.0000 0.0000 0.0000 0.0000 30.9997
#
#
#
# Elastic Compliance Matrix: (Units=1/GPa)
#
#
# Indices 1 2 3 4 5 6 
#
# 1 0.021248 -0.016026 -0.009324 0.000000 0.000000 0.000000
# 2 -0.016026 0.026201 -0.000209 0.000000 0.000000 0.000000
# 3 -0.009324 -0.000209 0.029234 0.000000 0.000000 0.000000
# 4 0.000000 0.000000 0.000000 0.044401 0.000000 0.000000
# 5 0.000000 0.000000 0.000000 0.000000 0.035421 0.000000
# 6 0.000000 0.000000 0.000000 0.000000 0.000000 0.032258
#
#
# Mechanical properties :
#
#
# Convention : Reuss Voigt Hill
#
# Bulk Modulus (GPa) = 39.11798 57.82761 48.47280
# Shear Modulus (GPa) = 20.12849 23.90445 22.01647
#
# Velocity S-wave (km/s) = 3.22448 3.51393 3.37232
# Velocity P-wave (km/s) = 5.83689 6.80693 6.34049
#
# Compressibility (1/GPa) = 0.02556369
#
# Stress axis : x y z
#
# Youngs Moduli (GPa) = 47.06301 38.16642 34.20713
#
# Poissons Ratio (x) = 0.61167 0.31895
# Poissons Ratio (y) = 0.75425 0.00715
# Poissons Ratio (z) = 0.43882 0.00798
#
# Static dielectric constant tensor:
#      x y z
#    x 3.829740 0.000000 0.000000 
#    y 0.000000 3.521740 0.000000 
#    z 0.000000 0.000000 3.251240 
# 
# 
# High freq. dielectric constant tensor:
#      x y z
#    x 1.766440 0.000000 0.000000 
#    y 0.000000 1.744150 0.000000 
#    z 0.000000 0.000000 1.729850 
# 
# From -- ./inp_files/7008.got.cif
#   From: 2010.03.12/outbox.cif.g09.slc.cpg/sg47_4_cif.got.tgz:7008.got - 2010.04.14 03:12:58.
