data_PCOD8197164
_publ_section_title
;
Structure prediction by ZEFSAII (Michael W. Deem and Ramdas Pophale) SiO2 
 PCOD8197164
Probable space group: P M M M
;
_chemical_formula_sum "Si O2"
_cell_formula_units_Z 48
_cell_length_a 8.830777
_cell_length_b 30.915065
_cell_length_c 9.471504
_cell_angle_alpha 90.000000
_cell_angle_beta 90.000000
_cell_angle_gamma 90.000000
_cell_volume 2585.758904
_symmetry_space_group_name_H-M "P M M M"
_symmetry_group_IT_number 47
_symmetry_cell_setting 'orthorhombic'
loop_
_space_group_symop_operation_xyz
x,y,z
-x,-y,z
x,-y,-z
-x,y,-z
-x,-y,-z
x,y,-z
-x,y,z
x,-y,z
loop_
_atom_site_type_symbol
_atom_site_label
_atom_site_fract_x
_atom_site_fract_y
_atom_site_fract_z
Si Si1 0.322839 0.797929 0.337897
Si Si2 0.819858 0.452047 0.658410
Si Si3 0.819535 0.626595 0.840985
Si Si4 0.175313 0.291824 0.337304
Si Si5 0.179961 0.873126 0.840313
Si Si6 0.180076 0.047879 0.658367
O O1 0.278016 0.807472 0.500000
O O2 0.500000 0.802765 0.312605
O O3 0.272519 0.749874 0.295418
O O4 0.235881 0.830826 0.238628
O O5 0.760821 0.442477 0.500000
O O6 0.766624 0.500000 0.706983
O O7 0.752933 0.416181 0.764709
O O8 0.000000 0.449835 0.658869
O O9 0.763480 0.668900 0.757668
O O10 0.000000 0.625082 0.840177
O O11 0.755948 0.628125 0.000000
O O12 0.199400 0.304906 0.500000
O O13 0.000000 0.281551 0.306300
O O14 0.246140 0.916024 0.763955
O O15 0.000000 0.873356 0.836928
O O16 0.241319 0.872892 0.000000
O O17 0.238686 0.057867 0.500000
O O18 0.000000 0.049157 0.659909
O O19 0.235588 0.000000 0.705931
#
# Coordination Sequence:
#
# PCOD8197164 Si02
#       6
#     8   8   8   8   8   8
#     4  10  21  36  53  72  94 123 161 203 245 288
#     4   8  13  21  33  50  76 112 149 181 217 265
#     4   9  16  24  36  57  84 113 146 185 226 268
#     4   9  17  30  48  67  88 117 152 190 233 280
#     4  10  20  32  49  75 104 133 163 195 235 284
#     4   8  14  26  46  72 100 129 161 197 235 274
#
# _framework density 18.563216000000001
#
# number of rings (size 3 to 8) (size 9 to 14) (size 15 to 20)
#    0.000    3.000    0.000    2.500    0.000    5.333 
#    0.000    5.000    0.000    0.500    0.000    3.500 
#    0.000    0.667    0.000    7.667    0.000    9.833 
#
# Total GULP energy -595060.712418 kJ/mol
# GULP energy per Si atom -12397.098175 kJ/mol
# Density = 1.852097 g / cm^3
# Si number density = 18.563216 Si / 1000 Ang^3
#
#
#
# Elastic Constant Matrix: (Units=GPa)
#
#
# Indices 1 2 3 4 5 6 
#
# 1 7.2366 7.0759 11.5863 0.0000 0.0000 0.0000
# 2 7.0759 151.9152 99.6030 0.0000 0.0000 0.0000
# 3 11.5863 99.6030 137.7301 0.0000 0.0000 0.0000
# 4 0.0000 0.0000 0.0000 17.8476 0.0000 0.0000
# 5 0.0000 0.0000 0.0000 0.0000 10.7098 0.0000
# 6 0.0000 0.0000 0.0000 0.0000 0.0000 -1.8602
#
#
#
# Elastic Compliance Matrix: (Units=1/GPa)
#
#
# Indices 1 2 3 4 5 6 
#
# 1 0.160239 0.002614 -0.015370 0.000000 0.000000 0.000000
# 2 0.002614 0.012561 -0.009303 0.000000 0.000000 0.000000
# 3 -0.015370 -0.009303 0.015282 0.000000 0.000000 0.000000
# 4 0.000000 0.000000 0.000000 0.056030 0.000000 0.000000
# 5 0.000000 0.000000 0.000000 0.000000 0.093372 0.000000
# 6 0.000000 0.000000 0.000000 0.000000 0.000000 -0.537589
#
#
# Mechanical properties :
#
#
# Convention : Reuss Voigt Hill
#
# Bulk Modulus (GPa) = 6.94627 59.26804 33.10716
# Shear Modulus (GPa) = -46.29707 17.24725 -14.52491
#
# Velocity S-wave (km/s) = -4.99944 3.05144 -2.80028
# Velocity P-wave (km/s) = 5.43836 6.66423 2.72362
#
# Compressibility (1/GPa) = 0.14396214
#
# Stress axis : x y z
#
# Youngs Moduli (GPa) = 6.24066 79.61365 65.43830
#
# Poissons Ratio (x) = -0.20809 1.00579
# Poissons Ratio (y) = -0.01631 0.60880
# Poissons Ratio (z) = 0.09592 0.74068
#
# Static dielectric constant tensor:
#      x y z
#    x 2.805130 0.000000 0.000000 
#    y 0.000000 3.691310 0.000000 
#    z 0.000000 0.000000 3.605800 
# 
# 
# High freq. dielectric constant tensor:
#      x y z
#    x 1.656500 0.000000 0.000000 
#    y 0.000000 1.737040 0.000000 
#    z 0.000000 0.000000 1.719950 
# 
# From -- ./inp_files/2509.got.cif
#   From: 2010.03.12/outbox.cif.g09.slc.cpg/sg47_2_cif.got.tgz:2509.got - 2010.04.14 03:12:58.
