data_PCOD8197457
_publ_section_title
;
Structure prediction by ZEFSAII (Michael W. Deem and Ramdas Pophale) SiO2 
 PCOD8197457
Probable space group: P M M M
;
_chemical_formula_sum "Si O2"
_cell_formula_units_Z 52
_cell_length_a 23.666641
_cell_length_b 14.429804
_cell_length_c 8.900094
_cell_angle_alpha 90.000000
_cell_angle_beta 90.000000
_cell_angle_gamma 90.000000
_cell_volume 3039.426521
_symmetry_space_group_name_H-M "P M M M"
_symmetry_group_IT_number 47
_symmetry_cell_setting 'orthorhombic'
loop_
_space_group_symop_operation_xyz
x,y,z
-x,-y,z
x,-y,-z
-x,y,-z
-x,-y,-z
x,y,-z
-x,y,z
x,-y,z
loop_
_atom_site_type_symbol
_atom_site_label
_atom_site_fract_x
_atom_site_fract_y
_atom_site_fract_z
Si Si1 0.721963 0.218172 0.822346
Si Si2 0.120776 0.602980 0.171779
Si Si3 0.169317 0.104561 0.820936
Si Si4 0.377920 0.894184 0.679186
Si Si5 0.500000 0.890577 0.663619
Si Si6 0.238423 0.604617 0.325132
Si Si7 0.061750 0.213768 0.177002
O O1 0.777508 0.164021 0.762407
O O2 0.666667 0.171802 0.756193
O O3 0.722979 0.324182 0.767181
O O4 0.718698 0.215057 0.000000
O O5 0.094751 0.500000 0.191924
O O6 0.173578 0.617700 0.279634
O O7 0.073713 0.678419 0.214781
O O8 0.141579 0.618574 0.000000
O O9 0.111274 0.148852 0.755680
O O10 0.174698 0.000000 0.759424
O O11 0.168255 0.105897 0.000000
O O12 0.376234 0.882971 0.500000
O O13 0.440428 0.864111 0.743354
O O14 0.364216 0.000000 0.724737
O O15 0.500000 0.842770 0.500000
O O16 0.500000 0.000000 0.640731
O O17 0.244452 0.626641 0.500000
O O18 0.258560 0.500000 0.287704
O O19 0.000000 0.188224 0.245706
O O20 0.059720 0.198465 0.000000
#
# Coordination Sequence:
#
# PCOD8197457 Si02
#       7
#     8   8   8   8   4   8   8
#     4  11  20  31  48  71 100 130 160 198 245 294
#     4   9  16  28  46  67  91 116 144 186 244 301
#     4   9  17  28  41  61  91 123 154 193 238 278
#     4   9  17  30  49  74 104 138 174 206 236 274
#     4   7  12  26  47  69  98 137 174 205 235 270
#     4  10  20  33  50  71  93 119 154 196 242 295
#     4   9  16  26  41  63  89 118 155 194 235 287
#
# _framework density 17.10849
#
# number of rings (size 3 to 8) (size 9 to 14) (size 15 to 20)
#    0.000    2.692    1.538    2.308    0.000    2.462 
#    0.000    3.462    0.000    1.846    0.000    2.692 
#    0.000    5.538    0.000    0.000    0.000    0.000 
#
# Total GULP energy -644421.466855 kJ/mol
# GULP energy per Si atom -12392.720516 kJ/mol
# Density = 1.706955 g / cm^3
# Si number density = 17.108490 Si / 1000 Ang^3
#
#
#
# Elastic Constant Matrix: (Units=GPa)
#
#
# Indices 1 2 3 4 5 6 
#
# 1 142.5681 65.5758 26.7330 0.0000 0.0000 0.0000
# 2 65.5758 108.7473 23.2357 0.0000 0.0000 0.0000
# 3 26.7330 23.2357 23.6679 0.0000 0.0000 0.0000
# 4 0.0000 0.0000 0.0000 18.0862 0.0000 0.0000
# 5 0.0000 0.0000 0.0000 0.0000 16.3797 0.0000
# 6 0.0000 0.0000 0.0000 0.0000 0.0000 23.4811
#
#
#
# Elastic Compliance Matrix: (Units=1/GPa)
#
#
# Indices 1 2 3 4 5 6 
#
# 1 0.010596 -0.004850 -0.007207 0.000000 0.000000 0.000000
# 2 -0.004850 0.013856 -0.008125 0.000000 0.000000 0.000000
# 3 -0.007207 -0.008125 0.058369 0.000000 0.000000 0.000000
# 4 0.000000 0.000000 0.000000 0.055291 0.000000 0.000000
# 5 0.000000 0.000000 0.000000 0.000000 0.061051 0.000000
# 6 0.000000 0.000000 0.000000 0.000000 0.000000 0.042587
#
#
# Mechanical properties :
#
#
# Convention : Reuss Voigt Hill
#
# Bulk Modulus (GPa) = 23.55349 56.23026 39.89187
# Shear Modulus (GPa) = 16.87658 22.21864 19.54761
#
# Velocity S-wave (km/s) = 3.14418 3.60765 3.38386
# Velocity P-wave (km/s) = 5.19405 7.09166 6.21570
#
# Compressibility (1/GPa) = 0.04245656
#
# Stress axis : x y z
#
# Youngs Moduli (GPa) = 94.37212 72.16980 17.13233
#
# Poissons Ratio (x) = 0.35000 0.12348
# Poissons Ratio (y) = 0.45768 0.13921
# Poissons Ratio (z) = 0.68018 0.58641
#
# Static dielectric constant tensor:
#      x y z
#    x 3.400220 0.000000 0.000000 
#    y 0.000000 3.332340 0.000000 
#    z 0.000000 0.000000 2.852070 
# 
# 
# High freq. dielectric constant tensor:
#      x y z
#    x 1.651530 0.000000 0.000000 
#    y 0.000000 1.656280 0.000000 
#    z 0.000000 0.000000 1.622210 
# 
# From -- ./inp_files/7582.got.cif
#   From: 2010.03.12/outbox.cif.g09.slc.cpg/sg47_4_cif.got.tgz:7582.got - 2010.04.14 03:12:58.
