data_PCOD8197354
_publ_section_title
;
Structure prediction by ZEFSAII (Michael W. Deem and Ramdas Pophale) SiO2 
 PCOD8197354
Probable space group: P M M M
;
_chemical_formula_sum "Si O2"
_cell_formula_units_Z 44
_cell_length_a 9.015663
_cell_length_b 28.577203
_cell_length_c 9.209395
_cell_angle_alpha 90.000000
_cell_angle_beta 90.000000
_cell_angle_gamma 90.000000
_cell_volume 2372.730923
_symmetry_space_group_name_H-M "P M M M"
_symmetry_group_IT_number 47
_symmetry_cell_setting 'orthorhombic'
loop_
_space_group_symop_operation_xyz
x,y,z
-x,-y,z
x,-y,-z
-x,y,-z
-x,-y,-z
x,y,-z
-x,y,z
x,-y,z
loop_
_atom_site_type_symbol
_atom_site_label
_atom_site_fract_x
_atom_site_fract_y
_atom_site_fract_z
Si Si1 0.167480 0.000000 0.826630
Si Si2 0.672079 0.731266 0.670418
Si Si3 0.323567 0.551627 0.663103
Si Si4 0.676449 0.360686 0.837335
Si Si5 0.825451 0.814598 0.832942
Si Si6 0.666913 0.908492 0.172620
O O1 0.250067 0.954121 0.765193
O O2 0.000000 0.000000 0.767598
O O3 0.168948 0.000000 0.000000
O O4 0.699332 0.726954 0.500000
O O5 0.500000 0.740542 0.707053
O O6 0.729329 0.683483 0.743439
O O7 0.768813 0.772967 0.733390
O O8 0.264642 0.560285 0.500000
O O9 0.500000 0.554399 0.662734
O O10 0.272897 0.500000 0.717763
O O11 0.257468 0.591733 0.767445
O O12 0.500000 0.363131 0.838935
O O13 0.739786 0.355790 0.000000
O O14 0.751499 0.862179 0.774636
O O15 0.000000 0.820112 0.815921
O O16 0.780589 0.804717 0.000000
O O17 0.500000 0.907578 0.234321
O O18 0.666196 0.910675 0.000000
#
# Coordination Sequence:
#
# PCOD8197354 Si02
#       6
#     4   8   8   8   8   8
#     4   9  15  23  37  61  96 133 166 201 242 287
#     4  10  20  33  49  68  91 122 160 200 243 294
#     4   8  13  21  33  51  80 119 158 194 235 285
#     4   9  16  25  39  60  86 117 154 197 243 290
#     4  10  20  33  49  70  96 125 158 199 248 297
#     4   9  16  26  42  65  94 128 164 201 242 289
#
# _framework density 18.544032999999999
#
# number of rings (size 3 to 8) (size 9 to 14) (size 15 to 20)
#    0.000    2.818    0.000    3.000    0.000    8.000 
#    0.000    1.818    0.000    0.000    0.000    0.636 
#    0.000    5.818    0.000    7.636    0.000   10.545 
#
# Total GULP energy -545519.302047 kJ/mol
# GULP energy per Si atom -12398.165956 kJ/mol
# Density = 1.850183 g / cm^3
# Si number density = 18.544033 Si / 1000 Ang^3
#
#
#
# Elastic Constant Matrix: (Units=GPa)
#
#
# Indices 1 2 3 4 5 6 
#
# 1 73.3043 55.7802 29.9209 0.0000 0.0000 0.0000
# 2 55.7802 188.2089 65.6478 0.0000 0.0000 0.0000
# 3 29.9209 65.6478 79.1460 0.0000 0.0000 0.0000
# 4 0.0000 0.0000 0.0000 8.0635 0.0000 0.0000
# 5 0.0000 0.0000 0.0000 0.0000 12.8450 0.0000
# 6 0.0000 0.0000 0.0000 0.0000 0.0000 2.3688
#
#
#
# Elastic Compliance Matrix: (Units=1/GPa)
#
#
# Indices 1 2 3 4 5 6 
#
# 1 0.018240 -0.004222 -0.003393 0.000000 0.000000 0.000000
# 2 -0.004222 0.008454 -0.005416 0.000000 0.000000 0.000000
# 3 -0.003393 -0.005416 0.018410 0.000000 0.000000 0.000000
# 4 0.000000 0.000000 0.000000 0.124016 0.000000 0.000000
# 5 0.000000 0.000000 0.000000 0.000000 0.077851 0.000000
# 6 0.000000 0.000000 0.000000 0.000000 0.000000 0.422162
#
#
# Mechanical properties :
#
#
# Convention : Reuss Voigt Hill
#
# Bulk Modulus (GPa) = 52.51932 71.48412 62.00172
# Shear Modulus (GPa) = 7.12716 17.27613 12.20165
#
# Velocity S-wave (km/s) = 1.96258 3.05557 2.56790
# Velocity P-wave (km/s) = 5.78952 7.14707 6.50381
#
# Compressibility (1/GPa) = 0.01904061
#
# Stress axis : x y z
#
# Youngs Moduli (GPa) = 54.82562 118.29315 54.31897
#
# Poissons Ratio (x) = 0.49945 0.18433
# Poissons Ratio (y) = 0.23148 0.29417
# Poissons Ratio (z) = 0.18604 0.64064
#
# Static dielectric constant tensor:
#      x y z
#    x 3.075360 0.000000 0.000000 
#    y 0.000000 3.704340 0.000000 
#    z 0.000000 0.000000 3.201140 
# 
# 
# High freq. dielectric constant tensor:
#      x y z
#    x 1.680810 0.000000 0.000000 
#    y 0.000000 1.740410 0.000000 
#    z 0.000000 0.000000 1.686590 
# 
# From -- ./inp_files/2306.got.cif
#   From: 2010.03.12/outbox.cif.g09.slc.cpg/sg47_2_cif.got.tgz:2306.got - 2010.04.14 03:12:58.
