data_PCOD8197028
_publ_section_title
;
Structure prediction by ZEFSAII (Michael W. Deem and Ramdas Pophale) SiO2 
 PCOD8197028
Probable space group: P M M M
;
_chemical_formula_sum "Si O2"
_cell_formula_units_Z 40
_cell_length_a 27.606805
_cell_length_b 9.116843
_cell_length_c 8.301579
_cell_angle_alpha 90.000000
_cell_angle_beta 90.000000
_cell_angle_gamma 90.000000
_cell_volume 2089.398741
_symmetry_space_group_name_H-M "P M M M"
_symmetry_group_IT_number 47
_symmetry_cell_setting 'orthorhombic'
loop_
_space_group_symop_operation_xyz
x,y,z
-x,-y,z
x,-y,-z
-x,y,-z
-x,-y,-z
x,y,-z
-x,y,z
x,-y,z
loop_
_atom_site_type_symbol
_atom_site_label
_atom_site_fract_x
_atom_site_fract_y
_atom_site_fract_z
Si Si1 0.598230 0.833339 0.812321
Si Si2 0.500000 0.835084 0.312268
Si Si3 0.113321 0.173413 0.184057
Si Si4 0.302678 0.836746 0.686302
Si Si5 0.054499 0.825927 0.500000
Si Si6 0.786716 0.666915 0.185517
O O1 0.549633 0.754179 0.743972
O O2 0.648920 0.759459 0.758635
O O3 0.599867 0.000000 0.745608
O O4 0.594136 0.825650 0.000000
O O5 0.500000 0.840677 0.500000
O O6 0.500000 0.000000 0.236890
O O7 0.078726 0.228730 0.330792
O O8 0.164740 0.244385 0.221455
O O9 0.119332 0.000000 0.192862
O O10 0.095347 0.216976 0.000000
O O11 0.311607 0.852660 0.500000
O O12 0.256717 0.735033 0.714234
O O13 0.294016 0.000000 0.762282
O O14 0.000000 0.763767 0.500000
O O15 0.054855 0.000000 0.500000
O O16 0.795054 0.500000 0.240604
O O17 0.772158 0.676990 0.000000
#
# Coordination Sequence:
#
# PCOD8197028 Si02
#       6
#     8   4   8   8   4   8
#     4   9  16  26  41  62  90 125 163 202 247 301
#     4   9  15  23  37  59  90 123 156 199 250 301
#     4   9  18  33  54  79 108 142 178 217 262 310
#     4  10  20  32  48  72 101 132 167 209 257 308
#     4   9  18  32  53  83 113 139 175 220 261 306
#     4  10  21  36  53  74 101 134 172 215 262 310
#
# _framework density 19.144264
#
# number of rings (size 3 to 8) (size 9 to 14) (size 15 to 20)
#    0.000    2.600    0.000    2.100    1.400    6.400 
#    0.000    2.000    0.000    1.200    0.000    3.500 
#    0.000    5.600    0.000    0.000    0.000    0.000 
#
# Total GULP energy -495652.662299 kJ/mol
# GULP energy per Si atom -12391.316557 kJ/mol
# Density = 1.910069 g / cm^3
# Si number density = 19.144264 Si / 1000 Ang^3
#
#
#
# Elastic Constant Matrix: (Units=GPa)
#
#
# Indices 1 2 3 4 5 6 
#
# 1 157.6849 23.4904 73.9582 0.0000 0.0000 0.0000
# 2 23.4904 21.0552 18.5438 0.0000 0.0000 0.0000
# 3 73.9582 18.5438 109.8211 0.0000 0.0000 0.0000
# 4 0.0000 0.0000 0.0000 13.1026 0.0000 0.0000
# 5 0.0000 0.0000 0.0000 0.0000 41.1327 0.0000
# 6 0.0000 0.0000 0.0000 0.0000 0.0000 -2.9731
#
#
#
# Elastic Compliance Matrix: (Units=1/GPa)
#
#
# Indices 1 2 3 4 5 6 
#
# 1 0.009889 -0.006070 -0.005635 0.000000 0.000000 0.000000
# 2 -0.006070 0.059517 -0.005962 0.000000 0.000000 0.000000
# 3 -0.005635 -0.005962 0.013907 0.000000 0.000000 0.000000
# 4 0.000000 0.000000 0.000000 0.076321 0.000000 0.000000
# 5 0.000000 0.000000 0.000000 0.000000 0.024312 0.000000
# 6 0.000000 0.000000 0.000000 0.000000 0.000000 -0.336348
#
#
# Mechanical properties :
#
#
# Convention : Reuss Voigt Hill
#
# Bulk Modulus (GPa) = 20.84212 57.83846 39.34029
# Shear Modulus (GPa) = -49.46758 21.75703 -13.85528
#
# Velocity S-wave (km/s) = -5.08876 3.37483 -2.69314
# Velocity P-wave (km/s) = 4.85971 6.74266 3.30504
#
# Compressibility (1/GPa) = 0.04797977
#
# Stress axis : x y z
#
# Youngs Moduli (GPa) = 101.12493 16.80191 71.90632
#
# Poissons Ratio (x) = 0.10199 0.40516
# Poissons Ratio (y) = 0.61382 0.42870
# Poissons Ratio (z) = 0.56980 0.10017
#
# Static dielectric constant tensor:
#      x y z
#    x 3.796200 0.000000 0.000000 
#    y 0.000000 3.077240 0.000000 
#    z 0.000000 0.000000 3.613230 
# 
# 
# High freq. dielectric constant tensor:
#      x y z
#    x 1.757030 0.000000 0.000000 
#    y 0.000000 1.680180 0.000000 
#    z 0.000000 0.000000 1.756810 
# 
# From -- ./inp_files/1827.got.cif
#   From: 2010.03.12/outbox.cif.g09.slc.cpg/sg47_1_cif.got.tgz:1827.got - 2010.04.14 03:12:58.
