data_PCOD8197588
_publ_section_title
;
Structure prediction by ZEFSAII (Michael W. Deem and Ramdas Pophale) SiO2 
 PCOD8197588
Probable space group: P M M M
;
_chemical_formula_sum "Si O2"
_cell_formula_units_Z 44
_cell_length_a 28.200597
_cell_length_b 9.130586
_cell_length_c 9.120103
_cell_angle_alpha 90.000000
_cell_angle_beta 90.000000
_cell_angle_gamma 90.000000
_cell_volume 2348.316864
_symmetry_space_group_name_H-M "P M M M"
_symmetry_group_IT_number 47
_symmetry_cell_setting 'orthorhombic'
loop_
_space_group_symop_operation_xyz
x,y,z
-x,-y,z
x,-y,-z
-x,y,-z
-x,-y,-z
x,y,-z
-x,y,z
x,-y,z
loop_
_atom_site_type_symbol
_atom_site_label
_atom_site_fract_x
_atom_site_fract_y
_atom_site_fract_z
Si Si1 0.729727 0.168580 0.672726
Si Si2 0.446200 0.672119 0.665374
Si Si3 0.186100 0.328411 0.170138
Si Si4 0.091986 0.834632 0.825639
Si Si5 0.000000 0.665836 0.824974
Si Si6 0.365107 0.170392 0.831775
O O1 0.727491 0.188997 0.500000
O O2 0.770262 0.270961 0.736420
O O3 0.680039 0.223465 0.738764
O O4 0.739666 0.000000 0.717240
O O5 0.434300 0.723912 0.500000
O O6 0.500000 0.715846 0.705258
O O7 0.439184 0.500000 0.678582
O O8 0.412062 0.748496 0.780237
O O9 0.179358 0.500000 0.196251
O O10 0.139015 0.248021 0.228459
O O11 0.195367 0.292242 0.000000
O O12 0.046264 0.749222 0.763688
O O13 0.092096 0.000000 0.763603
O O14 0.090054 0.835988 0.000000
O O15 0.000000 0.500000 0.765063
O O16 0.000000 0.665637 0.000000
O O17 0.374081 0.000000 0.807747
O O18 0.355135 0.209765 0.000000
#
# Coordination Sequence:
#
# PCOD8197588 Si02
#       6
#     8   8   8   8   4   8
#     4  10  21  37  56  76  99 131 171 212 256 308
#     4   9  19  36  56  78 106 141 179 216 255 302
#     4  10  20  33  50  74 103 134 169 210 258 309
#     4   9  16  26  42  65  95 132 171 210 254 304
#     4   9  15  23  37  61  96 133 168 209 256 305
#     4  10  21  36  55  80 108 137 171 213 260 309
#
# _framework density 18.736823999999999
#
# number of rings (size 3 to 8) (size 9 to 14) (size 15 to 20)
#    0.000    2.455    0.000    3.000    0.000    8.364 
#    0.000    2.727    0.000    0.000    0.000    0.636 
#    0.000    5.091    0.000    0.000    0.000    0.000 
#
# Total GULP energy -545699.557192 kJ/mol
# GULP energy per Si atom -12402.262663 kJ/mol
# Density = 1.869418 g / cm^3
# Si number density = 18.736824 Si / 1000 Ang^3
#
#
#
# Elastic Constant Matrix: (Units=GPa)
#
#
# Indices 1 2 3 4 5 6 
#
# 1 155.4646 72.7125 49.7601 0.0000 0.0000 0.0000
# 2 72.7125 102.9480 38.5040 0.0000 0.0000 0.0000
# 3 49.7601 38.5040 57.1668 0.0000 0.0000 0.0000
# 4 0.0000 0.0000 0.0000 24.1959 0.0000 0.0000
# 5 0.0000 0.0000 0.0000 0.0000 -0.9963 0.0000
# 6 0.0000 0.0000 0.0000 0.0000 0.0000 30.2525
#
#
#
# Elastic Compliance Matrix: (Units=1/GPa)
#
#
# Indices 1 2 3 4 5 6 
#
# 1 0.010846 -0.005520 -0.005723 0.000000 0.000000 0.000000
# 2 -0.005520 0.015794 -0.005833 0.000000 0.000000 0.000000
# 3 -0.005723 -0.005833 0.026403 0.000000 0.000000 0.000000
# 4 0.000000 0.000000 0.000000 0.041329 0.000000 0.000000
# 5 0.000000 0.000000 0.000000 0.000000 -1.003670 0.000000
# 6 0.000000 0.000000 0.000000 0.000000 0.000000 0.033055
#
#
# Mechanical properties :
#
#
# Convention : Reuss Voigt Hill
#
# Bulk Modulus (GPa) = 52.93507 70.83694 61.88601
# Shear Modulus (GPa) = -5.98233 20.99726 7.50747
#
# Velocity S-wave (km/s) = -1.78878 3.35123 2.00387
# Velocity P-wave (km/s) = 4.90376 7.27067 6.20119
#
# Compressibility (1/GPa) = 0.01889107
#
# Stress axis : x y z
#
# Youngs Moduli (GPa) = 92.20176 63.31457 37.87499
#
# Poissons Ratio (x) = 0.34950 0.21674
# Poissons Ratio (y) = 0.50896 0.22093
# Poissons Ratio (z) = 0.52763 0.36932
#
# Static dielectric constant tensor:
#      x y z
#    x 3.582110 0.000000 0.000000 
#    y 0.000000 3.461410 0.000000 
#    z 0.000000 0.000000 3.133180 
# 
# 
# High freq. dielectric constant tensor:
#      x y z
#    x 1.742490 0.000000 0.000000 
#    y 0.000000 1.730390 0.000000 
#    z 0.000000 0.000000 1.694490 
# 
# From -- ./inp_files/13614.got.cif
#   From: 2010.03.12/outbox.cif.g09.slc.cpg/sg47_7_cif.got.tgz:13614.got - 2010.04.14 03:12:58.
