data_PCOD8197311
_publ_section_title
;
Structure prediction by ZEFSAII (Michael W. Deem and Ramdas Pophale) SiO2 
 PCOD8197311
Probable space group: P M M M
;
_chemical_formula_sum "Si O2"
_cell_formula_units_Z 56
_cell_length_a 15.326850
_cell_length_b 30.073417
_cell_length_c 9.227367
_cell_angle_alpha 90.000000
_cell_angle_beta 90.000000
_cell_angle_gamma 90.000000
_cell_volume 4253.177204
_symmetry_space_group_name_H-M "P M M M"
_symmetry_group_IT_number 47
_symmetry_cell_setting 'orthorhombic'
loop_
_space_group_symop_operation_xyz
x,y,z
-x,-y,z
x,-y,-z
-x,y,-z
-x,-y,-z
x,y,-z
-x,y,z
x,-y,z
loop_
_atom_site_type_symbol
_atom_site_label
_atom_site_fract_x
_atom_site_fract_y
_atom_site_fract_z
Si Si1 0.000000 0.552670 0.664483
Si Si2 0.396133 0.130832 0.837193
Si Si3 0.598828 0.688622 0.666938
Si Si4 0.396290 0.951541 0.662579
Si Si5 0.603646 0.227789 0.163686
Si Si6 0.172274 0.447412 0.168891
Si Si7 0.500000 0.552564 0.165387
Si Si8 0.336437 0.592635 0.671209
O O1 0.916134 0.569044 0.754158
O O2 0.000000 0.500000 0.656145
O O3 0.000000 0.572196 0.500000
O O4 0.500000 0.127940 0.833630
O O5 0.354241 0.089670 0.749598
O O6 0.366559 0.179263 0.774683
O O7 0.361716 0.126278 0.000000
O O8 0.597349 0.701113 0.500000
O O9 0.500000 0.678981 0.721596
O O10 0.642638 0.731048 0.746029
O O11 0.656647 0.645366 0.697694
O O12 0.360775 0.947976 0.500000
O O13 0.500000 0.947702 0.664147
O O14 0.369055 0.000000 0.727983
O O15 0.500000 0.230261 0.171259
O O16 0.636871 0.232802 0.000000
O O17 0.185112 0.500000 0.184271
O O18 0.248652 0.423136 0.253994
O O19 0.171102 0.433506 0.000000
O O20 0.500000 0.500000 0.160017
O O21 0.584234 0.568101 0.252084
O O22 0.500000 0.571345 0.000000
O O23 0.336922 0.581233 0.500000
#
# Coordination Sequence:
#
# PCOD8197311 Si02
#       8
#     4   8   8   8   8   8   4   8
#     4   9  17  31  51  71  87 105 127 149 179 217
#     4   8  13  20  28  39  54  69  91 123 157 197
#     4   9  17  29  40  52  70  91 118 150 181 213
#     4   8  13  19  25  34  49  68  90 116 149 193
#     4   8  14  23  34  47  60  77 103 135 170 207
#     4  10  20  33  48  67  88 106 126 153 183 217
#     4  11  23  35  45  59  79 103 131 159 186 219
#     4  11  21  33  46  61  81 104 130 158 186 221
#
# _framework density 13.166627999999999
#
# number of rings (size 3 to 8) (size 9 to 14) (size 15 to 20)
#    0.000    2.857    0.714    3.000    0.000    6.000 
#    0.000    4.286    0.000    0.000    0.000    0.000 
#    0.000    0.000    0.000    0.000    0.000    0.000 
#
# Total GULP energy -693922.608829 kJ/mol
# GULP energy per Si atom -12391.475158 kJ/mol
# Density = 1.313666 g / cm^3
# Si number density = 13.166628 Si / 1000 Ang^3
#
#
#
# Elastic Constant Matrix: (Units=GPa)
#
#
# Indices 1 2 3 4 5 6 
#
# 1 60.2817 29.9430 37.3363 0.0000 0.0000 0.0000
# 2 29.9430 95.8782 56.1189 0.0000 0.0000 0.0000
# 3 37.3363 56.1189 90.6943 0.0000 0.0000 0.0000
# 4 0.0000 0.0000 0.0000 26.5391 0.0000 0.0000
# 5 0.0000 0.0000 0.0000 0.0000 15.8261 0.0000
# 6 0.0000 0.0000 0.0000 0.0000 0.0000 5.2362
#
#
#
# Elastic Compliance Matrix: (Units=1/GPa)
#
#
# Indices 1 2 3 4 5 6 
#
# 1 0.022652 -0.002534 -0.007757 0.000000 0.000000 0.000000
# 2 -0.002534 0.016636 -0.009251 0.000000 0.000000 0.000000
# 3 -0.007757 -0.009251 0.019944 0.000000 0.000000 0.000000
# 4 0.000000 0.000000 0.000000 0.037680 0.000000 0.000000
# 5 0.000000 0.000000 0.000000 0.000000 0.063187 0.000000
# 6 0.000000 0.000000 0.000000 0.000000 0.000000 0.190978
#
#
# Mechanical properties :
#
#
# Convention : Reuss Voigt Hill
#
# Bulk Modulus (GPa) = 49.63329 54.85007 52.24168
# Shear Modulus (GPa) = 12.59839 17.75067 15.17453
#
# Velocity S-wave (km/s) = 3.09664 3.67571 3.39853
# Velocity P-wave (km/s) = 7.11082 7.73067 7.42721
#
# Compressibility (1/GPa) = 0.02014777
#
# Stress axis : x y z
#
# Youngs Moduli (GPa) = 44.14626 60.11163 50.14160
#
# Poissons Ratio (x) = 0.15231 0.38897
# Poissons Ratio (y) = 0.11186 0.46384
# Poissons Ratio (z) = 0.34246 0.55607
#
# Static dielectric constant tensor:
#      x y z
#    x 2.225180 0.000000 0.000000 
#    y 0.000000 2.919650 0.000000 
#    z 0.000000 0.000000 2.859240 
# 
# 
# High freq. dielectric constant tensor:
#      x y z
#    x 1.431710 0.000000 0.000000 
#    y 0.000000 1.502770 0.000000 
#    z 0.000000 0.000000 1.513060 
# 
# From -- ./inp_files/8190.got.cif
#   From: 2010.03.12/outbox.cif.g09.slc.cpg/sg47_5_cif.got.tgz:8190.got - 2010.04.14 03:12:58.
