data_PCOD8197597
_publ_section_title
;
Structure prediction by ZEFSAII (Michael W. Deem and Ramdas Pophale) SiO2 
 PCOD8197597
Probable space group: P M M M
;
_chemical_formula_sum "Si O2"
_cell_formula_units_Z 52
_cell_length_a 9.361604
_cell_length_b 14.113725
_cell_length_c 22.729137
_cell_angle_alpha 90.000000
_cell_angle_beta 90.000000
_cell_angle_gamma 90.000000
_cell_volume 3003.135058
_symmetry_space_group_name_H-M "P M M M"
_symmetry_group_IT_number 47
_symmetry_cell_setting 'orthorhombic'
loop_
_space_group_symop_operation_xyz
x,y,z
-x,-y,z
x,-y,-z
-x,y,-z
-x,-y,-z
x,y,-z
-x,y,z
x,-y,z
loop_
_atom_site_type_symbol
_atom_site_label
_atom_site_fract_x
_atom_site_fract_y
_atom_site_fract_z
Si Si1 0.168268 0.389962 0.500000
Si Si2 0.664405 0.105057 0.657049
Si Si3 0.664663 0.391277 0.067931
Si Si4 0.164528 0.105243 0.773289
Si Si5 0.664410 0.703328 0.604835
Si Si6 0.167116 0.294796 0.167446
Si Si7 0.663189 0.610357 0.271288
O O1 0.209069 0.500000 0.500000
O O2 0.232380 0.342159 0.557575
O O3 0.000000 0.373709 0.500000
O O4 0.500000 0.108682 0.676001
O O5 0.749911 0.132401 0.715157
O O6 0.693379 0.183141 0.606553
O O7 0.706641 0.000000 0.633486
O O8 0.500000 0.367935 0.081161
O O9 0.696862 0.500000 0.084876
O O10 0.763735 0.322476 0.105593
O O11 0.700760 0.373047 0.000000
O O12 0.197558 0.182790 0.823339
O O13 0.000000 0.108880 0.754917
O O14 0.206635 0.000000 0.796548
O O15 0.500000 0.681136 0.588117
O O16 0.703417 0.662022 0.668372
O O17 0.233868 0.355261 0.219963
O O18 0.000000 0.317465 0.165269
O O19 0.500000 0.632481 0.253082
O O20 0.687729 0.500000 0.281656
#
# Coordination Sequence:
#
# PCOD8197597 Si02
#       7
#     4   8   8   8   8   8   8
#     4  11  25  41  56  75 100 134 177 221 260 303
#     4   9  17  31  54  82 106 129 164 211 257 299
#     4   9  19  36  55  73  98 137 179 214 253 305
#     4   9  18  32  49  72 105 141 171 202 249 308
#     4  10  20  36  57  78 102 135 173 211 254 309
#     4  11  21  31  49  78 107 134 169 212 257 303
#     4  10  20  33  50  74 104 136 169 207 253 306
#
# _framework density 17.315238999999998
#
# number of rings (size 3 to 8) (size 9 to 14) (size 15 to 20)
#    0.000    2.231    1.538    2.077    0.000    5.846 
#    0.000    1.154    0.000    2.769    0.000    3.231 
#    0.000    0.000    0.000    0.000    0.000    0.000 
#
# Total GULP energy -644789.169205 kJ/mol
# GULP energy per Si atom -12399.791715 kJ/mol
# Density = 1.727583 g / cm^3
# Si number density = 17.315239 Si / 1000 Ang^3
#
#
#
# Elastic Constant Matrix: (Units=GPa)
#
#
# Indices 1 2 3 4 5 6 
#
# 1 81.8101 59.0567 57.2448 0.0000 0.0000 0.0000
# 2 59.0567 120.1523 61.1268 0.0000 0.0000 0.0000
# 3 57.2448 61.1268 91.4231 0.0000 0.0000 0.0000
# 4 0.0000 0.0000 0.0000 23.6372 0.0000 0.0000
# 5 0.0000 0.0000 0.0000 0.0000 73.4159 0.0000
# 6 0.0000 0.0000 0.0000 0.0000 0.0000 25.6341
#
#
#
# Elastic Compliance Matrix: (Units=1/GPa)
#
#
# Indices 1 2 3 4 5 6 
#
# 1 0.024680 -0.006469 -0.011128 0.000000 0.000000 0.000000
# 2 -0.006469 0.014309 -0.005516 0.000000 0.000000 0.000000
# 3 -0.011128 -0.005516 0.021594 0.000000 0.000000 0.000000
# 4 0.000000 0.000000 0.000000 0.042306 0.000000 0.000000
# 5 0.000000 0.000000 0.000000 0.000000 0.013621 0.000000
# 6 0.000000 0.000000 0.000000 0.000000 0.000000 0.039011
#
#
# Mechanical properties :
#
#
# Convention : Reuss Voigt Hill
#
# Bulk Modulus (GPa) = 69.65770 72.02688 70.84229
# Shear Modulus (GPa) = 24.20911 32.26792 28.23852
#
# Velocity S-wave (km/s) = 3.74323 4.32158 4.04276
# Velocity P-wave (km/s) = 7.68107 8.16021 7.92426
#
# Compressibility (1/GPa) = 0.01435591
#
# Stress axis : x y z
#
# Youngs Moduli (GPa) = 40.51855 69.88618 46.30850
#
# Poissons Ratio (x) = 0.45212 0.51532
# Poissons Ratio (y) = 0.26213 0.25546
# Poissons Ratio (z) = 0.45089 0.38552
#
# Static dielectric constant tensor:
#      x y z
#    x 3.258070 0.000000 0.000000 
#    y 0.000000 3.584760 0.000000 
#    z 0.000000 0.000000 3.090180 
# 
# 
# High freq. dielectric constant tensor:
#      x y z
#    x 1.670490 0.000000 0.000000 
#    y 0.000000 1.682120 0.000000 
#    z 0.000000 0.000000 1.646580 
# 
# From -- ./inp_files/10941.got.cif
#   From: 2010.03.12/outbox.cif.g09.slc.cpg/sg47_6_cif.got.tgz:10941.got - 2010.04.14 03:12:58.
