data_PCOD8197408
_publ_section_title
;
Structure prediction by ZEFSAII (Michael W. Deem and Ramdas Pophale) SiO2 
 PCOD8197408
Probable space group: P M M M
;
_chemical_formula_sum "Si O2"
_cell_formula_units_Z 44
_cell_length_a 8.922619
_cell_length_b 14.086106
_cell_length_c 20.614658
_cell_angle_alpha 90.000000
_cell_angle_beta 90.000000
_cell_angle_gamma 90.000000
_cell_volume 2590.952405
_symmetry_space_group_name_H-M "P M M M"
_symmetry_group_IT_number 47
_symmetry_cell_setting 'orthorhombic'
loop_
_space_group_symop_operation_xyz
x,y,z
-x,-y,z
x,-y,-z
-x,y,-z
-x,-y,-z
x,y,-z
-x,y,z
x,-y,z
loop_
_atom_site_type_symbol
_atom_site_label
_atom_site_fract_x
_atom_site_fract_y
_atom_site_fract_z
Si Si1 0.175851 0.779002 0.313502
Si Si2 0.328611 0.111392 0.573740
Si Si3 0.168624 0.612581 0.500000
Si Si4 0.671866 0.887855 0.198495
Si Si5 0.676975 0.391637 0.368577
Si Si6 0.831718 0.887314 0.928842
O O1 0.217514 0.834927 0.378631
O O2 0.226532 0.837294 0.251249
O O3 0.255559 0.675655 0.312703
O O4 0.000000 0.763369 0.310650
O O5 0.289945 0.140720 0.500000
O O6 0.500000 0.138933 0.590580
O O7 0.305336 0.000000 0.583402
O O8 0.164366 0.500000 0.500000
O O9 0.256966 0.647139 0.436501
O O10 0.000000 0.654379 0.500000
O O11 0.500000 0.860152 0.209833
O O12 0.720926 0.850540 0.127307
O O13 0.697306 0.000000 0.205198
O O14 0.500000 0.381867 0.371564
O O15 0.725639 0.500000 0.354368
O O16 0.000000 0.850437 0.914721
O O17 0.831362 0.000000 0.929348
O O18 0.777945 0.850442 0.000000
#
# Coordination Sequence:
#
# PCOD8197408 Si02
#       6
#     8   8   4   8   8   8
#     4  12  24  34  49  71  97 127 160 202 249 295
#     4   9  19  36  54  69  89 121 161 203 244 287
#     4   9  17  31  51  73  94 113 140 185 239 291
#     4  10  20  33  49  70  99 134 171 207 240 281
#     4  10  21  37  55  72  92 121 156 196 245 300
#     4   8  14  26  45  69  98 131 164 198 238 283
#
# _framework density 16.982173
#
# number of rings (size 3 to 8) (size 9 to 14) (size 15 to 20)
#    0.000    2.273    0.000    4.636    1.273    6.545 
#    0.000    2.727    0.000    0.000    0.000    0.000 
#    0.000    0.727    0.000    7.636    0.000    3.636 
#
# Total GULP energy -545559.275629 kJ/mol
# GULP energy per Si atom -12399.074446 kJ/mol
# Density = 1.694352 g / cm^3
# Si number density = 16.982173 Si / 1000 Ang^3
#
#
#
# Elastic Constant Matrix: (Units=GPa)
#
#
# Indices 1 2 3 4 5 6 
#
# 1 99.0094 28.2591 44.8395 0.0000 0.0000 0.0000
# 2 28.2591 46.0535 36.2446 0.0000 0.0000 0.0000
# 3 44.8395 36.2446 96.5824 0.0000 0.0000 0.0000
# 4 0.0000 0.0000 0.0000 6.7048 0.0000 0.0000
# 5 0.0000 0.0000 0.0000 0.0000 31.9108 0.0000
# 6 0.0000 0.0000 0.0000 0.0000 0.0000 22.1842
#
#
#
# Elastic Compliance Matrix: (Units=1/GPa)
#
#
# Indices 1 2 3 4 5 6 
#
# 1 0.013483 -0.004750 -0.004477 0.000000 0.000000 0.000000
# 2 -0.004750 0.032488 -0.009987 0.000000 0.000000 0.000000
# 3 -0.004477 -0.009987 0.016180 0.000000 0.000000 0.000000
# 4 0.000000 0.000000 0.000000 0.149147 0.000000 0.000000
# 5 0.000000 0.000000 0.000000 0.000000 0.031337 0.000000
# 6 0.000000 0.000000 0.000000 0.000000 0.000000 0.045077
#
#
# Mechanical properties :
#
#
# Convention : Reuss Voigt Hill
#
# Bulk Modulus (GPa) = 42.15150 51.14798 46.64974
# Shear Modulus (GPa) = 14.96786 20.98011 17.97398
#
# Velocity S-wave (km/s) = 2.97204 3.51867 3.25684
# Velocity P-wave (km/s) = 6.05411 6.83316 6.45540
#
# Compressibility (1/GPa) = 0.02372395
#
# Stress axis : x y z
#
# Youngs Moduli (GPa) = 74.16486 30.78047 61.80388
#
# Poissons Ratio (x) = 0.14621 0.27672
# Poissons Ratio (y) = 0.35228 0.61721
# Poissons Ratio (z) = 0.33206 0.30739
#
# Static dielectric constant tensor:
#      x y z
#    x 3.240760 0.000000 0.000000 
#    y 0.000000 3.035340 0.000000 
#    z 0.000000 0.000000 3.355060 
# 
# 
# High freq. dielectric constant tensor:
#      x y z
#    x 1.663450 0.000000 0.000000 
#    y 0.000000 1.624820 0.000000 
#    z 0.000000 0.000000 1.644030 
# 
# From -- ./inp_files/29447.got.cif
#   From: 2010.03.12/outbox.cif.g09.slc.cpg/sg47_15_cif.got.tgz:29447.got - 2010.04.14 03:12:58.
