data_PCOD8197175
_publ_section_title
;
Structure prediction by ZEFSAII (Michael W. Deem and Ramdas Pophale) SiO2 
 PCOD8197175
Probable space group: P M M M
;
_chemical_formula_sum "Si O2"
_cell_formula_units_Z 56
_cell_length_a 23.235427
_cell_length_b 9.286659
_cell_length_c 14.517014
_cell_angle_alpha 90.000000
_cell_angle_beta 90.000000
_cell_angle_gamma 90.000000
_cell_volume 3132.473838
_symmetry_space_group_name_H-M "P M M M"
_symmetry_group_IT_number 47
_symmetry_cell_setting 'orthorhombic'
loop_
_space_group_symop_operation_xyz
x,y,z
-x,-y,z
x,-y,-z
-x,y,-z
-x,-y,-z
x,y,-z
-x,y,z
x,-y,z
loop_
_atom_site_type_symbol
_atom_site_label
_atom_site_fract_x
_atom_site_fract_y
_atom_site_fract_z
Si Si1 0.232599 0.831349 0.106382
Si Si2 0.934124 0.331470 0.393401
Si Si3 0.431677 0.339176 0.601190
Si Si4 0.933236 0.656644 0.099800
Si Si5 0.432043 0.165638 0.226065
Si Si6 0.127783 0.831807 0.238473
Si Si7 0.653406 0.337433 0.108163
O O1 0.185174 0.784970 0.182467
O O2 0.288830 0.744809 0.137165
O O3 0.245725 0.000000 0.114103
O O4 0.214711 0.793771 0.000000
O O5 0.922482 0.295283 0.500000
O O6 0.926921 0.500000 0.374203
O O7 0.884907 0.248412 0.334999
O O8 0.000000 0.285400 0.367443
O O9 0.408228 0.294511 0.500000
O O10 0.500000 0.337906 0.599501
O O11 0.409979 0.500000 0.626465
O O12 0.409055 0.225414 0.675909
O O13 0.908967 0.500000 0.134124
O O14 0.922991 0.785351 0.170456
O O15 0.000000 0.641294 0.087208
O O16 0.905553 0.693929 0.000000
O O17 0.500000 0.187224 0.215091
O O18 0.402101 0.255292 0.146099
O O19 0.414083 0.000000 0.218956
O O20 0.126578 0.000000 0.258397
O O21 0.655871 0.500000 0.147005
O O22 0.645907 0.337920 0.000000
#
# Coordination Sequence:
#
# PCOD8197175 Si02
#       7
#     8   8   8   8   8   8   8
#     4   9  19  36  54  72  99 133 165 200 248 308
#     4   9  19  36  55  74 100 137 178 216 255 302
#     4   8  14  26  45  69  98 131 164 199 239 281
#     4   9  18  31  45  64  95 134 169 199 235 282
#     4  10  20  32  49  75 105 137 170 204 249 308
#     4  11  21  31  49  77 103 128 161 204 254 301
#     4  10  21  36  54  75  98 128 169 215 258 298
#
# _framework density 17.877244000000001
#
# number of rings (size 3 to 8) (size 9 to 14) (size 15 to 20)
#    0.000    2.571    0.000    3.429    0.000    6.857 
#    0.000    5.714    0.000    0.857    0.000    4.000 
#    0.000    0.000    0.000    0.000    0.000    0.000 
#
# Total GULP energy -693932.393686 kJ/mol
# GULP energy per Si atom -12391.649887 kJ/mol
# Density = 1.783655 g / cm^3
# Si number density = 17.877244 Si / 1000 Ang^3
#
#
#
# Elastic Constant Matrix: (Units=GPa)
#
#
# Indices 1 2 3 4 5 6 
#
# 1 62.0172 49.4618 45.0584 0.0000 0.0000 0.0000
# 2 49.4618 92.4845 49.0574 0.0000 0.0000 0.0000
# 3 45.0584 49.0574 89.7536 0.0000 0.0000 0.0000
# 4 0.0000 0.0000 0.0000 30.2594 0.0000 0.0000
# 5 0.0000 0.0000 0.0000 0.0000 16.9249 0.0000
# 6 0.0000 0.0000 0.0000 0.0000 0.0000 26.7235
#
#
#
# Elastic Compliance Matrix: (Units=1/GPa)
#
#
# Indices 1 2 3 4 5 6 
#
# 1 0.033327 -0.012603 -0.009843 0.000000 0.000000 0.000000
# 2 -0.012603 0.019993 -0.004601 0.000000 0.000000 0.000000
# 3 -0.009843 -0.004601 0.018598 0.000000 0.000000 0.000000
# 4 0.000000 0.000000 0.000000 0.033048 0.000000 0.000000
# 5 0.000000 0.000000 0.000000 0.000000 0.059084 0.000000
# 6 0.000000 0.000000 0.000000 0.000000 0.000000 0.037420
#
#
# Mechanical properties :
#
#
# Convention : Reuss Voigt Hill
#
# Bulk Modulus (GPa) = 56.10021 59.04561 57.57291
# Shear Modulus (GPa) = 19.12013 21.49342 20.30678
#
# Velocity S-wave (km/s) = 3.27391 3.47115 3.37397
# Velocity P-wave (km/s) = 6.76315 7.01179 6.88859
#
# Compressibility (1/GPa) = 0.01782525
#
# Stress axis : x y z
#
# Youngs Moduli (GPa) = 30.00571 50.01680 53.77039
#
# Poissons Ratio (x) = 0.63035 0.52924
# Poissons Ratio (y) = 0.37816 0.24740
# Poissons Ratio (z) = 0.29533 0.23013
#
# Static dielectric constant tensor:
#      x y z
#    x 3.050430 0.000000 0.000000 
#    y 0.000000 3.415630 0.000000 
#    z 0.000000 0.000000 3.465410 
# 
# 
# High freq. dielectric constant tensor:
#      x y z
#    x 1.658230 0.000000 0.000000 
#    y 0.000000 1.696810 0.000000 
#    z 0.000000 0.000000 1.693280 
# 
# From -- ./inp_files/11253.got.cif
#   From: 2010.03.12/outbox.cif.g09.slc.cpg/sg47_6_cif.got.tgz:11253.got - 2010.04.14 03:12:58.
