data_PCOD8197031
_publ_section_title
;
Structure prediction by ZEFSAII (Michael W. Deem and Ramdas Pophale) SiO2 
 PCOD8197031
Probable space group: P M M M
;
_chemical_formula_sum "Si O2"
_cell_formula_units_Z 52
_cell_length_a 22.234206
_cell_length_b 15.410833
_cell_length_c 9.168392
_cell_angle_alpha 90.000000
_cell_angle_beta 90.000000
_cell_angle_gamma 90.000000
_cell_volume 3141.527841
_symmetry_space_group_name_H-M "P M M M"
_symmetry_group_IT_number 47
_symmetry_cell_setting 'orthorhombic'
loop_
_space_group_symop_operation_xyz
x,y,z
-x,-y,z
x,-y,-z
-x,y,-z
-x,-y,-z
x,y,-z
-x,y,z
x,-y,z
loop_
_atom_site_type_symbol
_atom_site_label
_atom_site_fract_x
_atom_site_fract_y
_atom_site_fract_z
Si Si1 0.196522 0.904601 0.330952
Si Si2 0.091827 0.306944 0.832331
Si Si3 0.682944 0.398701 0.328312
Si Si4 0.000000 0.401537 0.343634
Si Si5 0.227635 0.267553 0.170357
Si Si6 0.433974 0.397412 0.837338
Si Si7 0.064887 0.140762 0.334687
O O1 0.207815 0.882348 0.500000
O O2 0.229374 0.829903 0.237165
O O3 0.124720 0.913920 0.297713
O O4 0.223601 0.000000 0.292176
O O5 0.060882 0.384358 0.745665
O O6 0.162588 0.308455 0.802951
O O7 0.061425 0.219527 0.776638
O O8 0.076237 0.317910 0.000000
O O9 0.688499 0.385055 0.500000
O O10 0.695355 0.500000 0.286294
O O11 0.728267 0.334494 0.248130
O O12 0.616454 0.368498 0.278067
O O13 0.000000 0.500000 0.382135
O O14 0.000000 0.350838 0.500000
O O15 0.243839 0.260228 0.000000
O O16 0.500000 0.361216 0.790074
O O17 0.437171 0.500000 0.841529
O O18 0.417662 0.362982 0.000000
O O19 0.071155 0.175422 0.500000
O O20 0.000000 0.090294 0.318048
#
# Coordination Sequence:
#
# PCOD8197031 Si02
#       7
#     8   8   8   4   8   8   8
#     4   9  18  32  49  70  96 124 155 194 240 292
#     4  10  20  33  48  64  83 110 146 188 234 283
#     4  10  20  32  48  72 101 133 169 207 243 282
#     4  11  23  35  47  63  82 107 142 187 239 292
#     4  10  21  35  51  70  94 127 162 200 245 291
#     4   8  14  26  45  69  99 135 169 199 234 277
#     4   9  16  27  46  68  89 114 141 173 221 283
#
# _framework density 16.552455999999999
#
# number of rings (size 3 to 8) (size 9 to 14) (size 15 to 20)
#    0.000    2.538    0.769    2.077    0.000    4.923 
#    0.000    6.154    0.000    0.000    0.000    4.308 
#    0.000    0.615    0.000    6.462    0.000    3.077 
#
# Total GULP energy -644203.746709 kJ/mol
# GULP energy per Si atom -12388.533591 kJ/mol
# Density = 1.651478 g / cm^3
# Si number density = 16.552456 Si / 1000 Ang^3
#
#
#
# Elastic Constant Matrix: (Units=GPa)
#
#
# Indices 1 2 3 4 5 6 
#
# 1 92.3419 46.3973 57.1221 0.0000 0.0000 0.0000
# 2 46.3973 84.0435 53.2906 0.0000 0.0000 0.0000
# 3 57.1221 53.2906 107.9129 0.0000 0.0000 0.0000
# 4 0.0000 0.0000 0.0000 2.0202 0.0000 0.0000
# 5 0.0000 0.0000 0.0000 0.0000 -26.2052 0.0000
# 6 0.0000 0.0000 0.0000 0.0000 0.0000 23.0535
#
#
#
# Elastic Compliance Matrix: (Units=1/GPa)
#
#
# Indices 1 2 3 4 5 6 
#
# 1 0.017739 -0.005589 -0.006630 0.000000 0.000000 0.000000
# 2 -0.005589 0.019084 -0.006466 0.000000 0.000000 0.000000
# 3 -0.006630 -0.006466 0.015969 0.000000 0.000000 0.000000
# 4 0.000000 0.000000 0.000000 0.495001 0.000000 0.000000
# 5 0.000000 0.000000 0.000000 0.000000 -0.038160 0.000000
# 6 0.000000 0.000000 0.000000 0.000000 0.000000 0.043377
#
#
# Mechanical properties :
#
#
# Convention : Reuss Voigt Hill
#
# Bulk Modulus (GPa) = 64.83956 66.43538 65.63747
# Shear Modulus (GPa) = 8.39604 8.27293 8.33448
#
# Velocity S-wave (km/s) = 2.25464 2.23805 2.24636
# Velocity P-wave (km/s) = 6.78491 6.84849 6.81678
#
# Compressibility (1/GPa) = 0.01542268
#
# Stress axis : x y z
#
# Youngs Moduli (GPa) = 56.37425 52.40011 62.62147
#
# Poissons Ratio (x) = 0.29287 0.41515
# Poissons Ratio (y) = 0.31508 0.40489
# Poissons Ratio (z) = 0.37374 0.33880
#
# Static dielectric constant tensor:
#      x y z
#    x 3.342100 0.000000 0.000000 
#    y 0.000000 2.897570 0.000000 
#    z 0.000000 0.000000 3.247660 
# 
# 
# High freq. dielectric constant tensor:
#      x y z
#    x 1.621870 0.000000 0.000000 
#    y 0.000000 1.606100 0.000000 
#    z 0.000000 0.000000 1.647100 
# 
# From -- ./inp_files/11043.got.cif
#   From: 2010.03.12/outbox.cif.g09.slc.cpg/sg47_6_cif.got.tgz:11043.got - 2010.04.14 03:12:58.
