data_PCOD8197032
_publ_section_title
;
Structure prediction by ZEFSAII (Michael W. Deem and Ramdas Pophale) SiO2 
 PCOD8197032
Probable space group: P M M M
;
_chemical_formula_sum "Si O2"
_cell_formula_units_Z 44
_cell_length_a 30.187476
_cell_length_b 8.979748
_cell_length_c 8.194939
_cell_angle_alpha 90.000000
_cell_angle_beta 90.000000
_cell_angle_gamma 90.000000
_cell_volume 2221.450688
_symmetry_space_group_name_H-M "P M M M"
_symmetry_group_IT_number 47
_symmetry_cell_setting 'orthorhombic'
loop_
_space_group_symop_operation_xyz
x,y,z
-x,-y,z
x,-y,-z
-x,y,-z
-x,-y,-z
x,y,-z
-x,y,z
x,-y,z
loop_
_atom_site_type_symbol
_atom_site_label
_atom_site_fract_x
_atom_site_fract_y
_atom_site_fract_z
Si Si1 0.947699 0.828557 0.500000
Si Si2 0.188304 0.831744 0.810972
Si Si3 0.902621 0.676303 0.189345
Si Si4 0.280394 0.829433 0.686448
Si Si5 0.362887 0.337516 0.186952
Si Si6 0.547203 0.328446 0.691073
O O1 0.932257 0.751978 0.330059
O O2 0.000000 0.817157 0.500000
O O3 0.931586 0.000000 0.500000
O O4 0.147490 0.724084 0.772192
O O5 0.231355 0.763961 0.720156
O O6 0.177019 0.000000 0.750252
O O7 0.199821 0.833089 0.000000
O O8 0.907257 0.500000 0.207294
O O9 0.915391 0.723503 0.000000
O O10 0.293235 0.807205 0.500000
O O11 0.318261 0.753200 0.790111
O O12 0.278932 0.000000 0.740874
O O13 0.358047 0.500000 0.274105
O O14 0.407337 0.250154 0.248233
O O15 0.370112 0.363653 0.000000
O O16 0.545848 0.312041 0.500000
O O17 0.500000 0.261849 0.759763
O O18 0.549760 0.500000 0.746394
#
# Coordination Sequence:
#
# PCOD8197032 Si02
#       6
#     4   8   8   8   8   8
#     4  11  25  43  65  93 125 165 213 259 298 349
#     4   9  18  34  56  81 110 146 187 230 278 336
#     4  10  22  40  63  93 128 163 200 249 309 365
#     4  10  21  35  52  76 105 140 181 222 267 321
#     4  10  20  32  48  72 101 133 170 214 264 319
#     4   8  14  26  45  68  94 125 162 207 261 320
#
# _framework density 19.806877
#
# number of rings (size 3 to 8) (size 9 to 14) (size 15 to 20)
#    0.000    2.455    0.000    2.455    1.273    5.455 
#    0.000    5.455    0.000    0.545    0.000    3.818 
#    0.000    0.000    0.000    0.000    0.000    0.000 
#
# Total GULP energy -545103.312243 kJ/mol
# GULP energy per Si atom -12388.711642 kJ/mol
# Density = 1.976180 g / cm^3
# Si number density = 19.806877 Si / 1000 Ang^3
#
#
#
# Elastic Constant Matrix: (Units=GPa)
#
#
# Indices 1 2 3 4 5 6 
#
# 1 133.7710 42.9694 51.0345 0.0000 0.0000 0.0000
# 2 42.9694 60.4162 37.6468 0.0000 0.0000 0.0000
# 3 51.0345 37.6468 76.7572 0.0000 0.0000 0.0000
# 4 0.0000 0.0000 0.0000 23.7232 0.0000 0.0000
# 5 0.0000 0.0000 0.0000 0.0000 26.6730 0.0000
# 6 0.0000 0.0000 0.0000 0.0000 0.0000 35.0061
#
#
#
# Elastic Compliance Matrix: (Units=1/GPa)
#
#
# Indices 1 2 3 4 5 6 
#
# 1 0.010850 -0.004639 -0.004938 0.000000 0.000000 0.000000
# 2 -0.004639 0.025821 -0.009580 0.000000 0.000000 0.000000
# 3 -0.004938 -0.009580 0.021010 0.000000 0.000000 0.000000
# 4 0.000000 0.000000 0.000000 0.042153 0.000000 0.000000
# 5 0.000000 0.000000 0.000000 0.000000 0.037491 0.000000
# 6 0.000000 0.000000 0.000000 0.000000 0.000000 0.028566
#
#
# Mechanical properties :
#
#
# Convention : Reuss Voigt Hill
#
# Bulk Modulus (GPa) = 51.63722 59.36065 55.49894
# Shear Modulus (GPa) = 23.73488 26.36671 25.05079
#
# Velocity S-wave (km/s) = 3.46542 3.65251 3.56019
# Velocity P-wave (km/s) = 6.49147 6.91538 6.70678
#
# Compressibility (1/GPa) = 0.01936588
#
# Stress axis : x y z
#
# Youngs Moduli (GPa) = 92.16841 38.72861 47.59660
#
# Poissons Ratio (x) = 0.17968 0.23505
# Poissons Ratio (y) = 0.42760 0.45595
# Poissons Ratio (z) = 0.45516 0.37100
#
# Static dielectric constant tensor:
#      x y z
#    x 3.820250 0.000000 0.000000 
#    y 0.000000 3.367290 0.000000 
#    z 0.000000 0.000000 3.629740 
# 
# 
# High freq. dielectric constant tensor:
#      x y z
#    x 1.789650 0.000000 0.000000 
#    y 0.000000 1.733630 0.000000 
#    z 0.000000 0.000000 1.774000 
# 
# From -- ./inp_files/13684.got.cif
#   From: 2010.03.12/outbox.cif.g09.slc.cpg/sg47_7_cif.got.tgz:13684.got - 2010.04.14 03:12:58.
