data_PCOD8197723
_publ_section_title
;
Structure prediction by ZEFSAII (Michael W. Deem and Ramdas Pophale) SiO2 
 PCOD8197723
Probable space group: P M M M
;
_chemical_formula_sum "Si O2"
_cell_formula_units_Z 64
_cell_length_a 41.143635
_cell_length_b 9.010075
_cell_length_c 9.588964
_cell_angle_alpha 90.000000
_cell_angle_beta 90.000000
_cell_angle_gamma 90.000000
_cell_volume 3554.698351
_symmetry_space_group_name_H-M "P M M M"
_symmetry_group_IT_number 47
_symmetry_cell_setting 'orthorhombic'
loop_
_space_group_symop_operation_xyz
x,y,z
-x,-y,z
x,-y,-z
-x,y,-z
-x,-y,-z
x,y,-z
-x,y,z
x,-y,z
loop_
_atom_site_type_symbol
_atom_site_label
_atom_site_fract_x
_atom_site_fract_y
_atom_site_fract_z
Si Si1 0.535844 0.823601 0.656644
Si Si2 0.405011 0.173973 0.161661
Si Si3 0.154325 0.832910 0.665613
Si Si4 0.724474 0.174090 0.162679
Si Si5 0.659386 0.667164 0.834360
Si Si6 0.219345 0.673764 0.663070
Si Si7 0.037539 0.169800 0.160920
Si Si8 0.909954 0.327090 0.338788
O O1 0.543188 0.768274 0.500000
O O2 0.500000 0.766945 0.703957
O O3 0.563516 0.760828 0.758916
O O4 0.536197 0.000000 0.661807
O O5 0.373258 0.255629 0.222668
O O6 0.400143 0.000000 0.188052
O O7 0.410335 0.209616 0.000000
O O8 0.153413 0.831978 0.500000
O O9 0.185235 0.739465 0.717440
O O10 0.121413 0.758182 0.722584
O O11 0.156825 0.000000 0.724469
O O12 0.690532 0.241088 0.217463
O O13 0.752669 0.248341 0.250582
O O14 0.724056 0.000000 0.191409
O O15 0.729971 0.210067 0.000000
O O16 0.661573 0.500000 0.775793
O O17 0.658383 0.668392 0.000000
O O18 0.224630 0.707757 0.500000
O O19 0.219570 0.500000 0.694203
O O20 0.058310 0.279524 0.255082
O O21 0.000000 0.203829 0.191696
O O22 0.045752 0.000000 0.199471
O O23 0.045636 0.200437 0.000000
O O24 0.915759 0.286950 0.500000
O O25 0.903544 0.500000 0.318077
#
# Coordination Sequence:
#
# PCOD8197723 Si02
#       8
#     8   8   8   8   8   8   8   8
#     4   8  14  25  41  62  89 119 148 180 224 277
#     4   9  16  26  43  67  90 112 146 192 233 270
#     4   9  17  31  52  75 100 133 170 206 247 294
#     4  10  20  34  53  76 101 130 166 206 246 290
#     4   9  17  30  48  68  92 124 158 192 236 288
#     4  10  20  34  53  77 105 135 166 202 246 295
#     4   9  19  36  55  74  99 133 171 209 251 300
#     4  10  20  33  51  77 106 133 165 207 252 298
#
# _framework density 18.004339999999999
#
# number of rings (size 3 to 8) (size 9 to 14) (size 15 to 20)
#    0.000    2.750    0.000    2.625    0.000    6.250 
#    0.000    4.375    0.000    6.750    0.000    2.625 
#    0.000    0.000    0.000    0.000    0.000    0.000 
#
# Total GULP energy -793564.084680 kJ/mol
# GULP energy per Si atom -12399.438823 kJ/mol
# Density = 1.796336 g / cm^3
# Si number density = 18.004340 Si / 1000 Ang^3
#
#
#
# Elastic Constant Matrix: (Units=GPa)
#
#
# Indices 1 2 3 4 5 6 
#
# 1 162.1291 68.4961 59.2222 0.0000 0.0000 0.0000
# 2 68.4961 96.9768 39.5757 0.0000 0.0000 0.0000
# 3 59.2222 39.5757 49.7888 0.0000 0.0000 0.0000
# 4 0.0000 0.0000 0.0000 21.1420 0.0000 0.0000
# 5 0.0000 0.0000 0.0000 0.0000 32.4960 0.0000
# 6 0.0000 0.0000 0.0000 0.0000 0.0000 13.9602
#
#
#
# Elastic Compliance Matrix: (Units=1/GPa)
#
#
# Indices 1 2 3 4 5 6 
#
# 1 0.011809 -0.003861 -0.010977 0.000000 0.000000 0.000000
# 2 -0.003861 0.016525 -0.008543 0.000000 0.000000 0.000000
# 3 -0.010977 -0.008543 0.039932 0.000000 0.000000 0.000000
# 4 0.000000 0.000000 0.000000 0.047299 0.000000 0.000000
# 5 0.000000 0.000000 0.000000 0.000000 0.030773 0.000000
# 6 0.000000 0.000000 0.000000 0.000000 0.000000 0.071632
#
#
# Mechanical properties :
#
#
# Convention : Reuss Voigt Hill
#
# Bulk Modulus (GPa) = 46.50250 71.49807 59.00029
# Shear Modulus (GPa) = 18.38904 22.95969 20.67437
#
# Velocity S-wave (km/s) = 3.19935 3.57491 3.39233
# Velocity P-wave (km/s) = 6.28748 7.53908 6.94155
#
# Compressibility (1/GPa) = 0.02150422
#
# Stress axis : x y z
#
# Youngs Moduli (GPa) = 84.68209 60.51396 25.04234
#
# Poissons Ratio (x) = 0.23365 0.27490
# Poissons Ratio (y) = 0.32696 0.21393
# Poissons Ratio (z) = 0.92958 0.51696
#
# Static dielectric constant tensor:
#      x y z
#    x 3.594170 0.000000 0.000000 
#    y 0.000000 3.319860 0.000000 
#    z 0.000000 0.000000 3.076170 
# 
# 
# High freq. dielectric constant tensor:
#      x y z
#    x 1.713120 0.000000 0.000000 
#    y 0.000000 1.692710 0.000000 
#    z 0.000000 0.000000 1.663130 
# 
# From -- ./inp_files/20115.got.cif
#   From: 2010.03.12/outbox.cif.g09.slc.cpg/sg47_11_cif.got.tgz:20115.got - 2010.04.14 03:12:58.
