data_PCOD8197950
_publ_section_title
;
Structure prediction by ZEFSAII (Michael W. Deem and Ramdas Pophale) SiO2 
 PCOD8197950
Probable space group: P M M M
;
_chemical_formula_sum "Si O2"
_cell_formula_units_Z 52
_cell_length_a 25.055997
_cell_length_b 7.786089
_cell_length_c 14.687000
_cell_angle_alpha 90.000000
_cell_angle_beta 90.000000
_cell_angle_gamma 90.000000
_cell_volume 2865.260726
_symmetry_space_group_name_H-M "P M M M"
_symmetry_group_IT_number 47
_symmetry_cell_setting 'orthorhombic'
loop_
_space_group_symop_operation_xyz
x,y,z
-x,-y,z
x,-y,-z
-x,y,-z
-x,-y,-z
x,y,-z
-x,y,z
x,-y,z
loop_
_atom_site_type_symbol
_atom_site_label
_atom_site_fract_x
_atom_site_fract_y
_atom_site_fract_z
Si Si1 0.136464 0.198479 0.606897
Si Si2 0.279162 0.799098 0.099953
Si Si3 0.397511 0.304027 0.901976
Si Si4 0.059235 0.500000 0.607549
Si Si5 0.341204 0.199640 0.399442
Si Si6 0.758832 0.202841 0.289502
Si Si7 0.440330 0.296626 0.716136
O O1 0.148760 0.216096 0.500000
O O2 0.088823 0.324553 0.638166
O O3 0.188089 0.268386 0.660791
O O4 0.121898 0.000000 0.631086
O O5 0.334297 0.700887 0.113937
O O6 0.240034 0.742094 0.182465
O O7 0.291970 0.000000 0.107281
O O8 0.254070 0.755065 0.000000
O O9 0.415927 0.500000 0.907220
O O10 0.427311 0.216701 0.816282
O O11 0.411801 0.215206 0.000000
O O12 0.054755 0.500000 0.500000
O O13 0.000000 0.500000 0.651318
O O14 0.339904 0.284468 0.500000
O O15 0.294110 0.282182 0.337614
O O16 0.399513 0.225443 0.357510
O O17 0.329798 0.000000 0.408418
O O18 0.757081 0.000000 0.298619
O O19 0.500000 0.240335 0.687832
O O20 0.434340 0.500000 0.719868
#
# Coordination Sequence:
#
# PCOD8197950 Si02
#       7
#     8   8   8   4   8   8   8
#     4   9  17  30  48  71 101 137 173 207 244 284
#     4   9  16  27  46  69  92 119 148 183 234 290
#     4   9  17  30  47  66  87 111 144 185 230 286
#     4   9  18  32  48  72 107 141 176 212 242 279
#     4  10  20  34  51  68  86 114 152 192 238 288
#     4   9  16  29  48  69  95 122 151 192 239 286
#     4  10  21  35  48  64  87 114 148 191 237 287
#
# _framework density 18.148436
#
# number of rings (size 3 to 8) (size 9 to 14) (size 15 to 20)
#    0.000    2.692    1.538    0.462    0.000    3.385 
#    2.769    4.615    0.000    0.000    0.000    3.231 
#    0.000    1.231    0.000    6.000    0.000    0.154 
#
# Total GULP energy -644341.356959 kJ/mol
# GULP energy per Si atom -12391.179942 kJ/mol
# Density = 1.810713 g / cm^3
# Si number density = 18.148436 Si / 1000 Ang^3
#
#
#
# Elastic Constant Matrix: (Units=GPa)
#
#
# Indices 1 2 3 4 5 6 
#
# 1 126.5819 26.0166 62.8690 0.0000 0.0000 0.0000
# 2 26.0166 38.8490 18.7388 0.0000 0.0000 0.0000
# 3 62.8690 18.7388 130.9660 0.0000 0.0000 0.0000
# 4 0.0000 0.0000 0.0000 12.6294 0.0000 0.0000
# 5 0.0000 0.0000 0.0000 0.0000 18.0815 0.0000
# 6 0.0000 0.0000 0.0000 0.0000 0.0000 21.0763
#
#
#
# Elastic Compliance Matrix: (Units=1/GPa)
#
#
# Indices 1 2 3 4 5 6 
#
# 1 0.011313 -0.005324 -0.004669 0.000000 0.000000 0.000000
# 2 -0.005324 0.030155 -0.001759 0.000000 0.000000 0.000000
# 3 -0.004669 -0.001759 0.010129 0.000000 0.000000 0.000000
# 4 0.000000 0.000000 0.000000 0.079181 0.000000 0.000000
# 5 0.000000 0.000000 0.000000 0.000000 0.055305 0.000000
# 6 0.000000 0.000000 0.000000 0.000000 0.000000 0.047447
#
#
# Mechanical properties :
#
#
# Convention : Reuss Voigt Hill
#
# Bulk Modulus (GPa) = 35.59679 56.84953 46.22316
# Shear Modulus (GPa) = 18.76900 22.94227 20.85563
#
# Velocity S-wave (km/s) = 3.21938 3.55934 3.39362
# Velocity P-wave (km/s) = 5.78585 6.94871 6.39377
#
# Compressibility (1/GPa) = 0.02809242
#
# Stress axis : x y z
#
# Youngs Moduli (GPa) = 88.39163 33.16249 98.73098
#
# Poissons Ratio (x) = 0.17657 0.46098
# Poissons Ratio (y) = 0.47062 0.17364
# Poissons Ratio (z) = 0.41270 0.05832
#
# Static dielectric constant tensor:
#      x y z
#    x 3.279640 0.000000 0.000000 
#    y 0.000000 3.169720 0.000000 
#    z 0.000000 0.000000 3.688450 
# 
# 
# High freq. dielectric constant tensor:
#      x y z
#    x 1.665660 0.000000 0.000000 
#    y 0.000000 1.687650 0.000000 
#    z 0.000000 0.000000 1.702100 
# 
# From -- ./inp_files/7027.got.cif
#   From: 2010.03.12/outbox.cif.g09.slc.cpg/sg47_4_cif.got.tgz:7027.got - 2010.04.14 03:12:58.
