data_PCOD8197735
_publ_section_title
;
Structure prediction by ZEFSAII (Michael W. Deem and Ramdas Pophale) SiO2 
 PCOD8197735
Probable space group: P M M M
;
_chemical_formula_sum "Si O2"
_cell_formula_units_Z 52
_cell_length_a 14.238148
_cell_length_b 20.904234
_cell_length_c 9.143172
_cell_angle_alpha 90.000000
_cell_angle_beta 90.000000
_cell_angle_gamma 90.000000
_cell_volume 2721.351565
_symmetry_space_group_name_H-M "P M M M"
_symmetry_group_IT_number 47
_symmetry_cell_setting 'orthorhombic'
loop_
_space_group_symop_operation_xyz
x,y,z
-x,-y,z
x,-y,-z
-x,y,-z
-x,-y,-z
x,y,-z
-x,y,z
x,-y,z
loop_
_atom_site_type_symbol
_atom_site_label
_atom_site_fract_x
_atom_site_fract_y
_atom_site_fract_z
Si Si1 0.609636 0.267914 0.833019
Si Si2 0.393184 0.500000 0.326483
Si Si3 0.213155 0.929873 0.330876
Si Si4 0.107261 0.325040 0.827173
Si Si5 0.889300 0.180753 0.162813
Si Si6 0.605100 0.858950 0.666357
Si Si7 0.720473 0.376157 0.326348
O O1 0.500000 0.282780 0.819811
O O2 0.632690 0.196917 0.778272
O O3 0.663040 0.315583 0.727586
O O4 0.644895 0.274985 0.000000
O O5 0.500000 0.500000 0.262393
O O6 0.399214 0.500000 0.500000
O O7 0.335596 0.561504 0.270672
O O8 0.187270 0.930896 0.500000
O O9 0.152509 0.873505 0.264125
O O10 0.323843 0.917176 0.306724
O O11 0.190413 0.000000 0.262442
O O12 0.136696 0.252373 0.782862
O O13 0.175131 0.374476 0.743146
O O14 0.000000 0.339069 0.779435
O O15 0.118120 0.334320 0.000000
O O16 0.000000 0.173231 0.163268
O O17 0.849456 0.170688 0.000000
O O18 0.613381 0.832870 0.500000
O O19 0.500000 0.884192 0.697642
O O20 0.729839 0.375168 0.500000
#
# Coordination Sequence:
#
# PCOD8197735 Si02
#       7
#     8   4   8   8   8   8   8
#     4  10  20  33  51  77 107 136 169 215 269 319
#     4   9  20  38  56  77 110 150 185 215 252 301
#     4  10  21  34  48  71 102 134 169 210 258 310
#     4   9  19  37  59  82 109 139 172 215 267 317
#     4   9  19  36  56  76  99 131 170 210 255 309
#     4   9  18  33  52  73  98 131 172 215 259 310
#     4  11  21  34  56  82 108 141 180 220 260 304
#
# _framework density 19.108153000000001
#
# number of rings (size 3 to 8) (size 9 to 14) (size 15 to 20)
#    0.000    2.385    0.000    3.231    0.000    6.769 
#    0.000    6.538    0.000    5.077    0.000    3.231 
#    0.000    0.000    0.000    0.000    0.000    0.000 
#
# Total GULP energy -644705.858857 kJ/mol
# GULP energy per Si atom -12398.189593 kJ/mol
# Density = 1.906466 g / cm^3
# Si number density = 19.108153 Si / 1000 Ang^3
#
#
#
# Elastic Constant Matrix: (Units=GPa)
#
#
# Indices 1 2 3 4 5 6 
#
# 1 79.5704 72.2964 38.6134 0.0000 0.0000 0.0000
# 2 72.2964 88.6165 34.7297 0.0000 0.0000 0.0000
# 3 38.6134 34.7297 56.6837 0.0000 0.0000 0.0000
# 4 0.0000 0.0000 0.0000 13.1781 0.0000 0.0000
# 5 0.0000 0.0000 0.0000 0.0000 31.8992 0.0000
# 6 0.0000 0.0000 0.0000 0.0000 0.0000 25.3005
#
#
#
# Elastic Compliance Matrix: (Units=1/GPa)
#
#
# Indices 1 2 3 4 5 6 
#
# 1 0.055142 -0.039829 -0.013160 0.000000 0.000000 0.000000
# 2 -0.039829 0.043619 0.000407 0.000000 0.000000 0.000000
# 3 -0.013160 0.000407 0.026357 0.000000 0.000000 0.000000
# 4 0.000000 0.000000 0.000000 0.075883 0.000000 0.000000
# 5 0.000000 0.000000 0.000000 0.000000 0.031349 0.000000
# 6 0.000000 0.000000 0.000000 0.000000 0.000000 0.039525
#
#
# Mechanical properties :
#
#
# Convention : Reuss Voigt Hill
#
# Bulk Modulus (GPa) = 50.11658 57.34996 53.73327
# Shear Modulus (GPa) = 13.03134 19.35764 16.19449
#
# Velocity S-wave (km/s) = 2.61430 3.18631 2.91437
# Velocity P-wave (km/s) = 5.94959 6.60418 6.28541
#
# Compressibility (1/GPa) = 0.01995348
#
# Stress axis : x y z
#
# Youngs Moduli (GPa) = 18.13511 22.92584 37.94012
#
# Poissons Ratio (x) = 0.91311 0.49930
# Poissons Ratio (y) = 0.72230 -0.01543
# Poissons Ratio (z) = 0.23866 -0.00933
#
# Static dielectric constant tensor:
#      x y z
#    x 3.690940 0.000000 0.000000 
#    y 0.000000 3.485420 0.000000 
#    z 0.000000 0.000000 3.494940 
# 
# 
# High freq. dielectric constant tensor:
#      x y z
#    x 1.757720 0.000000 0.000000 
#    y 0.000000 1.728770 0.000000 
#    z 0.000000 0.000000 1.730510 
# 
# From -- ./inp_files/7040.got.cif
#   From: 2010.03.12/outbox.cif.g09.slc.cpg/sg47_4_cif.got.tgz:7040.got - 2010.04.14 03:12:58.
