data_PCOD8197019
_publ_section_title
;
Structure prediction by ZEFSAII (Michael W. Deem and Ramdas Pophale) SiO2 
 PCOD8197019
Probable space group: P M M M
;
_chemical_formula_sum "Si O2"
_cell_formula_units_Z 44
_cell_length_a 19.969286
_cell_length_b 9.014059
_cell_length_c 14.356941
_cell_angle_alpha 90.000000
_cell_angle_beta 90.000000
_cell_angle_gamma 90.000000
_cell_volume 2584.311433
_symmetry_space_group_name_H-M "P M M M"
_symmetry_group_IT_number 47
_symmetry_cell_setting 'orthorhombic'
loop_
_space_group_symop_operation_xyz
x,y,z
-x,-y,z
x,-y,-z
-x,y,-z
-x,-y,-z
x,y,-z
-x,y,z
x,-y,z
loop_
_atom_site_type_symbol
_atom_site_label
_atom_site_fract_x
_atom_site_fract_y
_atom_site_fract_z
Si Si1 0.077865 0.672232 0.718206
Si Si2 0.573870 0.832518 0.259126
Si Si3 0.321820 0.325264 0.391911
Si Si4 0.500000 0.676152 0.108514
Si Si5 0.812194 0.834002 0.609752
Si Si6 0.920575 0.165906 0.898335
O O1 0.091186 0.500000 0.705020
O O2 0.118676 0.760583 0.641236
O O3 0.104817 0.720157 0.820199
O O4 0.000000 0.712925 0.705382
O O5 0.500000 0.838254 0.306024
O O6 0.620815 0.745723 0.329684
O O7 0.566192 0.745975 0.159457
O O8 0.600853 0.000000 0.241949
O O9 0.334518 0.283686 0.500000
O O10 0.321489 0.500000 0.376793
O O11 0.251032 0.261775 0.356124
O O12 0.500000 0.500000 0.121464
O O13 0.500000 0.721213 0.000000
O O14 0.814369 0.838119 0.500000
O O15 0.806040 0.000000 0.650686
O O16 0.000000 0.167391 0.901801
O O17 0.895301 0.000000 0.874074
O O18 0.892633 0.214682 0.000000
#
# Coordination Sequence:
#
# PCOD8197019 Si02
#       6
#     8   8   8   4   8   8
#     4  10  20  32  48  72 100 129 163 207 256 304
#     4   9  19  32  50  78 108 138 171 208 245 289
#     4  10  20  34  53  75 102 135 169 208 254 304
#     4   9  17  31  52  77 106 139 175 214 252 291
#     4  10  21  36  53  71  94 129 171 211 253 305
#     4   8  14  26  45  68  93 121 153 190 235 289
#
# _framework density 17.025811000000001
#
# number of rings (size 3 to 8) (size 9 to 14) (size 15 to 20)
#    0.545    2.091    0.000    2.727    0.000    5.091 
#    0.000    5.455    0.000    1.091    0.000    0.000 
#    0.000    0.000    0.000    0.000    0.000    0.000 
#
# Total GULP energy -545311.742228 kJ/mol
# GULP energy per Si atom -12393.448687 kJ/mol
# Density = 1.698706 g / cm^3
# Si number density = 17.025811 Si / 1000 Ang^3
#
#
#
# Elastic Constant Matrix: (Units=GPa)
#
#
# Indices 1 2 3 4 5 6 
#
# 1 71.9559 52.9477 46.2933 0.0000 0.0000 0.0000
# 2 52.9477 123.2417 53.6900 0.0000 0.0000 0.0000
# 3 46.2933 53.6900 63.9989 0.0000 0.0000 0.0000
# 4 0.0000 0.0000 0.0000 28.4918 0.0000 0.0000
# 5 0.0000 0.0000 0.0000 0.0000 3.3514 0.0000
# 6 0.0000 0.0000 0.0000 0.0000 0.0000 29.4983
#
#
#
# Elastic Compliance Matrix: (Units=1/GPa)
#
#
# Indices 1 2 3 4 5 6 
#
# 1 0.027837 -0.005023 -0.015922 0.000000 0.000000 0.000000
# 2 -0.005023 0.013694 -0.007855 0.000000 0.000000 0.000000
# 3 -0.015922 -0.007855 0.033732 0.000000 0.000000 0.000000
# 4 0.000000 0.000000 0.000000 0.035098 0.000000 0.000000
# 5 0.000000 0.000000 0.000000 0.000000 0.298386 0.000000
# 6 0.000000 0.000000 0.000000 0.000000 0.000000 0.033900
#
#
# Mechanical properties :
#
#
# Convention : Reuss Voigt Hill
#
# Bulk Modulus (GPa) = 56.61404 62.78428 59.69916
# Shear Modulus (GPa) = 9.87880 19.35266 14.61573
#
# Velocity S-wave (km/s) = 2.41140 3.37511 2.93310
# Velocity P-wave (km/s) = 6.40915 7.22111 6.82721
#
# Compressibility (1/GPa) = 0.01766346
#
# Stress axis : x y z
#
# Youngs Moduli (GPa) = 35.92339 73.02383 29.64567
#
# Poissons Ratio (x) = 0.36681 0.47201
# Poissons Ratio (y) = 0.18045 0.23286
# Poissons Ratio (z) = 0.57196 0.57359
#
# Static dielectric constant tensor:
#      x y z
#    x 2.969530 0.000000 0.000000 
#    y 0.000000 3.370670 0.000000 
#    z 0.000000 0.000000 3.250790 
# 
# 
# High freq. dielectric constant tensor:
#      x y z
#    x 1.625610 0.000000 0.000000 
#    y 0.000000 1.673540 0.000000 
#    z 0.000000 0.000000 1.649060 
# 
# From -- ./inp_files/24307.got.cif
#   From: 2010.03.12/outbox.cif.g09.slc.cpg/sg47_13_cif.got.tgz:24307.got - 2010.04.14 03:12:58.
