data_PCOD8197684
_publ_section_title
;
Structure prediction by ZEFSAII (Michael W. Deem and Ramdas Pophale) SiO2 
 PCOD8197684
Probable space group: P M M M
;
_chemical_formula_sum "Si O2"
_cell_formula_units_Z 44
_cell_length_a 28.304240
_cell_length_b 9.140716
_cell_length_c 9.386009
_cell_angle_alpha 90.000000
_cell_angle_beta 90.000000
_cell_angle_gamma 90.000000
_cell_volume 2428.357817
_symmetry_space_group_name_H-M "P M M M"
_symmetry_group_IT_number 47
_symmetry_cell_setting 'orthorhombic'
loop_
_space_group_symop_operation_xyz
x,y,z
-x,-y,z
x,-y,-z
-x,y,-z
-x,-y,-z
x,y,-z
-x,y,z
x,-y,z
loop_
_atom_site_type_symbol
_atom_site_label
_atom_site_fract_x
_atom_site_fract_y
_atom_site_fract_z
Si Si1 0.052705 0.672702 0.660087
Si Si2 0.593613 0.671936 0.834126
Si Si3 0.500000 0.164952 0.168952
Si Si4 0.765327 0.826431 0.842019
Si Si5 0.675820 0.171132 0.333243
Si Si6 0.869247 0.835908 0.831794
O O1 0.064049 0.725761 0.500000
O O2 0.055482 0.500000 0.669198
O O3 0.090634 0.736241 0.766837
O O4 0.000000 0.725318 0.703738
O O5 0.588355 0.500000 0.808344
O O6 0.546162 0.749491 0.777218
O O7 0.636087 0.734195 0.742153
O O8 0.602742 0.707647 0.000000
O O9 0.500000 0.000000 0.231298
O O10 0.500000 0.161373 0.000000
O O11 0.725982 0.775233 0.729561
O O12 0.817203 0.771831 0.791927
O O13 0.767636 0.000000 0.851110
O O14 0.752883 0.764552 0.000000
O O15 0.675607 0.204653 0.500000
O O16 0.667075 0.000000 0.301254
O O17 0.875011 0.000000 0.771667
O O18 0.875226 0.835062 0.000000
#
# Coordination Sequence:
#
# PCOD8197684 Si02
#       6
#     8   8   4   8   8   8
#     4   9  19  35  51  68  95 132 171 207 244 292
#     4  10  20  34  53  77 105 136 169 206 249 296
#     4   9  17  31  54  81 104 129 166 210 252 295
#     4   8  15  30  51  73  99 131 165 203 248 296
#     4  10  20  33  51  76 103 132 169 209 247 292
#     4   9  18  32  51  77 104 127 158 204 254 301
#
# _framework density 18.119240999999999
#
# number of rings (size 3 to 8) (size 9 to 14) (size 15 to 20)
#    0.000    2.818    0.000    3.000    0.000    5.455 
#    0.000    5.909    0.000    3.818    0.000    0.000 
#    0.000    0.000    0.000    0.000    0.000    0.000 
#
# Total GULP energy -545478.111567 kJ/mol
# GULP energy per Si atom -12397.229808 kJ/mol
# Density = 1.807800 g / cm^3
# Si number density = 18.119241 Si / 1000 Ang^3
#
#
#
# Elastic Constant Matrix: (Units=GPa)
#
#
# Indices 1 2 3 4 5 6 
#
# 1 166.6041 55.6700 67.6562 0.0000 0.0000 0.0000
# 2 55.6700 62.1979 36.6409 0.0000 0.0000 0.0000
# 3 67.6562 36.6409 68.9343 0.0000 0.0000 0.0000
# 4 0.0000 0.0000 0.0000 25.1318 0.0000 0.0000
# 5 0.0000 0.0000 0.0000 0.0000 -16.9473 0.0000
# 6 0.0000 0.0000 0.0000 0.0000 0.0000 -32.3849
#
#
#
# Elastic Compliance Matrix: (Units=1/GPa)
#
#
# Indices 1 2 3 4 5 6 
#
# 1 0.010976 -0.005063 -0.008081 0.000000 0.000000 0.000000
# 2 -0.005063 0.025743 -0.008714 0.000000 0.000000 0.000000
# 3 -0.008081 -0.008714 0.027069 0.000000 0.000000 0.000000
# 4 0.000000 0.000000 0.000000 0.039790 0.000000 0.000000
# 5 0.000000 0.000000 0.000000 0.000000 -0.059007 0.000000
# 6 0.000000 0.000000 0.000000 0.000000 0.000000 -0.030879
#
#
# Mechanical properties :
#
#
# Convention : Reuss Voigt Hill
#
# Bulk Modulus (GPa) = 49.82079 68.63006 59.22543
# Shear Modulus (GPa) = 78.00351 4.34453 41.17402
#
# Velocity S-wave (km/s) = 6.56838 1.55014 4.77213
# Velocity P-wave (km/s) = 9.22391 6.41584 7.94492
#
# Compressibility (1/GPa) = 0.02007194
#
# Stress axis : x y z
#
# Youngs Moduli (GPa) = 91.11032 38.84563 36.94219
#
# Poissons Ratio (x) = 0.19669 0.29853
# Poissons Ratio (y) = 0.46132 0.32191
# Poissons Ratio (z) = 0.73625 0.33849
#
# Static dielectric constant tensor:
#      x y z
#    x 3.637420 0.000000 0.000000 
#    y 0.000000 3.167270 0.000000 
#    z 0.000000 0.000000 3.232960 
# 
# 
# High freq. dielectric constant tensor:
#      x y z
#    x 1.718490 0.000000 0.000000 
#    y 0.000000 1.680360 0.000000 
#    z 0.000000 0.000000 1.686240 
# 
# From -- ./inp_files/2161.got.cif
#   From: 2010.03.12/outbox.cif.g09.slc.cpg/sg47_2_cif.got.tgz:2161.got - 2010.04.14 03:12:58.
