data_PCOD8197510
_publ_section_title
;
Structure prediction by ZEFSAII (Michael W. Deem and Ramdas Pophale) SiO2 
 PCOD8197510
Probable space group: P M M M
;
_chemical_formula_sum "Si O2"
_cell_formula_units_Z 44
_cell_length_a 9.174361
_cell_length_b 29.967987
_cell_length_c 7.851572
_cell_angle_alpha 90.000000
_cell_angle_beta 90.000000
_cell_angle_gamma 90.000000
_cell_volume 2158.688681
_symmetry_space_group_name_H-M "P M M M"
_symmetry_group_IT_number 47
_symmetry_cell_setting 'orthorhombic'
loop_
_space_group_symop_operation_xyz
x,y,z
-x,-y,z
x,-y,-z
-x,y,-z
-x,-y,-z
x,y,-z
-x,y,z
x,-y,z
loop_
_atom_site_type_symbol
_atom_site_label
_atom_site_fract_x
_atom_site_fract_y
_atom_site_fract_z
Si Si1 0.826876 0.549797 0.500000
Si Si2 0.167739 0.779652 0.201222
Si Si3 0.334537 0.693213 0.305537
Si Si4 0.336543 0.133238 0.202880
Si Si5 0.832057 0.390158 0.810104
Si Si6 0.163718 0.049188 0.797435
O O1 0.759909 0.500000 0.500000
O O2 0.771756 0.574892 0.329463
O O3 0.000000 0.547045 0.500000
O O4 0.249767 0.739347 0.290781
O O5 0.240371 0.825326 0.267055
O O6 0.000000 0.779706 0.258085
O O7 0.184031 0.774411 0.000000
O O8 0.330568 0.677143 0.500000
O O9 0.500000 0.699770 0.241068
O O10 0.257941 0.655492 0.193240
O O11 0.500000 0.138301 0.274374
O O12 0.268708 0.087430 0.277610
O O13 0.336988 0.131810 0.000000
O O14 0.000000 0.378411 0.770322
O O15 0.815751 0.410907 0.000000
O O16 0.000000 0.057694 0.730272
O O17 0.217843 0.000000 0.737771
O O18 0.163826 0.051474 0.000000
#
# Coordination Sequence:
#
# PCOD8197510 Si02
#       6
#     4   8   8   8   8   8
#     4   9  18  34  57  87 123 157 191 239 288 327
#     4  10  20  33  50  72  98 131 171 213 262 322
#     4  11  23  37  54  77 106 140 178 222 274 329
#     4   9  16  25  38  58  87 122 160 206 259 316
#     4  10  20  35  58  86 115 151 193 234 281 336
#     4   8  13  21  33  50  76 114 159 205 255 313
#
# _framework density 20.382746000000001
#
# number of rings (size 3 to 8) (size 9 to 14) (size 15 to 20)
#    0.000    2.455    0.909    2.727    0.000    7.636 
#    0.000    3.636    0.000    1.091    0.000    1.273 
#    0.000    0.727    0.000    7.636    0.000   10.545 
#
# Total GULP energy -545562.286561 kJ/mol
# GULP energy per Si atom -12399.142876 kJ/mol
# Density = 2.033635 g / cm^3
# Si number density = 20.382746 Si / 1000 Ang^3
#
#
#
# Elastic Constant Matrix: (Units=GPa)
#
#
# Indices 1 2 3 4 5 6 
#
# 1 129.4203 69.1040 26.5579 0.0000 0.0000 0.0000
# 2 69.1040 163.2780 38.1310 0.0000 0.0000 0.0000
# 3 26.5579 38.1310 67.1245 0.0000 0.0000 0.0000
# 4 0.0000 0.0000 0.0000 13.2654 0.0000 0.0000
# 5 0.0000 0.0000 0.0000 0.0000 13.4903 0.0000
# 6 0.0000 0.0000 0.0000 0.0000 0.0000 8.6489
#
#
#
# Elastic Compliance Matrix: (Units=1/GPa)
#
#
# Indices 1 2 3 4 5 6 
#
# 1 0.010172 -0.003880 -0.001821 0.000000 0.000000 0.000000
# 2 -0.003880 0.008541 -0.003317 0.000000 0.000000 0.000000
# 3 -0.001821 -0.003317 0.017502 0.000000 0.000000 0.000000
# 4 0.000000 0.000000 0.000000 0.075384 0.000000 0.000000
# 5 0.000000 0.000000 0.000000 0.000000 0.074127 0.000000
# 6 0.000000 0.000000 0.000000 0.000000 0.000000 0.115622
#
#
# Mechanical properties :
#
#
# Convention : Reuss Voigt Hill
#
# Bulk Modulus (GPa) = 55.00314 69.71206 62.35760
# Shear Modulus (GPa) = 15.36364 22.14958 18.75661
#
# Velocity S-wave (km/s) = 2.74844 3.30006 3.03680
# Velocity P-wave (km/s) = 6.09226 6.98544 6.55408
#
# Compressibility (1/GPa) = 0.01818078
#
# Stress axis : x y z
#
# Youngs Moduli (GPa) = 98.30866 117.07912 57.13578
#
# Poissons Ratio (x) = 0.45426 0.10402
# Poissons Ratio (y) = 0.38143 0.18951
# Poissons Ratio (z) = 0.17897 0.38834
#
# Static dielectric constant tensor:
#      x y z
#    x 3.718870 0.000000 0.000000 
#    y 0.000000 3.822740 0.000000 
#    z 0.000000 0.000000 3.359490 
# 
# 
# High freq. dielectric constant tensor:
#      x y z
#    x 1.786170 0.000000 0.000000 
#    y 0.000000 1.798600 0.000000 
#    z 0.000000 0.000000 1.770410 
# 
# From -- ./inp_files/2113.got.cif
#   From: 2010.03.12/outbox.cif.g09.slc.cpg/sg47_2_cif.got.tgz:2113.got - 2010.04.14 03:12:58.
