data_PCOD8197369
_publ_section_title
;
Structure prediction by ZEFSAII (Michael W. Deem and Ramdas Pophale) SiO2 
 PCOD8197369
Probable space group: P M M M
;
_chemical_formula_sum "Si O2"
_cell_formula_units_Z 44
_cell_length_a 29.117951
_cell_length_b 8.919303
_cell_length_c 9.097317
_cell_angle_alpha 90.000000
_cell_angle_beta 90.000000
_cell_angle_gamma 90.000000
_cell_volume 2362.680825
_symmetry_space_group_name_H-M "P M M M"
_symmetry_group_IT_number 47
_symmetry_cell_setting 'orthorhombic'
loop_
_space_group_symop_operation_xyz
x,y,z
-x,-y,z
x,-y,-z
-x,y,-z
-x,-y,-z
x,y,-z
-x,y,z
x,-y,z
loop_
_atom_site_type_symbol
_atom_site_label
_atom_site_fract_x
_atom_site_fract_y
_atom_site_fract_z
Si Si1 0.175203 0.822050 0.832761
Si Si2 0.548619 0.168177 0.825262
Si Si3 0.353130 0.820380 0.834141
Si Si4 0.909388 0.323568 0.329673
Si Si5 0.735018 0.178587 0.334806
Si Si6 0.000000 0.321734 0.833972
O O1 0.133848 0.757405 0.739400
O O2 0.222578 0.762591 0.762348
O O3 0.172867 0.000000 0.826137
O O4 0.172350 0.763954 0.000000
O O5 0.500000 0.249387 0.776898
O O6 0.597146 0.242437 0.773616
O O7 0.546465 0.000000 0.762539
O O8 0.551157 0.162640 0.000000
O O9 0.312448 0.757548 0.732044
O O10 0.354649 0.000000 0.831467
O O11 0.343680 0.764509 0.000000
O O12 0.913086 0.280946 0.500000
O O13 0.903770 0.500000 0.306280
O O14 0.954995 0.262148 0.249676
O O15 0.740497 0.240251 0.500000
O O16 0.733973 0.000000 0.333306
O O17 0.000000 0.500000 0.833243
O O18 0.000000 0.258759 0.000000
#
# Coordination Sequence:
#
# PCOD8197369 Si02
#       6
#     8   8   8   8   8   4
#     4  10  20  33  49  69  93 121 154 192 231 269
#     4   7   9  13  22  37  56  79 112 157 205 248
#     4   8  12  18  29  44  62  87 123 166 208 252
#     4  10  20  34  53  76 100 125 153 185 223 268
#     4   9  16  25  37  53  75 104 137 174 217 264
#     4   9  17  31  52  75  98 125 156 188 220 257
#
# _framework density 18.622913
#
# number of rings (size 3 to 8) (size 9 to 14) (size 15 to 20)
#    0.000    3.182    0.000    3.545    0.000    5.455 
#    0.000    0.455    0.000    3.273    0.000    3.818 
#    0.000    0.000    0.000    0.000    0.000    0.909 
#
# Total GULP energy -545092.871658 kJ/mol
# GULP energy per Si atom -12388.474356 kJ/mol
# Density = 1.858053 g / cm^3
# Si number density = 18.622913 Si / 1000 Ang^3
#
#
#
# Elastic Constant Matrix: (Units=GPa)
#
#
# Indices 1 2 3 4 5 6 
#
# 1 195.1887 13.1018 64.2891 0.0000 0.0000 0.0000
# 2 13.1018 4.8767 11.1225 0.0000 0.0000 0.0000
# 3 64.2891 11.1225 104.4431 0.0000 0.0000 0.0000
# 4 0.0000 0.0000 0.0000 13.3889 0.0000 0.0000
# 5 0.0000 0.0000 0.0000 0.0000 14.2925 0.0000
# 6 0.0000 0.0000 0.0000 0.0000 0.0000 -12.7545
#
#
#
# Elastic Compliance Matrix: (Units=1/GPa)
#
#
# Indices 1 2 3 4 5 6 
#
# 1 0.006896 -0.011683 -0.003000 0.000000 0.000000 0.000000
# 2 -0.011683 0.290631 -0.023759 0.000000 0.000000 0.000000
# 3 -0.003000 -0.023759 0.013952 0.000000 0.000000 0.000000
# 4 0.000000 0.000000 0.000000 0.074689 0.000000 0.000000
# 5 0.000000 0.000000 0.000000 0.000000 0.069967 0.000000
# 6 0.000000 0.000000 0.000000 0.000000 0.000000 -0.078404
#
#
# Mechanical properties :
#
#
# Convention : Reuss Voigt Hill
#
# Bulk Modulus (GPa) = 4.26269 53.50393 28.88331
# Shear Modulus (GPa) = 9.38416 17.38506 13.38461
#
# Velocity S-wave (km/s) = 2.24722 3.05869 2.68380
# Velocity P-wave (km/s) = 3.00453 6.42391 5.01467
#
# Compressibility (1/GPa) = 0.23459377
#
# Stress axis : x y z
#
# Youngs Moduli (GPa) = 145.01810 3.44079 71.67590
#
# Poissons Ratio (x) = 0.04020 0.21506
# Poissons Ratio (y) = 1.69421 1.70296
# Poissons Ratio (z) = 0.43512 0.08175
#
# Static dielectric constant tensor:
#      x y z
#    x 4.024610 0.000000 0.000000 
#    y 0.000000 2.673090 0.000000 
#    z 0.000000 0.000000 3.431170 
# 
# 
# High freq. dielectric constant tensor:
#      x y z
#    x 1.756600 0.000000 0.000000 
#    y 0.000000 1.635650 0.000000 
#    z 0.000000 0.000000 1.710640 
# 
# From -- ./inp_files/1989.got.cif
#   From: 2010.03.12/outbox.cif.g09.slc.cpg/sg47_1_cif.got.tgz:1989.got - 2010.04.14 03:12:58.
