data_PCOD8197697
_publ_section_title
;
Structure prediction by ZEFSAII (Michael W. Deem and Ramdas Pophale) SiO2 
 PCOD8197697
Probable space group: P M M M
;
_chemical_formula_sum "Si O2"
_cell_formula_units_Z 64
_cell_length_a 9.126612
_cell_length_b 15.578665
_cell_length_c 23.814996
_cell_angle_alpha 90.000000
_cell_angle_beta 90.000000
_cell_angle_gamma 90.000000
_cell_volume 3386.026394
_symmetry_space_group_name_H-M "P M M M"
_symmetry_group_IT_number 47
_symmetry_cell_setting 'orthorhombic'
loop_
_space_group_symop_operation_xyz
x,y,z
-x,-y,z
x,-y,-z
-x,y,-z
-x,-y,-z
x,y,-z
-x,y,z
x,-y,z
loop_
_atom_site_type_symbol
_atom_site_label
_atom_site_fract_x
_atom_site_fract_y
_atom_site_fract_z
Si Si1 0.825492 0.247194 0.744797
Si Si2 0.172577 0.407263 0.323965
Si Si3 0.328719 0.848540 0.437211
Si Si4 0.330007 0.597995 0.065220
Si Si5 0.173970 0.750539 0.127894
Si Si6 0.167893 0.905386 0.332139
Si Si7 0.331542 0.902385 0.934275
Si Si8 0.167614 0.327605 0.561922
O O1 0.759692 0.331739 0.714226
O O2 0.768221 0.245412 0.808308
O O3 0.765835 0.163634 0.711589
O O4 0.000000 0.247526 0.743875
O O5 0.238155 0.500000 0.305921
O O6 0.208977 0.395263 0.389921
O O7 0.000000 0.407658 0.314542
O O8 0.292625 0.882895 0.500000
O O9 0.500000 0.849890 0.425737
O O10 0.252052 0.907708 0.391200
O O11 0.273046 0.752303 0.430028
O O12 0.500000 0.616603 0.077159
O O13 0.290644 0.500000 0.082224
O O14 0.233364 0.663384 0.100717
O O15 0.294815 0.612822 0.000000
O O16 0.228513 0.836228 0.097673
O O17 0.000000 0.748203 0.124237
O O18 0.000000 0.882183 0.345097
O O19 0.182652 0.000000 0.304872
O O20 0.500000 0.882894 0.919179
O O21 0.290940 0.000000 0.916802
O O22 0.305230 0.889604 0.000000
O O23 0.189405 0.369368 0.500000
O O24 0.000000 0.296005 0.569647
#
# Coordination Sequence:
#
# PCOD8197697 Si02
#       8
#     8   8   8   8   8   8   8   8
#     4   9  19  35  50  73 108 140 174 215 260 308
#     4   9  16  28  50  76 101 131 167 211 260 305
#     4  10  20  33  51  76 106 136 164 203 263 324
#     4   9  19  37  59  81 109 148 189 225 264 315
#     4  11  22  33  53  84 114 144 179 224 276 323
#     4  10  20  36  58  77  96 131 178 220 256 302
#     4   9  19  37  59  81 108 144 182 218 261 319
#     4   9  16  28  50  77 102 129 166 211 256 307
#
# _framework density 18.901211
#
# number of rings (size 3 to 8) (size 9 to 14) (size 15 to 20)
#    0.000    2.500    1.250    1.875    0.000    5.000 
#    0.000    7.500    0.000    0.375    0.000    1.750 
#    0.000    0.000    0.000    0.000    0.000    0.000 
#
# Total GULP energy -793370.237018 kJ/mol
# GULP energy per Si atom -12396.409953 kJ/mol
# Density = 1.885819 g / cm^3
# Si number density = 18.901211 Si / 1000 Ang^3
#
#
#
# Elastic Constant Matrix: (Units=GPa)
#
#
# Indices 1 2 3 4 5 6 
#
# 1 54.5142 41.6844 44.5484 0.0000 0.0000 0.0000
# 2 41.6844 150.4038 80.3087 0.0000 0.0000 0.0000
# 3 44.5484 80.3087 124.6246 0.0000 0.0000 0.0000
# 4 0.0000 0.0000 0.0000 11.8514 0.0000 0.0000
# 5 0.0000 0.0000 0.0000 0.0000 12.4645 0.0000
# 6 0.0000 0.0000 0.0000 0.0000 0.0000 18.5015
#
#
#
# Elastic Compliance Matrix: (Units=1/GPa)
#
#
# Indices 1 2 3 4 5 6 
#
# 1 0.027113 -0.003567 -0.007394 0.000000 0.000000 0.000000
# 2 -0.003567 0.010606 -0.005560 0.000000 0.000000 0.000000
# 3 -0.007394 -0.005560 0.014250 0.000000 0.000000 0.000000
# 4 0.000000 0.000000 0.000000 0.084378 0.000000 0.000000
# 5 0.000000 0.000000 0.000000 0.000000 0.080228 0.000000
# 6 0.000000 0.000000 0.000000 0.000000 0.000000 0.054050
#
#
# Mechanical properties :
#
#
# Convention : Reuss Voigt Hill
#
# Bulk Modulus (GPa) = 52.82867 73.62508 63.22687
# Shear Modulus (GPa) = 16.13047 19.43023 17.78035
#
# Velocity S-wave (km/s) = 2.92449 3.20970 3.07041
# Velocity P-wave (km/s) = 6.27806 7.26453 6.78924
#
# Compressibility (1/GPa) = 0.01892912
#
# Stress axis : x y z
#
# Youngs Moduli (GPa) = 36.88280 94.28838 70.17757
#
# Poissons Ratio (x) = 0.33628 0.51886
# Poissons Ratio (y) = 0.13154 0.39015
# Poissons Ratio (z) = 0.27269 0.52420
#
# Static dielectric constant tensor:
#      x y z
#    x 3.157610 0.000000 0.000000 
#    y 0.000000 3.566500 0.000000 
#    z 0.000000 0.000000 3.609530 
# 
# 
# High freq. dielectric constant tensor:
#      x y z
#    x 1.700920 0.000000 0.000000 
#    y 0.000000 1.741220 0.000000 
#    z 0.000000 0.000000 1.734430 
# 
# From -- ./inp_files/32086.got.cif
#   From: 2010.03.12/outbox.cif.g09.slc.cpg/sg47_17_cif.got.tgz:32086.got - 2010.04.14 03:12:58.
