data_PCOD8197798
_publ_section_title
;
Structure prediction by ZEFSAII (Michael W. Deem and Ramdas Pophale) SiO2 
 PCOD8197798
Probable space group: P M M M
;
_chemical_formula_sum "Si O2"
_cell_formula_units_Z 48
_cell_length_a 31.058026
_cell_length_b 9.471290
_cell_length_c 9.032207
_cell_angle_alpha 90.000000
_cell_angle_beta 90.000000
_cell_angle_gamma 90.000000
_cell_volume 2656.910137
_symmetry_space_group_name_H-M "P M M M"
_symmetry_group_IT_number 47
_symmetry_cell_setting 'orthorhombic'
loop_
_space_group_symop_operation_xyz
x,y,z
-x,-y,z
x,-y,-z
-x,y,-z
-x,-y,-z
x,y,-z
-x,y,z
x,-y,z
loop_
_atom_site_type_symbol
_atom_site_label
_atom_site_fract_x
_atom_site_fract_y
_atom_site_fract_z
Si Si1 0.293374 0.163313 0.174791
Si Si2 0.368496 0.664509 0.673150
Si Si3 0.779988 0.665094 0.327754
Si Si4 0.952789 0.842220 0.324039
Si Si5 0.452798 0.332595 0.165886
Si Si6 0.876513 0.344577 0.675369
O O1 0.333781 0.241760 0.244593
O O2 0.249979 0.237339 0.228978
O O3 0.293238 0.000000 0.224490
O O4 0.296380 0.178112 0.000000
O O5 0.363715 0.689049 0.500000
O O6 0.361523 0.500000 0.714638
O O7 0.415632 0.719450 0.723234
O O8 0.769972 0.692635 0.500000
O O9 0.772492 0.500000 0.291419
O O10 0.828734 0.711312 0.286974
O O11 0.948740 0.843847 0.500000
O O12 0.913912 0.751943 0.253519
O O13 0.000000 0.781000 0.279092
O O14 0.948141 0.000000 0.261570
O O15 0.500000 0.275858 0.217335
O O16 0.454033 0.500000 0.165622
O O17 0.442672 0.277546 0.000000
O O18 0.881624 0.351806 0.500000
O O19 0.882601 0.500000 0.743285
#
# Coordination Sequence:
#
# PCOD8197798 Si02
#       6
#     8   8   8   8   8   8
#     4  11  24  38  51  70  96 126 162 202 243 290
#     4  10  20  33  52  78 104 131 164 201 243 290
#     4   9  18  33  52  73  96 122 156 198 243 293
#     4   8  13  20  30  48  78 116 155 190 223 265
#     4   8  14  26  46  73 104 136 168 201 238 281
#     4   8  14  24  38  58  84 113 146 186 231 278
#
# _framework density 18.066096999999999
#
# number of rings (size 3 to 8) (size 9 to 14) (size 15 to 20)
#    0.000    3.000    0.000    3.500    0.000    6.000 
#    0.000    5.000    0.000    0.500    0.000    3.500 
#    0.000    0.667    0.000    7.333    0.000   12.000 
#
# Total GULP energy -594879.052562 kJ/mol
# GULP energy per Si atom -12393.313595 kJ/mol
# Density = 1.802498 g / cm^3
# Si number density = 18.066097 Si / 1000 Ang^3
#
#
#
# Elastic Constant Matrix: (Units=GPa)
#
#
# Indices 1 2 3 4 5 6 
#
# 1 174.3430 78.6420 48.1203 0.0000 0.0000 0.0000
# 2 78.6420 84.4141 39.8376 0.0000 0.0000 0.0000
# 3 48.1203 39.8376 51.3452 0.0000 0.0000 0.0000
# 4 0.0000 0.0000 0.0000 18.3579 0.0000 0.0000
# 5 0.0000 0.0000 0.0000 0.0000 -4.8121 0.0000
# 6 0.0000 0.0000 0.0000 0.0000 0.0000 0.3963
#
#
#
# Elastic Compliance Matrix: (Units=1/GPa)
#
#
# Indices 1 2 3 4 5 6 
#
# 1 0.010272 -0.007930 -0.003474 0.000000 0.000000 0.000000
# 2 -0.007930 0.024812 -0.011819 0.000000 0.000000 0.000000
# 3 -0.003474 -0.011819 0.031902 0.000000 0.000000 0.000000
# 4 0.000000 0.000000 0.000000 0.054472 0.000000 0.000000
# 5 0.000000 0.000000 0.000000 0.000000 -0.207809 0.000000
# 6 0.000000 0.000000 0.000000 0.000000 0.000000 2.523481
#
#
# Mechanical properties :
#
#
# Convention : Reuss Voigt Hill
#
# Bulk Modulus (GPa) = 48.68646 71.47800 60.08223
# Shear Modulus (GPa) = 2.00769 12.35525 7.18147
#
# Velocity S-wave (km/s) = 1.05533 2.61797 1.99593
# Velocity P-wave (km/s) = 5.33784 6.98491 6.21617
#
# Compressibility (1/GPa) = 0.02053959
#
# Stress axis : x y z
#
# Youngs Moduli (GPa) = 97.35596 40.30347 31.34610
#
# Poissons Ratio (x) = 0.31960 0.10889
# Poissons Ratio (y) = 0.77201 0.37048
# Poissons Ratio (z) = 0.33820 0.47635
#
# Static dielectric constant tensor:
#      x y z
#    x 3.803800 0.000000 0.000000 
#    y 0.000000 3.328210 0.000000 
#    z 0.000000 0.000000 2.993380 
# 
# 
# High freq. dielectric constant tensor:
#      x y z
#    x 1.721800 0.000000 0.000000 
#    y 0.000000 1.675090 0.000000 
#    z 0.000000 0.000000 1.660090 
# 
# From -- ./inp_files/13802.got.cif
#   From: 2010.03.12/outbox.cif.g09.slc.cpg/sg47_7_cif.got.tgz:13802.got - 2010.04.14 03:12:58.
