data_PCOD8197987
_publ_section_title
;
Structure prediction by ZEFSAII (Michael W. Deem and Ramdas Pophale) SiO2 
 PCOD8197987
Probable space group: P M M M
;
_chemical_formula_sum "Si O2"
_cell_formula_units_Z 52
_cell_length_a 14.660579
_cell_length_b 9.114000
_cell_length_c 24.166991
_cell_angle_alpha 90.000000
_cell_angle_beta 90.000000
_cell_angle_gamma 90.000000
_cell_volume 3229.109164
_symmetry_space_group_name_H-M "P M M M"
_symmetry_group_IT_number 47
_symmetry_cell_setting 'orthorhombic'
loop_
_space_group_symop_operation_xyz
x,y,z
-x,-y,z
x,-y,-z
-x,y,-z
-x,-y,-z
x,y,-z
-x,y,z
x,-y,z
loop_
_atom_site_type_symbol
_atom_site_label
_atom_site_fract_x
_atom_site_fract_y
_atom_site_fract_z
Si Si1 0.401420 0.663249 0.600309
Si Si2 0.348694 0.829088 0.500000
Si Si3 0.898253 0.167084 0.611419
Si Si4 0.395547 0.831813 0.784126
Si Si5 0.841965 0.674692 0.500000
Si Si6 0.722559 0.167123 0.677919
Si Si7 0.391044 0.165157 0.000000
Si Si8 0.607993 0.663786 0.106205
O O1 0.500000 0.662899 0.629821
O O2 0.378392 0.500000 0.577447
O O3 0.407333 0.785478 0.552853
O O4 0.325968 0.708709 0.643104
O O5 0.261034 0.726627 0.500000
O O6 0.323288 0.000000 0.500000
O O7 0.886173 0.266572 0.556875
O O8 0.829427 0.196489 0.663553
O O9 0.000000 0.194179 0.634897
O O10 0.885063 0.000000 0.591074
O O11 0.500000 0.789787 0.764190
O O12 0.314449 0.805253 0.739711
O O13 0.363651 0.737436 0.836259
O O14 0.396696 0.000000 0.802733
O O15 0.850517 0.500000 0.500000
O O16 0.696577 0.000000 0.660603
O O17 0.351949 0.245978 0.054405
O O18 0.500000 0.166153 0.000000
O O19 0.353377 0.000000 0.000000
O O20 0.500000 0.659572 0.101153
O O21 0.648788 0.500000 0.104589
#
# Coordination Sequence:
#
# PCOD8197987 Si02
#       8
#     8   4   8   8   4   8   4   8
#     4  11  23  36  50  70  95 120 147 184 227 268
#     4  12  23  36  53  70  90 118 149 181 222 271
#     4  10  21  37  56  76  96 119 148 185 232 286
#     4   9  17  29  44  63  88 120 160 197 225 261
#     4  12  23  36  55  76  96 116 143 183 234 287
#     4  10  20  34  52  70  91 122 156 189 226 274
#     4   9  15  23  37  57  83 117 156 197 234 265
#     4   9  16  25  38  58  85 118 156 195 234 270
#
# _framework density 16.103511999999998
#
# number of rings (size 3 to 8) (size 9 to 14) (size 15 to 20)
#    0.000    1.923    1.538    3.462    0.000    7.385 
#    0.000    1.538    0.000    0.000    0.000    0.000 
#    0.000    0.000    0.000    0.692    0.000   16.385 
#
# Total GULP energy -644244.180015 kJ/mol
# GULP energy per Si atom -12389.311154 kJ/mol
# Density = 1.606686 g / cm^3
# Si number density = 16.103512 Si / 1000 Ang^3
#
#
#
# Elastic Constant Matrix: (Units=GPa)
#
#
# Indices 1 2 3 4 5 6 
#
# 1 88.5258 36.9424 44.5356 0.0000 0.0000 0.0000
# 2 36.9424 107.1659 59.9474 0.0000 0.0000 0.0000
# 3 44.5356 59.9474 109.0622 0.0000 0.0000 0.0000
# 4 0.0000 0.0000 0.0000 -59.6105 0.0000 0.0000
# 5 0.0000 0.0000 0.0000 0.0000 -1.1876 0.0000
# 6 0.0000 0.0000 0.0000 0.0000 0.0000 13.4585
#
#
#
# Elastic Compliance Matrix: (Units=1/GPa)
#
#
# Indices 1 2 3 4 5 6 
#
# 1 0.014653 -0.002461 -0.004631 0.000000 0.000000 0.000000
# 2 -0.002461 0.013888 -0.006629 0.000000 0.000000 0.000000
# 3 -0.004631 -0.006629 0.014704 0.000000 0.000000 0.000000
# 4 0.000000 0.000000 0.000000 -0.016776 0.000000 0.000000
# 5 0.000000 0.000000 0.000000 0.000000 -0.842031 0.000000
# 6 0.000000 0.000000 0.000000 0.000000 0.000000 0.074302
#
#
# Mechanical properties :
#
#
# Convention : Reuss Voigt Hill
#
# Bulk Modulus (GPa) = 63.27722 65.28942 64.28332
# Shear Modulus (GPa) = -7.05664 1.42066 -2.81799
#
# Velocity S-wave (km/s) = -2.09561 0.94028 -1.32428
# Velocity P-wave (km/s) = 5.78999 6.46610 6.13736
#
# Compressibility (1/GPa) = 0.01580348
#
# Stress axis : x y z
#
# Youngs Moduli (GPa) = 68.24686 72.00683 68.01025
#
# Poissons Ratio (x) = 0.17718 0.31495
# Poissons Ratio (y) = 0.16793 0.45082
# Poissons Ratio (z) = 0.31605 0.47731
#
# Static dielectric constant tensor:
#      x y z
#    x 2.903670 0.000000 0.000000 
#    y 0.000000 3.212950 0.000000 
#    z 0.000000 0.000000 3.079550 
# 
# 
# High freq. dielectric constant tensor:
#      x y z
#    x 1.579200 0.000000 0.000000 
#    y 0.000000 1.633850 0.000000 
#    z 0.000000 0.000000 1.600530 
# 
# From -- ./inp_files/12597.got.cif
#   From: 2010.03.12/outbox.cif.g09.slc.cpg/sg47_7_cif.got.tgz:12597.got - 2010.04.14 03:12:58.
