data_PCOD8197176
_publ_section_title
;
Structure prediction by ZEFSAII (Michael W. Deem and Ramdas Pophale) SiO2 
 PCOD8197176
Probable space group: P M M M
;
_chemical_formula_sum "Si O2"
_cell_formula_units_Z 48
_cell_length_a 30.598587
_cell_length_b 9.179787
_cell_length_c 9.376804
_cell_angle_alpha 90.000000
_cell_angle_beta 90.000000
_cell_angle_gamma 90.000000
_cell_volume 2633.836515
_symmetry_space_group_name_H-M "P M M M"
_symmetry_group_IT_number 47
_symmetry_cell_setting 'orthorhombic'
loop_
_space_group_symop_operation_xyz
x,y,z
-x,-y,z
x,-y,-z
-x,y,-z
-x,-y,-z
x,y,-z
-x,y,z
x,-y,z
loop_
_atom_site_type_symbol
_atom_site_label
_atom_site_fract_x
_atom_site_fract_y
_atom_site_fract_z
Si Si1 0.130445 0.829067 0.833771
Si Si2 0.048163 0.172934 0.659852
Si Si3 0.706246 0.831855 0.664985
Si Si4 0.377822 0.171565 0.836860
Si Si5 0.550250 0.330808 0.338203
Si Si6 0.205832 0.671072 0.664605
O O1 0.084975 0.769364 0.767892
O O2 0.169611 0.743011 0.762577
O O3 0.136690 0.000000 0.803157
O O4 0.129674 0.793964 0.000000
O O5 0.059064 0.228333 0.500000
O O6 0.000000 0.230623 0.706520
O O7 0.047601 0.000000 0.661820
O O8 0.694413 0.809597 0.500000
O O9 0.665338 0.773563 0.755301
O O10 0.747706 0.736610 0.710301
O O11 0.716876 0.000000 0.699427
O O12 0.420814 0.241098 0.770825
O O13 0.382575 0.000000 0.820727
O O14 0.373765 0.220871 0.000000
O O15 0.560275 0.281236 0.500000
O O16 0.500000 0.299155 0.300452
O O17 0.561024 0.500000 0.320151
O O18 0.195634 0.708477 0.500000
O O19 0.206824 0.500000 0.692410
#
# Coordination Sequence:
#
# PCOD8197176 Si02
#       6
#     8   8   8   8   8   8
#     4  10  20  32  49  75 105 137 170 205 250 302
#     4   8  14  26  46  72 100 130 166 208 251 295
#     4   9  18  34  55  76 100 133 172 212 253 299
#     4  10  21  35  52  78 110 139 167 204 252 305
#     4   9  19  36  56  77 102 135 176 218 256 296
#     4  10  21  36  54  76 101 131 169 212 256 301
#
# _framework density 18.224366
#
# number of rings (size 3 to 8) (size 9 to 14) (size 15 to 20)
#    0.000    2.667    0.000    2.500    0.000    5.667 
#    0.000    7.500    0.000    0.500    0.000    3.500 
#    0.000    0.000    0.000    0.000    0.000    0.000 
#
# Total GULP energy -595223.356292 kJ/mol
# GULP energy per Si atom -12400.486589 kJ/mol
# Density = 1.818289 g / cm^3
# Si number density = 18.224366 Si / 1000 Ang^3
#
#
#
# Elastic Constant Matrix: (Units=GPa)
#
#
# Indices 1 2 3 4 5 6 
#
# 1 153.4112 51.3925 95.4732 0.0000 0.0000 0.0000
# 2 51.3925 44.5667 47.0460 0.0000 0.0000 0.0000
# 3 95.4732 47.0460 118.3966 0.0000 0.0000 0.0000
# 4 0.0000 0.0000 0.0000 23.4223 0.0000 0.0000
# 5 0.0000 0.0000 0.0000 0.0000 8.8906 0.0000
# 6 0.0000 0.0000 0.0000 0.0000 0.0000 -13.5690
#
#
#
# Elastic Compliance Matrix: (Units=1/GPa)
#
#
# Indices 1 2 3 4 5 6 
#
# 1 0.014404 -0.007491 -0.008639 0.000000 0.000000 0.000000
# 2 -0.007491 0.042547 -0.010866 0.000000 0.000000 0.000000
# 3 -0.008639 -0.010866 0.019730 0.000000 0.000000 0.000000
# 4 0.000000 0.000000 0.000000 0.042694 0.000000 0.000000
# 5 0.000000 0.000000 0.000000 0.000000 0.112478 0.000000
# 6 0.000000 0.000000 0.000000 0.000000 0.000000 -0.073697
#
#
# Mechanical properties :
#
#
# Convention : Reuss Voigt Hill
#
# Bulk Modulus (GPa) = 44.07230 78.24421 61.15825
# Shear Modulus (GPa) = 22.75732 11.91296 17.33514
#
# Velocity S-wave (km/s) = 3.53757 2.55950 3.08751
# Velocity P-wave (km/s) = 6.39700 7.19456 6.80747
#
# Compressibility (1/GPa) = 0.02268999
#
# Stress axis : x y z
#
# Youngs Moduli (GPa) = 69.42540 23.50359 50.68492
#
# Poissons Ratio (x) = 0.17606 0.43784
# Poissons Ratio (y) = 0.52006 0.55073
# Poissons Ratio (z) = 0.59973 0.25538
#
# Static dielectric constant tensor:
#      x y z
#    x 3.564890 0.000000 0.000000 
#    y 0.000000 3.100660 0.000000 
#    z 0.000000 0.000000 3.410360 
# 
# 
# High freq. dielectric constant tensor:
#      x y z
#    x 1.719830 0.000000 0.000000 
#    y 0.000000 1.680170 0.000000 
#    z 0.000000 0.000000 1.705430 
# 
# From -- ./inp_files/2484.got.cif
#   From: 2010.03.12/outbox.cif.g09.slc.cpg/sg47_2_cif.got.tgz:2484.got - 2010.04.14 03:12:58.
