data_PCOD8197922
_publ_section_title
;
Structure prediction by ZEFSAII (Michael W. Deem and Ramdas Pophale) SiO2 
 PCOD8197922
Probable space group: P M M M
;
_chemical_formula_sum "Si O2"
_cell_formula_units_Z 64
_cell_length_a 23.889196
_cell_length_b 9.429022
_cell_length_c 15.410176
_cell_angle_alpha 90.000000
_cell_angle_beta 90.000000
_cell_angle_gamma 90.000000
_cell_volume 3471.169183
_symmetry_space_group_name_H-M "P M M M"
_symmetry_group_IT_number 47
_symmetry_cell_setting 'orthorhombic'
loop_
_space_group_symop_operation_xyz
x,y,z
-x,-y,z
x,-y,-z
-x,y,-z
-x,-y,-z
x,y,-z
-x,y,z
x,-y,z
loop_
_atom_site_type_symbol
_atom_site_label
_atom_site_fract_x
_atom_site_fract_y
_atom_site_fract_z
Si Si1 0.664527 0.662328 0.095463
Si Si2 0.321385 0.165001 0.402488
Si Si3 0.935628 0.163661 0.100154
Si Si4 0.739721 0.667077 0.254466
Si Si5 0.937044 0.331550 0.404149
Si Si6 0.439820 0.167719 0.345803
Si Si7 0.562864 0.164347 0.147992
Si Si8 0.868377 0.332425 0.759367
O O1 0.649894 0.500000 0.115492
O O2 0.706794 0.720099 0.168827
O O3 0.606655 0.747426 0.092278
O O4 0.692664 0.678323 0.000000
O O5 0.299192 0.187546 0.500000
O O6 0.282769 0.254503 0.339154
O O7 0.385906 0.221026 0.399153
O O8 0.318753 0.000000 0.375142
O O9 0.896306 0.261600 0.157650
O O10 0.000000 0.201133 0.120166
O O11 0.923712 0.000000 0.121948
O O12 0.921837 0.195381 0.000000
O O13 0.733189 0.500000 0.269480
O O14 0.803762 0.710638 0.241759
O O15 0.917751 0.277489 0.500000
O O16 0.935925 0.500000 0.403648
O O17 0.896139 0.272745 0.329478
O O18 0.000000 0.277522 0.384907
O O19 0.500000 0.228432 0.381036
O O20 0.431817 0.216072 0.246907
O O21 0.443520 0.000000 0.350832
O O22 0.500000 0.192012 0.113279
O O23 0.578432 0.000000 0.139103
O O24 0.876932 0.500000 0.767894
#
# Coordination Sequence:
#
# PCOD8197922 Si02
#       8
#     8   8   8   8   8   8   8   8
#     4  10  21  36  52  70  97 135 175 213 259 316
#     4  10  20  34  55  80 104 135 176 219 261 311
#     4   9  19  36  56  80 113 148 176 207 258 321
#     4  10  22  38  53  73 104 141 178 220 267 308
#     4   8  14  26  46  74 106 133 159 201 255 303
#     4   8  14  27  49  76 103 128 158 206 265 316
#     4   9  17  31  53  78 101 126 160 208 264 317
#     4  10  20  33  54  81 104 135 183 228 261 298
#
# _framework density 18.437591000000001
#
# number of rings (size 3 to 8) (size 9 to 14) (size 15 to 20)
#    0.000    2.750    1.250    1.875    0.000    3.750 
#    0.000    5.625    0.000    0.750    0.000    2.625 
#    0.000    0.000    0.000    0.000    0.000    0.000 
#
# Total GULP energy -793305.884495 kJ/mol
# GULP energy per Si atom -12395.404445 kJ/mol
# Density = 1.839563 g / cm^3
# Si number density = 18.437591 Si / 1000 Ang^3
#
#
#
# Elastic Constant Matrix: (Units=GPa)
#
#
# Indices 1 2 3 4 5 6 
#
# 1 132.9405 44.5196 75.2564 0.0000 0.0000 0.0000
# 2 44.5196 36.4818 38.9373 0.0000 0.0000 0.0000
# 3 75.2564 38.9373 119.3224 0.0000 0.0000 0.0000
# 4 0.0000 0.0000 0.0000 25.6308 0.0000 0.0000
# 5 0.0000 0.0000 0.0000 0.0000 14.9590 0.0000
# 6 0.0000 0.0000 0.0000 0.0000 0.0000 21.1262
#
#
#
# Elastic Compliance Matrix: (Units=1/GPa)
#
#
# Indices 1 2 3 4 5 6 
#
# 1 0.014553 -0.012218 -0.005191 0.000000 0.000000 0.000000
# 2 -0.012218 0.052318 -0.009366 0.000000 0.000000 0.000000
# 3 -0.005191 -0.009366 0.014711 0.000000 0.000000 0.000000
# 4 0.000000 0.000000 0.000000 0.039016 0.000000 0.000000
# 5 0.000000 0.000000 0.000000 0.000000 0.066849 0.000000
# 6 0.000000 0.000000 0.000000 0.000000 0.000000 0.047335
#
#
# Mechanical properties :
#
#
# Convention : Reuss Voigt Hill
#
# Bulk Modulus (GPa) = 35.67603 67.35237 51.51420
# Shear Modulus (GPa) = 16.79678 21.01197 18.90438
#
# Velocity S-wave (km/s) = 3.02156 3.37950 3.20553
# Velocity P-wave (km/s) = 5.61825 7.19981 6.45763
#
# Compressibility (1/GPa) = 0.02803002
#
# Stress axis : x y z
#
# Youngs Moduli (GPa) = 68.71654 19.11391 67.97552
#
# Poissons Ratio (x) = 0.23354 0.35287
# Poissons Ratio (y) = 0.83959 0.63669
# Poissons Ratio (z) = 0.35672 0.17903
#
# Static dielectric constant tensor:
#      x y z
#    x 3.110540 0.000000 0.000000 
#    y 0.000000 3.016970 0.000000 
#    z 0.000000 0.000000 3.502830 
# 
# 
# High freq. dielectric constant tensor:
#      x y z
#    x 1.714970 0.000000 0.000000 
#    y 0.000000 1.676710 0.000000 
#    z 0.000000 0.000000 1.722480 
# 
# From -- ./inp_files/25603.got.cif
#   From: 2010.03.12/outbox.cif.g09.slc.cpg/sg47_13_cif.got.tgz:25603.got - 2010.04.14 03:12:58.
