data_PCOD8197943
_publ_section_title
;
Structure prediction by ZEFSAII (Michael W. Deem and Ramdas Pophale) SiO2 
 PCOD8197943
Probable space group: P M M M
;
_chemical_formula_sum "Si O2"
_cell_formula_units_Z 52
_cell_length_a 8.864089
_cell_length_b 23.267678
_cell_length_c 14.348968
_cell_angle_alpha 90.000000
_cell_angle_beta 90.000000
_cell_angle_gamma 90.000000
_cell_volume 2959.428283
_symmetry_space_group_name_H-M "P M M M"
_symmetry_group_IT_number 47
_symmetry_cell_setting 'orthorhombic'
loop_
_space_group_symop_operation_xyz
x,y,z
-x,-y,z
x,-y,-z
-x,y,-z
-x,-y,-z
x,y,-z
-x,y,z
x,-y,z
loop_
_atom_site_type_symbol
_atom_site_label
_atom_site_fract_x
_atom_site_fract_y
_atom_site_fract_z
Si Si1 0.327085 0.384307 0.610504
Si Si2 0.678389 0.174555 0.606408
Si Si3 0.320683 0.936779 0.712708
Si Si4 0.177933 0.720666 0.286663
Si Si5 0.320727 0.118108 0.898949
Si Si6 0.170165 0.500000 0.610801
Si Si7 0.323663 0.750888 0.104792
O O1 0.312886 0.379460 0.500000
O O2 0.500000 0.381175 0.642747
O O3 0.235281 0.332459 0.653839
O O4 0.257077 0.443866 0.647678
O O5 0.728241 0.183690 0.500000
O O6 0.500000 0.182109 0.618846
O O7 0.730746 0.110687 0.637560
O O8 0.758116 0.220615 0.671214
O O9 0.500000 0.938291 0.717164
O O10 0.255679 0.920637 0.815216
O O11 0.258386 0.000000 0.684510
O O12 0.231855 0.713362 0.179755
O O13 0.000000 0.722153 0.291392
O O14 0.500000 0.116903 0.897957
O O15 0.268147 0.183556 0.884883
O O16 0.262658 0.095262 0.000000
O O17 0.169116 0.500000 0.500000
O O18 0.000000 0.500000 0.650214
O O19 0.500000 0.745425 0.127216
O O20 0.289218 0.728497 0.000000
#
# Coordination Sequence:
#
# PCOD8197943 Si02
#       7
#     8   8   8   8   8   4   8
#     4  10  20  34  53  77 107 145 185 219 253 298
#     4  10  20  34  50  67  93 129 169 214 261 310
#     4   9  16  26  43  68  95 121 156 206 260 312
#     4  12  23  33  50  76 105 134 168 214 261 307
#     4   8  13  23  42  67  93 119 148 191 249 308
#     4   9  17  31  51  77 112 147 178 215 257 299
#     4   9  17  32  54  75  98 130 165 203 251 309
#
# _framework density 17.570961
#
# number of rings (size 3 to 8) (size 9 to 14) (size 15 to 20)
#    0.000    2.385    1.538    3.462    0.000    4.923 
#    0.000    3.077    0.000    0.462    0.000    1.615 
#    0.000    6.769    0.000    0.000    0.000    0.000 
#
# Total GULP energy -644618.700120 kJ/mol
# GULP energy per Si atom -12396.513464 kJ/mol
# Density = 1.753097 g / cm^3
# Si number density = 17.570961 Si / 1000 Ang^3
#
#
#
# Elastic Constant Matrix: (Units=GPa)
#
#
# Indices 1 2 3 4 5 6 
#
# 1 59.4980 33.0065 39.8614 0.0000 0.0000 0.0000
# 2 33.0065 90.0413 27.9993 0.0000 0.0000 0.0000
# 3 39.8614 27.9993 79.9985 0.0000 0.0000 0.0000
# 4 0.0000 0.0000 0.0000 11.0226 0.0000 0.0000
# 5 0.0000 0.0000 0.0000 0.0000 14.3603 0.0000
# 6 0.0000 0.0000 0.0000 0.0000 0.0000 -1.0528
#
#
#
# Elastic Compliance Matrix: (Units=1/GPa)
#
#
# Indices 1 2 3 4 5 6 
#
# 1 0.028481 -0.006763 -0.011824 0.000000 0.000000 0.000000
# 2 -0.006763 0.014068 -0.001554 0.000000 0.000000 0.000000
# 3 -0.011824 -0.001554 0.018936 0.000000 0.000000 0.000000
# 4 0.000000 0.000000 0.000000 0.090722 0.000000 0.000000
# 5 0.000000 0.000000 0.000000 0.000000 0.069636 0.000000
# 6 0.000000 0.000000 0.000000 0.000000 0.000000 -0.949856
#
#
# Mechanical properties :
#
#
# Convention : Reuss Voigt Hill
#
# Bulk Modulus (GPa) = 47.16483 47.91914 47.54198
# Shear Modulus (GPa) = -7.34580 13.44407 3.04913
#
# Velocity S-wave (km/s) = -2.04688 2.76910 1.31875
# Velocity P-wave (km/s) = 4.61676 6.12820 5.42537
#
# Compressibility (1/GPa) = 0.02120224
#
# Stress axis : x y z
#
# Youngs Moduli (GPa) = 35.11099 71.08083 52.80983
#
# Poissons Ratio (x) = 0.48075 0.62444
# Poissons Ratio (y) = 0.23747 0.08206
# Poissons Ratio (z) = 0.41516 0.11045
#
# Static dielectric constant tensor:
#      x y z
#    x 2.995820 0.000000 0.000000 
#    y 0.000000 3.351090 0.000000 
#    z 0.000000 0.000000 3.431810 
# 
# 
# High freq. dielectric constant tensor:
#      x y z
#    x 1.646880 0.000000 0.000000 
#    y 0.000000 1.668120 0.000000 
#    z 0.000000 0.000000 1.674900 
# 
# From -- ./inp_files/21399.got.cif
#   From: 2010.03.12/outbox.cif.g09.slc.cpg/sg47_11_cif.got.tgz:21399.got - 2010.04.14 03:12:58.
