data_PCOD8197403
_publ_section_title
;
Structure prediction by ZEFSAII (Michael W. Deem and Ramdas Pophale) SiO2 
 PCOD8197403
Probable space group: P M M M
;
_chemical_formula_sum "Si O2"
_cell_formula_units_Z 44
_cell_length_a 8.997656
_cell_length_b 9.084962
_cell_length_c 28.924426
_cell_angle_alpha 90.000000
_cell_angle_beta 90.000000
_cell_angle_gamma 90.000000
_cell_volume 2364.379850
_symmetry_space_group_name_H-M "P M M M"
_symmetry_group_IT_number 47
_symmetry_cell_setting 'orthorhombic'
loop_
_space_group_symop_operation_xyz
x,y,z
-x,-y,z
x,-y,-z
-x,y,-z
-x,-y,-z
x,y,-z
-x,y,z
x,-y,z
loop_
_atom_site_type_symbol
_atom_site_label
_atom_site_fract_x
_atom_site_fract_y
_atom_site_fract_z
Si Si1 0.826795 0.170004 0.269138
Si Si2 0.672243 0.326646 0.000000
Si Si3 0.330870 0.675661 0.648459
Si Si4 0.676334 0.664485 0.451107
Si Si5 0.173628 0.827580 0.914770
Si Si6 0.332577 0.825089 0.177635
O O1 0.779059 0.259685 0.313895
O O2 0.742239 0.235117 0.224446
O O3 0.000000 0.191946 0.260246
O O4 0.785824 0.000000 0.277104
O O5 0.747727 0.260662 0.955007
O O6 0.696341 0.500000 0.000000
O O7 0.500000 0.282817 0.000000
O O8 0.500000 0.726721 0.658832
O O9 0.321471 0.500000 0.648636
O O10 0.274953 0.737529 0.597842
O O11 0.725599 0.744683 0.500000
O O12 0.500000 0.655936 0.449249
O O13 0.741772 0.500000 0.452891
O O14 0.239938 0.769383 0.866421
O O15 0.000000 0.792784 0.915372
O O16 0.205172 0.000000 0.921934
O O17 0.500000 0.763609 0.174341
O O18 0.330430 0.000000 0.178632
#
# Coordination Sequence:
#
# PCOD8197403 Si02
#       6
#     8   4   8   8   8   8
#     4  10  20  33  49  70  98 132 167 201 240 289
#     4  11  24  39  54  76 108 143 176 209 246 288
#     4   9  17  29  47  72  98 123 156 200 247 294
#     4   7  10  19  38  64  91 117 148 191 242 290
#     4  10  20  35  57  83 107 132 166 207 249 294
#     4   9  17  31  53  78 101 127 162 205 249 290
#
# _framework density 18.609532000000002
#
# number of rings (size 3 to 8) (size 9 to 14) (size 15 to 20)
#    0.000    2.818    0.000    3.818    0.000    6.545 
#    0.000    0.909    0.000    6.545    0.000    6.364 
#    0.000    0.000    0.000    0.000    0.000    0.000 
#
# Total GULP energy -545212.076459 kJ/mol
# GULP energy per Si atom -12391.183556 kJ/mol
# Density = 1.856718 g / cm^3
# Si number density = 18.609532 Si / 1000 Ang^3
#
#
#
# Elastic Constant Matrix: (Units=GPa)
#
#
# Indices 1 2 3 4 5 6 
#
# 1 99.6018 31.0395 71.2701 0.0000 0.0000 0.0000
# 2 31.0395 28.5666 39.0705 0.0000 0.0000 0.0000
# 3 71.2701 39.0705 200.3059 0.0000 0.0000 0.0000
# 4 0.0000 0.0000 0.0000 24.0191 0.0000 0.0000
# 5 0.0000 0.0000 0.0000 0.0000 -0.7518 0.0000
# 6 0.0000 0.0000 0.0000 0.0000 0.0000 21.3597
#
#
#
# Elastic Compliance Matrix: (Units=1/GPa)
#
#
# Indices 1 2 3 4 5 6 
#
# 1 0.016606 -0.013587 -0.003258 0.000000 0.000000 0.000000
# 2 -0.013587 0.058859 -0.006646 0.000000 0.000000 0.000000
# 3 -0.003258 -0.006646 0.007448 0.000000 0.000000 0.000000
# 4 0.000000 0.000000 0.000000 0.041633 0.000000 0.000000
# 5 0.000000 0.000000 0.000000 0.000000 -1.330179 0.000000
# 6 0.000000 0.000000 0.000000 0.000000 0.000000 0.046817
#
#
# Mechanical properties :
#
#
# Convention : Reuss Voigt Hill
#
# Bulk Modulus (GPa) = 27.83193 67.91496 47.87344
# Shear Modulus (GPa) = -4.54605 21.39835 8.42615
#
# Velocity S-wave (km/s) = -1.56466 3.39464 2.13019
# Velocity P-wave (km/s) = 3.42403 7.20685 5.64193
#
# Compressibility (1/GPa) = 0.03592995
#
# Stress axis : x y z
#
# Youngs Moduli (GPa) = 60.22096 16.98967 134.26300
#
# Poissons Ratio (x) = 0.23084 0.43745
# Poissons Ratio (y) = 0.81821 0.89238
# Poissons Ratio (z) = 0.19621 0.11292
#
# Static dielectric constant tensor:
#      x y z
#    x 3.328060 0.000000 0.000000 
#    y 0.000000 2.954400 0.000000 
#    z 0.000000 0.000000 3.992740 
# 
# 
# High freq. dielectric constant tensor:
#      x y z
#    x 1.709950 0.000000 0.000000 
#    y 0.000000 1.667360 0.000000 
#    z 0.000000 0.000000 1.753310 
# 
# From -- ./inp_files/1983.got.cif
#   From: 2010.03.12/outbox.cif.g09.slc.cpg/sg47_1_cif.got.tgz:1983.got - 2010.04.14 03:12:58.
