data_PCOD8197970
_publ_section_title
;
Structure prediction by ZEFSAII (Michael W. Deem and Ramdas Pophale) SiO2 
 PCOD8197970
Probable space group: P M M M
;
_chemical_formula_sum "Si O2"
_cell_formula_units_Z 40
_cell_length_a 9.528779
_cell_length_b 28.950010
_cell_length_c 7.869866
_cell_angle_alpha 90.000000
_cell_angle_beta 90.000000
_cell_angle_gamma 90.000000
_cell_volume 2170.967442
_symmetry_space_group_name_H-M "P M M M"
_symmetry_group_IT_number 47
_symmetry_cell_setting 'orthorhombic'
loop_
_space_group_symop_operation_xyz
x,y,z
-x,-y,z
x,-y,-z
-x,y,-z
-x,-y,-z
x,y,-z
-x,y,z
x,-y,z
loop_
_atom_site_type_symbol
_atom_site_label
_atom_site_fract_x
_atom_site_fract_y
_atom_site_fract_z
Si Si1 0.165537 0.198421 0.500000
Si Si2 0.839625 0.134440 0.189206
Si Si3 0.332346 0.707354 0.500000
Si Si4 0.666691 0.549880 0.693278
Si Si5 0.337688 0.947896 0.303405
Si Si6 0.333580 0.353776 0.186035
O O1 0.211580 0.170560 0.668702
O O2 0.256265 0.244149 0.500000
O O3 0.000000 0.209828 0.500000
O O4 0.752531 0.087315 0.193704
O O5 0.000000 0.121233 0.226218
O O6 0.821648 0.156126 0.000000
O O7 0.500000 0.714311 0.500000
O O8 0.278321 0.679912 0.666575
O O9 0.716772 0.554987 0.500000
O O10 0.500000 0.550553 0.702600
O O11 0.720105 0.500000 0.766430
O O12 0.727553 0.594031 0.794358
O O13 0.298378 0.941899 0.500000
O O14 0.500000 0.936640 0.272630
O O15 0.303747 0.000000 0.243670
O O16 0.500000 0.356031 0.201325
O O17 0.287177 0.335115 0.000000
#
# Coordination Sequence:
#
# PCOD8197970 Si02
#       6
#     4   8   4   8   8   8
#     4  10  22  40  57  74  99 130 164 212 265 304
#     4  10  21  37  57  80 104 133 172 213 254 303
#     4  10  20  34  51  71  95 124 160 205 251 298
#     4   8  12  19  33  54  85 126 163 191 227 281
#     4   9  18  33  54  81 113 146 176 206 244 293
#     4   9  16  26  41  63  93 126 159 197 242 291
#
# _framework density 18.424966000000001
#
# number of rings (size 3 to 8) (size 9 to 14) (size 15 to 20)
#    0.000    2.800    2.000    1.200    0.000    3.200 
#    0.000    5.000    0.000    0.000    0.000    0.000 
#    0.000    1.600    0.000    1.800    0.000    2.000 
#
# Total GULP energy -495703.768669 kJ/mol
# GULP energy per Si atom -12392.594217 kJ/mol
# Density = 1.838303 g / cm^3
# Si number density = 18.424966 Si / 1000 Ang^3
#
#
#
# Elastic Constant Matrix: (Units=GPa)
#
#
# Indices 1 2 3 4 5 6 
#
# 1 28.1332 39.4808 26.3976 0.0000 0.0000 0.0000
# 2 39.4808 141.2638 76.0637 0.0000 0.0000 0.0000
# 3 26.3976 76.0637 136.2857 0.0000 0.0000 0.0000
# 4 0.0000 0.0000 0.0000 13.9657 0.0000 0.0000
# 5 0.0000 0.0000 0.0000 0.0000 12.9952 0.0000
# 6 0.0000 0.0000 0.0000 0.0000 0.0000 -5.3379
#
#
#
# Elastic Compliance Matrix: (Units=1/GPa)
#
#
# Indices 1 2 3 4 5 6 
#
# 1 0.059446 -0.014889 -0.003205 0.000000 0.000000 0.000000
# 2 -0.014889 0.013849 -0.004846 0.000000 0.000000 0.000000
# 3 -0.003205 -0.004846 0.010663 0.000000 0.000000 0.000000
# 4 0.000000 0.000000 0.000000 0.071604 0.000000 0.000000
# 5 0.000000 0.000000 0.000000 0.000000 0.076952 0.000000
# 6 0.000000 0.000000 0.000000 0.000000 0.000000 -0.187338
#
#
# Mechanical properties :
#
#
# Convention : Reuss Voigt Hill
#
# Bulk Modulus (GPa) = 26.26045 65.50743 45.88394
# Shear Modulus (GPa) = 48.19404 15.24061 31.71733
#
# Velocity S-wave (km/s) = 5.11993 2.87918 4.15352
# Velocity P-wave (km/s) = 7.01678 6.83255 6.92528
#
# Compressibility (1/GPa) = 0.03808007
#
# Stress axis : x y z
#
# Youngs Moduli (GPa) = 16.82198 72.20615 93.78445
#
# Poissons Ratio (x) = 1.07505 0.30055
# Poissons Ratio (y) = 0.25046 0.45445
# Poissons Ratio (z) = 0.05391 0.34989
#
# Static dielectric constant tensor:
#      x y z
#    x 2.852780 0.000000 0.000000 
#    y 0.000000 3.484810 0.000000 
#    z 0.000000 0.000000 3.584690 
# 
# 
# High freq. dielectric constant tensor:
#      x y z
#    x 1.653260 0.000000 0.000000 
#    y 0.000000 1.715970 0.000000 
#    z 0.000000 0.000000 1.722840 
# 
# From -- ./inp_files/1803.got.cif
#   From: 2010.03.12/outbox.cif.g09.slc.cpg/sg47_1_cif.got.tgz:1803.got - 2010.04.14 03:12:58.
