data_PCOD8197689
_publ_section_title
;
Structure prediction by ZEFSAII (Michael W. Deem and Ramdas Pophale) SiO2 
 PCOD8197689
Probable space group: P M M M
;
_chemical_formula_sum "Si O2"
_cell_formula_units_Z 44
_cell_length_a 19.427124
_cell_length_b 8.225121
_cell_length_c 13.910751
_cell_angle_alpha 90.000000
_cell_angle_beta 90.000000
_cell_angle_gamma 90.000000
_cell_volume 2222.805101
_symmetry_space_group_name_H-M "P M M M"
_symmetry_group_IT_number 47
_symmetry_cell_setting 'orthorhombic'
loop_
_space_group_symop_operation_xyz
x,y,z
-x,-y,z
x,-y,-z
-x,y,-z
-x,-y,-z
x,y,-z
-x,y,z
x,-y,z
loop_
_atom_site_type_symbol
_atom_site_label
_atom_site_fract_x
_atom_site_fract_y
_atom_site_fract_z
Si Si1 0.575683 0.190649 0.894110
Si Si2 0.158312 0.682929 0.886748
Si Si3 0.078548 0.000000 0.114526
Si Si4 0.703141 0.311719 0.215680
Si Si5 0.074433 0.817357 0.385521
Si Si6 0.217191 0.310660 0.605768
O O1 0.500000 0.257888 0.863413
O O2 0.631827 0.232646 0.814640
O O3 0.571569 0.000000 0.902542
O O4 0.595197 0.262109 0.000000
O O5 0.138204 0.500000 0.847230
O O6 0.112143 0.831702 0.843941
O O7 0.237652 0.721513 0.862566
O O8 0.149542 0.681625 0.000000
O O9 0.000000 0.000000 0.148110
O O10 0.086317 0.000000 0.000000
O O11 0.688706 0.500000 0.227627
O O12 0.727922 0.237539 0.318625
O O13 0.075562 0.820379 0.500000
O O14 0.140271 0.714496 0.350184
O O15 0.000000 0.744229 0.351672
O O16 0.081720 0.000000 0.344487
O O17 0.226158 0.228222 0.500000
O O18 0.229435 0.500000 0.596009
#
# Coordination Sequence:
#
# PCOD8197689 Si02
#       6
#     8   8   4   8   8   8
#     4   9  19  35  55  82 112 137 162 197 247 308
#     4   9  18  32  50  74 102 131 170 221 269 316
#     4   9  18  32  50  72  98 136 182 217 260 322
#     4  10  20  33  51  76 104 135 171 209 255 311
#     4   8  14  26  44  65  90 121 160 210 265 313
#     4   9  18  32  49  70  98 133 174 217 257 302
#
# _framework density 19.794808
#
# number of rings (size 3 to 8) (size 9 to 14) (size 15 to 20)
#    0.000    3.000    0.000    1.636    1.273    2.909 
#    0.000    5.455    0.000    3.818    0.000    3.818 
#    0.000    0.000    0.000    0.000    0.000    0.000 
#
# Total GULP energy -545078.649493 kJ/mol
# GULP energy per Si atom -12388.151125 kJ/mol
# Density = 1.974975 g / cm^3
# Si number density = 19.794808 Si / 1000 Ang^3
#
#
#
# Elastic Constant Matrix: (Units=GPa)
#
#
# Indices 1 2 3 4 5 6 
#
# 1 168.0478 45.5962 62.5215 0.0000 0.0000 0.0000
# 2 45.5962 69.3577 22.5894 0.0000 0.0000 0.0000
# 3 62.5215 22.5894 58.5560 0.0000 0.0000 0.0000
# 4 0.0000 0.0000 0.0000 17.4776 0.0000 0.0000
# 5 0.0000 0.0000 0.0000 0.0000 20.1912 0.0000
# 6 0.0000 0.0000 0.0000 0.0000 0.0000 21.1943
#
#
#
# Elastic Compliance Matrix: (Units=1/GPa)
#
#
# Indices 1 2 3 4 5 6 
#
# 1 0.010674 -0.003780 -0.009939 0.000000 0.000000 0.000000
# 2 -0.003780 0.017829 -0.002842 0.000000 0.000000 0.000000
# 3 -0.009939 -0.002842 0.028785 0.000000 0.000000 0.000000
# 4 0.000000 0.000000 0.000000 0.057216 0.000000 0.000000
# 5 0.000000 0.000000 0.000000 0.000000 0.049526 0.000000
# 6 0.000000 0.000000 0.000000 0.000000 0.000000 0.047182
#
#
# Mechanical properties :
#
#
# Convention : Reuss Voigt Hill
#
# Bulk Modulus (GPa) = 41.37809 61.93063 51.65436
# Shear Modulus (GPa) = 19.81064 22.78958 21.30011
#
# Velocity S-wave (km/s) = 3.16697 3.39675 3.28387
# Velocity P-wave (km/s) = 5.85849 6.83653 6.36632
#
# Compressibility (1/GPa) = 0.02416738
#
# Stress axis : x y z
#
# Youngs Moduli (GPa) = 93.68604 56.08956 34.73976
#
# Poissons Ratio (x) = 0.21203 0.34526
# Poissons Ratio (y) = 0.35415 0.09872
# Poissons Ratio (z) = 0.93110 0.15939
#
# Static dielectric constant tensor:
#      x y z
#    x 3.923350 0.000000 0.000000 
#    y 0.000000 3.644660 0.000000 
#    z 0.000000 0.000000 4.023610 
# 
# 
# High freq. dielectric constant tensor:
#      x y z
#    x 1.755790 0.000000 0.000000 
#    y 0.000000 1.758020 0.000000 
#    z 0.000000 0.000000 1.766120 
# 
# From -- ./inp_files/6194.got.cif
#   From: 2010.03.12/outbox.cif.g09.slc.cpg/sg47_4_cif.got.tgz:6194.got - 2010.04.14 03:12:58.
