data_PCOD8197143
_publ_section_title
;
Structure prediction by ZEFSAII (Michael W. Deem and Ramdas Pophale) SiO2 
 PCOD8197143
Probable space group: P M M M
;
_chemical_formula_sum "Si O2"
_cell_formula_units_Z 52
_cell_length_a 35.132001
_cell_length_b 8.175528
_cell_length_c 9.866767
_cell_angle_alpha 90.000000
_cell_angle_beta 90.000000
_cell_angle_gamma 90.000000
_cell_volume 2833.959042
_symmetry_space_group_name_H-M "P M M M"
_symmetry_group_IT_number 47
_symmetry_cell_setting 'orthorhombic'
loop_
_space_group_symop_operation_xyz
x,y,z
-x,-y,z
x,-y,-z
-x,y,-z
-x,-y,-z
x,y,-z
-x,y,z
x,-y,z
loop_
_atom_site_type_symbol
_atom_site_label
_atom_site_fract_x
_atom_site_fract_y
_atom_site_fract_z
Si Si1 0.456741 0.500000 0.161424
Si Si2 0.958823 0.315247 0.839402
Si Si3 0.736631 0.190579 0.650508
Si Si4 0.816609 0.312002 0.651587
Si Si5 0.674016 0.192050 0.850366
Si Si6 0.120120 0.812892 0.844910
Si Si7 0.588721 0.816493 0.161301
O O1 0.500000 0.500000 0.212763
O O2 0.437550 0.331741 0.217721
O O3 0.454169 0.500000 0.000000
O O4 0.952509 0.500000 0.788245
O O5 0.923115 0.207885 0.789050
O O6 0.000000 0.249659 0.784146
O O7 0.960333 0.309908 0.000000
O O8 0.733071 0.269216 0.500000
O O9 0.779265 0.218704 0.707041
O O10 0.705267 0.271964 0.749833
O O11 0.728254 0.000000 0.641761
O O12 0.827381 0.248824 0.500000
O O13 0.805696 0.500000 0.647108
O O14 0.851728 0.289026 0.751828
O O15 0.631734 0.224404 0.791962
O O16 0.681067 0.000000 0.863460
O O17 0.678596 0.271765 0.000000
O O18 0.132036 0.000000 0.834952
O O19 0.123205 0.749236 0.000000
O O20 0.576425 0.000000 0.214218
O O21 0.587141 0.821148 0.000000
#
# Coordination Sequence:
#
# PCOD8197143 Si02
#       7
#     4   8   8   8   8   8   8
#     4   9  16  24  36  58  87 119 155 191 229 279
#     4   8  14  26  45  69  97 127 155 185 227 277
#     4   9  17  30  48  68  90 117 151 193 236 278
#     4  10  21  36  51  67  92 127 162 195 236 286
#     4   8  14  26  44  64  88 119 150 182 228 282
#     4  10  20  32  49  74  99 124 157 197 237 277
#     4   8  14  25  39  56  83 118 152 188 231 277
#
# _framework density 18.348890000000001
#
# number of rings (size 3 to 8) (size 9 to 14) (size 15 to 20)
#    0.000    3.154    0.000    2.308    0.000    3.077 
#    1.385    4.615    0.000    0.462    0.000    3.231 
#    0.000    1.231    0.000    6.000    0.000    6.154 
#
# Total GULP energy -644303.510120 kJ/mol
# GULP energy per Si atom -12390.452118 kJ/mol
# Density = 1.830713 g / cm^3
# Si number density = 18.348890 Si / 1000 Ang^3
#
#
#
# Elastic Constant Matrix: (Units=GPa)
#
#
# Indices 1 2 3 4 5 6 
#
# 1 147.7164 41.2465 51.3253 0.0000 0.0000 0.0000
# 2 41.2465 61.6784 19.6613 0.0000 0.0000 0.0000
# 3 51.3253 19.6613 47.4544 0.0000 0.0000 0.0000
# 4 0.0000 0.0000 0.0000 12.1540 0.0000 0.0000
# 5 0.0000 0.0000 0.0000 0.0000 3.8266 0.0000
# 6 0.0000 0.0000 0.0000 0.0000 0.0000 27.0778
#
#
#
# Elastic Compliance Matrix: (Units=1/GPa)
#
#
# Indices 1 2 3 4 5 6 
#
# 1 0.011800 -0.004404 -0.010938 0.000000 0.000000 0.000000
# 2 -0.004404 0.020324 -0.003657 0.000000 0.000000 0.000000
# 3 -0.010938 -0.003657 0.034418 0.000000 0.000000 0.000000
# 4 0.000000 0.000000 0.000000 0.082277 0.000000 0.000000
# 5 0.000000 0.000000 0.000000 0.000000 0.261331 0.000000
# 6 0.000000 0.000000 0.000000 0.000000 0.000000 0.036931
#
#
# Mechanical properties :
#
#
# Convention : Reuss Voigt Hill
#
# Bulk Modulus (GPa) = 35.03377 53.47946 44.25662
# Shear Modulus (GPa) = 10.10931 18.25276 14.18103
#
# Velocity S-wave (km/s) = 2.34978 3.15740 2.78304
# Velocity P-wave (km/s) = 5.14748 6.51931 5.87358
#
# Compressibility (1/GPa) = 0.02854389
#
# Stress axis : x y z
#
# Youngs Moduli (GPa) = 84.74629 49.20227 29.05467
#
# Poissons Ratio (x) = 0.21671 0.31779
# Poissons Ratio (y) = 0.37326 0.10625
# Poissons Ratio (z) = 0.92692 0.17994
#
# Static dielectric constant tensor:
#      x y z
#    x 3.664750 0.000000 0.000000 
#    y 0.000000 3.320620 0.000000 
#    z 0.000000 0.000000 3.188440 
# 
# 
# High freq. dielectric constant tensor:
#      x y z
#    x 1.719170 0.000000 0.000000 
#    y 0.000000 1.699460 0.000000 
#    z 0.000000 0.000000 1.654830 
# 
# From -- ./inp_files/20046.got.cif
#   From: 2010.03.12/outbox.cif.g09.slc.cpg/sg47_11_cif.got.tgz:20046.got - 2010.04.14 03:12:58.
