data_PCOD8197581
_publ_section_title
;
Structure prediction by ZEFSAII (Michael W. Deem and Ramdas Pophale) SiO2 
 PCOD8197581
Probable space group: P M M M
;
_chemical_formula_sum "Si O2"
_cell_formula_units_Z 48
_cell_length_a 9.156167
_cell_length_b 31.083375
_cell_length_c 8.972318
_cell_angle_alpha 90.000000
_cell_angle_beta 90.000000
_cell_angle_gamma 90.000000
_cell_volume 2553.562728
_symmetry_space_group_name_H-M "P M M M"
_symmetry_group_IT_number 47
_symmetry_cell_setting 'orthorhombic'
loop_
_space_group_symop_operation_xyz
x,y,z
-x,-y,z
x,-y,-z
-x,y,-z
-x,-y,-z
x,y,-z
-x,y,z
x,-y,z
loop_
_atom_site_type_symbol
_atom_site_label
_atom_site_fract_x
_atom_site_fract_y
_atom_site_fract_z
Si Si1 0.337388 0.500000 0.821840
Si Si2 0.334971 0.752776 0.676780
Si Si3 0.838509 0.419189 0.823088
Si Si4 0.835232 0.835584 0.322907
Si Si5 0.670056 0.079060 0.324460
Si Si6 0.831460 0.000000 0.823616
Si Si7 0.829007 0.323432 0.172553
O O1 0.500000 0.500000 0.759593
O O2 0.262477 0.543107 0.757423
O O3 0.332805 0.500000 0.000000
O O4 0.333966 0.753840 0.500000
O O5 0.500000 0.756263 0.737662
O O6 0.242158 0.792838 0.741165
O O7 0.264359 0.708525 0.728460
O O8 0.780392 0.371720 0.780040
O O9 0.000000 0.426077 0.756639
O O10 0.845992 0.422398 0.000000
O O11 0.839194 0.833801 0.500000
O O12 0.741850 0.876470 0.269922
O O13 0.000000 0.838488 0.258804
O O14 0.691057 0.072006 0.500000
O O15 0.500000 0.079404 0.281107
O O16 0.751723 0.041574 0.239048
O O17 0.000000 0.000000 0.771672
O O18 0.818332 0.000000 0.000000
O O19 0.000000 0.316829 0.204684
O O20 0.794116 0.314934 0.000000
#
# Coordination Sequence:
#
# PCOD8197581 Si02
#       7
#     4   8   8   8   8   4   8
#     4   9  15  21  33  57  86 115 150 191 234 282
#     4  10  20  33  50  74 103 133 165 202 245 294
#     4   8  14  25  40  58  84 118 153 191 237 286
#     4   9  17  31  53  78 102 130 165 206 249 290
#     4  10  20  35  57  83 107 132 166 208 252 297
#     4  11  24  39  54  76 108 143 176 209 246 290
#     4   9  18  32  49  70  96 127 164 204 245 291
#
# _framework density 18.797267999999999
#
# number of rings (size 3 to 8) (size 9 to 14) (size 15 to 20)
#    0.000    2.667    0.000    3.250    0.000    7.667 
#    0.000    2.500    0.000    5.000    0.000    0.583 
#    0.000    4.667    0.000    0.000    0.000    0.000 
#
# Total GULP energy -595114.254601 kJ/mol
# GULP energy per Si atom -12398.213638 kJ/mol
# Density = 1.875448 g / cm^3
# Si number density = 18.797268 Si / 1000 Ang^3
#
#
#
# Elastic Constant Matrix: (Units=GPa)
#
#
# Indices 1 2 3 4 5 6 
#
# 1 154.3509 99.8809 24.7022 0.0000 0.0000 0.0000
# 2 99.8809 181.8815 23.7616 0.0000 0.0000 0.0000
# 3 24.7022 23.7616 15.7506 0.0000 0.0000 0.0000
# 4 0.0000 0.0000 0.0000 25.7763 0.0000 0.0000
# 5 0.0000 0.0000 0.0000 0.0000 20.3176 0.0000
# 6 0.0000 0.0000 0.0000 0.0000 0.0000 18.1094
#
#
#
# Elastic Compliance Matrix: (Units=1/GPa)
#
#
# Indices 1 2 3 4 5 6 
#
# 1 0.011266 -0.004830 -0.010382 0.000000 0.000000 0.000000
# 2 -0.004830 0.008919 -0.005879 0.000000 0.000000 0.000000
# 3 -0.010382 -0.005879 0.088641 0.000000 0.000000 0.000000
# 4 0.000000 0.000000 0.000000 0.038795 0.000000 0.000000
# 5 0.000000 0.000000 0.000000 0.000000 0.049218 0.000000
# 6 0.000000 0.000000 0.000000 0.000000 0.000000 0.055220
#
#
# Mechanical properties :
#
#
# Convention : Reuss Voigt Hill
#
# Bulk Modulus (GPa) = 15.00529 72.07472 43.54001
# Shear Modulus (GPa) = 15.79995 26.41655 21.10825
#
# Velocity S-wave (km/s) = 2.90236 3.75285 3.35467
# Velocity P-wave (km/s) = 4.38539 7.56340 6.18210
#
# Compressibility (1/GPa) = 0.06664318
#
# Stress axis : x y z
#
# Youngs Moduli (GPa) = 88.76245 112.12194 11.28147
#
# Poissons Ratio (x) = 0.54160 0.11712
# Poissons Ratio (y) = 0.42877 0.06633
# Poissons Ratio (z) = 0.92149 0.65920
#
# Static dielectric constant tensor:
#      x y z
#    x 3.700850 0.000000 0.000000 
#    y 0.000000 3.743550 0.000000 
#    z 0.000000 0.000000 2.901650 
# 
# 
# High freq. dielectric constant tensor:
#      x y z
#    x 1.740890 0.000000 0.000000 
#    y 0.000000 1.750060 0.000000 
#    z 0.000000 0.000000 1.672400 
# 
# From -- ./inp_files/2683.got.cif
#   From: 2010.03.12/outbox.cif.g09.slc.cpg/sg47_2_cif.got.tgz:2683.got - 2010.04.14 03:12:58.
