data_PCOD8197770
_publ_section_title
;
Structure prediction by ZEFSAII (Michael W. Deem and Ramdas Pophale) SiO2 
 PCOD8197770
Probable space group: P M M M
;
_chemical_formula_sum "Si O2"
_cell_formula_units_Z 52
_cell_length_a 10.682347
_cell_length_b 9.106829
_cell_length_c 29.343836
_cell_angle_alpha 90.000000
_cell_angle_beta 90.000000
_cell_angle_gamma 90.000000
_cell_volume 2854.636075
_symmetry_space_group_name_H-M "P M M M"
_symmetry_group_IT_number 47
_symmetry_cell_setting 'orthorhombic'
loop_
_space_group_symop_operation_xyz
x,y,z
-x,-y,z
x,-y,-z
-x,y,-z
-x,-y,-z
x,y,-z
-x,y,z
x,-y,z
loop_
_atom_site_type_symbol
_atom_site_label
_atom_site_fract_x
_atom_site_fract_y
_atom_site_fract_z
Si Si1 0.147925 0.836411 0.201571
Si Si2 0.000000 0.826715 0.448002
Si Si3 0.851218 0.665408 0.288362
Si Si4 0.855313 0.674076 0.109775
Si Si5 0.644694 0.161291 0.549661
Si Si6 0.358481 0.168579 0.053785
Si Si7 0.794521 0.671399 0.388687
O O1 0.203752 0.764913 0.247597
O O2 0.185118 0.737799 0.158562
O O3 0.000000 0.843643 0.206145
O O4 0.203920 0.000000 0.195595
O O5 0.881554 0.764012 0.421891
O O6 0.000000 0.771586 0.500000
O O7 0.000000 0.000000 0.444852
O O8 0.803742 0.500000 0.279879
O O9 0.800985 0.726055 0.336527
O O10 0.000000 0.670173 0.289580
O O11 0.845108 0.500000 0.111713
O O12 0.753559 0.733627 0.074086
O O13 0.000000 0.719838 0.097262
O O14 0.703549 0.205852 0.500000
O O15 0.500000 0.146200 0.542745
O O16 0.662368 0.285151 0.589127
O O17 0.699172 0.000000 0.563727
O O18 0.500000 0.216780 0.069505
O O19 0.335863 0.000000 0.068196
O O20 0.349264 0.186594 0.000000
O O21 0.827315 0.500000 0.390776
#
# Coordination Sequence:
#
# PCOD8197770 Si02
#       7
#     8   4   8   8   8   8   8
#     4   9  17  29  48  74 100 130 171 215 256 299
#     4  11  23  35  47  67  99 135 165 195 238 293
#     4   9  17  31  47  67 100 134 161 196 250 307
#     4  10  20  33  51  78 111 145 180 222 273 322
#     4   9  19  36  54  70  91 122 160 200 243 293
#     4   9  19  36  56  78 107 145 187 229 273 321
#     4  11  21  33  50  74 100 127 159 199 247 296
#
# _framework density 18.215982
#
# number of rings (size 3 to 8) (size 9 to 14) (size 15 to 20)
#    0.000    2.385    0.769    3.000    0.000    8.000 
#    0.000    3.077    0.000    0.923    0.000    4.308 
#    0.000    0.000    0.000    0.000    0.000    0.000 
#
# Total GULP energy -644329.410234 kJ/mol
# GULP energy per Si atom -12390.950197 kJ/mol
# Density = 1.817452 g / cm^3
# Si number density = 18.215982 Si / 1000 Ang^3
#
#
#
# Elastic Constant Matrix: (Units=GPa)
#
#
# Indices 1 2 3 4 5 6 
#
# 1 63.6149 36.1800 42.3518 0.0000 0.0000 0.0000
# 2 36.1800 91.8315 56.2864 0.0000 0.0000 0.0000
# 3 42.3518 56.2864 110.6253 0.0000 0.0000 0.0000
# 4 0.0000 0.0000 0.0000 36.1802 0.0000 0.0000
# 5 0.0000 0.0000 0.0000 0.0000 25.1419 0.0000
# 6 0.0000 0.0000 0.0000 0.0000 0.0000 9.6668
#
#
#
# Elastic Compliance Matrix: (Units=1/GPa)
#
#
# Indices 1 2 3 4 5 6 
#
# 1 0.022720 -0.005261 -0.006022 0.000000 0.000000 0.000000
# 2 -0.005261 0.017043 -0.006657 0.000000 0.000000 0.000000
# 3 -0.006022 -0.006657 0.014732 0.000000 0.000000 0.000000
# 4 0.000000 0.000000 0.000000 0.027639 0.000000 0.000000
# 5 0.000000 0.000000 0.000000 0.000000 0.039774 0.000000
# 6 0.000000 0.000000 0.000000 0.000000 0.000000 0.103447
#
#
# Mechanical properties :
#
#
# Convention : Reuss Voigt Hill
#
# Bulk Modulus (GPa) = 53.71744 59.52312 56.62028
# Shear Modulus (GPa) = 18.69577 22.94802 20.82190
#
# Velocity S-wave (km/s) = 3.20713 3.55318 3.38458
# Velocity P-wave (km/s) = 6.57780 7.04136 6.81352
#
# Compressibility (1/GPa) = 0.01861593
#
# Stress axis : x y z
#
# Youngs Moduli (GPa) = 44.01327 58.67652 67.87878
#
# Poissons Ratio (x) = 0.30867 0.40874
# Poissons Ratio (y) = 0.23153 0.45189
# Poissons Ratio (z) = 0.26503 0.39063
#
# Static dielectric constant tensor:
#      x y z
#    x 4.730550 0.000000 0.000000 
#    y 0.000000 3.453030 0.000000 
#    z 0.000000 0.000000 3.493690 
# 
# 
# High freq. dielectric constant tensor:
#      x y z
#    x 1.677300 0.000000 0.000000 
#    y 0.000000 1.708530 0.000000 
#    z 0.000000 0.000000 1.709140 
# 
# From -- ./inp_files/33565.got.cif
#   From: 2010.03.12/outbox.cif.g09.slc.cpg/sg47_17_cif.got.tgz:33565.got - 2010.04.14 03:12:58.
