data_PCOD8197392
_publ_section_title
;
Structure prediction by ZEFSAII (Michael W. Deem and Ramdas Pophale) SiO2 
 PCOD8197392
Probable space group: P M M M
;
_chemical_formula_sum "Si O2"
_cell_formula_units_Z 40
_cell_length_a 9.017720
_cell_length_b 26.064881
_cell_length_c 8.981187
_cell_angle_alpha 90.000000
_cell_angle_beta 90.000000
_cell_angle_gamma 90.000000
_cell_volume 2110.990272
_symmetry_space_group_name_H-M "P M M M"
_symmetry_group_IT_number 47
_symmetry_cell_setting 'orthorhombic'
loop_
_space_group_symop_operation_xyz
x,y,z
-x,-y,z
x,-y,-z
-x,y,-z
-x,-y,-z
x,y,-z
-x,y,z
x,-y,z
loop_
_atom_site_type_symbol
_atom_site_label
_atom_site_fract_x
_atom_site_fract_y
_atom_site_fract_z
Si Si1 0.667548 0.399096 0.822412
Si Si2 0.172582 0.897978 0.325609
Si Si3 0.167476 0.500000 0.177534
Si Si4 0.331114 0.803225 0.176701
Si Si5 0.332705 0.000000 0.677008
Si Si6 0.832555 0.701657 0.822658
O O1 0.500000 0.398441 0.761423
O O2 0.749143 0.449729 0.761165
O O3 0.752930 0.349263 0.760520
O O4 0.667925 0.398964 0.000000
O O5 0.202257 0.890981 0.500000
O O6 0.241030 0.850387 0.240797
O O7 0.000000 0.901673 0.288594
O O8 0.249124 0.949577 0.263823
O O9 0.000000 0.500000 0.238663
O O10 0.167899 0.500000 0.000000
O O11 0.500000 0.805046 0.233837
O O12 0.256644 0.750994 0.236279
O O13 0.323857 0.805705 0.000000
O O14 0.500000 0.000000 0.739326
O O15 0.330828 0.000000 0.500000
O O16 0.000000 0.703704 0.760610
O O17 0.833251 0.700725 0.000000
#
# Coordination Sequence:
#
# PCOD8197392 Si02
#       6
#     8   8   4   8   4   8
#     4   9  15  22  32  47  69  99 137 180 224 270
#     4  10  20  34  53  76 100 126 157 193 233 278
#     4   9  15  21  29  43  65  95 134 179 224 269
#     4  10  20  33  49  70  96 126 160 197 236 279
#     4   9  17  31  52  75  98 125 156 190 230 277
#     4   9  16  26  40  57  79 110 147 185 226 274
#
# _framework density 18.948453000000001
#
# number of rings (size 3 to 8) (size 9 to 14) (size 15 to 20)
#    0.000    2.600    0.000    3.000    0.000    9.600 
#    0.000    0.500    0.000    3.000    0.000    0.000 
#    0.000    0.000    0.000    0.900    0.000   17.600 
#
# Total GULP energy -496017.397297 kJ/mol
# GULP energy per Si atom -12400.434932 kJ/mol
# Density = 1.890533 g / cm^3
# Si number density = 18.948453 Si / 1000 Ang^3
#
#
#
# Elastic Constant Matrix: (Units=GPa)
#
#
# Indices 1 2 3 4 5 6 
#
# 1 133.2609 64.5801 10.0742 0.0000 0.0000 0.0000
# 2 64.5801 177.9875 11.1223 0.0000 0.0000 0.0000
# 3 10.0742 11.1223 4.7740 0.0000 0.0000 0.0000
# 4 0.0000 0.0000 0.0000 -19.5254 0.0000 0.0000
# 5 0.0000 0.0000 0.0000 0.0000 14.9488 0.0000
# 6 0.0000 0.0000 0.0000 0.0000 0.0000 48.4992
#
#
#
# Elastic Compliance Matrix: (Units=1/GPa)
#
#
# Indices 1 2 3 4 5 6 
#
# 1 0.009912 -0.002679 -0.014674 0.000000 0.000000 0.000000
# 2 -0.002679 0.007300 -0.011353 0.000000 0.000000 0.000000
# 3 -0.014674 -0.011353 0.266880 0.000000 0.000000 0.000000
# 4 0.000000 0.000000 0.000000 -0.051215 0.000000 0.000000
# 5 0.000000 0.000000 0.000000 0.000000 0.066895 0.000000
# 6 0.000000 0.000000 0.000000 0.000000 0.000000 0.020619
#
#
# Mechanical properties :
#
#
# Convention : Reuss Voigt Hill
#
# Bulk Modulus (GPa) = 4.41151 54.17506 29.29329
# Shear Modulus (GPa) = 11.02870 24.13424 17.58147
#
# Velocity S-wave (km/s) = 2.41516 3.57273 3.04938
# Velocity P-wave (km/s) = 3.17971 6.75811 5.28122
#
# Compressibility (1/GPa) = 0.22667974
#
# Stress axis : x y z
#
# Youngs Moduli (GPa) = 100.88917 136.98648 3.74700
#
# Poissons Ratio (x) = 0.36704 0.05498
# Poissons Ratio (y) = 0.27032 0.04254
# Poissons Ratio (z) = 1.48042 1.55520
#
# Static dielectric constant tensor:
#      x y z
#    x 3.773230 0.000000 0.000000 
#    y 0.000000 3.722850 0.000000 
#    z 0.000000 0.000000 2.734450 
# 
# 
# High freq. dielectric constant tensor:
#      x y z
#    x 1.759450 0.000000 0.000000 
#    y 0.000000 1.758230 0.000000 
#    z 0.000000 0.000000 1.654680 
# 
# From -- ./inp_files/1734.got.cif
#   From: 2010.03.12/outbox.cif.g09.slc.cpg/sg47_1_cif.got.tgz:1734.got - 2010.04.14 03:12:58.
