data_PCOD8197937
_publ_section_title
;
Structure prediction by ZEFSAII (Michael W. Deem and Ramdas Pophale) SiO2 
 PCOD8197937
Probable space group: P M M M
;
_chemical_formula_sum "Si O2"
_cell_formula_units_Z 28
_cell_length_a 7.755996
_cell_length_b 21.372751
_cell_length_c 8.783434
_cell_angle_alpha 90.000000
_cell_angle_beta 90.000000
_cell_angle_gamma 90.000000
_cell_volume 1456.003251
_symmetry_space_group_name_H-M "P M M M"
_symmetry_group_IT_number 47
_symmetry_cell_setting 'orthorhombic'
loop_
_space_group_symop_operation_xyz
x,y,z
-x,-y,z
x,-y,-z
-x,y,-z
-x,-y,-z
x,y,-z
-x,y,z
x,-y,z
loop_
_atom_site_type_symbol
_atom_site_label
_atom_site_fract_x
_atom_site_fract_y
_atom_site_fract_z
Si Si1 0.500000 0.716491 0.681085
Si Si2 0.810589 0.632894 0.680723
Si Si3 0.695058 0.500000 0.681033
Si Si4 0.196505 0.927062 0.675814
Si Si5 0.500000 0.851865 0.177664
O O1 0.500000 0.716690 0.500000
O O2 0.668420 0.680661 0.745999
O O3 0.500000 0.786669 0.736791
O O4 0.792244 0.630440 0.500000
O O5 0.784789 0.562653 0.745728
O O6 0.000000 0.656849 0.730095
O O7 0.500000 0.500000 0.738183
O O8 0.705490 0.500000 0.500000
O O9 0.236378 0.912066 0.500000
O O10 0.327627 0.889245 0.779992
O O11 0.000000 0.907558 0.715376
O O12 0.223625 0.000000 0.708718
O O13 0.500000 0.839326 0.000000
#
# Coordination Sequence:
#
# PCOD8197937 Si02
#       5
#     4   8   4   8   4
#     4  10  20  34  49  68  98 138 184 225 258 307
#     4   9  16  26  43  68  97 129 166 212 269 325
#     4   9  13  21  39  66 101 130 152 200 274 335
#     4   9  19  38  64  90 113 140 178 224 272 323
#     4  12  25  37  53  80 115 153 188 223 272 324
#
# _framework density 19.230727000000002
#
# number of rings (size 3 to 8) (size 9 to 14) (size 15 to 20)
#    0.000    2.429    1.429    3.000    0.000    5.714 
#    0.000    4.286    0.000    0.000    0.000    2.000 
#    0.000    2.286    0.000    0.000    0.000    0.000 
#
# Total GULP energy -347116.540617 kJ/mol
# GULP energy per Si atom -12397.019308 kJ/mol
# Density = 1.918696 g / cm^3
# Si number density = 19.230727 Si / 1000 Ang^3
#
#
#
# Elastic Constant Matrix: (Units=GPa)
#
#
# Indices 1 2 3 4 5 6 
#
# 1 159.2363 64.5953 19.0613 0.0000 0.0000 0.0000
# 2 64.5953 95.6697 7.5621 0.0000 0.0000 0.0000
# 3 19.0613 7.5621 17.4472 0.0000 0.0000 0.0000
# 4 0.0000 0.0000 0.0000 -5.1470 0.0000 0.0000
# 5 0.0000 0.0000 0.0000 0.0000 11.0081 0.0000
# 6 0.0000 0.0000 0.0000 0.0000 0.0000 91.4419
#
#
#
# Elastic Compliance Matrix: (Units=1/GPa)
#
#
# Indices 1 2 3 4 5 6 
#
# 1 0.009610 -0.005859 -0.007959 0.000000 0.000000 0.000000
# 2 -0.005859 0.014396 0.000162 0.000000 0.000000 0.000000
# 3 -0.007959 0.000162 0.065941 0.000000 0.000000 0.000000
# 4 0.000000 0.000000 0.000000 -0.194288 0.000000 0.000000
# 5 0.000000 0.000000 0.000000 0.000000 0.090842 0.000000
# 6 0.000000 0.000000 0.000000 0.000000 0.000000 0.010936
#
#
# Mechanical properties :
#
#
# Convention : Reuss Voigt Hill
#
# Bulk Modulus (GPa) = 15.96594 50.53228 33.24911
# Shear Modulus (GPa) = 109.58313 31.53623 70.55968
#
# Velocity S-wave (km/s) = 7.55692 4.05395 6.06389
# Velocity P-wave (km/s) = 9.19038 6.94597 8.14585
#
# Compressibility (1/GPa) = 0.06263333
#
# Stress axis : x y z
#
# Youngs Moduli (GPa) = 104.06361 69.46426 15.16509
#
# Poissons Ratio (x) = 0.40700 0.12070
# Poissons Ratio (y) = 0.60972 -0.00245
# Poissons Ratio (z) = 0.82824 -0.01123
#
# Static dielectric constant tensor:
#      x y z
#    x 3.795710 0.000000 0.000000 
#    y 0.000000 3.547180 0.000000 
#    z 0.000000 0.000000 2.902040 
# 
# 
# High freq. dielectric constant tensor:
#      x y z
#    x 1.768710 0.000000 0.000000 
#    y 0.000000 1.750890 0.000000 
#    z 0.000000 0.000000 1.682820 
# 
# From -- ./inp_files/872.got.cif
#   From: 2010.03.12/outbox.cif.g09.slc.cpg/sg47_1_cif.got.tgz:872.got - 2010.04.14 03:12:58.
