data_PCOD8197371
_publ_section_title
;
Structure prediction by ZEFSAII (Michael W. Deem and Ramdas Pophale) SiO2 
 PCOD8197371
Probable space group: P M M M
;
_chemical_formula_sum "Si O2"
_cell_formula_units_Z 44
_cell_length_a 8.959763
_cell_length_b 29.049800
_cell_length_c 9.186319
_cell_angle_alpha 90.000000
_cell_angle_beta 90.000000
_cell_angle_gamma 90.000000
_cell_volume 2391.008892
_symmetry_space_group_name_H-M "P M M M"
_symmetry_group_IT_number 47
_symmetry_cell_setting 'orthorhombic'
loop_
_space_group_symop_operation_xyz
x,y,z
-x,-y,z
x,-y,-z
-x,y,-z
-x,-y,-z
x,y,-z
-x,y,z
x,-y,z
loop_
_atom_site_type_symbol
_atom_site_label
_atom_site_fract_x
_atom_site_fract_y
_atom_site_fract_z
Si Si1 0.821108 0.147260 0.164302
Si Si2 0.177506 0.765419 0.663490
Si Si3 0.832114 0.500000 0.327134
Si Si4 0.832626 0.048731 0.826976
Si Si5 0.675640 0.407848 0.667311
Si Si6 0.173269 0.674873 0.170750
O O1 0.757442 0.187881 0.265550
O O2 0.758758 0.097376 0.224041
O O3 0.000000 0.145917 0.167178
O O4 0.765629 0.156738 0.000000
O O5 0.240051 0.761064 0.500000
O O6 0.232144 0.721709 0.755726
O O7 0.000000 0.767550 0.664471
O O8 0.829987 0.500000 0.500000
O O9 0.748696 0.545481 0.270454
O O10 0.000000 0.500000 0.265363
O O11 0.000000 0.046587 0.764730
O O12 0.751748 0.000000 0.779087
O O13 0.838329 0.051247 0.000000
O O14 0.723340 0.398796 0.500000
O O15 0.500000 0.413171 0.681736
O O16 0.730886 0.366488 0.766302
O O17 0.000000 0.666158 0.207425
O O18 0.200984 0.679140 0.000000
#
# Coordination Sequence:
#
# PCOD8197371 Si02
#       6
#     8   8   4   8   8   8
#     4   8  12  18  29  45  66  93 128 173 222 269
#     4   9  16  25  38  56  78 105 139 182 231 280
#     4   9  17  31  54  81 106 133 164 196 228 265
#     4   7   9  13  22  37  57  84 122 167 212 259
#     4  10  20  34  53  77 104 132 161 193 231 276
#     4  10  20  33  49  69  93 122 158 199 240 281
#
# _framework density 18.402273999999998
#
# number of rings (size 3 to 8) (size 9 to 14) (size 15 to 20)
#    0.000    3.182    0.000    3.545    0.000    5.455 
#    0.000    0.455    0.000    3.273    0.000    3.818 
#    0.000    0.000    0.000    0.000    0.000    0.909 
#
# Total GULP energy -545111.316233 kJ/mol
# GULP energy per Si atom -12388.893551 kJ/mol
# Density = 1.836039 g / cm^3
# Si number density = 18.402274 Si / 1000 Ang^3
#
#
#
# Elastic Constant Matrix: (Units=GPa)
#
#
# Indices 1 2 3 4 5 6 
#
# 1 35.1095 36.0113 21.0599 0.0000 0.0000 0.0000
# 2 36.0113 206.5330 66.3095 0.0000 0.0000 0.0000
# 3 21.0599 66.3095 80.0498 0.0000 0.0000 0.0000
# 4 0.0000 0.0000 0.0000 22.7684 0.0000 0.0000
# 5 0.0000 0.0000 0.0000 0.0000 12.1093 0.0000
# 6 0.0000 0.0000 0.0000 0.0000 0.0000 -0.9651
#
#
#
# Elastic Compliance Matrix: (Units=1/GPa)
#
#
# Indices 1 2 3 4 5 6 
#
# 1 0.036636 -0.004487 -0.005922 0.000000 0.000000 0.000000
# 2 -0.004487 0.007146 -0.004739 0.000000 0.000000 0.000000
# 3 -0.005922 -0.004739 0.017975 0.000000 0.000000 0.000000
# 4 0.000000 0.000000 0.000000 0.043921 0.000000 0.000000
# 5 0.000000 0.000000 0.000000 0.000000 0.082581 0.000000
# 6 0.000000 0.000000 0.000000 0.000000 0.000000 -1.036109
#
#
# Mechanical properties :
#
#
# Convention : Reuss Voigt Hill
#
# Bulk Modulus (GPa) = 31.78345 63.16152 47.47248
# Shear Modulus (GPa) = -6.19527 20.00328 6.90400
#
# Velocity S-wave (km/s) = -1.83681 3.30055 1.93904
# Velocity P-wave (km/s) = 3.57917 6.99443 5.55574
#
# Compressibility (1/GPa) = 0.03146292
#
# Stress axis : x y z
#
# Youngs Moduli (GPa) = 27.29520 139.94757 55.63135
#
# Poissons Ratio (x) = 0.62790 0.32945
# Poissons Ratio (y) = 0.12246 0.26362
# Poissons Ratio (z) = 0.16164 0.66316
#
# Static dielectric constant tensor:
#      x y z
#    x 2.784420 0.000000 0.000000 
#    y 0.000000 3.978620 0.000000 
#    z 0.000000 0.000000 3.175500 
# 
# 
# High freq. dielectric constant tensor:
#      x y z
#    x 1.644250 0.000000 0.000000 
#    y 0.000000 1.746350 0.000000 
#    z 0.000000 0.000000 1.681280 
# 
# From -- ./inp_files/2105.got.cif
#   From: 2010.03.12/outbox.cif.g09.slc.cpg/sg47_2_cif.got.tgz:2105.got - 2010.04.14 03:12:58.
