data_PCOD8197206
_publ_section_title
;
Structure prediction by ZEFSAII (Michael W. Deem and Ramdas Pophale) SiO2 
 PCOD8197206
Probable space group: P M M M
;
_chemical_formula_sum "Si O2"
_cell_formula_units_Z 36
_cell_length_a 23.114122
_cell_length_b 8.849874
_cell_length_c 9.335493
_cell_angle_alpha 90.000000
_cell_angle_beta 90.000000
_cell_angle_gamma 90.000000
_cell_volume 1909.641070
_symmetry_space_group_name_H-M "P M M M"
_symmetry_group_IT_number 47
_symmetry_cell_setting 'orthorhombic'
loop_
_space_group_symop_operation_xyz
x,y,z
-x,-y,z
x,-y,-z
-x,y,-z
-x,-y,-z
x,y,-z
-x,y,z
x,-y,z
loop_
_atom_site_type_symbol
_atom_site_label
_atom_site_fract_x
_atom_site_fract_y
_atom_site_fract_z
Si Si1 0.603741 0.822574 0.835206
Si Si2 0.063665 0.820605 0.160656
Si Si3 0.173160 0.176351 0.667456
Si Si4 0.276021 0.323619 0.835945
Si Si5 0.500000 0.322571 0.334156
O O1 0.666499 0.764036 0.788427
O O2 0.556914 0.744407 0.736547
O O3 0.600934 0.000000 0.809974
O O4 0.590959 0.780120 0.000000
O O5 0.112929 0.760690 0.267652
O O6 0.000000 0.760755 0.208566
O O7 0.062886 0.000000 0.163176
O O8 0.077611 0.763220 0.000000
O O9 0.171640 0.207507 0.500000
O O10 0.224780 0.270441 0.734914
O O11 0.181974 0.000000 0.703213
O O12 0.287227 0.500000 0.814168
O O13 0.259970 0.285060 0.000000
O O14 0.500000 0.500000 0.310085
O O15 0.500000 0.277850 0.500000
#
# Coordination Sequence:
#
# PCOD8197206 Si02
#       5
#     8   8   8   8   4
#     4  10  21  38  61  86 109 137 177 223 268 313
#     4   8  14  26  46  72 101 134 173 217 263 310
#     4  10  20  32  49  76 108 141 175 213 262 318
#     4  10  21  37  57  79 103 136 178 221 266 315
#     4  11  24  39  56  82 116 151 182 213 256 310
#
# _framework density 18.851711000000002
#
# number of rings (size 3 to 8) (size 9 to 14) (size 15 to 20)
#    0.000    2.333    0.000    3.333    0.000    7.556 
#    0.000    2.222    0.000    0.667    0.000    4.667 
#    0.000    0.000    0.000    0.000    0.000    0.000 
#
# Total GULP energy -446438.517003 kJ/mol
# GULP energy per Si atom -12401.069917 kJ/mol
# Density = 1.880880 g / cm^3
# Si number density = 18.851711 Si / 1000 Ang^3
#
#
#
# Elastic Constant Matrix: (Units=GPa)
#
#
# Indices 1 2 3 4 5 6 
#
# 1 153.5071 38.7230 85.6761 0.0000 0.0000 0.0000
# 2 38.7230 44.9866 43.4522 0.0000 0.0000 0.0000
# 3 85.6761 43.4522 105.8510 0.0000 0.0000 0.0000
# 4 0.0000 0.0000 0.0000 25.6892 0.0000 0.0000
# 5 0.0000 0.0000 0.0000 0.0000 18.1434 0.0000
# 6 0.0000 0.0000 0.0000 0.0000 0.0000-4291.8455
#
#
#
# Elastic Compliance Matrix: (Units=1/GPa)
#
#
# Indices 1 2 3 4 5 6 
#
# 1 0.011948 -0.001563 -0.009029 0.000000 0.000000 0.000000
# 2 -0.001563 0.037038 -0.013939 0.000000 0.000000 0.000000
# 3 -0.009029 -0.013939 0.022477 0.000000 0.000000 0.000000
# 4 0.000000 0.000000 0.000000 0.038927 0.000000 0.000000
# 5 0.000000 0.000000 0.000000 0.000000 0.055116 0.000000
# 6 0.000000 0.000000 0.000000 0.000000 0.000000 -0.000233
#
#
# Mechanical properties :
#
#
# Convention : Reuss Voigt Hill
#
# Bulk Modulus (GPa) = 44.64113 71.11636 57.87875
# Shear Modulus (GPa) = 22.54255 -840.50301 -408.98023
#
# Velocity S-wave (km/s) = 3.46176 -21.13806 -14.74506
# Velocity P-wave (km/s) = 6.30158 23.62098 16.09722
#
# Compressibility (1/GPa) = 0.02240087
#
# Stress axis : x y z
#
# Youngs Moduli (GPa) = 83.69580 26.99930 44.48950
#
# Poissons Ratio (x) = 0.04221 0.40169
# Poissons Ratio (y) = 0.13086 0.62013
# Poissons Ratio (z) = 0.75569 0.37634
#
# Static dielectric constant tensor:
#      x y z
#    x 3.769560 0.000000 0.000000 
#    y 0.000000 3.272910 0.000000 
#    z 0.000000 0.000000 3.487210 
# 
# 
# High freq. dielectric constant tensor:
#      x y z
#    x 1.749740 0.000000 0.000000 
#    y 0.000000 1.713060 0.000000 
#    z 0.000000 0.000000 1.729020 
# 
# From -- ./inp_files/1435.got.cif
#   From: 2010.03.12/outbox.cif.g09.slc.cpg/sg47_1_cif.got.tgz:1435.got - 2010.04.14 03:12:58.
