data_PCOD8197139
_publ_section_title
;
Structure prediction by ZEFSAII (Michael W. Deem and Ramdas Pophale) SiO2 
 PCOD8197139
Probable space group: P M M M
;
_chemical_formula_sum "Si O2"
_cell_formula_units_Z 64
_cell_length_a 8.921169
_cell_length_b 29.178310
_cell_length_c 14.583426
_cell_angle_alpha 90.000000
_cell_angle_beta 90.000000
_cell_angle_gamma 90.000000
_cell_volume 3796.133377
_symmetry_space_group_name_H-M "P M M M"
_symmetry_group_IT_number 47
_symmetry_cell_setting 'orthorhombic'
loop_
_space_group_symop_operation_xyz
x,y,z
-x,-y,z
x,-y,-z
-x,y,-z
-x,-y,-z
x,y,-z
-x,y,z
x,-y,z
loop_
_atom_site_type_symbol
_atom_site_label
_atom_site_fract_x
_atom_site_fract_y
_atom_site_fract_z
Si Si1 0.322716 0.230773 0.775667
Si Si2 0.327545 0.402501 0.895432
Si Si3 0.176260 0.730658 0.395093
Si Si4 0.320541 0.853118 0.896321
Si Si5 0.177578 0.627439 0.601190
Si Si6 0.332460 0.048490 0.108795
Si Si7 0.174352 0.551325 0.260189
Si Si8 0.827267 0.307713 0.106447
O O1 0.500000 0.229975 0.770238
O O2 0.258414 0.233916 0.672611
O O3 0.260720 0.184996 0.825547
O O4 0.271984 0.273627 0.835138
O O5 0.500000 0.391182 0.874169
O O6 0.267253 0.444015 0.833682
O O7 0.227607 0.358550 0.871386
O O8 0.305781 0.417837 0.000000
O O9 0.225355 0.740598 0.500000
O O10 0.222596 0.678688 0.366578
O O11 0.000000 0.737476 0.384341
O O12 0.500000 0.854824 0.896993
O O13 0.256520 0.903045 0.861384
O O14 0.263911 0.841848 0.000000
O O15 0.244562 0.618338 0.500000
O O16 0.241435 0.588452 0.668460
O O17 0.000000 0.623740 0.596361
O O18 0.500000 0.046867 0.149353
O O19 0.251172 0.000000 0.139279
O O20 0.340837 0.050204 0.000000
O O21 0.198680 0.500000 0.298987
O O22 0.000000 0.560572 0.240306
O O23 0.000000 0.303611 0.136468
O O24 0.804261 0.295900 0.000000
#
# Coordination Sequence:
#
# PCOD8197139 Si02
#       8
#     8   8   8   8   8   8   8   8
#     4  11  20  28  43  67  96 126 151 181 225 274
#     4  10  21  36  52  68  87 115 152 190 225 259
#     4   9  18  33  51  67  85 115 155 194 228 265
#     4   8  14  23  34  54  88 125 156 186 222 265
#     4   8  15  30  51  71  89 110 138 173 212 254
#     4   7   9  15  29  48  73 111 156 193 222 256
#     4  10  20  32  49  74  98 118 141 171 210 259
#     4  10  20  33  49  68  91 120 153 187 221 261
#
# _framework density 16.859259999999999
#
# number of rings (size 3 to 8) (size 9 to 14) (size 15 to 20)
#    0.000    2.875    0.000    4.125    0.000    4.000 
#    0.000    2.500    0.000    1.125    0.000    0.875 
#    0.000    2.500    0.000   20.375    0.000   12.750 
#
# Total GULP energy -793050.619372 kJ/mol
# GULP energy per Si atom -12391.415928 kJ/mol
# Density = 1.682089 g / cm^3
# Si number density = 16.859260 Si / 1000 Ang^3
#
#
#
# Elastic Constant Matrix: (Units=GPa)
#
#
# Indices 1 2 3 4 5 6 
#
# 1 31.6185 21.5647 27.5171 0.0000 0.0000 0.0000
# 2 21.5647 109.0044 68.1108 0.0000 0.0000 0.0000
# 3 27.5171 68.1108 86.7526 0.0000 0.0000 0.0000
# 4 0.0000 0.0000 0.0000 17.8231 0.0000 0.0000
# 5 0.0000 0.0000 0.0000 0.0000 21.5163 0.0000
# 6 0.0000 0.0000 0.0000 0.0000 0.0000 6.0983
#
#
#
# Elastic Compliance Matrix: (Units=1/GPa)
#
#
# Indices 1 2 3 4 5 6 
#
# 1 0.043687 0.000031 -0.013881 0.000000 0.000000 0.000000
# 2 0.000031 0.018008 -0.014149 0.000000 0.000000 0.000000
# 3 -0.013881 -0.014149 0.027038 0.000000 0.000000 0.000000
# 4 0.000000 0.000000 0.000000 0.056107 0.000000 0.000000
# 5 0.000000 0.000000 0.000000 0.000000 0.046476 0.000000
# 6 0.000000 0.000000 0.000000 0.000000 0.000000 0.163980
#
#
# Mechanical properties :
#
#
# Convention : Reuss Voigt Hill
#
# Bulk Modulus (GPa) = 30.54772 51.30672 40.92722
# Shear Modulus (GPa) = 11.84255 16.43306 14.13781
#
# Velocity S-wave (km/s) = 2.65323 3.12544 2.89896
# Velocity P-wave (km/s) = 5.24831 6.59719 5.96103
#
# Compressibility (1/GPa) = 0.03273567
#
# Stress axis : x y z
#
# Youngs Moduli (GPa) = 22.89029 55.52952 36.98457
#
# Poissons Ratio (x) = -0.00172 0.51340
# Poissons Ratio (y) = -0.00071 0.52328
# Poissons Ratio (z) = 0.31775 0.78566
#
# Static dielectric constant tensor:
#      x y z
#    x 2.819530 0.000000 0.000000 
#    y 0.000000 3.520550 0.000000 
#    z 0.000000 0.000000 3.201980 
# 
# 
# High freq. dielectric constant tensor:
#      x y z
#    x 1.615590 0.000000 0.000000 
#    y 0.000000 1.647020 0.000000 
#    z 0.000000 0.000000 1.631510 
# 
# From -- ./inp_files/22141.got.cif
#   From: 2010.03.12/outbox.cif.g09.slc.cpg/sg47_12_cif.got.tgz:22141.got - 2010.04.14 03:12:58.
