data_PCOD8197860
_publ_section_title
;
Structure prediction by ZEFSAII (Michael W. Deem and Ramdas Pophale) SiO2 
 PCOD8197860
Probable space group: P M M M
;
_chemical_formula_sum "Si O2"
_cell_formula_units_Z 44
_cell_length_a 30.055393
_cell_length_b 7.954787
_cell_length_c 9.823448
_cell_angle_alpha 90.000000
_cell_angle_beta 90.000000
_cell_angle_gamma 90.000000
_cell_volume 2348.631693
_symmetry_space_group_name_H-M "P M M M"
_symmetry_group_IT_number 47
_symmetry_cell_setting 'orthorhombic'
loop_
_space_group_symop_operation_xyz
x,y,z
-x,-y,z
x,-y,-z
-x,y,-z
-x,-y,-z
x,y,-z
-x,y,z
x,-y,z
loop_
_atom_site_type_symbol
_atom_site_label
_atom_site_fract_x
_atom_site_fract_y
_atom_site_fract_z
Si Si1 0.108825 0.188757 0.842796
Si Si2 0.640823 0.305997 0.849046
Si Si3 0.950427 0.500000 0.161216
Si Si4 0.285340 0.699988 0.349542
Si Si5 0.185335 0.695782 0.657989
Si Si6 0.452262 0.806823 0.160582
O O1 0.074238 0.329804 0.789075
O O2 0.153265 0.196747 0.753447
O O3 0.088532 0.000000 0.827138
O O4 0.121168 0.224623 0.000000
O O5 0.652068 0.500000 0.862423
O O6 0.678442 0.221089 0.754043
O O7 0.591603 0.285724 0.781662
O O8 0.642570 0.222072 0.000000
O O9 0.000000 0.500000 0.224697
O O10 0.953539 0.500000 0.000000
O O11 0.295429 0.772018 0.500000
O O12 0.288834 0.500000 0.354136
O O13 0.235586 0.751403 0.304870
O O14 0.175206 0.734263 0.500000
O O15 0.178044 0.500000 0.689471
O O16 0.500000 0.736840 0.218330
O O17 0.447983 0.000000 0.201029
O O18 0.453083 0.781000 0.000000
#
# Coordination Sequence:
#
# PCOD8197860 Si02
#       6
#     8   8   4   8   8   8
#     4  10  20  33  52  80 109 137 173 215 257 301
#     4   9  16  25  40  65  90 110 141 186 231 271
#     4   9  18  34  55  79 109 143 175 211 258 305
#     4   8  15  28  45  65  90 122 156 186 225 283
#     4   9  17  31  52  74  97 132 174 209 248 300
#     4   8  14  25  40  57  79 109 142 176 221 276
#
# _framework density 18.734311999999999
#
# number of rings (size 3 to 8) (size 9 to 14) (size 15 to 20)
#    0.000    3.182    0.909    1.636    0.000    1.818 
#    0.000    6.364    0.000    5.455    0.000    5.091 
#    0.000    0.000    0.000    0.000    0.000    0.000 
#
# Total GULP energy -545157.176813 kJ/mol
# GULP energy per Si atom -12389.935837 kJ/mol
# Density = 1.869167 g / cm^3
# Si number density = 18.734312 Si / 1000 Ang^3
#
#
#
# Elastic Constant Matrix: (Units=GPa)
#
#
# Indices 1 2 3 4 5 6 
#
# 1 162.6347 43.0482 62.5570 0.0000 0.0000 0.0000
# 2 43.0482 63.5755 22.6788 0.0000 0.0000 0.0000
# 3 62.5570 22.6788 56.9386 0.0000 0.0000 0.0000
# 4 0.0000 0.0000 0.0000 12.0519 0.0000 0.0000
# 5 0.0000 0.0000 0.0000 0.0000 8.8644 0.0000
# 6 0.0000 0.0000 0.0000 0.0000 0.0000 11.1633
#
#
#
# Elastic Compliance Matrix: (Units=1/GPa)
#
#
# Indices 1 2 3 4 5 6 
#
# 1 0.011379 -0.003783 -0.010996 0.000000 0.000000 0.000000
# 2 -0.003783 0.019592 -0.003647 0.000000 0.000000 0.000000
# 3 -0.010996 -0.003647 0.031096 0.000000 0.000000 0.000000
# 4 0.000000 0.000000 0.000000 0.082975 0.000000 0.000000
# 5 0.000000 0.000000 0.000000 0.000000 0.112811 0.000000
# 6 0.000000 0.000000 0.000000 0.000000 0.000000 0.089579
#
#
# Mechanical properties :
#
#
# Convention : Reuss Voigt Hill
#
# Bulk Modulus (GPa) = 39.65768 59.96853 49.81311
# Shear Modulus (GPa) = 12.73273 16.74025 14.73649
#
# Velocity S-wave (km/s) = 2.60983 2.99249 2.80769
# Velocity P-wave (km/s) = 5.50419 6.63472 6.09572
#
# Compressibility (1/GPa) = 0.02521580
#
# Stress axis : x y z
#
# Youngs Moduli (GPa) = 87.87747 51.04161 32.15838
#
# Poissons Ratio (x) = 0.19308 0.35360
# Poissons Ratio (y) = 0.33243 0.11729
# Poissons Ratio (z) = 0.96627 0.18617
#
# Static dielectric constant tensor:
#      x y z
#    x 3.667300 0.000000 0.000000 
#    y 0.000000 3.196750 0.000000 
#    z 0.000000 0.000000 3.353360 
# 
# 
# High freq. dielectric constant tensor:
#      x y z
#    x 1.733840 0.000000 0.000000 
#    y 0.000000 1.707240 0.000000 
#    z 0.000000 0.000000 1.685470 
# 
# From -- ./inp_files/13581.got.cif
#   From: 2010.03.12/outbox.cif.g09.slc.cpg/sg47_7_cif.got.tgz:13581.got - 2010.04.14 03:12:58.
