data_PCOD8197058
_publ_section_title
;
Structure prediction by ZEFSAII (Michael W. Deem and Ramdas Pophale) SiO2 
 PCOD8197058
Probable space group: P M M M
;
_chemical_formula_sum "Si O2"
_cell_formula_units_Z 48
_cell_length_a 30.764368
_cell_length_b 9.503202
_cell_length_c 9.567171
_cell_angle_alpha 90.000000
_cell_angle_beta 90.000000
_cell_angle_gamma 90.000000
_cell_volume 2797.058147
_symmetry_space_group_name_H-M "P M M M"
_symmetry_group_IT_number 47
_symmetry_cell_setting 'orthorhombic'
loop_
_space_group_symop_operation_xyz
x,y,z
-x,-y,z
x,-y,-z
-x,y,-z
-x,-y,-z
x,y,-z
-x,y,z
x,-y,z
loop_
_atom_site_type_symbol
_atom_site_label
_atom_site_fract_x
_atom_site_fract_y
_atom_site_fract_z
Si Si1 0.449243 0.339548 0.160260
Si Si2 0.792426 0.332580 0.344356
Si Si3 0.697163 0.343175 0.333801
Si Si4 0.616400 0.162916 0.664945
Si Si5 0.047848 0.158226 0.166088
Si Si6 0.871927 0.335552 0.837789
O O1 0.500000 0.312707 0.182748
O O2 0.437359 0.500000 0.200455
O O3 0.424554 0.232616 0.260508
O O4 0.436282 0.310014 0.000000
O O5 0.800436 0.271334 0.500000
O O6 0.793451 0.500000 0.349886
O O7 0.744816 0.287293 0.285968
O O8 0.829841 0.274934 0.242313
O O9 0.697299 0.350304 0.500000
O O10 0.687811 0.500000 0.273623
O O11 0.660387 0.236832 0.279210
O O12 0.610699 0.184247 0.500000
O O13 0.618842 0.000000 0.706027
O O14 0.085175 0.260657 0.224713
O O15 0.000000 0.206355 0.220301
O O16 0.057569 0.000000 0.217659
O O17 0.047951 0.164098 0.000000
O O18 0.878223 0.500000 0.811330
O O19 0.865063 0.300488 0.000000
#
# Coordination Sequence:
#
# PCOD8197058 Si02
#       6
#     8   8   8   8   8   8
#     4   9  19  36  55  73  94 123 160 197 231 272
#     4   8  14  26  44  63  84 114 148 177 211 260
#     4   8  14  27  47  66  85 116 156 189 217 257
#     4  10  20  32  48  73 102 127 153 190 234 276
#     4   8  14  25  40  57  79 109 141 169 203 253
#     4   9  16  25  40  64  88 105 130 176 223 254
#
# _framework density 17.160889000000001
#
# number of rings (size 3 to 8) (size 9 to 14) (size 15 to 20)
#    0.000    3.333    0.000    2.500    0.000    2.333 
#    0.000    5.833    0.000    5.000    0.000    3.500 
#    0.000    0.000    0.000    0.000    0.000    0.000 
#
# Total GULP energy -594927.234454 kJ/mol
# GULP energy per Si atom -12394.317384 kJ/mol
# Density = 1.712183 g / cm^3
# Si number density = 17.160889 Si / 1000 Ang^3
#
#
#
# Elastic Constant Matrix: (Units=GPa)
#
#
# Indices 1 2 3 4 5 6 
#
# 1 143.4765 72.9404 46.6029 0.0000 0.0000 0.0000
# 2 72.9404 87.7157 34.7692 0.0000 0.0000 0.0000
# 3 46.6029 34.7692 38.9485 0.0000 0.0000 0.0000
# 4 0.0000 0.0000 0.0000 16.1620 0.0000 0.0000
# 5 0.0000 0.0000 0.0000 0.0000 27.4677 0.0000
# 6 0.0000 0.0000 0.0000 0.0000 0.0000 12.2880
#
#
#
# Elastic Compliance Matrix: (Units=1/GPa)
#
#
# Indices 1 2 3 4 5 6 
#
# 1 0.014207 -0.007855 -0.009987 0.000000 0.000000 0.000000
# 2 -0.007855 0.021987 -0.010229 0.000000 0.000000 0.000000
# 3 -0.009987 -0.010229 0.046755 0.000000 0.000000 0.000000
# 4 0.000000 0.000000 0.000000 0.061874 0.000000 0.000000
# 5 0.000000 0.000000 0.000000 0.000000 0.036406 0.000000
# 6 0.000000 0.000000 0.000000 0.000000 0.000000 0.081380
#
#
# Mechanical properties :
#
#
# Convention : Reuss Voigt Hill
#
# Bulk Modulus (GPa) = 37.30215 64.30730 50.80473
# Shear Modulus (GPa) = 15.25846 18.90542 17.08194
#
# Velocity S-wave (km/s) = 2.98508 3.32272 3.15842
# Velocity P-wave (km/s) = 5.80214 7.23016 6.55515
#
# Compressibility (1/GPa) = 0.02680811
#
# Stress axis : x y z
#
# Youngs Moduli (GPa) = 70.38732 45.48120 21.38798
#
# Poissons Ratio (x) = 0.35727 0.21360
# Poissons Ratio (y) = 0.55292 0.21877
# Poissons Ratio (z) = 0.70294 0.46521
#
# Static dielectric constant tensor:
#      x y z
#    x 3.616350 0.000000 0.000000 
#    y 0.000000 3.101320 0.000000 
#    z 0.000000 0.000000 2.910830 
# 
# 
# High freq. dielectric constant tensor:
#      x y z
#    x 1.678030 0.000000 0.000000 
#    y 0.000000 1.642140 0.000000 
#    z 0.000000 0.000000 1.621610 
# 
# From -- ./inp_files/4462.got.cif
#   From: 2010.03.12/outbox.cif.g09.slc.cpg/sg47_3_cif.got.tgz:4462.got - 2010.04.14 03:12:58.
