data_PCOD8197877
_publ_section_title
;
Structure prediction by ZEFSAII (Michael W. Deem and Ramdas Pophale) SiO2 
 PCOD8197877
Probable space group: P M M M
;
_chemical_formula_sum "Si O2"
_cell_formula_units_Z 48
_cell_length_a 29.101892
_cell_length_b 9.114930
_cell_length_c 9.585269
_cell_angle_alpha 90.000000
_cell_angle_beta 90.000000
_cell_angle_gamma 90.000000
_cell_volume 2542.604831
_symmetry_space_group_name_H-M "P M M M"
_symmetry_group_IT_number 47
_symmetry_cell_setting 'orthorhombic'
loop_
_space_group_symop_operation_xyz
x,y,z
-x,-y,z
x,-y,-z
-x,y,-z
-x,-y,-z
x,y,-z
-x,y,z
x,-y,z
loop_
_atom_site_type_symbol
_atom_site_label
_atom_site_fract_x
_atom_site_fract_y
_atom_site_fract_z
Si Si1 0.551068 0.674209 0.155973
Si Si2 0.051601 0.327221 0.000000
Si Si3 0.365358 0.674583 0.339739
Si Si4 0.053709 0.162276 0.500000
Si Si5 0.895121 0.326690 0.268912
Si Si6 0.197895 0.169356 0.660801
Si Si7 0.712791 0.828640 0.837178
O O1 0.500000 0.732404 0.194634
O O2 0.550880 0.500000 0.156024
O O3 0.586963 0.731862 0.271413
O O4 0.564798 0.729555 0.000000
O O5 0.083529 0.274744 0.124758
O O6 0.044900 0.500000 0.000000
O O7 0.000000 0.256161 0.000000
O O8 0.362453 0.730714 0.500000
O O9 0.362014 0.500000 0.334937
O O10 0.325145 0.738472 0.245545
O O11 0.068804 0.255479 0.629681
O O12 0.000000 0.144882 0.500000
O O13 0.076810 0.000000 0.500000
O O14 0.893845 0.500000 0.289336
O O15 0.844144 0.267925 0.290515
O O16 0.211219 0.204706 0.500000
O O17 0.239299 0.210325 0.763515
O O18 0.184095 0.000000 0.676765
O O19 0.701530 0.000000 0.822844
O O20 0.714532 0.781277 0.000000
#
# Coordination Sequence:
#
# PCOD8197877 Si02
#       7
#     8   4   8   4   8   8   8
#     4   8  14  26  46  73 107 147 188 230 280 335
#     4   9  20  38  57  81 115 149 181 221 270 323
#     4  10  20  33  52  81 114 147 185 232 282 331
#     4  11  23  39  59  85 117 151 189 229 270 321
#     4  11  22  37  60  87 114 147 185 227 275 326
#     4  10  21  38  58  80 111 145 178 222 274 330
#     4  10  22  39  59  82 107 144 189 228 275 335
#
# _framework density 18.878278000000002
#
# number of rings (size 3 to 8) (size 9 to 14) (size 15 to 20)
#    0.000    2.167    0.833    2.750    1.167    4.333 
#    0.000    2.917    0.000    3.500    0.000    3.500 
#    0.000    0.000    0.000    0.000    0.000    0.000 
#
# Total GULP energy -594981.385744 kJ/mol
# GULP energy per Si atom -12395.445536 kJ/mol
# Density = 1.883531 g / cm^3
# Si number density = 18.878278 Si / 1000 Ang^3
#
#
#
# Elastic Constant Matrix: (Units=GPa)
#
#
# Indices 1 2 3 4 5 6 
#
# 1 126.9270 45.7430 85.5825 0.0000 0.0000 0.0000
# 2 45.7430 51.3908 47.5940 0.0000 0.0000 0.0000
# 3 85.5825 47.5940 184.4122 0.0000 0.0000 0.0000
# 4 0.0000 0.0000 0.0000 24.0388 0.0000 0.0000
# 5 0.0000 0.0000 0.0000 0.0000 45.5533 0.0000
# 6 0.0000 0.0000 0.0000 0.0000 0.0000 24.6507
#
#
#
# Elastic Compliance Matrix: (Units=1/GPa)
#
#
# Indices 1 2 3 4 5 6 
#
# 1 0.013717 -0.008297 -0.004225 0.000000 0.000000 0.000000
# 2 -0.008297 0.030589 -0.004044 0.000000 0.000000 0.000000
# 3 -0.004225 -0.004044 0.008427 0.000000 0.000000 0.000000
# 4 0.000000 0.000000 0.000000 0.041599 0.000000 0.000000
# 5 0.000000 0.000000 0.000000 0.000000 0.021952 0.000000
# 6 0.000000 0.000000 0.000000 0.000000 0.000000 0.040567
#
#
# Mechanical properties :
#
#
# Convention : Reuss Voigt Hill
#
# Bulk Modulus (GPa) = 51.01573 80.06323 65.53948
# Shear Modulus (GPa) = 25.44299 31.10258 28.27279
#
# Velocity S-wave (km/s) = 3.67514 4.06338 3.87413
# Velocity P-wave (km/s) = 6.71499 8.03225 7.40298
#
# Compressibility (1/GPa) = 0.01960180
#
# Stress axis : x y z
#
# Youngs Moduli (GPa) = 72.90085 32.69101 118.66804
#
# Poissons Ratio (x) = 0.27125 0.50132
# Poissons Ratio (y) = 0.60488 0.47990
# Poissons Ratio (z) = 0.30797 0.13220
#
# Static dielectric constant tensor:
#      x y z
#    x 3.670630 0.000000 0.000000 
#    y 0.000000 3.256660 0.000000 
#    z 0.000000 0.000000 3.760360 
# 
# 
# High freq. dielectric constant tensor:
#      x y z
#    x 1.746310 0.000000 0.000000 
#    y 0.000000 1.705840 0.000000 
#    z 0.000000 0.000000 1.749280 
# 
# From -- ./inp_files/13871.got.cif
#   From: 2010.03.12/outbox.cif.g09.slc.cpg/sg47_7_cif.got.tgz:13871.got - 2010.04.14 03:12:58.
