data_PCOD8197778
_publ_section_title
;
Structure prediction by ZEFSAII (Michael W. Deem and Ramdas Pophale) SiO2 
 PCOD8197778
Probable space group: P M M M
;
_chemical_formula_sum "Si O2"
_cell_formula_units_Z 48
_cell_length_a 8.888330
_cell_length_b 10.096161
_cell_length_c 29.295225
_cell_angle_alpha 90.000000
_cell_angle_beta 90.000000
_cell_angle_gamma 90.000000
_cell_volume 2628.895215
_symmetry_space_group_name_H-M "P M M M"
_symmetry_group_IT_number 47
_symmetry_cell_setting 'orthorhombic'
loop_
_space_group_symop_operation_xyz
x,y,z
-x,-y,z
x,-y,-z
-x,y,-z
-x,-y,-z
x,y,-z
-x,y,z
x,-y,z
loop_
_atom_site_type_symbol
_atom_site_label
_atom_site_fract_x
_atom_site_fract_y
_atom_site_fract_z
Si Si1 0.168180 0.656776 0.049970
Si Si2 0.674419 0.846172 0.307499
Si Si3 0.671039 0.000000 0.445974
Si Si4 0.178280 0.500000 0.448915
Si Si5 0.176889 0.151312 0.787879
Si Si6 0.821529 0.758998 0.603079
Si Si7 0.675066 0.345212 0.140572
O O1 0.164630 0.500000 0.047974
O O2 0.282654 0.702259 0.089369
O O3 0.000000 0.709790 0.061051
O O4 0.220570 0.710841 0.000000
O O5 0.500000 0.809288 0.306114
O O6 0.744917 0.808094 0.259178
O O7 0.756048 0.760271 0.345974
O O8 0.700896 0.000000 0.319117
O O9 0.757356 0.126264 0.428025
O O10 0.500000 0.000000 0.427276
O O11 0.674917 0.000000 0.500000
O O12 0.247841 0.500000 0.500000
O O13 0.235116 0.626074 0.420998
O O14 0.000000 0.500000 0.452537
O O15 0.231152 0.254212 0.825551
O O16 0.000000 0.165519 0.781448
O O17 0.220303 0.000000 0.801490
O O18 0.000000 0.770776 0.605798
O O19 0.500000 0.319967 0.148484
O O20 0.716606 0.500000 0.148298
#
# Coordination Sequence:
#
# PCOD8197778 Si02
#       7
#     8   8   4   4   8   8   8
#     4   8  14  26  46  72 103 141 183 225 270 319
#     4  10  20  36  58  82 111 141 173 219 271 321
#     4  11  23  37  55  83 115 143 177 223 270 315
#     4   9  20  38  57  81 113 145 179 219 262 311
#     4  10  21  37  58  81 105 139 184 226 269 324
#     4  11  21  36  60  84 109 142 181 222 265 317
#     4  10  20  33  51  79 113 145 180 223 274 327
#
# _framework density 18.258621999999999
#
# number of rings (size 3 to 8) (size 9 to 14) (size 15 to 20)
#    0.000    2.167    0.833    3.250    0.000    4.333 
#    1.500    3.333    0.000    3.500    0.000    3.500 
#    0.000    0.000    0.000    0.000    0.000    0.000 
#
# Total GULP energy -595176.468567 kJ/mol
# GULP energy per Si atom -12399.509762 kJ/mol
# Density = 1.821706 g / cm^3
# Si number density = 18.258622 Si / 1000 Ang^3
#
#
#
# Elastic Constant Matrix: (Units=GPa)
#
#
# Indices 1 2 3 4 5 6 
#
# 1 91.4555 40.5217 55.5564 0.0000 0.0000 0.0000
# 2 40.5217 94.9908 62.0167 0.0000 0.0000 0.0000
# 3 55.5564 62.0167 139.6037 0.0000 0.0000 0.0000
# 4 0.0000 0.0000 0.0000 26.1991 0.0000 0.0000
# 5 0.0000 0.0000 0.0000 0.0000 34.4923 0.0000
# 6 0.0000 0.0000 0.0000 0.0000 0.0000 26.5144
#
#
#
# Elastic Compliance Matrix: (Units=1/GPa)
#
#
# Indices 1 2 3 4 5 6 
#
# 1 0.015238 -0.003579 -0.004474 0.000000 0.000000 0.000000
# 2 -0.003579 0.015669 -0.005536 0.000000 0.000000 0.000000
# 3 -0.004474 -0.005536 0.011403 0.000000 0.000000 0.000000
# 4 0.000000 0.000000 0.000000 0.038169 0.000000 0.000000
# 5 0.000000 0.000000 0.000000 0.000000 0.028992 0.000000
# 6 0.000000 0.000000 0.000000 0.000000 0.000000 0.037715
#
#
# Mechanical properties :
#
#
# Convention : Reuss Voigt Hill
#
# Bulk Modulus (GPa) = 66.09120 71.35994 68.72557
# Shear Modulus (GPa) = 27.86934 28.63817 28.25376
#
# Velocity S-wave (km/s) = 3.91111 3.96469 3.93799
# Velocity P-wave (km/s) = 7.52805 7.75410 7.64191
#
# Compressibility (1/GPa) = 0.01513061
#
# Stress axis : x y z
#
# Youngs Moduli (GPa) = 65.62524 63.82196 87.69680
#
# Poissons Ratio (x) = 0.22844 0.39236
# Poissons Ratio (y) = 0.23490 0.48550
# Poissons Ratio (z) = 0.29361 0.35332
#
# Static dielectric constant tensor:
#      x y z
#    x 3.427570 0.000000 0.000000 
#    y 0.000000 3.175420 0.000000 
#    z 0.000000 0.000000 3.687020 
# 
# 
# High freq. dielectric constant tensor:
#      x y z
#    x 1.712130 0.000000 0.000000 
#    y 0.000000 1.680660 0.000000 
#    z 0.000000 0.000000 1.724110 
# 
# From -- ./inp_files/34058.got.cif
#   From: 2010.03.12/outbox.cif.g09.slc.cpg/sg47_18_cif.got.tgz:34058.got - 2010.04.14 03:12:58.
