data_PCOD8197932
_publ_section_title
;
Structure prediction by ZEFSAII (Michael W. Deem and Ramdas Pophale) SiO2 
 PCOD8197932
Probable space group: P M M M
;
_chemical_formula_sum "Si O2"
_cell_formula_units_Z 52
_cell_length_a 11.665256
_cell_length_b 28.732460
_cell_length_c 9.598150
_cell_angle_alpha 90.000000
_cell_angle_beta 90.000000
_cell_angle_gamma 90.000000
_cell_volume 3217.026346
_symmetry_space_group_name_H-M "P M M M"
_symmetry_group_IT_number 47
_symmetry_cell_setting 'orthorhombic'
loop_
_space_group_symop_operation_xyz
x,y,z
-x,-y,z
x,-y,-z
-x,y,-z
-x,-y,-z
x,y,-z
-x,y,z
x,-y,z
loop_
_atom_site_type_symbol
_atom_site_label
_atom_site_fract_x
_atom_site_fract_y
_atom_site_fract_z
Si Si1 0.636843 0.364267 0.341438
Si Si2 0.266947 0.906405 0.253388
Si Si3 0.636271 0.448173 0.156120
Si Si4 0.863702 0.945639 0.000000
Si Si5 0.125826 0.054144 0.500000
Si Si6 0.635688 0.278363 0.158637
Si Si7 0.366681 0.189145 0.337063
Si Si8 0.500000 0.945406 0.155343
O O1 0.684142 0.360905 0.500000
O O2 0.500000 0.363335 0.344588
O O3 0.683579 0.411603 0.269595
O O4 0.684215 0.321861 0.247217
O O5 0.186216 0.915382 0.123728
O O6 0.199877 0.932192 0.370969
O O7 0.284226 0.852261 0.287688
O O8 0.390282 0.929538 0.239982
O O9 0.500000 0.447068 0.157224
O O10 0.679747 0.500000 0.196214
O O11 0.678861 0.434938 0.000000
O O12 0.000000 0.944359 0.000000
O O13 0.821575 0.000000 0.000000
O O14 0.000000 0.078526 0.500000
O O15 0.105043 0.000000 0.500000
O O16 0.500000 0.282107 0.150415
O O17 0.671933 0.232356 0.242443
O O18 0.685508 0.277907 0.000000
O O19 0.347000 0.200717 0.500000
O O20 0.500000 0.176343 0.310570
O O21 0.500000 0.000000 0.141702
O O22 0.500000 0.922940 0.000000
#
# Coordination Sequence:
#
# PCOD8197932 Si02
#       8
#     8   8   8   4   4   8   8   4
#     4   9  15  22  32  48  69  97 132 174 223 274
#     4  12  22  37  57  79 104 131 159 197 242 288
#     4   8  13  20  29  41  61  90 128 176 226 272
#     4  11  24  41  59  77  99 132 169 199 230 275
#     4  11  24  41  59  79 103 132 167 201 234 281
#     4   9  17  27  42  58  77 107 143 177 216 274
#     4  10  20  34  47  68  97 122 145 180 234 290
#     4  11  22  35  53  79 107 131 157 193 238 289
#
# _framework density 16.163996000000001
#
# number of rings (size 3 to 8) (size 9 to 14) (size 15 to 20)
#    0.000    2.077    2.308    3.231    1.077    5.538 
#    0.000    2.308    0.000    0.000    0.000    0.000 
#    0.000    0.000    0.000    0.000    0.000    0.000 
#
# Total GULP energy -644479.957268 kJ/mol
# GULP energy per Si atom -12393.845332 kJ/mol
# Density = 1.612721 g / cm^3
# Si number density = 16.163996 Si / 1000 Ang^3
#
#
#
# Elastic Constant Matrix: (Units=GPa)
#
#
# Indices 1 2 3 4 5 6 
#
# 1 56.8329 21.7927 33.5992 0.0000 0.0000 0.0000
# 2 21.7927 112.5512 70.2672 0.0000 0.0000 0.0000
# 3 33.5992 70.2672 155.0294 0.0000 0.0000 0.0000
# 4 0.0000 0.0000 0.0000 34.9662 0.0000 0.0000
# 5 0.0000 0.0000 0.0000 0.0000 26.6831 0.0000
# 6 0.0000 0.0000 0.0000 0.0000 0.0000 8.9306
#
#
#
# Elastic Compliance Matrix: (Units=1/GPa)
#
#
# Indices 1 2 3 4 5 6 
#
# 1 0.020401 -0.001659 -0.003669 0.000000 0.000000 0.000000
# 2 -0.001659 0.012526 -0.005318 0.000000 0.000000 0.000000
# 3 -0.003669 -0.005318 0.009656 0.000000 0.000000 0.000000
# 4 0.000000 0.000000 0.000000 0.028599 0.000000 0.000000
# 5 0.000000 0.000000 0.000000 0.000000 0.037477 0.000000
# 6 0.000000 0.000000 0.000000 0.000000 0.000000 0.111974
#
#
# Mechanical properties :
#
#
# Convention : Reuss Voigt Hill
#
# Bulk Modulus (GPa) = 46.97035 63.97019 55.47027
# Shear Modulus (GPa) = 20.07846 27.36628 23.72237
#
# Velocity S-wave (km/s) = 3.52827 4.11912 3.83509
# Velocity P-wave (km/s) = 6.76165 7.89205 7.34862
#
# Compressibility (1/GPa) = 0.02129003
#
# Stress axis : x y z
#
# Youngs Moduli (GPa) = 49.01715 79.83311 103.56288
#
# Poissons Ratio (x) = 0.13247 0.38001
# Poissons Ratio (y) = 0.08133 0.55073
# Poissons Ratio (z) = 0.17986 0.42454
#
# Static dielectric constant tensor:
#      x y z
#    x 2.556900 0.000000 0.000000 
#    y 0.000000 3.247280 0.000000 
#    z 0.000000 0.000000 3.328680 
# 
# 
# High freq. dielectric constant tensor:
#      x y z
#    x 1.548850 0.000000 0.000000 
#    y 0.000000 1.627720 0.000000 
#    z 0.000000 0.000000 1.643670 
# 
# From -- ./inp_files/4857.got.cif
#   From: 2010.03.12/outbox.cif.g09.slc.cpg/sg47_3_cif.got.tgz:4857.got - 2010.04.14 03:12:58.
