data_PCOD8197909
_publ_section_title
;
Structure prediction by ZEFSAII (Michael W. Deem and Ramdas Pophale) SiO2 
 PCOD8197909
Probable space group: P M M M
;
_chemical_formula_sum "Si O2"
_cell_formula_units_Z 48
_cell_length_a 12.617580
_cell_length_b 15.663311
_cell_length_c 11.996267
_cell_angle_alpha 90.000000
_cell_angle_beta 90.000000
_cell_angle_gamma 90.000000
_cell_volume 2370.859191
_symmetry_space_group_name_H-M "P M M M"
_symmetry_group_IT_number 47
_symmetry_cell_setting 'orthorhombic'
loop_
_space_group_symop_operation_xyz
x,y,z
-x,-y,z
x,-y,-z
-x,y,-z
-x,-y,-z
x,y,-z
-x,y,z
x,-y,z
loop_
_atom_site_type_symbol
_atom_site_label
_atom_site_fract_x
_atom_site_fract_y
_atom_site_fract_z
Si Si1 0.374539 0.409803 0.375970
Si Si2 0.878345 0.100283 0.000000
Si Si3 0.622711 0.775505 0.632188
Si Si4 0.876904 0.656052 0.731769
Si Si5 0.804397 0.844616 0.765618
Si Si6 0.120131 0.600355 0.500000
Si Si7 0.879800 0.000000 0.378854
Si Si8 0.873194 0.500000 0.124184
O O1 0.323288 0.413488 0.500000
O O2 0.500000 0.405678 0.391564
O O3 0.343357 0.500000 0.313388
O O4 0.344932 0.319085 0.318781
O O5 0.808377 0.128878 0.894428
O O6 0.000000 0.138060 0.000000
O O7 0.888871 0.000000 0.000000
O O8 0.651476 0.783623 0.500000
O O9 0.500000 0.796858 0.649605
O O10 0.686846 0.839764 0.712038
O O11 0.862951 0.754127 0.762297
O O12 0.821776 0.635666 0.611801
O O13 0.828916 0.587129 0.818452
O O14 0.000000 0.634635 0.722187
O O15 0.861575 0.915277 0.692211
O O16 0.116980 0.500000 0.500000
O O17 0.000000 0.637070 0.500000
O O18 0.818476 0.000000 0.500000
O O19 0.000000 0.000000 0.411023
O O20 0.000000 0.500000 0.122483
O O21 0.826699 0.500000 0.000000
#
# Coordination Sequence:
#
# PCOD8197909 Si02
#       8
#     8   4   8   8   8   4   4   4
#     4   7  10  21  45  76 112 156 201 245 295 347
#     4  11  24  46  71  92 120 157 203 264 322 376
#     4   9  19  37  60  89 127 167 207 254 308 367
#     4  10  20  33  53  81 115 156 199 247 306 369
#     4  12  24  40  63  91 120 158 210 255 309 371
#     4   9  16  30  48  71 114 162 195 233 298 373
#     4  11  24  41  62  92 127 155 189 248 316 386
#     4   9  18  33  51  75 112 158 202 248 295 353
#
# _framework density 20.245823000000001
#
# number of rings (size 3 to 8) (size 9 to 14) (size 15 to 20)
#    0.000    2.333    1.667    3.500    3.500    0.000 
#    1.500    0.833    0.000    2.000    0.000    0.000 
#    0.000    3.333    0.000    0.000    0.000    0.000 
#
# Total GULP energy -594641.373484 kJ/mol
# GULP energy per Si atom -12388.361948 kJ/mol
# Density = 2.019974 g / cm^3
# Si number density = 20.245823 Si / 1000 Ang^3
#
#
#
# Elastic Constant Matrix: (Units=GPa)
#
#
# Indices 1 2 3 4 5 6 
#
# 1 64.9668 23.4323 38.0144 0.0000 0.0000 0.0000
# 2 23.4323 131.7740 67.5290 0.0000 0.0000 0.0000
# 3 38.0144 67.5290 163.4178 0.0000 0.0000 0.0000
# 4 0.0000 0.0000 0.0000 30.0278 0.0000 0.0000
# 5 0.0000 0.0000 0.0000 0.0000 21.1422 0.0000
# 6 0.0000 0.0000 0.0000 0.0000 0.0000 24.8592
#
#
#
# Elastic Compliance Matrix: (Units=1/GPa)
#
#
# Indices 1 2 3 4 5 6 
#
# 1 0.018002 -0.001339 -0.003634 0.000000 0.000000 0.000000
# 2 -0.001339 0.009727 -0.003708 0.000000 0.000000 0.000000
# 3 -0.003634 -0.003708 0.008497 0.000000 0.000000 0.000000
# 4 0.000000 0.000000 0.000000 0.033302 0.000000 0.000000
# 5 0.000000 0.000000 0.000000 0.000000 0.047299 0.000000
# 6 0.000000 0.000000 0.000000 0.000000 0.000000 0.040227
#
#
# Mechanical properties :
#
#
# Convention : Reuss Voigt Hill
#
# Bulk Modulus (GPa) = 53.01203 68.67890 60.84546
# Shear Modulus (GPa) = 27.66954 30.61804 29.14379
#
# Velocity S-wave (km/s) = 3.70087 3.89307 3.79819
# Velocity P-wave (km/s) = 6.67105 7.36234 7.02521
#
# Compressibility (1/GPa) = 0.01886364
#
# Stress axis : x y z
#
# Youngs Moduli (GPa) = 55.54950 102.80618 117.68808
#
# Poissons Ratio (x) = 0.13762 0.42774
# Poissons Ratio (y) = 0.07436 0.43640
# Poissons Ratio (z) = 0.20189 0.38122
#
# Static dielectric constant tensor:
#      x y z
#    x 3.687900 0.000000 0.000000 
#    y 0.000000 15.256140 0.000000 
#    z 0.000000 0.000000 3.604910 
# 
# 
# High freq. dielectric constant tensor:
#      x y z
#    x 1.794830 0.000000 0.000000 
#    y 0.000000 1.797260 0.000000 
#    z 0.000000 0.000000 1.761550 
# 
# From -- ./inp_files/17629.got.cif
#   From: 2010.03.12/outbox.cif.g09.slc.cpg/sg47_9_cif.got.tgz:17629.got - 2010.04.14 03:12:58.
