data_PCOD8197819
_publ_section_title
;
Structure prediction by ZEFSAII (Michael W. Deem and Ramdas Pophale) SiO2 
 PCOD8197819
Probable space group: P M M M
;
_chemical_formula_sum "Si O2"
_cell_formula_units_Z 40
_cell_length_a 9.308519
_cell_length_b 9.043146
_cell_length_c 26.045731
_cell_angle_alpha 90.000000
_cell_angle_beta 90.000000
_cell_angle_gamma 90.000000
_cell_volume 2192.485263
_symmetry_space_group_name_H-M "P M M M"
_symmetry_group_IT_number 47
_symmetry_cell_setting 'orthorhombic'
loop_
_space_group_symop_operation_xyz
x,y,z
-x,-y,z
x,-y,-z
-x,y,-z
-x,-y,-z
x,y,-z
-x,y,z
x,-y,z
loop_
_atom_site_type_symbol
_atom_site_label
_atom_site_fract_x
_atom_site_fract_y
_atom_site_fract_z
Si Si1 0.328916 0.167108 0.000000
Si Si2 0.666359 0.674941 0.592042
Si Si3 0.839114 0.324414 0.689740
Si Si4 0.667350 0.327816 0.899120
Si Si5 0.832561 0.825262 0.500000
Si Si6 0.162231 0.324731 0.197351
O O1 0.268652 0.246987 0.949166
O O2 0.500000 0.177146 0.000000
O O3 0.273162 0.000000 0.000000
O O4 0.500000 0.720205 0.587799
O O5 0.686297 0.500000 0.584566
O O6 0.726127 0.729745 0.647111
O O7 0.757623 0.758171 0.549631
O O8 0.843514 0.500000 0.690878
O O9 0.789744 0.266179 0.746131
O O10 0.000000 0.265527 0.676905
O O11 0.500000 0.297355 0.893322
O O12 0.702376 0.500000 0.905647
O O13 0.739334 0.259145 0.847935
O O14 0.000000 0.781230 0.500000
O O15 0.811132 0.000000 0.500000
O O16 0.175943 0.500000 0.196893
O O17 0.000000 0.274432 0.186535
#
# Coordination Sequence:
#
# PCOD8197819 Si02
#       6
#     4   8   8   8   4   8
#     4   9  17  29  44  61  84 116 150 183 224 276
#     4  10  20  33  52  79 106 130 160 200 244 288
#     4   8  14  26  45  69  97 127 156 188 229 277
#     4   9  16  26  43  66  88 111 145 189 229 265
#     4  11  24  39  54  72  96 131 172 207 242 288
#     4   8  14  25  42  66  95 123 150 183 226 273
#
# _framework density 18.244136000000001
#
# number of rings (size 3 to 8) (size 9 to 14) (size 15 to 20)
#    0.000    3.000    0.000    2.700    0.000    5.200 
#    0.000    4.500    0.000    4.800    0.000    5.600 
#    0.000    0.000    0.000    0.000    0.000    0.000 
#
# Total GULP energy -495781.524951 kJ/mol
# GULP energy per Si atom -12394.538124 kJ/mol
# Density = 1.820261 g / cm^3
# Si number density = 18.244136 Si / 1000 Ang^3
#
#
#
# Elastic Constant Matrix: (Units=GPa)
#
#
# Indices 1 2 3 4 5 6 
#
# 1 102.3809 38.1327 91.3577 0.0000 0.0000 0.0000
# 2 38.1327 37.9879 48.9733 0.0000 0.0000 0.0000
# 3 91.3577 48.9733 200.8557 0.0000 0.0000 0.0000
# 4 0.0000 0.0000 0.0000 -1.8888 0.0000 0.0000
# 5 0.0000 0.0000 0.0000 0.0000 36.8252 0.0000
# 6 0.0000 0.0000 0.0000 0.0000 0.0000 13.4455
#
#
#
# Elastic Compliance Matrix: (Units=1/GPa)
#
#
# Indices 1 2 3 4 5 6 
#
# 1 0.019541 -0.011897 -0.005988 0.000000 0.000000 0.000000
# 2 -0.011897 0.045635 -0.005716 0.000000 0.000000 0.000000
# 3 -0.005988 -0.005716 0.009096 0.000000 0.000000 0.000000
# 4 0.000000 0.000000 0.000000 -0.529435 0.000000 0.000000
# 5 0.000000 0.000000 0.000000 0.000000 0.027155 0.000000
# 6 0.000000 0.000000 0.000000 0.000000 0.000000 0.074374
#
#
# Mechanical properties :
#
#
# Convention : Reuss Voigt Hill
#
# Bulk Modulus (GPa) = 36.93862 77.57243 57.25553
# Shear Modulus (GPa) = -16.81188 20.52709 1.85761
#
# Velocity S-wave (km/s) = -3.03891 3.35794 1.01015
# Velocity P-wave (km/s) = 2.82445 7.59248 5.72814
#
# Compressibility (1/GPa) = 0.02707194
#
# Stress axis : x y z
#
# Youngs Moduli (GPa) = 51.17336 21.91300 109.94206
#
# Poissons Ratio (x) = 0.26070 0.65828
# Poissons Ratio (y) = 0.60880 0.62839
# Poissons Ratio (z) = 0.30640 0.12525
#
# Static dielectric constant tensor:
#      x y z
#    x 3.341890 0.000000 0.000000 
#    y 0.000000 2.919980 0.000000 
#    z 0.000000 0.000000 4.047890 
# 
# 
# High freq. dielectric constant tensor:
#      x y z
#    x 1.694450 0.000000 0.000000 
#    y 0.000000 1.655370 0.000000 
#    z 0.000000 0.000000 1.730030 
# 
# From -- ./inp_files/33015.got.cif
#   From: 2010.03.12/outbox.cif.g09.slc.cpg/sg47_17_cif.got.tgz:33015.got - 2010.04.14 03:12:58.
