data_PCOD8197444
_publ_section_title
;
Structure prediction by ZEFSAII (Michael W. Deem and Ramdas Pophale) SiO2 
 PCOD8197444
Probable space group: P M M M
;
_chemical_formula_sum "Si O2"
_cell_formula_units_Z 64
_cell_length_a 8.696138
_cell_length_b 14.370625
_cell_length_c 28.128489
_cell_angle_alpha 90.000000
_cell_angle_beta 90.000000
_cell_angle_gamma 90.000000
_cell_volume 3515.187402
_symmetry_space_group_name_H-M "P M M M"
_symmetry_group_IT_number 47
_symmetry_cell_setting 'orthorhombic'
loop_
_space_group_symop_operation_xyz
x,y,z
-x,-y,z
x,-y,-z
-x,y,-z
-x,-y,-z
x,y,-z
-x,y,z
x,-y,z
loop_
_atom_site_type_symbol
_atom_site_label
_atom_site_fract_x
_atom_site_fract_y
_atom_site_fract_z
Si Si1 0.322876 0.894067 0.055012
Si Si2 0.178786 0.773350 0.866011
Si Si3 0.682689 0.604023 0.447194
Si Si4 0.179533 0.105520 0.316135
Si Si5 0.319021 0.726393 0.638883
Si Si6 0.323498 0.108767 0.783980
Si Si7 0.679144 0.394595 0.821179
Si Si8 0.177326 0.391656 0.720928
O O1 0.500000 0.882934 0.070254
O O2 0.220653 0.823297 0.084865
O O3 0.269687 0.000000 0.064865
O O4 0.300362 0.869043 0.000000
O O5 0.221225 0.838698 0.822076
O O6 0.268454 0.675036 0.862876
O O7 0.000000 0.751673 0.865380
O O8 0.735787 0.635676 0.500000
O O9 0.500000 0.601866 0.444292
O O10 0.745742 0.500000 0.436478
O O11 0.747849 0.675612 0.408151
O O12 0.236642 0.173296 0.357986
O O13 0.267633 0.135523 0.268459
O O14 0.000000 0.117732 0.306812
O O15 0.220271 0.000000 0.330910
O O16 0.500000 0.741992 0.635286
O O17 0.281735 0.664529 0.684562
O O18 0.500000 0.139711 0.789540
O O19 0.301991 0.000000 0.793363
O O20 0.500000 0.383273 0.810400
O O21 0.718617 0.500000 0.836862
O O22 0.771477 0.365815 0.774001
O O23 0.204715 0.500000 0.711032
O O24 0.000000 0.363085 0.714387
#
# Coordination Sequence:
#
# PCOD8197444 Si02
#       8
#     8   8   8   8   8   8   8   8
#     4   9  19  37  59  81 106 136 170 209 251 295
#     4  12  23  33  51  78 108 139 169 205 252 306
#     4   8  15  29  49  74 102 128 156 195 244 295
#     4  10  21  36  51  68  96 133 170 208 250 296
#     4  11  20  30  50  76 100 128 165 207 249 297
#     4  10  20  34  52  74 102 135 172 212 249 290
#     4  10  21  37  55  73  97 133 177 219 253 290
#     4  10  20  33  49  72 105 139 168 202 246 297
#
# _framework density 18.206709
#
# number of rings (size 3 to 8) (size 9 to 14) (size 15 to 20)
#    0.000    2.000    0.000    5.250    0.000    5.500 
#    0.000    0.625    0.000    2.250    0.000    9.625 
#    0.000    0.000    0.000    0.000    0.000    0.000 
#
# Total GULP energy -793761.492712 kJ/mol
# GULP energy per Si atom -12402.523324 kJ/mol
# Density = 1.816527 g / cm^3
# Si number density = 18.206709 Si / 1000 Ang^3
#
#
#
# Elastic Constant Matrix: (Units=GPa)
#
#
# Indices 1 2 3 4 5 6 
#
# 1 55.4233 28.7382 18.6087 0.0000 0.0000 0.0000
# 2 28.7382 98.0615 65.9480 0.0000 0.0000 0.0000
# 3 18.6087 65.9480 78.9187 0.0000 0.0000 0.0000
# 4 0.0000 0.0000 0.0000 32.0645 0.0000 0.0000
# 5 0.0000 0.0000 0.0000 0.0000 8.9285 0.0000
# 6 0.0000 0.0000 0.0000 0.0000 0.0000 28.0061
#
#
#
# Elastic Compliance Matrix: (Units=1/GPa)
#
#
# Indices 1 2 3 4 5 6 
#
# 1 0.021283 -0.006535 0.000442 0.000000 0.000000 0.000000
# 2 -0.006535 0.025288 -0.019591 0.000000 0.000000 0.000000
# 3 0.000442 -0.019591 0.028938 0.000000 0.000000 0.000000
# 4 0.000000 0.000000 0.000000 0.031187 0.000000 0.000000
# 5 0.000000 0.000000 0.000000 0.000000 0.112001 0.000000
# 6 0.000000 0.000000 0.000000 0.000000 0.000000 0.035707
#
#
# Mechanical properties :
#
#
# Convention : Reuss Voigt Hill
#
# Bulk Modulus (GPa) = 41.42122 50.99924 46.21023
# Shear Modulus (GPa) = 15.93280 21.74037 18.83658
#
# Velocity S-wave (km/s) = 2.96143 3.45930 3.22000
# Velocity P-wave (km/s) = 5.87310 6.63534 6.26582
#
# Compressibility (1/GPa) = 0.02414222
#
# Stress axis : x y z
#
# Youngs Moduli (GPa) = 46.98621 39.54451 34.55658
#
# Poissons Ratio (x) = 0.25841 -0.01528
# Poissons Ratio (y) = 0.30704 0.67700
# Poissons Ratio (z) = -0.02078 0.77471
#
# Static dielectric constant tensor:
#      x y z
#    x 3.281100 0.000000 0.000000 
#    y 0.000000 3.557640 0.000000 
#    z 0.000000 0.000000 3.304250 
# 
# 
# High freq. dielectric constant tensor:
#      x y z
#    x 1.703650 0.000000 0.000000 
#    y 0.000000 1.711290 0.000000 
#    z 0.000000 0.000000 1.684120 
# 
# From -- ./inp_files/32152.got.cif
#   From: 2010.03.12/outbox.cif.g09.slc.cpg/sg47_17_cif.got.tgz:32152.got - 2010.04.14 03:12:58.
