data_PCOD8197529
_publ_section_title
;
Structure prediction by ZEFSAII (Michael W. Deem and Ramdas Pophale) SiO2 
 PCOD8197529
Probable space group: P M M M
;
_chemical_formula_sum "Si O2"
_cell_formula_units_Z 48
_cell_length_a 8.970215
_cell_length_b 9.110239
_cell_length_c 31.065065
_cell_angle_alpha 90.000000
_cell_angle_beta 90.000000
_cell_angle_gamma 90.000000
_cell_volume 2538.662042
_symmetry_space_group_name_H-M "P M M M"
_symmetry_group_IT_number 47
_symmetry_cell_setting 'orthorhombic'
loop_
_space_group_symop_operation_xyz
x,y,z
-x,-y,z
x,-y,-z
-x,y,-z
-x,-y,-z
x,y,-z
-x,y,z
x,-y,z
loop_
_atom_site_type_symbol
_atom_site_label
_atom_site_fract_x
_atom_site_fract_y
_atom_site_fract_z
Si Si1 0.326515 0.330297 0.667000
Si Si2 0.174415 0.670132 0.578482
Si Si3 0.169350 0.825735 0.255285
Si Si4 0.670981 0.173416 0.500000
Si Si5 0.831713 0.175078 0.915032
Si Si6 0.331788 0.824973 0.000000
Si Si7 0.668167 0.825178 0.169811
O O1 0.500000 0.297599 0.660435
O O2 0.295667 0.500000 0.677320
O O3 0.241684 0.281169 0.624014
O O4 0.266029 0.234793 0.705864
O O5 0.208183 0.500000 0.568980
O O6 0.249851 0.766155 0.542101
O O7 0.000000 0.703179 0.579032
O O8 0.239865 0.767260 0.210819
O O9 0.000000 0.768221 0.258428
O O10 0.175103 0.000000 0.257084
O O11 0.500000 0.224935 0.500000
O O12 0.685842 0.000000 0.500000
O O13 0.745434 0.236243 0.873317
O O14 0.000000 0.235051 0.914143
O O15 0.830737 0.000000 0.914941
O O16 0.751340 0.235713 0.957742
O O17 0.500000 0.764886 0.000000
O O18 0.330659 0.000000 0.000000
O O19 0.500000 0.764021 0.172329
O O20 0.667480 0.000000 0.168990
#
# Coordination Sequence:
#
# PCOD8197529 Si02
#       7
#     8   8   8   4   8   4   8
#     4  10  21  37  57  80 105 135 171 210 253 300
#     4  10  21  38  60  83 106 136 174 212 252 300
#     4  10  20  33  50  73 100 131 167 206 250 300
#     4  11  24  39  56  82 114 145 176 211 252 296
#     4   9  15  22  32  47  70 102 142 188 236 287
#     4   9  15  21  29  43  65  97 140 187 234 285
#     4   9  16  26  40  58  82 114 152 194 240 291
#
# _framework density 18.907599000000001
#
# number of rings (size 3 to 8) (size 9 to 14) (size 15 to 20)
#    0.000    2.333    0.000    3.250    0.000   10.333 
#    0.000    0.000    0.000    0.000    0.000    0.000 
#    0.000    0.000    0.000    0.750    0.000   14.667 
#
# Total GULP energy -595306.878181 kJ/mol
# GULP energy per Si atom -12402.226629 kJ/mol
# Density = 1.886456 g / cm^3
# Si number density = 18.907599 Si / 1000 Ang^3
#
#
#
# Elastic Constant Matrix: (Units=GPa)
#
#
# Indices 1 2 3 4 5 6 
#
# 1 144.3967 28.2119 76.0461 0.0000 0.0000 0.0000
# 2 28.2119 19.7972 31.8141 0.0000 0.0000 0.0000
# 3 76.0461 31.8141 169.2422 0.0000 0.0000 0.0000
# 4 0.0000 0.0000 0.0000 -2.3572 0.0000 0.0000
# 5 0.0000 0.0000 0.0000 0.0000 46.1271 0.0000
# 6 0.0000 0.0000 0.0000 0.0000 0.0000 18.9457
#
#
#
# Elastic Compliance Matrix: (Units=1/GPa)
#
#
# Indices 1 2 3 4 5 6 
#
# 1 0.010394 -0.010469 -0.002702 0.000000 0.000000 0.000000
# 2 -0.010469 0.082920 -0.010883 0.000000 0.000000 0.000000
# 3 -0.002702 -0.010883 0.009169 0.000000 0.000000 0.000000
# 4 0.000000 0.000000 0.000000 -0.424232 0.000000 0.000000
# 5 0.000000 0.000000 0.000000 0.000000 0.021679 0.000000
# 6 0.000000 0.000000 0.000000 0.000000 0.000000 0.052782
#
#
# Mechanical properties :
#
#
# Convention : Reuss Voigt Hill
#
# Bulk Modulus (GPa) = 18.39127 67.28671 42.83899
# Shear Modulus (GPa) = -27.61614 25.70073 -0.95770
#
# Velocity S-wave (km/s) = -3.82590 3.69084 -0.71247
# Velocity P-wave (km/s) = 3.12549 7.33672 4.69355
#
# Compressibility (1/GPa) = 0.05437362
#
# Stress axis : x y z
#
# Youngs Moduli (GPa) = 96.20931 12.05977 109.06569
#
# Poissons Ratio (x) = 0.12626 0.29474
# Poissons Ratio (y) = 1.00723 1.18699
# Poissons Ratio (z) = 0.25999 0.13125
#
# Static dielectric constant tensor:
#      x y z
#    x 3.749640 0.000000 0.000000 
#    y 0.000000 2.917220 0.000000 
#    z 0.000000 0.000000 3.604690 
# 
# 
# High freq. dielectric constant tensor:
#      x y z
#    x 1.757490 0.000000 0.000000 
#    y 0.000000 1.673630 0.000000 
#    z 0.000000 0.000000 1.754330 
# 
# From -- ./inp_files/34075.got.cif
#   From: 2010.03.12/outbox.cif.g09.slc.cpg/sg47_18_cif.got.tgz:34075.got - 2010.04.14 03:12:58.
