data_PCOD8197054
_publ_section_title
;
Structure prediction by ZEFSAII (Michael W. Deem and Ramdas Pophale) SiO2 
 PCOD8197054
Probable space group: P M M M
;
_chemical_formula_sum "Si O2"
_cell_formula_units_Z 36
_cell_length_a 9.098893
_cell_length_b 23.389635
_cell_length_c 9.005902
_cell_angle_alpha 90.000000
_cell_angle_beta 90.000000
_cell_angle_gamma 90.000000
_cell_volume 1916.634138
_symmetry_space_group_name_H-M "P M M M"
_symmetry_group_IT_number 47
_symmetry_cell_setting 'orthorhombic'
loop_
_space_group_symop_operation_xyz
x,y,z
-x,-y,z
x,-y,-z
-x,y,-z
-x,-y,-z
x,y,-z
-x,y,z
x,-y,z
loop_
_atom_site_type_symbol
_atom_site_label
_atom_site_fract_x
_atom_site_fract_y
_atom_site_fract_z
Si Si1 0.166234 0.000000 0.677229
Si Si2 0.333900 0.327538 0.176499
Si Si3 0.835076 0.562991 0.176459
Si Si4 0.334067 0.888772 0.676718
Si Si5 0.828665 0.775488 0.673118
O O1 0.249195 0.944096 0.739334
O O2 0.166682 0.000000 0.500000
O O3 0.000000 0.000000 0.737803
O O4 0.500000 0.319578 0.234286
O O5 0.274278 0.388392 0.237553
O O6 0.231248 0.278301 0.238673
O O7 0.326913 0.325479 0.000000
O O8 0.783230 0.500000 0.231866
O O9 0.000000 0.575516 0.234743
O O10 0.835159 0.563943 0.000000
O O11 0.333773 0.890567 0.500000
O O12 0.500000 0.888915 0.738731
O O13 0.252436 0.832015 0.733410
O O14 0.796714 0.766115 0.500000
O O15 0.000000 0.782884 0.705773
#
# Coordination Sequence:
#
# PCOD8197054 Si02
#       5
#     4   8   8   8   8
#     4   9  15  23  37  59  88 119 152 191 232 275
#     4  10  20  32  48  72  99 126 157 193 234 280
#     4   8  14  26  45  68  93 121 153 190 232 276
#     4   9  16  26  41  62  89 120 153 191 236 281
#     4  10  20  33  49  69  94 126 162 197 236 282
#
# _framework density 18.782927999999998
#
# number of rings (size 3 to 8) (size 9 to 14) (size 15 to 20)
#    0.000    2.778    0.000    3.000    0.000    7.111 
#    0.000    2.222    0.000    0.667    0.000    5.444 
#    0.000    6.222    0.000    0.000    0.000    0.000 
#
# Total GULP energy -446323.890460 kJ/mol
# GULP energy per Si atom -12397.885846 kJ/mol
# Density = 1.874018 g / cm^3
# Si number density = 18.782928 Si / 1000 Ang^3
#
#
#
# Elastic Constant Matrix: (Units=GPa)
#
#
# Indices 1 2 3 4 5 6 
#
# 1 140.9841 80.0696 16.6068 0.0000 0.0000 0.0000
# 2 80.0696 171.7082 17.4686 0.0000 0.0000 0.0000
# 3 16.6068 17.4686 8.8155 0.0000 0.0000 0.0000
# 4 0.0000 0.0000 0.0000 23.7721 0.0000 0.0000
# 5 0.0000 0.0000 0.0000 0.0000 16.6100 0.0000
# 6 0.0000 0.0000 0.0000 0.0000 0.0000 40.7996
#
#
#
# Elastic Compliance Matrix: (Units=1/GPa)
#
#
# Indices 1 2 3 4 5 6 
#
# 1 0.010698 -0.003680 -0.012860 0.000000 0.000000 0.000000
# 2 -0.003680 0.008560 -0.010030 0.000000 0.000000 0.000000
# 3 -0.012860 -0.010030 0.157539 0.000000 0.000000 0.000000
# 4 0.000000 0.000000 0.000000 0.042066 0.000000 0.000000
# 5 0.000000 0.000000 0.000000 0.000000 0.060205 0.000000
# 6 0.000000 0.000000 0.000000 0.000000 0.000000 0.024510
#
#
# Mechanical properties :
#
#
# Convention : Reuss Voigt Hill
#
# Bulk Modulus (GPa) = 8.08696 61.08864 34.58780
# Shear Modulus (GPa) = 12.56476 30.06054 21.31265
#
# Velocity S-wave (km/s) = 2.58920 4.00486 3.37216
# Velocity P-wave (km/s) = 3.64053 7.34706 5.79797
#
# Compressibility (1/GPa) = 0.12365580
#
# Stress axis : x y z
#
# Youngs Moduli (GPa) = 93.47557 116.81695 6.34764
#
# Poissons Ratio (x) = 0.42992 0.08163
# Poissons Ratio (y) = 0.34401 0.06367
# Poissons Ratio (z) = 1.20213 1.17170
#
# Static dielectric constant tensor:
#      x y z
#    x 3.694800 0.000000 0.000000 
#    y 0.000000 3.779310 0.000000 
#    z 0.000000 0.000000 2.762530 
# 
# 
# High freq. dielectric constant tensor:
#      x y z
#    x 1.743320 0.000000 0.000000 
#    y 0.000000 1.750300 0.000000 
#    z 0.000000 0.000000 1.654660 
# 
# From -- ./inp_files/1437.got.cif
#   From: 2010.03.12/outbox.cif.g09.slc.cpg/sg47_1_cif.got.tgz:1437.got - 2010.04.14 03:12:58.
