data_PCOD8197200
_publ_section_title
;
Structure prediction by ZEFSAII (Michael W. Deem and Ramdas Pophale) SiO2 
 PCOD8197200
Probable space group: P M M M
;
_chemical_formula_sum "Si O2"
_cell_formula_units_Z 60
_cell_length_a 12.824488
_cell_length_b 20.030862
_cell_length_c 12.870517
_cell_angle_alpha 90.000000
_cell_angle_beta 90.000000
_cell_angle_gamma 90.000000
_cell_volume 3306.249830
_symmetry_space_group_name_H-M "P M M M"
_symmetry_group_IT_number 47
_symmetry_cell_setting 'orthorhombic'
loop_
_space_group_symop_operation_xyz
x,y,z
-x,-y,z
x,-y,-z
-x,y,-z
-x,-y,-z
x,y,-z
-x,y,z
x,-y,z
loop_
_atom_site_type_symbol
_atom_site_label
_atom_site_fract_x
_atom_site_fract_y
_atom_site_fract_z
Si Si1 0.113699 0.191812 0.246472
Si Si2 0.383074 0.074413 0.233838
Si Si3 0.828480 0.317866 0.379014
Si Si4 0.000000 0.576004 0.377365
Si Si5 0.313509 0.802740 0.879892
Si Si6 0.620404 0.686355 0.265318
Si Si7 0.623459 0.426767 0.885839
Si Si8 0.197845 0.923147 0.379723
O O1 0.124742 0.254759 0.321013
O O2 0.192083 0.196220 0.149764
O O3 0.122377 0.124458 0.314606
O O4 0.000000 0.191876 0.195352
O O5 0.500000 0.083525 0.273922
O O6 0.359522 0.123644 0.138206
O O7 0.313753 0.089141 0.335318
O O8 0.362468 0.000000 0.190637
O O9 0.846116 0.306924 0.500000
O O10 0.702762 0.318338 0.359534
O O11 0.894279 0.383755 0.342808
O O12 0.000000 0.500000 0.329770
O O13 0.000000 0.569311 0.500000
O O14 0.375231 0.753575 0.802542
O O15 0.328781 0.781849 0.000000
O O16 0.500000 0.676464 0.303752
O O17 0.664864 0.627496 0.193272
O O18 0.500000 0.422272 0.892592
O O19 0.658297 0.500000 0.846982
O O20 0.670842 0.412632 0.000000
O O21 0.197420 0.902329 0.500000
O O22 0.162072 0.000000 0.365734
#
# Coordination Sequence:
#
# PCOD8197200 Si02
#       8
#     8   8   8   4   8   8   8   8
#     4  10  20  35  54  73  97 128 168 211 259 310
#     4   9  18  32  49  70  98 134 174 211 248 297
#     4  10  20  34  53  76 102 135 174 212 254 300
#     4   9  18  34  56  78  98 128 176 223 252 282
#     4  10  21  35  51  73 100 130 167 214 262 306
#     4  10  20  32  49  76 108 137 167 205 254 310
#     4   8  14  26  45  68  94 126 163 199 236 285
#     4   9  18  31  48  74 104 132 165 207 255 305
#
# _framework density 18.147449999999999
#
# number of rings (size 3 to 8) (size 9 to 14) (size 15 to 20)
#    0.000    2.600    0.667    1.600    0.000    4.267 
#    0.000    2.667    0.000    4.800    0.000    7.467 
#    0.000    4.267    0.000    0.000    0.000    0.000 
#
# Total GULP energy -743572.230227 kJ/mol
# GULP energy per Si atom -12392.870504 kJ/mol
# Density = 1.810615 g / cm^3
# Si number density = 18.147450 Si / 1000 Ang^3
#
#
#
# Elastic Constant Matrix: (Units=GPa)
#
#
# Indices 1 2 3 4 5 6 
#
# 1 98.7950 20.3159 3.0068 0.0000 0.0000 0.0000
# 2 20.3159 90.0738 7.4880 0.0000 0.0000 0.0000
# 3 3.0068 7.4880 35.4594 0.0000 0.0000 0.0000
# 4 0.0000 0.0000 0.0000 22.9364 0.0000 0.0000
# 5 0.0000 0.0000 0.0000 0.0000 8.6472 0.0000
# 6 0.0000 0.0000 0.0000 0.0000 0.0000 23.0789
#
#
#
# Elastic Compliance Matrix: (Units=1/GPa)
#
#
# Indices 1 2 3 4 5 6 
#
# 1 0.010620 -0.002362 -0.000402 0.000000 0.000000 0.000000
# 2 -0.002362 0.011826 -0.002297 0.000000 0.000000 0.000000
# 3 -0.000402 -0.002297 0.028720 0.000000 0.000000 0.000000
# 4 0.000000 0.000000 0.000000 0.043599 0.000000 0.000000
# 5 0.000000 0.000000 0.000000 0.000000 0.115644 0.000000
# 6 0.000000 0.000000 0.000000 0.000000 0.000000 0.043330
#
#
# Mechanical properties :
#
#
# Convention : Reuss Voigt Hill
#
# Bulk Modulus (GPa) = 24.36368 31.77219 28.06794
# Shear Modulus (GPa) = 18.01536 23.83368 20.92452
#
# Velocity S-wave (km/s) = 3.15417 3.62793 3.39931
# Velocity P-wave (km/s) = 5.16910 5.92410 5.55943
#
# Compressibility (1/GPa) = 0.04104470
#
# Stress axis : x y z
#
# Youngs Moduli (GPa) = 94.16297 84.56180 34.81849
#
# Poissons Ratio (x) = 0.19972 0.01399
# Poissons Ratio (y) = 0.22240 0.07998
# Poissons Ratio (z) = 0.03783 0.19424
#
# Static dielectric constant tensor:
#      x y z
#    x 3.340430 0.000000 0.000000 
#    y 0.000000 3.706800 0.000000 
#    z 0.000000 0.000000 3.117010 
# 
# 
# High freq. dielectric constant tensor:
#      x y z
#    x 1.695920 0.000000 0.000000 
#    y 0.000000 1.718300 0.000000 
#    z 0.000000 0.000000 1.672660 
# 
# From -- ./inp_files/16598.got.cif
#   From: 2010.03.12/outbox.cif.g09.slc.cpg/sg47_9_cif.got.tgz:16598.got - 2010.04.14 03:12:58.
