data_PCOD8197294
_publ_section_title
;
Structure prediction by ZEFSAII (Michael W. Deem and Ramdas Pophale) SiO2 
 PCOD8197294
Probable space group: P M M M
;
_chemical_formula_sum "Si O2"
_cell_formula_units_Z 36
_cell_length_a 11.577971
_cell_length_b 8.882954
_cell_length_c 20.678833
_cell_angle_alpha 90.000000
_cell_angle_beta 90.000000
_cell_angle_gamma 90.000000
_cell_volume 2126.747331
_symmetry_space_group_name_H-M "P M M M"
_symmetry_group_IT_number 47
_symmetry_cell_setting 'orthorhombic'
loop_
_space_group_symop_operation_xyz
x,y,z
-x,-y,z
x,-y,-z
-x,y,-z
-x,-y,-z
x,y,-z
-x,y,z
x,-y,z
loop_
_atom_site_type_symbol
_atom_site_label
_atom_site_fract_x
_atom_site_fract_y
_atom_site_fract_z
Si Si1 0.366020 0.823185 0.740582
Si Si2 0.245697 0.678556 0.379690
Si Si3 0.363592 0.829754 0.500000
Si Si4 0.362931 0.669033 0.871991
Si Si5 0.637907 0.830010 0.000000
Si Si6 0.000000 0.678077 0.572445
O O1 0.500000 0.782236 0.728781
O O2 0.288562 0.740274 0.688246
O O3 0.323581 0.765866 0.810338
O O4 0.345354 0.000000 0.736059
O O5 0.257465 0.500000 0.380778
O O6 0.322908 0.744036 0.436596
O O7 0.113491 0.732151 0.389304
O O8 0.500000 0.831000 0.500000
O O9 0.315162 0.000000 0.500000
O O10 0.500000 0.665176 0.876206
O O11 0.313282 0.500000 0.866308
O O12 0.312992 0.746150 0.936634
O O13 0.500000 0.828833 0.000000
O O14 0.684768 0.000000 0.000000
O O15 0.000000 0.500000 0.566326
O O16 0.000000 0.747630 0.500000
#
# Coordination Sequence:
#
# PCOD8197294 Si02
#       6
#     8   8   4   8   4   4
#     4  10  20  33  47  67  99 132 159 195 244 290
#     4  11  21  35  55  73  92 121 159 198 238 288
#     4  11  23  36  49  70 100 127 152 189 236 283
#     4   9  16  26  41  62  89 124 166 203 233 276
#     4   9  15  23  37  59  89 126 163 198 239 281
#     4   9  18  36  56  74  94 117 150 199 250 286
#
# _framework density 16.927256
#
# number of rings (size 3 to 8) (size 9 to 14) (size 15 to 20)
#    0.000    2.111    1.111    3.333    0.000    8.889 
#    0.000    2.778    0.000    0.000    0.000    0.000 
#    0.000    0.889    0.000    9.556    0.000    7.333 
#
# Total GULP energy -446422.708665 kJ/mol
# GULP energy per Si atom -12400.630796 kJ/mol
# Density = 1.688873 g / cm^3
# Si number density = 16.927256 Si / 1000 Ang^3
#
#
#
# Elastic Constant Matrix: (Units=GPa)
#
#
# Indices 1 2 3 4 5 6 
#
# 1 64.8113 37.1413 49.9345 0.0000 0.0000 0.0000
# 2 37.1413 104.2334 55.7511 0.0000 0.0000 0.0000
# 3 49.9345 55.7511 152.3623 0.0000 0.0000 0.0000
# 4 0.0000 0.0000 0.0000 34.7573 0.0000 0.0000
# 5 0.0000 0.0000 0.0000 0.0000 -1.4464 0.0000
# 6 0.0000 0.0000 0.0000 0.0000 0.0000 10.8232
#
#
#
# Elastic Compliance Matrix: (Units=1/GPa)
#
#
# Indices 1 2 3 4 5 6 
#
# 1 0.022625 -0.005093 -0.005552 0.000000 0.000000 0.000000
# 2 -0.005093 0.013075 -0.003115 0.000000 0.000000 0.000000
# 3 -0.005552 -0.003115 0.009523 0.000000 0.000000 0.000000
# 4 0.000000 0.000000 0.000000 0.028771 0.000000 0.000000
# 5 0.000000 0.000000 0.000000 0.000000 -0.691359 0.000000
# 6 0.000000 0.000000 0.000000 0.000000 0.000000 0.092394
#
#
# Mechanical properties :
#
#
# Convention : Reuss Voigt Hill
#
# Bulk Modulus (GPa) = 56.48532 67.45121 61.96826
# Shear Modulus (GPa) = -10.17187 20.73216 5.28014
#
# Velocity S-wave (km/s) = -2.45402 3.50348 1.76807
# Velocity P-wave (km/s) = 5.04106 7.50334 6.39188
#
# Compressibility (1/GPa) = 0.01770372
#
# Stress axis : x y z
#
# Youngs Moduli (GPa) = 44.19870 76.48361 105.01304
#
# Poissons Ratio (x) = 0.38950 0.58299
# Poissons Ratio (y) = 0.22509 0.32713
# Poissons Ratio (z) = 0.24537 0.23826
#
# Static dielectric constant tensor:
#      x y z
#    x 2.890930 0.000000 0.000000 
#    y 0.000000 3.336460 0.000000 
#    z 0.000000 0.000000 3.334010 
# 
# 
# High freq. dielectric constant tensor:
#      x y z
#    x 1.598630 0.000000 0.000000 
#    y 0.000000 1.665720 0.000000 
#    z 0.000000 0.000000 1.666400 
# 
# From -- ./inp_files/18860.got.cif
#   From: 2010.03.12/outbox.cif.g09.slc.cpg/sg47_10_cif.got.tgz:18860.got - 2010.04.14 03:12:58.
