data_PCOD8197853
_publ_section_title
;
Structure prediction by ZEFSAII (Michael W. Deem and Ramdas Pophale) SiO2 
 PCOD8197853
Probable space group: P M M M
;
_chemical_formula_sum "Si O2"
_cell_formula_units_Z 64
_cell_length_a 23.717094
_cell_length_b 15.538060
_cell_length_c 9.014602
_cell_angle_alpha 90.000000
_cell_angle_beta 90.000000
_cell_angle_gamma 90.000000
_cell_volume 3322.039761
_symmetry_space_group_name_H-M "P M M M"
_symmetry_group_IT_number 47
_symmetry_cell_setting 'orthorhombic'
loop_
_space_group_symop_operation_xyz
x,y,z
-x,-y,z
x,-y,-z
-x,y,-z
-x,-y,-z
x,y,-z
-x,y,z
x,-y,z
loop_
_atom_site_type_symbol
_atom_site_label
_atom_site_fract_x
_atom_site_fract_y
_atom_site_fract_z
Si Si1 0.565746 0.098416 0.328552
Si Si2 0.248825 0.747253 0.323081
Si Si3 0.062200 0.171789 0.329582
Si Si4 0.169648 0.594793 0.668812
Si Si5 0.823134 0.093018 0.325053
Si Si6 0.937441 0.350456 0.826189
Si Si7 0.566286 0.597847 0.669726
Si Si8 0.369540 0.749230 0.824495
O O1 0.579779 0.117487 0.500000
O O2 0.500000 0.113419 0.297740
O O3 0.600561 0.163234 0.227278
O O4 0.582395 0.000000 0.289225
O O5 0.256498 0.747505 0.500000
O O6 0.213421 0.664500 0.267557
O O7 0.216331 0.831603 0.261781
O O8 0.308548 0.743846 0.246488
O O9 0.070122 0.201434 0.500000
O O10 0.110965 0.105321 0.283930
O O11 0.070106 0.253387 0.226358
O O12 0.000000 0.129950 0.306432
O O13 0.155963 0.619224 0.500000
O O14 0.197352 0.500000 0.682418
O O15 0.110382 0.591257 0.753695
O O16 0.815854 0.092699 0.500000
O O17 0.804494 0.000000 0.259668
O O18 0.000000 0.384724 0.782642
O O19 0.928718 0.353640 0.000000
O O20 0.583566 0.617711 0.500000
O O21 0.500000 0.609753 0.690072
O O22 0.583880 0.500000 0.711043
O O23 0.596510 0.664423 0.777586
O O24 0.364723 0.751114 0.000000
#
# Coordination Sequence:
#
# PCOD8197853 Si02
#       8
#     8   8   8   8   8   8   8   8
#     4   9  19  38  64  91 118 152 196 241 282 329
#     4  10  21  39  57  76 106 146 193 238 276 323
#     4   9  16  29  52  80 109 138 172 218 272 330
#     4  10  21  38  60  82 103 134 181 234 282 326
#     4   9  17  31  54  82 107 134 175 227 279 327
#     4  10  20  33  52  79 111 144 176 214 268 335
#     4   9  19  38  64  91 118 151 192 234 275 327
#     4  12  25  37  55  86 122 157 191 233 286 343
#
# _framework density 19.265272
#
# number of rings (size 3 to 8) (size 9 to 14) (size 15 to 20)
#    0.000    2.250    1.250    2.625    0.000    5.500 
#    0.000    6.250    0.000    1.125    0.000    1.750 
#    0.000    0.000    0.000    0.000    0.000    0.000 
#
# Total GULP energy -793418.538523 kJ/mol
# GULP energy per Si atom -12397.164664 kJ/mol
# Density = 1.922142 g / cm^3
# Si number density = 19.265272 Si / 1000 Ang^3
#
#
#
# Elastic Constant Matrix: (Units=GPa)
#
#
# Indices 1 2 3 4 5 6 
#
# 1 111.0465 68.2796 43.5635 0.0000 0.0000 0.0000
# 2 68.2796 140.4927 39.9756 0.0000 0.0000 0.0000
# 3 43.5635 39.9756 59.1477 0.0000 0.0000 0.0000
# 4 0.0000 0.0000 0.0000 12.6149 0.0000 0.0000
# 5 0.0000 0.0000 0.0000 0.0000 10.8677 0.0000
# 6 0.0000 0.0000 0.0000 0.0000 0.0000 23.1272
#
#
#
# Elastic Compliance Matrix: (Units=1/GPa)
#
#
# Indices 1 2 3 4 5 6 
#
# 1 0.015228 -0.005212 -0.007693 0.000000 0.000000 0.000000
# 2 -0.005212 0.010596 -0.003323 0.000000 0.000000 0.000000
# 3 -0.007693 -0.003323 0.024819 0.000000 0.000000 0.000000
# 4 0.000000 0.000000 0.000000 0.079271 0.000000 0.000000
# 5 0.000000 0.000000 0.000000 0.000000 0.092016 0.000000
# 6 0.000000 0.000000 0.000000 0.000000 0.000000 0.043239
#
#
# Mechanical properties :
#
#
# Convention : Reuss Voigt Hill
#
# Bulk Modulus (GPa) = 54.98412 68.25824 61.62118
# Shear Modulus (GPa) = 16.46430 19.91319 18.18875
#
# Velocity S-wave (km/s) = 2.92654 3.21850 3.07599
# Velocity P-wave (km/s) = 6.32630 7.02277 6.68361
#
# Compressibility (1/GPa) = 0.01818707
#
# Stress axis : x y z
#
# Youngs Moduli (GPa) = 65.66926 94.37309 40.29182
#
# Poissons Ratio (x) = 0.49185 0.30997
# Poissons Ratio (y) = 0.34225 0.13389
# Poissons Ratio (z) = 0.50521 0.31361
#
# Static dielectric constant tensor:
#      x y z
#    x 3.589890 0.000000 0.000000 
#    y 0.000000 3.722990 0.000000 
#    z 0.000000 0.000000 3.282580 
# 
# 
# High freq. dielectric constant tensor:
#      x y z
#    x 1.751760 0.000000 0.000000 
#    y 0.000000 1.756910 0.000000 
#    z 0.000000 0.000000 1.720930 
# 
# From -- ./inp_files/12735.got.cif
#   From: 2010.03.12/outbox.cif.g09.slc.cpg/sg47_7_cif.got.tgz:12735.got - 2010.04.14 03:12:58.
