data_PCOD8197210
_publ_section_title
;
Structure prediction by ZEFSAII (Michael W. Deem and Ramdas Pophale) SiO2 
 PCOD8197210
Probable space group: P M M M
;
_chemical_formula_sum "Si O2"
_cell_formula_units_Z 36
_cell_length_a 9.168708
_cell_length_b 22.842876
_cell_length_c 9.439368
_cell_angle_alpha 90.000000
_cell_angle_beta 90.000000
_cell_angle_gamma 90.000000
_cell_volume 1976.978024
_symmetry_space_group_name_H-M "P M M M"
_symmetry_group_IT_number 47
_symmetry_cell_setting 'orthorhombic'
loop_
_space_group_symop_operation_xyz
x,y,z
-x,-y,z
x,-y,-z
-x,y,-z
-x,-y,-z
x,y,-z
-x,y,z
x,-y,z
loop_
_atom_site_type_symbol
_atom_site_label
_atom_site_fract_x
_atom_site_fract_y
_atom_site_fract_z
Si Si1 0.167932 0.932458 0.837799
Si Si2 0.172006 0.500000 0.335844
Si Si3 0.669637 0.401007 0.165173
Si Si4 0.326746 0.162761 0.339756
Si Si5 0.673084 0.269601 0.156595
O O1 0.268869 0.894792 0.736378
O O2 0.000000 0.916204 0.811320
O O3 0.196300 0.000000 0.801000
O O4 0.210917 0.919630 0.000000
O O5 0.217532 0.500000 0.500000
O O6 0.234933 0.557504 0.262460
O O7 0.000000 0.500000 0.316098
O O8 0.500000 0.411286 0.199733
O O9 0.718664 0.334865 0.203783
O O10 0.699327 0.414166 0.000000
O O11 0.269402 0.163400 0.500000
O O12 0.500000 0.161299 0.333058
O O13 0.264540 0.221355 0.264708
O O14 0.500000 0.266685 0.150705
O O15 0.736006 0.255883 0.000000
#
# Coordination Sequence:
#
# PCOD8197210 Si02
#       5
#     8   4   8   8   8
#     4   9  19  36  55  73  95 128 172 216 253 293
#     4  11  24  37  48  70 106 141 170 203 246 296
#     4   9  18  34  57  81 100 124 166 213 251 294
#     4  10  20  32  49  77 109 136 163 199 246 300
#     4   8  15  30  52  76 101 129 163 205 249 292
#
# _framework density 18.209610000000001
#
# number of rings (size 3 to 8) (size 9 to 14) (size 15 to 20)
#    0.000    2.778    0.000    3.333    0.000    6.222 
#    0.000    6.667    0.000    1.333    0.000    0.000 
#    0.000    0.000    0.000    0.000    0.000    0.000 
#
# Total GULP energy -446355.517413 kJ/mol
# GULP energy per Si atom -12398.764373 kJ/mol
# Density = 1.816816 g / cm^3
# Si number density = 18.209610 Si / 1000 Ang^3
#
#
#
# Elastic Constant Matrix: (Units=GPa)
#
#
# Indices 1 2 3 4 5 6 
#
# 1 36.5893 36.4328 41.9250 0.0000 0.0000 0.0000
# 2 36.4328 133.8167 88.9218 0.0000 0.0000 0.0000
# 3 41.9250 88.9218 133.2654 0.0000 0.0000 0.0000
# 4 0.0000 0.0000 0.0000 8.9217 0.0000 0.0000
# 5 0.0000 0.0000 0.0000 0.0000 26.3319 0.0000
# 6 0.0000 0.0000 0.0000 0.0000 0.0000 -3.7418
#
#
#
# Elastic Compliance Matrix: (Units=1/GPa)
#
#
# Indices 1 2 3 4 5 6 
#
# 1 0.044565 -0.005061 -0.010643 0.000000 0.000000 0.000000
# 2 -0.005061 0.014001 -0.007750 0.000000 0.000000 0.000000
# 3 -0.010643 -0.007750 0.016023 0.000000 0.000000 0.000000
# 4 0.000000 0.000000 0.000000 0.112086 0.000000 0.000000
# 5 0.000000 0.000000 0.000000 0.000000 0.037977 0.000000
# 6 0.000000 0.000000 0.000000 0.000000 0.000000 -0.267249
#
#
# Mechanical properties :
#
#
# Convention : Reuss Voigt Hill
#
# Bulk Modulus (GPa) = 36.12578 70.91454 53.52016
# Shear Modulus (GPa) = 369.36044 15.39513 192.37778
#
# Velocity S-wave (km/s) = 14.25758 2.91080 10.28959
# Velocity P-wave (km/s) = 17.05638 7.09401 13.06225
#
# Compressibility (1/GPa) = 0.02768107
#
# Stress axis : x y z
#
# Youngs Moduli (GPa) = 22.43926 71.42590 62.40934
#
# Poissons Ratio (x) = 0.36147 0.66424
# Poissons Ratio (y) = 0.11356 0.48366
# Poissons Ratio (z) = 0.23883 0.55354
#
# Static dielectric constant tensor:
#      x y z
#    x 3.012540 0.000000 0.000000 
#    y 0.000000 3.524680 0.000000 
#    z 0.000000 0.000000 3.500680 
# 
# 
# High freq. dielectric constant tensor:
#      x y z
#    x 1.673670 0.000000 0.000000 
#    y 0.000000 1.720400 0.000000 
#    z 0.000000 0.000000 1.706360 
# 
# From -- ./inp_files/1432.got.cif
#   From: 2010.03.12/outbox.cif.g09.slc.cpg/sg47_1_cif.got.tgz:1432.got - 2010.04.14 03:12:58.
