data_PCOD8197864
_publ_section_title
;
Structure prediction by ZEFSAII (Michael W. Deem and Ramdas Pophale) SiO2 
 PCOD8197864
Probable space group: P M M M
;
_chemical_formula_sum "Si O2"
_cell_formula_units_Z 40
_cell_length_a 25.507625
_cell_length_b 8.723623
_cell_length_c 9.176171
_cell_angle_alpha 90.000000
_cell_angle_beta 90.000000
_cell_angle_gamma 90.000000
_cell_volume 2041.871515
_symmetry_space_group_name_H-M "P M M M"
_symmetry_group_IT_number 47
_symmetry_cell_setting 'orthorhombic'
loop_
_space_group_symop_operation_xyz
x,y,z
-x,-y,z
x,-y,-z
-x,y,-z
-x,-y,-z
x,y,-z
-x,y,z
x,-y,z
loop_
_atom_site_type_symbol
_atom_site_label
_atom_site_fract_x
_atom_site_fract_y
_atom_site_fract_z
Si Si1 0.847817 0.177700 0.830693
Si Si2 0.752297 0.678636 0.668130
Si Si3 0.656520 0.181854 0.163029
Si Si4 0.060363 0.677051 0.667671
Si Si5 0.442190 0.817690 0.663615
O O1 0.806552 0.280529 0.744799
O O2 0.905549 0.215362 0.771667
O O3 0.835040 0.000000 0.804681
O O4 0.844865 0.220136 0.000000
O O5 0.756156 0.726786 0.500000
O O6 0.741215 0.500000 0.686808
O O7 0.705359 0.770851 0.740288
O O8 0.602711 0.249599 0.231102
O O9 0.654140 0.000000 0.159135
O O10 0.662705 0.248313 0.000000
O O11 0.074137 0.712554 0.500000
O O12 0.072301 0.500000 0.702600
O O13 0.000000 0.715507 0.699624
O O14 0.431873 0.756830 0.500000
O O15 0.500000 0.763471 0.717201
O O16 0.439946 0.000000 0.663624
#
# Coordination Sequence:
#
# PCOD8197864 Si02
#       5
#     8   8   8   8   8
#     4  11  24  39  56  82 114 144 177 220 269 320
#     4  11  24  40  58  79 103 136 180 225 269 321
#     4  10  20  33  52  80 111 141 175 217 266 319
#     4   9  19  37  60  85 113 146 185 225 263 309
#     4   8  14  26  46  73 105 141 179 217 259 309
#
# _framework density 19.589870000000001
#
# number of rings (size 3 to 8) (size 9 to 14) (size 15 to 20)
#    0.000    2.200    0.000    4.200    0.000   10.800 
#    0.000    5.000    0.000    0.600    0.000    4.200 
#    0.000    0.000    0.000    0.000    0.000    0.000 
#
# Total GULP energy -496053.235999 kJ/mol
# GULP energy per Si atom -12401.330900 kJ/mol
# Density = 1.954528 g / cm^3
# Si number density = 19.589870 Si / 1000 Ang^3
#
#
#
# Elastic Constant Matrix: (Units=GPa)
#
#
# Indices 1 2 3 4 5 6 
#
# 1 122.1847 13.8941 64.1483 0.0000 0.0000 0.0000
# 2 13.8941 20.4795 27.4454 0.0000 0.0000 0.0000
# 3 64.1483 27.4454 132.0741 0.0000 0.0000 0.0000
# 4 0.0000 0.0000 0.0000 24.3527 0.0000 0.0000
# 5 0.0000 0.0000 0.0000 0.0000 15.2470 0.0000
# 6 0.0000 0.0000 0.0000 0.0000 0.0000 -2.5149
#
#
#
# Elastic Compliance Matrix: (Units=1/GPa)
#
#
# Indices 1 2 3 4 5 6 
#
# 1 0.010988 -0.000419 -0.005250 0.000000 0.000000 0.000000
# 2 -0.000419 0.067692 -0.013863 0.000000 0.000000 0.000000
# 3 -0.005250 -0.013863 0.013002 0.000000 0.000000 0.000000
# 4 0.000000 0.000000 0.000000 0.041063 0.000000 0.000000
# 5 0.000000 0.000000 0.000000 0.000000 0.065587 0.000000
# 6 0.000000 0.000000 0.000000 0.000000 0.000000 -0.397627
#
#
# Mechanical properties :
#
#
# Convention : Reuss Voigt Hill
#
# Bulk Modulus (GPa) = 19.00480 53.96819 36.48649
# Shear Modulus (GPa) = -35.04071 18.70034 -8.17018
#
# Velocity S-wave (km/s) = -4.23391 3.09300 -2.04442
# Velocity P-wave (km/s) = 3.76549 6.35330 3.61839
#
# Compressibility (1/GPa) = 0.05261830
#
# Stress axis : x y z
#
# Youngs Moduli (GPa) = 91.00646 14.77275 76.91067
#
# Poissons Ratio (x) = 0.00619 0.40377
# Poissons Ratio (y) = 0.03816 1.06621
# Poissons Ratio (z) = 0.47777 0.20479
#
# Static dielectric constant tensor:
#      x y z
#    x 3.764270 0.000000 0.000000 
#    y 0.000000 3.242550 0.000000 
#    z 0.000000 0.000000 3.769600 
# 
# 
# High freq. dielectric constant tensor:
#      x y z
#    x 1.779820 0.000000 0.000000 
#    y 0.000000 1.733490 0.000000 
#    z 0.000000 0.000000 1.769550 
# 
# From -- ./inp_files/1353.got.cif
#   From: 2010.03.12/outbox.cif.g09.slc.cpg/sg47_1_cif.got.tgz:1353.got - 2010.04.14 03:12:58.
