data_PCOD8197699
_publ_section_title
;
Structure prediction by ZEFSAII (Michael W. Deem and Ramdas Pophale) SiO2 
 PCOD8197699
Probable space group: P M M M
;
_chemical_formula_sum "Si O2"
_cell_formula_units_Z 40
_cell_length_a 8.169126
_cell_length_b 19.681909
_cell_length_c 13.322356
_cell_angle_alpha 90.000000
_cell_angle_beta 90.000000
_cell_angle_gamma 90.000000
_cell_volume 2142.021614
_symmetry_space_group_name_H-M "P M M M"
_symmetry_group_IT_number 47
_symmetry_cell_setting 'orthorhombic'
loop_
_space_group_symop_operation_xyz
x,y,z
-x,-y,z
x,-y,-z
-x,y,-z
-x,-y,-z
x,y,-z
-x,y,z
x,-y,z
loop_
_atom_site_type_symbol
_atom_site_label
_atom_site_fract_x
_atom_site_fract_y
_atom_site_fract_z
Si Si1 0.185769 0.821954 0.382954
Si Si2 0.316392 0.078492 0.232438
Si Si3 0.308456 0.576424 0.210779
Si Si4 0.808834 0.578220 0.000000
Si Si5 0.192809 0.329329 0.610870
Si Si6 0.000000 0.919482 0.110392
O O1 0.190449 0.836607 0.500000
O O2 0.305099 0.876486 0.332226
O O3 0.254309 0.746157 0.359925
O O4 0.000000 0.830729 0.342417
O O5 0.500000 0.087756 0.185425
O O6 0.170620 0.104996 0.160314
O O7 0.287469 0.000000 0.261110
O O8 0.500000 0.574307 0.220553
O O9 0.234387 0.500000 0.216691
O O10 0.260983 0.610789 0.103314
O O11 0.241266 0.617928 0.304224
O O12 0.753452 0.500000 0.000000
O O13 0.000000 0.589044 0.000000
O O14 0.262565 0.350434 0.500000
O O15 0.000000 0.325931 0.602216
O O16 0.000000 0.000000 0.105753
O O17 0.000000 0.887193 0.000000
#
# Coordination Sequence:
#
# PCOD8197699 Si02
#       6
#     8   8   8   4   8   4
#     4   9  18  34  55  76 103 140 175 212 263 318
#     4  10  20  33  53  82 110 138 177 221 265 317
#     4  10  20  33  51  76 106 137 169 212 263 313
#     4   9  17  31  53  77  99 129 170 211 258 313
#     4   9  19  35  54  76 102 137 179 217 258 311
#     4   9  18  34  55  77 105 141 177 218 270 318
#
# _framework density 18.673947999999999
#
# number of rings (size 3 to 8) (size 9 to 14) (size 15 to 20)
#    0.000    2.600    1.000    2.100    0.000    5.200 
#    0.000    8.000    2.200    0.000    0.000    0.000 
#    0.000    0.000    0.000    0.000    0.000    0.000 
#
# Total GULP energy -495693.223875 kJ/mol
# GULP energy per Si atom -12392.330597 kJ/mol
# Density = 1.863144 g / cm^3
# Si number density = 18.673948 Si / 1000 Ang^3
#
#
#
# Elastic Constant Matrix: (Units=GPa)
#
#
# Indices 1 2 3 4 5 6 
#
# 1 72.2566 28.1530 35.6289 0.0000 0.0000 0.0000
# 2 28.1530 70.4858 62.7557 0.0000 0.0000 0.0000
# 3 35.6289 62.7557 127.7563 0.0000 0.0000 0.0000
# 4 0.0000 0.0000 0.0000 2.9376 0.0000 0.0000
# 5 0.0000 0.0000 0.0000 0.0000 16.9437 0.0000
# 6 0.0000 0.0000 0.0000 0.0000 0.0000 20.2731
#
#
#
# Elastic Compliance Matrix: (Units=1/GPa)
#
#
# Indices 1 2 3 4 5 6 
#
# 1 0.016818 -0.004517 -0.002471 0.000000 0.000000 0.000000
# 2 -0.004517 0.026428 -0.011722 0.000000 0.000000 0.000000
# 3 -0.002471 -0.011722 0.014275 0.000000 0.000000 0.000000
# 4 0.000000 0.000000 0.000000 0.340412 0.000000 0.000000
# 5 0.000000 0.000000 0.000000 0.000000 0.059019 0.000000
# 6 0.000000 0.000000 0.000000 0.000000 0.000000 0.049326
#
#
# Mechanical properties :
#
#
# Convention : Reuss Voigt Hill
#
# Bulk Modulus (GPa) = 49.75190 58.17489 53.96340
# Shear Modulus (GPa) = 9.08432 17.62830 13.35631
#
# Velocity S-wave (km/s) = 2.20800 3.07580 2.67729
# Velocity P-wave (km/s) = 5.76200 6.62077 6.20626
#
# Compressibility (1/GPa) = 0.02009974
#
# Stress axis : x y z
#
# Youngs Moduli (GPa) = 59.45960 37.83883 70.05407
#
# Poissons Ratio (x) = 0.17092 0.17314
# Poissons Ratio (y) = 0.26858 0.82118
# Poissons Ratio (z) = 0.14695 0.44355
#
# Static dielectric constant tensor:
#      x y z
#    x 3.456780 0.000000 0.000000 
#    y 0.000000 3.648360 0.000000 
#    z 0.000000 0.000000 3.407610 
# 
# 
# High freq. dielectric constant tensor:
#      x y z
#    x 1.728050 0.000000 0.000000 
#    y 0.000000 1.696290 0.000000 
#    z 0.000000 0.000000 1.724640 
# 
# From -- ./inp_files/15093.got.cif
#   From: 2010.03.12/outbox.cif.g09.slc.cpg/sg47_8_cif.got.tgz:15093.got - 2010.04.14 03:12:58.
