data_PCOD8197015
_publ_section_title
;
Structure prediction by ZEFSAII (Michael W. Deem and Ramdas Pophale) SiO2 
 PCOD8197015
Probable space group: P M M M
;
_chemical_formula_sum "Si O2"
_cell_formula_units_Z 44
_cell_length_a 9.291162
_cell_length_b 9.034114
_cell_length_c 28.605567
_cell_angle_alpha 90.000000
_cell_angle_beta 90.000000
_cell_angle_gamma 90.000000
_cell_volume 2401.077397
_symmetry_space_group_name_H-M "P M M M"
_symmetry_group_IT_number 47
_symmetry_cell_setting 'orthorhombic'
loop_
_space_group_symop_operation_xyz
x,y,z
-x,-y,z
x,-y,-z
-x,y,-z
-x,-y,-z
x,y,-z
-x,y,z
x,-y,z
loop_
_atom_site_type_symbol
_atom_site_label
_atom_site_fract_x
_atom_site_fract_y
_atom_site_fract_z
Si Si1 0.838667 0.824316 0.948569
Si Si2 0.828417 0.167115 0.500000
Si Si3 0.171171 0.166775 0.683074
Si Si4 0.833624 0.326080 0.776648
Si Si5 0.668210 0.827094 0.140415
Si Si6 0.828276 0.667187 0.591784
O O1 0.730485 0.766633 0.908814
O O2 0.000000 0.767751 0.937172
O O3 0.836962 0.000000 0.949368
O O4 0.790591 0.765439 0.000000
O O5 0.769253 0.250125 0.454151
O O6 0.000000 0.167607 0.500000
O O7 0.769264 0.000000 0.500000
O O8 0.224234 0.251452 0.729221
O O9 0.232756 0.249735 0.637482
O O10 0.000000 0.166308 0.681044
O O11 0.231953 0.000000 0.683963
O O12 0.811381 0.500000 0.771689
O O13 0.740284 0.265377 0.818811
O O14 0.000000 0.285154 0.785654
O O15 0.500000 0.795747 0.140483
O O16 0.703688 0.000000 0.147616
O O17 0.769480 0.500000 0.591717
O O18 0.000000 0.668055 0.592084
#
# Coordination Sequence:
#
# PCOD8197015 Si02
#       6
#     8   4   8   8   8   8
#     4   8  14  26  46  72 100 129 161 197 236 278
#     4   9  15  21  29  43  67 103 146 187 228 277
#     4   9  16  26  41  60  81 107 143 189 237 283
#     4  10  20  33  49  68  90 120 159 200 242 288
#     4  10  20  32  48  72 100 129 160 195 238 287
#     4   9  15  22  32  48  73 105 142 184 230 281
#
# _framework density 18.325106999999999
#
# number of rings (size 3 to 8) (size 9 to 14) (size 15 to 20)
#    0.000    2.818    0.000    3.000    0.000    8.000 
#    0.000    1.818    0.000    0.545    0.000    3.818 
#    0.000    0.000    0.000    0.818    0.000   16.000 
#
# Total GULP energy -545508.096805 kJ/mol
# GULP energy per Si atom -12397.911291 kJ/mol
# Density = 1.828340 g / cm^3
# Si number density = 18.325107 Si / 1000 Ang^3
#
#
#
# Elastic Constant Matrix: (Units=GPa)
#
#
# Indices 1 2 3 4 5 6 
#
# 1 42.0674 32.7055 48.0960 0.0000 0.0000 0.0000
# 2 32.7055 117.3573 80.8255 0.0000 0.0000 0.0000
# 3 48.0960 80.8255 193.2463 0.0000 0.0000 0.0000
# 4 0.0000 0.0000 0.0000 11.7787 0.0000 0.0000
# 5 0.0000 0.0000 0.0000 0.0000 -0.9060 0.0000
# 6 0.0000 0.0000 0.0000 0.0000 0.0000 12.5646
#
#
#
# Elastic Compliance Matrix: (Units=1/GPa)
#
#
# Indices 1 2 3 4 5 6 
#
# 1 0.035461 -0.005343 -0.006591 0.000000 0.000000 0.000000
# 2 -0.005343 0.012774 -0.004013 0.000000 0.000000 0.000000
# 3 -0.006591 -0.004013 0.008493 0.000000 0.000000 0.000000
# 4 0.000000 0.000000 0.000000 0.084899 0.000000 0.000000
# 5 0.000000 0.000000 0.000000 0.000000 -1.103713 0.000000
# 6 0.000000 0.000000 0.000000 0.000000 0.000000 0.079589
#
#
# Mechanical properties :
#
#
# Convention : Reuss Voigt Hill
#
# Bulk Modulus (GPa) = 40.26674 75.10278 57.68476
# Shear Modulus (GPa) = -5.93595 17.42372 5.74389
#
# Velocity S-wave (km/s) = -1.80174 3.08687 1.77235
# Velocity P-wave (km/s) = 4.20629 7.33332 5.97789
#
# Compressibility (1/GPa) = 0.02483439
#
# Stress axis : x y z
#
# Youngs Moduli (GPa) = 28.20019 78.28600 117.73748
#
# Poissons Ratio (x) = 0.41829 0.77599
# Poissons Ratio (y) = 0.15068 0.47246
# Poissons Ratio (z) = 0.18586 0.31415
#
# Static dielectric constant tensor:
#      x y z
#    x 2.858880 0.000000 0.000000 
#    y 0.000000 3.320920 0.000000 
#    z 0.000000 0.000000 3.747510 
# 
# 
# High freq. dielectric constant tensor:
#      x y z
#    x 1.647210 0.000000 0.000000 
#    y 0.000000 1.700650 0.000000 
#    z 0.000000 0.000000 1.732540 
# 
# From -- ./inp_files/1959.got.cif
#   From: 2010.03.12/outbox.cif.g09.slc.cpg/sg47_1_cif.got.tgz:1959.got - 2010.04.14 03:12:58.
